MODEL        1
REMARK 921   NORMALIZED FREE ENERGY PREDICTED BY IDOCK:   -8.50 KCAL/MOL
REMARK 922        TOTAL FREE ENERGY PREDICTED BY IDOCK:  -10.95 KCAL/MOL
REMARK 923 INTER-LIGAND FREE ENERGY PREDICTED BY IDOCK:   -9.99 KCAL/MOL
REMARK 924 INTRA-LIGAND FREE ENERGY PREDICTED BY IDOCK:   -0.96 KCAL/MOL
REMARK 927      BINDING AFFINITY PREDICTED BY RF-SCORE:    0.00 PKD
ROOT
HETATM    1  O   UNL     1     -12.162  15.507  63.718  1.00  0.00    -0.996 OA 
HETATM    2  H   UNL     1     -12.709  16.283  63.743  1.00  0.00     0.000 HD 
HETATM    3  C   UNL     1     -11.182  15.519  64.748  1.00  0.00    -0.390 C  
ENDROOT
BRANCH   3   4
HETATM    4  C   UNL     1     -10.298  14.264  64.707  1.00  0.00    -0.343 C  
HETATM    5  O   UNL     1      -9.782  13.948  66.010  1.00  0.00    -0.293 OA 
HETATM    6  C   UNL     1     -10.679  13.272  66.906  1.00  0.00    -0.271 C  
HETATM    7  C   UNL     1     -11.229  11.966  66.279  1.00  0.00    -0.337 C  
HETATM    8  H   UNL     1     -13.546  12.996  64.212  1.00  0.00     0.000 HD 
HETATM    9  H   UNL     1     -10.214  11.460  63.081  1.00  0.00     0.000 HD 
HETATM   10  O   UNL     1     -10.213  10.962  66.122  1.00  0.00    -0.235 OA 
HETATM   11  C   UNL     1     -11.864  12.234  64.904  1.00  0.00    -0.358 C  
HETATM   12  H   UNL     1     -10.550  10.162  65.738  1.00  0.00     0.000 HD 
HETATM   13  C   UNL     1     -10.917  13.039  63.993  1.00  0.00    -0.389 C  
HETATM   14  O   UNL     1      -9.834  12.212  63.519  1.00  0.00    -0.362 OA 
HETATM   15  O   UNL     1     -13.153  12.831  65.061  1.00  0.00    -0.811 OA 
BRANCH   6  16
HETATM   16  O   UNL     1     -11.775  14.112  67.277  1.00  0.00    -0.351 OA 
BRANCH  16  17
HETATM   17  C   UNL     1     -11.730  14.796  68.456  1.00  0.00    -0.317 A  
HETATM   18  O   UNL     1     -10.024  16.404  67.859  1.00  0.00    -0.236 OA 
HETATM   19  C   UNL     1     -10.909  16.449  70.032  1.00  0.00    -0.306 A  
HETATM   20  H   UNL     1      -9.466  17.145  68.064  1.00  0.00     0.000 HD 
HETATM   21  C   UNL     1     -11.712  15.885  71.020  1.00  0.00    -0.432 A  
HETATM   22  C   UNL     1     -10.910  15.885  68.757  1.00  0.00    -0.284 A  
HETATM   23  O   UNL     1     -11.640  16.440  72.313  1.00  0.00    -0.442 OA 
HETATM   24  C   UNL     1     -12.374  15.909  73.365  1.00  0.00    -0.538 C  
HETATM   25  O   UNL     1     -12.306  16.352  74.505  1.00  0.00    -0.689 OA 
HETATM   26  C   UNL     1     -13.259  14.770  73.056  1.00  0.00    -0.592 C  
HETATM   27  C   UNL     1     -13.342  14.242  71.829  1.00  0.00    -0.450 C  
HETATM   28  C   UNL     1     -12.532  14.791  70.756  1.00  0.00    -0.402 A  
HETATM   29  C   UNL     1     -12.535  14.251  69.467  1.00  0.00    -0.169 A  
ENDBRANCH  16  17
ENDBRANCH   6  16
ENDBRANCH   3   4
TORSDOF 3
ENDMDL
MODEL        2
REMARK 921   NORMALIZED FREE ENERGY PREDICTED BY IDOCK:   -8.29 KCAL/MOL
REMARK 922        TOTAL FREE ENERGY PREDICTED BY IDOCK:  -10.70 KCAL/MOL
REMARK 923 INTER-LIGAND FREE ENERGY PREDICTED BY IDOCK:   -9.61 KCAL/MOL
REMARK 924 INTRA-LIGAND FREE ENERGY PREDICTED BY IDOCK:   -1.09 KCAL/MOL
REMARK 927      BINDING AFFINITY PREDICTED BY RF-SCORE:    0.00 PKD
ROOT
HETATM    1  O   UNL     1      -8.425  11.695  65.614  1.00  0.00    -0.383 OA 
HETATM    2  H   UNL     1      -7.649  11.518  66.131  1.00  0.00     0.000 HD 
HETATM    3  C   UNL     1      -9.607  11.256  66.271  1.00  0.00    -0.209 C  
ENDROOT
BRANCH   3   4
HETATM    4  C   UNL     1     -10.863  11.544  65.435  1.00  0.00    -0.259 C  
HETATM    5  O   UNL     1     -12.008  11.766  66.275  1.00  0.00    -0.490 OA 
HETATM    6  C   UNL     1     -12.121  13.069  66.870  1.00  0.00    -0.285 C  
HETATM    7  C   UNL     1     -12.090  14.186  65.796  1.00  0.00    -0.420 C  
HETATM    8  H   UNL     1      -8.922  14.452  65.024  1.00  0.00     0.000 HD 
HETATM    9  H   UNL     1     -11.580  13.034  62.646  1.00  0.00     0.000 HD 
HETATM   10  O   UNL     1     -13.259  14.180  64.962  1.00  0.00    -0.691 OA 
HETATM   11  C   UNL     1     -10.849  14.058  64.895  1.00  0.00    -0.410 C  
HETATM   12  H   UNL     1     -13.240  14.864  64.304  1.00  0.00     0.000 HD 
HETATM   13  C   UNL     1     -10.700  12.627  64.343  1.00  0.00    -0.359 C  
HETATM   14  O   UNL     1     -11.680  12.369  63.317  1.00  0.00    -0.453 OA 
HETATM   15  O   UNL     1      -9.687  14.531  65.580  1.00  0.00    -0.316 OA 
BRANCH   6  16
HETATM   16  O   UNL     1     -11.076  13.300  67.818  1.00  0.00    -0.250 OA 
BRANCH  16  17
HETATM   17  C   UNL     1     -11.274  14.188  68.834  1.00  0.00    -0.267 A  
HETATM   18  O   UNL     1      -9.919  16.001  67.980  1.00  0.00    -0.225 OA 
HETATM   19  C   UNL     1     -10.960  16.255  70.068  1.00  0.00    -0.356 A  
HETATM   20  H   UNL     1      -9.554  16.875  68.049  1.00  0.00     0.000 HD 
HETATM   21  C   UNL     1     -11.696  15.720  71.123  1.00  0.00    -0.428 A  
HETATM   22  C   UNL     1     -10.738  15.473  68.935  1.00  0.00    -0.242 A  
HETATM   23  O   UNL     1     -11.848  16.512  72.278  1.00  0.00    -0.519 OA 
HETATM   24  C   UNL     1     -12.529  16.037  73.390  1.00  0.00    -0.558 C  
HETATM   25  O   UNL     1     -12.649  16.692  74.419  1.00  0.00    -0.710 OA 
HETATM   26  C   UNL     1     -13.117  14.689  73.290  1.00  0.00    -0.505 C  
HETATM   27  C   UNL     1     -12.986  13.931  72.193  1.00  0.00    -0.441 C  
HETATM   28  C   UNL     1     -12.234  14.437  71.059  1.00  0.00    -0.422 A  
HETATM   29  C   UNL     1     -12.018  13.676  69.907  1.00  0.00    -0.415 A  
ENDBRANCH  16  17
ENDBRANCH   6  16
ENDBRANCH   3   4
TORSDOF 3
ENDMDL
MODEL        3
REMARK 921   NORMALIZED FREE ENERGY PREDICTED BY IDOCK:   -7.77 KCAL/MOL
REMARK 922        TOTAL FREE ENERGY PREDICTED BY IDOCK:  -10.10 KCAL/MOL
REMARK 923 INTER-LIGAND FREE ENERGY PREDICTED BY IDOCK:   -9.56 KCAL/MOL
REMARK 924 INTRA-LIGAND FREE ENERGY PREDICTED BY IDOCK:   -0.53 KCAL/MOL
REMARK 927      BINDING AFFINITY PREDICTED BY RF-SCORE:    0.00 PKD
ROOT
HETATM    1  O   UNL     1     -11.554  16.182  63.900  1.00  0.00    -1.369 OA 
HETATM    2  H   UNL     1     -12.159  16.885  64.108  1.00  0.00     0.000 HD 
HETATM    3  C   UNL     1     -11.399  15.281  64.989  1.00  0.00    -0.358 C  
ENDROOT
BRANCH   3   4
HETATM    4  C   UNL     1     -10.421  14.146  64.653  1.00  0.00    -0.339 C  
HETATM    5  O   UNL     1      -9.826  13.603  65.843  1.00  0.00    -0.289 OA 
HETATM    6  C   UNL     1     -10.627  12.675  66.592  1.00  0.00    -0.248 C  
HETATM    7  C   UNL     1     -11.097  11.492  65.709  1.00  0.00    -0.210 C  
HETATM    8  H   UNL     1     -13.576  12.738  63.975  1.00  0.00     0.000 HD 
HETATM    9  H   UNL     1     -10.185  11.776  62.453  1.00  0.00     0.000 HD 
HETATM   10  O   UNL     1     -10.013  10.637  65.312  1.00  0.00    -0.255 OA 
HETATM   11  C   UNL     1     -11.811  11.993  64.442  1.00  0.00    -0.313 C  
HETATM   12  H   UNL     1     -10.302   9.912  64.771  1.00  0.00     0.000 HD 
HETATM   13  C   UNL     1     -10.970  13.055  63.706  1.00  0.00    -0.278 C  
HETATM   14  O   UNL     1      -9.847  12.446  63.036  1.00  0.00    -0.220 OA 
HETATM   15  O   UNL     1     -13.135  12.428  64.757  1.00  0.00    -0.806 OA 
BRANCH   6  16
HETATM   16  O   UNL     1     -11.769  13.317  67.164  1.00  0.00    -0.335 OA 
BRANCH  16  17
HETATM   17  C   UNL     1     -11.909  13.357  68.520  1.00  0.00    -0.366 A  
HETATM   18  O   UNL     1     -12.549  11.050  68.871  1.00  0.00    -0.633 OA 
HETATM   19  C   UNL     1     -12.458  12.493  70.721  1.00  0.00    -0.357 A  
HETATM   20  H   UNL     1     -12.799  10.330  69.437  1.00  0.00     0.000 HD 
HETATM   21  C   UNL     1     -12.305  13.773  71.246  1.00  0.00    -0.308 A  
HETATM   22  C   UNL     1     -12.277  12.298  69.352  1.00  0.00    -0.065 A  
HETATM   23  O   UNL     1     -12.556  13.947  72.622  1.00  0.00    -0.183 OA 
HETATM   24  C   UNL     1     -12.469  15.198  73.216  1.00  0.00    -0.483 C  
HETATM   25  O   UNL     1     -12.713  15.383  74.402  1.00  0.00    -0.476 OA 
HETATM   26  C   UNL     1     -12.062  16.322  72.352  1.00  0.00    -0.598 C  
HETATM   27  C   UNL     1     -11.812  16.166  71.046  1.00  0.00    -0.368 C  
HETATM   28  C   UNL     1     -11.950  14.853  70.442  1.00  0.00    -0.368 A  
HETATM   29  C   UNL     1     -11.754  14.635  69.075  1.00  0.00    -0.339 A  
ENDBRANCH  16  17
ENDBRANCH   6  16
ENDBRANCH   3   4
TORSDOF 3
ENDMDL
MODEL        4
REMARK 921   NORMALIZED FREE ENERGY PREDICTED BY IDOCK:   -7.38 KCAL/MOL
REMARK 922        TOTAL FREE ENERGY PREDICTED BY IDOCK:   -9.63 KCAL/MOL
REMARK 923 INTER-LIGAND FREE ENERGY PREDICTED BY IDOCK:   -8.89 KCAL/MOL
REMARK 924 INTRA-LIGAND FREE ENERGY PREDICTED BY IDOCK:   -0.74 KCAL/MOL
REMARK 927      BINDING AFFINITY PREDICTED BY RF-SCORE:    0.00 PKD
ROOT
HETATM    1  O   UNL     1     -10.626  19.776  65.221  1.00  0.00    -0.368 OA 
HETATM    2  H   UNL     1     -11.364  19.499  64.692  1.00  0.00     0.000 HD 
HETATM    3  C   UNL     1     -10.908  19.682  66.611  1.00  0.00    -0.362 C  
ENDROOT
BRANCH   3   4
HETATM    4  C   UNL     1      -9.714  20.131  67.465  1.00  0.00    -0.421 C  
HETATM    5  O   UNL     1      -9.676  19.428  68.718  1.00  0.00    -0.406 OA 
HETATM    6  C   UNL     1      -9.138  18.096  68.688  1.00  0.00    -0.277 C  
HETATM    7  C   UNL     1      -7.711  18.075  68.085  1.00  0.00    -0.272 C  
HETATM    8  H   UNL     1      -8.213  18.299  64.860  1.00  0.00     0.000 HD 
HETATM    9  H   UNL     1      -6.660  21.104  66.971  1.00  0.00     0.000 HD 
HETATM   10  O   UNL     1      -6.748  18.725  68.930  1.00  0.00    -0.261 OA 
HETATM   11  C   UNL     1      -7.681  18.752  66.703  1.00  0.00    -0.248 C  
HETATM   12  H   UNL     1      -5.873  18.713  68.560  1.00  0.00     0.000 HD 
HETATM   13  C   UNL     1      -8.346  20.142  66.743  1.00  0.00    -0.301 C  
HETATM   14  O   UNL     1      -7.500  21.097  67.415  1.00  0.00    -0.406 OA 
HETATM   15  O   UNL     1      -8.232  17.881  65.712  1.00  0.00    -0.530 OA 
BRANCH   6  16
HETATM   16  O   UNL     1      -9.977  17.213  67.939  1.00  0.00    -0.272 OA 
BRANCH  16  17
HETATM   17  C   UNL     1     -10.683  16.244  68.589  1.00  0.00    -0.309 A  
HETATM   18  O   UNL     1     -11.016  14.745  66.718  1.00  0.00    -0.313 OA 
HETATM   19  C   UNL     1     -11.959  14.189  68.794  1.00  0.00    -0.367 A  
HETATM   20  H   UNL     1     -11.358  13.944  66.340  1.00  0.00     0.000 HD 
HETATM   21  C   UNL     1     -12.260  14.524  70.111  1.00  0.00    -0.342 A  
HETATM   22  C   UNL     1     -11.186  15.065  68.033  1.00  0.00    -0.316 A  
HETATM   23  O   UNL     1     -13.095  13.647  70.832  1.00  0.00    -0.228 OA 
HETATM   24  C   UNL     1     -13.478  13.929  72.136  1.00  0.00    -0.485 C  
HETATM   25  O   UNL     1     -14.229  13.201  72.774  1.00  0.00    -0.608 OA 
HETATM   26  C   UNL     1     -12.938  15.161  72.741  1.00  0.00    -0.522 C  
HETATM   27  C   UNL     1     -12.136  15.996  72.068  1.00  0.00    -0.606 C  
HETATM   28  C   UNL     1     -11.784  15.697  70.692  1.00  0.00    -0.398 A  
HETATM   29  C   UNL     1     -10.993  16.554  69.920  1.00  0.00    -0.273 A  
ENDBRANCH  16  17
ENDBRANCH   6  16
ENDBRANCH   3   4
TORSDOF 3
ENDMDL
MODEL        5
REMARK 921   NORMALIZED FREE ENERGY PREDICTED BY IDOCK:   -7.27 KCAL/MOL
REMARK 922        TOTAL FREE ENERGY PREDICTED BY IDOCK:   -9.51 KCAL/MOL
REMARK 923 INTER-LIGAND FREE ENERGY PREDICTED BY IDOCK:   -8.66 KCAL/MOL
REMARK 924 INTRA-LIGAND FREE ENERGY PREDICTED BY IDOCK:   -0.85 KCAL/MOL
REMARK 927      BINDING AFFINITY PREDICTED BY RF-SCORE:    0.00 PKD
ROOT
HETATM    1  O   UNL     1     -12.674  11.331  62.605  1.00  0.00    -0.801 OA 
HETATM    2  H   UNL     1     -13.618  11.230  62.609  1.00  0.00     0.000 HD 
HETATM    3  C   UNL     1     -12.206  11.967  63.787  1.00  0.00    -0.498 C  
ENDROOT
BRANCH   3   4
HETATM    4  C   UNL     1     -10.680  12.131  63.780  1.00  0.00    -0.437 C  
HETATM    5  O   UNL     1     -10.261  13.151  64.701  1.00  0.00    -0.349 OA 
HETATM    6  C   UNL     1     -10.202  12.777  66.087  1.00  0.00    -0.275 C  
HETATM    7  C   UNL     1      -9.296  11.538  66.301  1.00  0.00    -0.213 C  
HETATM    8  H   UNL     1     -11.164   9.022  65.361  1.00  0.00     0.000 HD 
HETATM    9  H   UNL     1      -8.080  10.226  63.418  1.00  0.00     0.000 HD 
HETATM   10  O   UNL     1      -7.910  11.821  66.050  1.00  0.00    -0.357 OA 
HETATM   11  C   UNL     1      -9.726  10.371  65.396  1.00  0.00    -0.265 C  
HETATM   12  H   UNL     1      -7.355  11.061  66.181  1.00  0.00     0.000 HD 
HETATM   13  C   UNL     1      -9.871  10.821  63.929  1.00  0.00    -0.332 C  
HETATM   14  O   UNL     1      -8.577  11.031  63.327  1.00  0.00    -0.107 OA 
HETATM   15  O   UNL     1     -10.899   9.742  65.920  1.00  0.00     0.198 OA 
BRANCH   6  16
HETATM   16  O   UNL     1     -11.505  12.501  66.607  1.00  0.00    -0.317 OA 
BRANCH  16  17
HETATM   17  C   UNL     1     -11.728  12.600  67.949  1.00  0.00    -0.358 A  
HETATM   18  O   UNL     1     -11.909  10.239  68.444  1.00  0.00    -0.709 OA 
HETATM   19  C   UNL     1     -12.217  11.786  70.182  1.00  0.00    -0.342 A  
HETATM   20  H   UNL     1     -12.041   9.520  69.052  1.00  0.00     0.000 HD 
HETATM   21  C   UNL     1     -12.356  13.101  70.617  1.00  0.00    -0.326 A  
HETATM   22  C   UNL     1     -11.922  11.544  68.841  1.00  0.00    -0.299 A  
HETATM   23  O   UNL     1     -12.716  13.309  71.963  1.00  0.00    -0.212 OA 
HETATM   24  C   UNL     1     -12.917  14.587  72.464  1.00  0.00    -0.414 C  
HETATM   25  O   UNL     1     -13.261  14.794  73.622  1.00  0.00    -0.482 OA 
HETATM   26  C   UNL     1     -12.696  15.712  71.537  1.00  0.00    -0.522 C  
HETATM   27  C   UNL     1     -12.345  15.527  70.258  1.00  0.00    -0.431 C  
HETATM   28  C   UNL     1     -12.180  14.177  69.749  1.00  0.00    -0.397 A  
HETATM   29  C   UNL     1     -11.866  13.916  68.413  1.00  0.00    -0.409 A  
ENDBRANCH  16  17
ENDBRANCH   6  16
ENDBRANCH   3   4
TORSDOF 3
ENDMDL
MODEL        6
REMARK 921   NORMALIZED FREE ENERGY PREDICTED BY IDOCK:   -7.25 KCAL/MOL
REMARK 922        TOTAL FREE ENERGY PREDICTED BY IDOCK:   -9.48 KCAL/MOL
REMARK 923 INTER-LIGAND FREE ENERGY PREDICTED BY IDOCK:   -8.64 KCAL/MOL
REMARK 924 INTRA-LIGAND FREE ENERGY PREDICTED BY IDOCK:   -0.84 KCAL/MOL
REMARK 927      BINDING AFFINITY PREDICTED BY RF-SCORE:    0.00 PKD
ROOT
HETATM    1  O   UNL     1     -13.285  12.234  63.706  1.00  0.00    -0.771 OA 
HETATM    2  H   UNL     1     -13.267  11.415  63.226  1.00  0.00     0.000 HD 
HETATM    3  C   UNL     1     -12.016  12.875  63.705  1.00  0.00    -0.541 C  
ENDROOT
BRANCH   3   4
HETATM    4  C   UNL     1     -12.045  14.199  64.481  1.00  0.00    -0.468 C  
HETATM    5  O   UNL     1     -12.850  14.090  65.667  1.00  0.00    -0.545 OA 
HETATM    6  C   UNL     1     -12.238  13.453  66.800  1.00  0.00    -0.312 C  
HETATM    7  C   UNL     1     -10.907  14.145  67.187  1.00  0.00    -0.290 C  
HETATM    8  H   UNL     1      -8.763  13.026  64.984  1.00  0.00     0.000 HD 
HETATM    9  H   UNL     1     -10.014  16.654  65.084  1.00  0.00     0.000 HD 
HETATM   10  O   UNL     1     -11.107  15.468  67.710  1.00  0.00    -0.306 OA 
HETATM   11  C   UNL     1      -9.956  14.238  65.981  1.00  0.00    -0.319 C  
HETATM   12  H   UNL     1     -10.291  15.893  67.947  1.00  0.00     0.000 HD 
HETATM   13  C   UNL     1     -10.664  14.841  64.752  1.00  0.00    -0.358 C  
HETATM   14  O   UNL     1     -10.862  16.260  64.918  1.00  0.00    -0.625 OA 
HETATM   15  O   UNL     1      -9.350  12.969  65.728  1.00  0.00    -0.048 OA 
BRANCH   6  16
HETATM   16  O   UNL     1     -11.990  12.068  66.547  1.00  0.00    -0.616 OA 
BRANCH  16  17
HETATM   17  C   UNL     1     -11.526  11.273  67.553  1.00  0.00    -0.246 A  
HETATM   18  O   UNL     1      -9.793  10.123  66.316  1.00  0.00    -0.204 OA 
HETATM   19  C   UNL     1     -10.160   9.537  68.559  1.00  0.00    -0.198 A  
HETATM   20  H   UNL     1      -9.086   9.491  66.260  1.00  0.00     0.000 HD 
HETATM   21  C   UNL     1     -10.912   9.642  69.727  1.00  0.00    -0.240 A  
HETATM   22  C   UNL     1     -10.487  10.344  67.471  1.00  0.00    -0.245 A  
HETATM   23  O   UNL     1     -10.595   8.768  70.786  1.00  0.00    -0.201 OA 
HETATM   24  C   UNL     1     -11.323   8.777  71.967  1.00  0.00    -0.371 C  
HETATM   25  O   UNL     1     -11.090   8.007  72.891  1.00  0.00    -0.392 OA 
HETATM   26  C   UNL     1     -12.411   9.767  72.075  1.00  0.00    -0.390 C  
HETATM   27  C   UNL     1     -12.715  10.608  71.078  1.00  0.00    -0.512 C  
HETATM   28  C   UNL     1     -11.962  10.549  69.838  1.00  0.00    -0.339 A  
HETATM   29  C   UNL     1     -12.263  11.364  68.743  1.00  0.00    -0.101 A  
ENDBRANCH  16  17
ENDBRANCH   6  16
ENDBRANCH   3   4
TORSDOF 3
ENDMDL
MODEL        7
REMARK 921   NORMALIZED FREE ENERGY PREDICTED BY IDOCK:   -7.03 KCAL/MOL
REMARK 922        TOTAL FREE ENERGY PREDICTED BY IDOCK:   -9.23 KCAL/MOL
REMARK 923 INTER-LIGAND FREE ENERGY PREDICTED BY IDOCK:   -8.88 KCAL/MOL
REMARK 924 INTRA-LIGAND FREE ENERGY PREDICTED BY IDOCK:   -0.35 KCAL/MOL
REMARK 927      BINDING AFFINITY PREDICTED BY RF-SCORE:    0.00 PKD
ROOT
HETATM    1  O   UNL     1     -11.462  16.700  63.933  1.00  0.00    -1.604 OA 
HETATM    2  H   UNL     1     -12.029  16.154  63.402  1.00  0.00     0.000 HD 
HETATM    3  C   UNL     1     -11.020  16.021  65.101  1.00  0.00    -0.348 C  
ENDROOT
BRANCH   3   4
HETATM    4  C   UNL     1     -10.102  16.903  65.959  1.00  0.00    -0.319 C  
HETATM    5  O   UNL     1     -10.707  17.205  67.228  1.00  0.00    -0.302 OA 
HETATM    6  C   UNL     1     -10.636  16.178  68.230  1.00  0.00    -0.288 C  
HETATM    7  C   UNL     1      -9.173  15.739  68.489  1.00  0.00    -0.198 C  
HETATM    8  H   UNL     1      -8.475  13.781  65.963  1.00  0.00     0.000 HD 
HETATM    9  H   UNL     1      -6.917  17.254  66.457  1.00  0.00     0.000 HD 
HETATM   10  O   UNL     1      -8.394  16.769  69.118  1.00  0.00    -0.203 OA 
HETATM   11  C   UNL     1      -8.474  15.332  67.181  1.00  0.00    -0.209 C  
HETATM   12  H   UNL     1      -7.497  16.501  69.277  1.00  0.00     0.000 HD 
HETATM   13  C   UNL     1      -8.642  16.411  66.093  1.00  0.00    -0.308 C  
HETATM   14  O   UNL     1      -7.814  17.557  66.375  1.00  0.00    -0.251 OA 
HETATM   15  O   UNL     1      -8.907  14.032  66.771  1.00  0.00    -0.225 OA 
BRANCH   6  16
HETATM   16  O   UNL     1     -11.410  15.034  67.859  1.00  0.00    -0.310 OA 
BRANCH  16  17
HETATM   17  C   UNL     1     -11.901  14.211  68.828  1.00  0.00    -0.349 A  
HETATM   18  O   UNL     1     -12.928  15.896  70.227  1.00  0.00    -0.673 OA 
HETATM   19  C   UNL     1     -13.005  13.654  70.917  1.00  0.00    -0.256 A  
HETATM   20  H   UNL     1     -13.419  16.156  70.998  1.00  0.00     0.000 HD 
HETATM   21  C   UNL     1     -12.621  12.326  70.749  1.00  0.00    -0.213 A  
HETATM   22  C   UNL     1     -12.623  14.593  69.960  1.00  0.00    -0.230 A  
HETATM   23  O   UNL     1     -12.968  11.414  71.766  1.00  0.00    -0.459 OA 
HETATM   24  C   UNL     1     -12.586  10.082  71.698  1.00  0.00    -0.427 C  
HETATM   25  O   UNL     1     -12.847   9.275  72.582  1.00  0.00    -0.334 OA 
HETATM   26  C   UNL     1     -11.839   9.660  70.498  1.00  0.00    -0.284 C  
HETATM   27  C   UNL     1     -11.511  10.517  69.522  1.00  0.00    -0.339 C  
HETATM   28  C   UNL     1     -11.889  11.913  69.638  1.00  0.00    -0.406 A  
HETATM   29  C   UNL     1     -11.533  12.866  68.679  1.00  0.00    -0.346 A  
ENDBRANCH  16  17
ENDBRANCH   6  16
ENDBRANCH   3   4
TORSDOF 3
ENDMDL
MODEL        8
REMARK 921   NORMALIZED FREE ENERGY PREDICTED BY IDOCK:   -6.98 KCAL/MOL
REMARK 922        TOTAL FREE ENERGY PREDICTED BY IDOCK:   -9.16 KCAL/MOL
REMARK 923 INTER-LIGAND FREE ENERGY PREDICTED BY IDOCK:   -8.22 KCAL/MOL
REMARK 924 INTRA-LIGAND FREE ENERGY PREDICTED BY IDOCK:   -0.94 KCAL/MOL
REMARK 927      BINDING AFFINITY PREDICTED BY RF-SCORE:    0.00 PKD
ROOT
HETATM    1  O   UNL     1      -9.883  16.028  66.601  1.00  0.00    -0.240 OA 
HETATM    2  H   UNL     1      -9.250  16.264  67.268  1.00  0.00     0.000 HD 
HETATM    3  C   UNL     1      -9.422  14.953  65.793  1.00  0.00    -0.202 C  
ENDROOT
BRANCH   3   4
HETATM    4  C   UNL     1     -10.445  14.571  64.714  1.00  0.00    -0.337 C  
HETATM    5  O   UNL     1     -10.295  13.199  64.316  1.00  0.00    -0.421 OA 
HETATM    6  C   UNL     1     -10.867  12.213  65.190  1.00  0.00    -0.300 C  
HETATM    7  C   UNL     1     -12.374  12.478  65.433  1.00  0.00    -0.359 C  
HETATM    8  H   UNL     1     -12.404  14.911  67.620  1.00  0.00     0.000 HD 
HETATM    9  H   UNL     1     -13.511  15.319  63.967  1.00  0.00     0.000 HD 
HETATM   10  O   UNL     1     -13.166  12.269  64.254  1.00  0.00    -0.785 OA 
HETATM   11  C   UNL     1     -12.613  13.913  65.932  1.00  0.00    -0.456 C  
HETATM   12  H   UNL     1     -14.090  12.432  64.403  1.00  0.00     0.000 HD 
HETATM   13  C   UNL     1     -11.912  14.947  65.029  1.00  0.00    -0.258 C  
HETATM   14  O   UNL     1     -12.610  15.088  63.774  1.00  0.00    -0.776 OA 
HETATM   15  O   UNL     1     -12.257  14.025  67.312  1.00  0.00    -0.405 OA 
BRANCH   6  16
HETATM   16  O   UNL     1     -10.188  12.175  66.447  1.00  0.00    -0.214 OA 
BRANCH  16  17
HETATM   17  C   UNL     1     -10.447  11.162  67.322  1.00  0.00    -0.226 A  
HETATM   18  O   UNL     1     -10.652  12.487  69.336  1.00  0.00    -0.437 OA 
HETATM   19  C   UNL     1     -10.852  10.154  69.493  1.00  0.00    -0.289 A  
HETATM   20  H   UNL     1     -10.804  12.569  70.270  1.00  0.00     0.000 HD 
HETATM   21  C   UNL     1     -10.767   8.893  68.907  1.00  0.00    -0.106 A  
HETATM   22  C   UNL     1     -10.671  11.283  68.695  1.00  0.00    -0.205 A  
HETATM   23  O   UNL     1     -10.891   7.773  69.753  1.00  0.00    -0.249 OA 
HETATM   24  C   UNL     1     -10.775   6.482  69.256  1.00  0.00    -0.280 C  
HETATM   25  O   UNL     1     -10.848   5.491  69.973  1.00  0.00    -0.317 OA 
HETATM   26  C   UNL     1     -10.558   6.340  67.804  1.00  0.00    -0.329 C  
HETATM   27  C   UNL     1     -10.447   7.398  66.991  1.00  0.00    -0.404 C  
HETATM   28  C   UNL     1     -10.533   8.738  67.543  1.00  0.00    -0.340 A  
HETATM   29  C   UNL     1     -10.374   9.881  66.756  1.00  0.00    -0.285 A  
ENDBRANCH  16  17
ENDBRANCH   6  16
ENDBRANCH   3   4
TORSDOF 3
ENDMDL
MODEL        9
REMARK 921   NORMALIZED FREE ENERGY PREDICTED BY IDOCK:   -6.97 KCAL/MOL
REMARK 922        TOTAL FREE ENERGY PREDICTED BY IDOCK:   -9.15 KCAL/MOL
REMARK 923 INTER-LIGAND FREE ENERGY PREDICTED BY IDOCK:   -8.35 KCAL/MOL
REMARK 924 INTRA-LIGAND FREE ENERGY PREDICTED BY IDOCK:   -0.80 KCAL/MOL
REMARK 927      BINDING AFFINITY PREDICTED BY RF-SCORE:    0.00 PKD
ROOT
HETATM    1  O   UNL     1      -9.170  11.983  63.324  1.00  0.00    -0.650 OA 
HETATM    2  H   UNL     1      -8.289  11.632  63.387  1.00  0.00     0.000 HD 
HETATM    3  C   UNL     1     -10.074  11.292  64.176  1.00  0.00    -0.320 C  
ENDROOT
BRANCH   3   4
HETATM    4  C   UNL     1     -11.497  11.858  64.074  1.00  0.00    -0.398 C  
HETATM    5  O   UNL     1     -12.239  11.626  65.282  1.00  0.00    -0.130 OA 
HETATM    6  C   UNL     1     -11.976  12.519  66.376  1.00  0.00    -0.318 C  
HETATM    7  C   UNL     1     -12.186  13.998  65.963  1.00  0.00    -0.458 C  
HETATM    8  H   UNL     1      -9.482  14.739  64.277  1.00  0.00     0.000 HD 
HETATM    9  H   UNL     1     -12.958  14.398  62.683  1.00  0.00     0.000 HD 
HETATM   10  O   UNL     1     -13.565  14.305  65.703  1.00  0.00    -0.633 OA 
HETATM   11  C   UNL     1     -11.366  14.347  64.709  1.00  0.00    -0.388 C  
HETATM   12  H   UNL     1     -13.694  15.211  65.450  1.00  0.00     0.000 HD 
HETATM   13  C   UNL     1     -11.596  13.321  63.582  1.00  0.00    -0.325 C  
HETATM   14  O   UNL     1     -12.898  13.499  62.985  1.00  0.00    -0.495 OA 
HETATM   15  O   UNL     1      -9.988  14.523  65.050  1.00  0.00    -0.341 OA 
BRANCH   6  16
HETATM   16  O   UNL     1     -10.645  12.355  66.873  1.00  0.00    -0.226 OA 
BRANCH  16  17
HETATM   17  C   UNL     1     -10.429  11.581  67.974  1.00  0.00    -0.189 A  
HETATM   18  O   UNL     1      -8.136  10.960  67.515  1.00  0.00    -0.114 OA 
HETATM   19  C   UNL     1      -9.183  10.087  69.426  1.00  0.00    -0.229 A  
HETATM   20  H   UNL     1      -7.333  10.503  67.739  1.00  0.00     0.000 HD 
HETATM   21  C   UNL     1     -10.326   9.910  70.201  1.00  0.00    -0.282 A  
HETATM   22  C   UNL     1      -9.249  10.910  68.302  1.00  0.00    -0.161 A  
HETATM   23  O   UNL     1     -10.242   9.023  71.293  1.00  0.00    -0.258 OA 
HETATM   24  C   UNL     1     -11.348   8.757  72.089  1.00  0.00    -0.341 C  
HETATM   25  O   UNL     1     -11.311   7.966  73.024  1.00  0.00    -0.408 OA 
HETATM   26  C   UNL     1     -12.594   9.475  71.765  1.00  0.00    -0.490 C  
HETATM   27  C   UNL     1     -12.682  10.326  70.736  1.00  0.00    -0.434 C  
HETATM   28  C   UNL     1     -11.521  10.555  69.895  1.00  0.00    -0.384 A  
HETATM   29  C   UNL     1     -11.564  11.392  68.776  1.00  0.00    -0.378 A  
ENDBRANCH  16  17
ENDBRANCH   6  16
ENDBRANCH   3   4
TORSDOF 3
ENDMDL
MODEL       10
REMARK 921   NORMALIZED FREE ENERGY PREDICTED BY IDOCK:   -6.91 KCAL/MOL
REMARK 922        TOTAL FREE ENERGY PREDICTED BY IDOCK:   -9.09 KCAL/MOL
REMARK 923 INTER-LIGAND FREE ENERGY PREDICTED BY IDOCK:   -8.43 KCAL/MOL
REMARK 924 INTRA-LIGAND FREE ENERGY PREDICTED BY IDOCK:   -0.65 KCAL/MOL
REMARK 927      BINDING AFFINITY PREDICTED BY RF-SCORE:    0.00 PKD
ROOT
HETATM    1  O   UNL     1     -11.896  10.662  67.834  1.00  0.00    -0.738 OA 
HETATM    2  H   UNL     1     -11.295  10.350  68.500  1.00  0.00     0.000 HD 
HETATM    3  C   UNL     1     -11.303  11.664  67.018  1.00  0.00    -0.305 C  
ENDROOT
BRANCH   3   4
HETATM    4  C   UNL     1     -12.274  12.168  65.941  1.00  0.00     0.136 C  
HETATM    5  O   UNL     1     -12.777  13.476  66.264  1.00  0.00    -0.302 OA 
HETATM    6  C   UNL     1     -11.907  14.583  65.981  1.00  0.00    -0.334 C  
HETATM    7  C   UNL     1     -11.468  14.593  64.495  1.00  0.00    -0.335 C  
HETATM    8  H   UNL     1      -9.139  12.300  64.343  1.00  0.00     0.000 HD 
HETATM    9  H   UNL     1     -12.600  11.929  62.723  1.00  0.00     0.000 HD 
HETATM   10  O   UNL     1     -12.556  14.883  63.602  1.00  0.00    -1.006 OA 
HETATM   11  C   UNL     1     -10.852  13.243  64.088  1.00  0.00    -0.343 C  
HETATM   12  H   UNL     1     -12.287  14.888  62.692  1.00  0.00     0.000 HD 
HETATM   13  C   UNL     1     -11.764  12.066  64.485  1.00  0.00    -0.305 C  
HETATM   14  O   UNL     1     -12.914  11.993  63.618  1.00  0.00    -0.747 OA 
HETATM   15  O   UNL     1      -9.520  13.132  64.595  1.00  0.00     0.261 OA 
BRANCH   6  16
HETATM   16  O   UNL     1     -10.744  14.558  66.813  1.00  0.00    -0.284 OA 
BRANCH  16  17
HETATM   17  C   UNL     1      -9.878  15.610  66.790  1.00  0.00    -0.244 A  
HETATM   18  O   UNL     1      -7.811  14.355  66.709  1.00  0.00    -0.322 OA 
HETATM   19  C   UNL     1      -7.708  16.698  66.798  1.00  0.00    -0.292 A  
HETATM   20  H   UNL     1      -6.862  14.308  66.676  1.00  0.00     0.000 HD 
HETATM   21  C   UNL     1      -8.342  17.929  66.946  1.00  0.00    -0.242 A  
HETATM   22  C   UNL     1      -8.484  15.542  66.741  1.00  0.00    -0.279 A  
HETATM   23  O   UNL     1      -7.526  19.072  67.064  1.00  0.00    -0.216 OA 
HETATM   24  C   UNL     1      -8.076  20.331  67.258  1.00  0.00    -0.338 C  
HETATM   25  O   UNL     1      -7.390  21.337  67.395  1.00  0.00    -0.484 OA 
HETATM   26  C   UNL     1      -9.548  20.420  67.293  1.00  0.00    -0.592 C  
HETATM   27  C   UNL     1     -10.333  19.342  67.172  1.00  0.00    -0.548 C  
HETATM   28  C   UNL     1      -9.729  18.032  67.011  1.00  0.00    -0.303 A  
HETATM   29  C   UNL     1     -10.492  16.863  66.931  1.00  0.00    -0.271 A  
ENDBRANCH  16  17
ENDBRANCH   6  16
ENDBRANCH   3   4
TORSDOF 3
ENDMDL
MODEL       11
REMARK 921   NORMALIZED FREE ENERGY PREDICTED BY IDOCK:   -6.89 KCAL/MOL
REMARK 922        TOTAL FREE ENERGY PREDICTED BY IDOCK:   -9.06 KCAL/MOL
REMARK 923 INTER-LIGAND FREE ENERGY PREDICTED BY IDOCK:   -8.59 KCAL/MOL
REMARK 924 INTRA-LIGAND FREE ENERGY PREDICTED BY IDOCK:   -0.47 KCAL/MOL
REMARK 927      BINDING AFFINITY PREDICTED BY RF-SCORE:    0.00 PKD
ROOT
HETATM    1  O   UNL     1     -12.196  15.215  68.829  1.00  0.00    -0.573 OA 
HETATM    2  H   UNL     1     -12.842  15.008  69.494  1.00  0.00     0.000 HD 
HETATM    3  C   UNL     1     -12.092  14.183  67.856  1.00  0.00    -0.274 C  
ENDROOT
BRANCH   3   4
HETATM    4  C   UNL     1     -11.047  14.517  66.782  1.00  0.00    -0.325 C  
HETATM    5  O   UNL     1     -10.042  13.494  66.696  1.00  0.00    -0.264 OA 
HETATM    6  C   UNL     1     -10.397  12.309  65.966  1.00  0.00    -0.245 C  
HETATM    7  C   UNL     1     -10.858  12.648  64.526  1.00  0.00    -0.336 C  
HETATM    8  H   UNL     1     -13.923  13.725  64.911  1.00  0.00     0.000 HD 
HETATM    9  H   UNL     1     -10.989  15.978  63.887  1.00  0.00     0.000 HD 
HETATM   10  O   UNL     1      -9.787  13.146  63.708  1.00  0.00    -0.704 OA 
HETATM   11  C   UNL     1     -11.988  13.692  64.535  1.00  0.00    -0.418 C  
HETATM   12  H   UNL     1     -10.070  13.354  62.826  1.00  0.00     0.000 HD 
HETATM   13  C   UNL     1     -11.619  14.913  65.400  1.00  0.00    -0.280 C  
HETATM   14  O   UNL     1     -10.637  15.735  64.736  1.00  0.00    -0.504 OA 
HETATM   15  O   UNL     1     -13.226  13.080  64.906  1.00  0.00    -0.735 OA 
BRANCH   6  16
HETATM   16  O   UNL     1     -11.431  11.578  66.630  1.00  0.00    -0.423 OA 
BRANCH  16  17
HETATM   17  C   UNL     1     -11.099  10.568  67.484  1.00  0.00    -0.290 A  
HETATM   18  O   UNL     1     -10.140   9.047  65.865  1.00  0.00    -0.418 OA 
HETATM   19  C   UNL     1     -10.268   8.375  68.110  1.00  0.00    -0.253 A  
HETATM   20  H   UNL     1      -9.723   8.224  65.636  1.00  0.00     0.000 HD 
HETATM   21  C   UNL     1     -10.707   8.596  69.413  1.00  0.00    -0.158 A  
HETATM   22  C   UNL     1     -10.487   9.359  67.147  1.00  0.00    -0.244 A  
HETATM   23  O   UNL     1     -10.528   7.556  70.347  1.00  0.00    -0.215 OA 
HETATM   24  C   UNL     1     -10.976   7.679  71.654  1.00  0.00    -0.233 C  
HETATM   25  O   UNL     1     -10.861   6.779  72.478  1.00  0.00    -0.221 OA 
HETATM   26  C   UNL     1     -11.607   8.959  72.028  1.00  0.00    -0.435 C  
HETATM   27  C   UNL     1     -11.774   9.957  71.151  1.00  0.00    -0.478 C  
HETATM   28  C   UNL     1     -11.332   9.786  69.779  1.00  0.00    -0.201 A  
HETATM   29  C   UNL     1     -11.524  10.770  68.805  1.00  0.00    -0.364 A  
ENDBRANCH  16  17
ENDBRANCH   6  16
ENDBRANCH   3   4
TORSDOF 3
ENDMDL
MODEL       12
REMARK 921   NORMALIZED FREE ENERGY PREDICTED BY IDOCK:   -6.80 KCAL/MOL
REMARK 922        TOTAL FREE ENERGY PREDICTED BY IDOCK:   -8.95 KCAL/MOL
REMARK 923 INTER-LIGAND FREE ENERGY PREDICTED BY IDOCK:   -7.92 KCAL/MOL
REMARK 924 INTRA-LIGAND FREE ENERGY PREDICTED BY IDOCK:   -1.03 KCAL/MOL
REMARK 927      BINDING AFFINITY PREDICTED BY RF-SCORE:    0.00 PKD
ROOT
HETATM    1  O   UNL     1     -12.385  13.833  62.903  1.00  0.00    -1.008 OA 
HETATM    2  H   UNL     1     -13.225  14.274  62.858  1.00  0.00     0.000 HD 
HETATM    3  C   UNL     1     -12.463  12.622  63.643  1.00  0.00    -0.427 C  
ENDROOT
BRANCH   3   4
HETATM    4  C   UNL     1     -11.105  11.910  63.716  1.00  0.00    -0.436 C  
HETATM    5  O   UNL     1     -10.029  12.854  63.843  1.00  0.00    -0.324 OA 
HETATM    6  C   UNL     1      -9.803  13.393  65.155  1.00  0.00    -0.068 C  
HETATM    7  C   UNL     1      -9.580  12.269  66.199  1.00  0.00    -0.240 C  
HETATM    8  H   UNL     1     -12.593  11.156  66.816  1.00  0.00     0.000 HD 
HETATM    9  H   UNL     1      -9.926   9.143  64.927  1.00  0.00     0.000 HD 
HETATM   10  O   UNL     1      -8.345  11.565  65.992  1.00  0.00    -0.349 OA 
HETATM   11  C   UNL     1     -10.732  11.250  66.173  1.00  0.00    -0.250 C  
HETATM   12  H   UNL     1      -8.209  10.876  66.631  1.00  0.00     0.000 HD 
HETATM   13  C   UNL     1     -11.014  10.756  64.741  1.00  0.00     0.174 C  
HETATM   14  O   UNL     1      -9.981   9.852  64.297  1.00  0.00    -0.133 OA 
HETATM   15  O   UNL     1     -11.882  11.785  66.832  1.00  0.00    -0.591 OA 
BRANCH   6  16
HETATM   16  O   UNL     1     -10.895  14.214  65.576  1.00  0.00    -0.290 OA 
BRANCH  16  17
HETATM   17  C   UNL     1     -10.698  15.549  65.772  1.00  0.00    -0.353 A  
HETATM   18  O   UNL     1     -11.785  16.358  63.768  1.00  0.00    -1.553 OA 
HETATM   19  C   UNL     1     -10.777  17.909  65.212  1.00  0.00     0.274 A  
HETATM   20  H   UNL     1     -12.065  17.063  63.195  1.00  0.00     0.000 HD 
HETATM   21  C   UNL     1      -9.991  18.186  66.327  1.00  0.00    -0.342 A  
HETATM   22  C   UNL     1     -11.109  16.585  64.931  1.00  0.00    -0.190 A  
HETATM   23  O   UNL     1      -9.620  19.528  66.547  1.00  0.00    -0.333 OA 
HETATM   24  C   UNL     1      -8.802  19.882  67.610  1.00  0.00    -0.334 C  
HETATM   25  O   UNL     1      -8.439  21.036  67.806  1.00  0.00     0.006 OA 
HETATM   26  C   UNL     1      -8.376  18.800  68.518  1.00  0.00    -0.379 C  
HETATM   27  C   UNL     1      -8.730  17.523  68.323  1.00  0.00    -0.270 C  
HETATM   28  C   UNL     1      -9.554  17.175  67.180  1.00  0.00    -0.255 A  
HETATM   29  C   UNL     1      -9.913  15.855  66.893  1.00  0.00    -0.253 A  
ENDBRANCH  16  17
ENDBRANCH   6  16
ENDBRANCH   3   4
TORSDOF 3
ENDMDL
MODEL       13
REMARK 921   NORMALIZED FREE ENERGY PREDICTED BY IDOCK:   -6.75 KCAL/MOL
REMARK 922        TOTAL FREE ENERGY PREDICTED BY IDOCK:   -8.90 KCAL/MOL
REMARK 923 INTER-LIGAND FREE ENERGY PREDICTED BY IDOCK:   -8.32 KCAL/MOL
REMARK 924 INTRA-LIGAND FREE ENERGY PREDICTED BY IDOCK:   -0.58 KCAL/MOL
REMARK 927      BINDING AFFINITY PREDICTED BY RF-SCORE:    0.00 PKD
ROOT
HETATM    1  O   UNL     1      -6.925  17.566  69.508  1.00  0.00    -0.164 OA 
HETATM    2  H   UNL     1      -6.693  17.450  70.422  1.00  0.00     0.000 HD 
HETATM    3  C   UNL     1      -7.622  16.439  68.994  1.00  0.00    -0.232 C  
ENDROOT
BRANCH   3   4
HETATM    4  C   UNL     1      -7.998  16.626  67.518  1.00  0.00    -0.168 C  
HETATM    5  O   UNL     1      -9.207  15.921  67.194  1.00  0.00    -0.202 OA 
HETATM    6  C   UNL     1     -10.439  16.555  67.575  1.00  0.00    -0.310 C  
HETATM    7  C   UNL     1     -10.546  17.984  66.985  1.00  0.00    -0.308 C  
HETATM    8  H   UNL     1      -8.633  19.787  68.933  1.00  0.00     0.000 HD 
HETATM    9  H   UNL     1      -7.780  18.964  65.281  1.00  0.00     0.000 HD 
HETATM   10  O   UNL     1     -10.688  17.980  65.556  1.00  0.00    -0.597 OA 
HETATM   11  C   UNL     1      -9.313  18.830  67.349  1.00  0.00    -0.286 C  
HETATM   12  H   UNL     1     -10.753  18.855  65.195  1.00  0.00     0.000 HD 
HETATM   13  C   UNL     1      -8.004  18.089  67.014  1.00  0.00    -0.220 C  
HETATM   14  O   UNL     1      -7.777  18.066  65.590  1.00  0.00    -0.539 OA 
HETATM   15  O   UNL     1      -9.393  19.265  68.708  1.00  0.00    -0.367 OA 
BRANCH   6  16
HETATM   16  O   UNL     1     -10.571  16.623  68.997  1.00  0.00    -0.298 OA 
BRANCH  16  17
HETATM   17  C   UNL     1     -11.209  15.618  69.662  1.00  0.00    -0.310 A  
HETATM   18  O   UNL     1     -11.777  16.840  71.672  1.00  0.00    -0.594 OA 
HETATM   19  C   UNL     1     -12.348  14.568  71.531  1.00  0.00    -0.430 A  
HETATM   20  H   UNL     1     -12.172  16.892  72.535  1.00  0.00     0.000 HD 
HETATM   21  C   UNL     1     -12.286  13.347  70.864  1.00  0.00    -0.353 A  
HETATM   22  C   UNL     1     -11.789  15.695  70.930  1.00  0.00    -0.388 A  
HETATM   23  O   UNL     1     -12.804  12.216  71.526  1.00  0.00    -0.374 OA 
HETATM   24  C   UNL     1     -12.741  10.955  70.950  1.00  0.00    -0.370 C  
HETATM   25  O   UNL     1     -13.155   9.950  71.517  1.00  0.00    -0.361 OA 
HETATM   26  C   UNL     1     -12.148  10.863  69.603  1.00  0.00    -0.400 C  
HETATM   27  C   UNL     1     -11.662  11.933  68.961  1.00  0.00    -0.391 C  
HETATM   28  C   UNL     1     -11.704  13.234  69.604  1.00  0.00    -0.369 A  
HETATM   29  C   UNL     1     -11.166  14.379  69.009  1.00  0.00    -0.288 A  
ENDBRANCH  16  17
ENDBRANCH   6  16
ENDBRANCH   3   4
TORSDOF 3
ENDMDL
MODEL       14
REMARK 921   NORMALIZED FREE ENERGY PREDICTED BY IDOCK:   -6.74 KCAL/MOL
REMARK 922        TOTAL FREE ENERGY PREDICTED BY IDOCK:   -8.88 KCAL/MOL
REMARK 923 INTER-LIGAND FREE ENERGY PREDICTED BY IDOCK:   -7.79 KCAL/MOL
REMARK 924 INTRA-LIGAND FREE ENERGY PREDICTED BY IDOCK:   -1.10 KCAL/MOL
REMARK 927      BINDING AFFINITY PREDICTED BY RF-SCORE:    0.00 PKD
ROOT
HETATM    1  O   UNL     1      -9.935  13.507  64.153  1.00  0.00    -0.766 OA 
HETATM    2  H   UNL     1      -9.761  12.735  63.628  1.00  0.00     0.000 HD 
HETATM    3  C   UNL     1     -11.212  13.446  64.773  1.00  0.00    -0.345 C  
ENDROOT
BRANCH   3   4
HETATM    4  C   UNL     1     -11.493  14.695  65.622  1.00  0.00    -0.340 C  
HETATM    5  O   UNL     1     -12.321  14.381  66.753  1.00  0.00    -0.392 OA 
HETATM    6  C   UNL     1     -11.664  13.778  67.879  1.00  0.00    -0.360 C  
HETATM    7  C   UNL     1     -10.483  14.649  68.378  1.00  0.00    -0.243 C  
HETATM    8  H   UNL     1      -8.089  14.035  66.235  1.00  0.00     0.000 HD 
HETATM    9  H   UNL     1      -9.921  17.400  66.474  1.00  0.00     0.000 HD 
HETATM   10  O   UNL     1     -10.921  15.885  68.964  1.00  0.00    -0.240 OA 
HETATM   11  C   UNL     1      -9.508  14.972  67.233  1.00  0.00    -0.208 C  
HETATM   12  H   UNL     1     -10.197  16.419  69.270  1.00  0.00     0.000 HD 
HETATM   13  C   UNL     1     -10.249  15.531  66.003  1.00  0.00    -0.330 C  
HETATM   14  O   UNL     1     -10.684  16.886  66.240  1.00  0.00    -0.229 OA 
HETATM   15  O   UNL     1      -8.691  13.835  66.941  1.00  0.00    -0.219 OA 
BRANCH   6  16
HETATM   16  O   UNL     1     -11.182  12.470  67.562  1.00  0.00    -0.259 OA 
BRANCH  16  17
HETATM   17  C   UNL     1     -10.864  11.608  68.569  1.00  0.00    -0.219 A  
HETATM   18  O   UNL     1      -8.577  11.149  67.923  1.00  0.00    -0.128 OA 
HETATM   19  C   UNL     1      -9.466  10.048  69.796  1.00  0.00    -0.239 A  
HETATM   20  H   UNL     1      -7.743  10.715  68.055  1.00  0.00     0.000 HD 
HETATM   21  C   UNL     1     -10.550   9.741  70.613  1.00  0.00    -0.313 A  
HETATM   22  C   UNL     1      -9.637  10.969  68.763  1.00  0.00    -0.187 A  
HETATM   23  O   UNL     1     -10.360   8.760  71.607  1.00  0.00    -0.263 OA 
HETATM   24  C   UNL     1     -11.401   8.364  72.435  1.00  0.00    -0.378 C  
HETATM   25  O   UNL     1     -11.272   7.492  73.285  1.00  0.00    -0.346 OA 
HETATM   26  C   UNL     1     -12.697   9.046  72.253  1.00  0.00    -0.457 C  
HETATM   27  C   UNL     1     -12.886   9.985  71.318  1.00  0.00    -0.500 C  
HETATM   28  C   UNL     1     -11.790  10.351  70.439  1.00  0.00    -0.418 A  
HETATM   29  C   UNL     1     -11.938  11.287  69.411  1.00  0.00    -0.410 A  
ENDBRANCH  16  17
ENDBRANCH   6  16
ENDBRANCH   3   4
TORSDOF 3
ENDMDL
MODEL       15
REMARK 921   NORMALIZED FREE ENERGY PREDICTED BY IDOCK:   -6.72 KCAL/MOL
REMARK 922        TOTAL FREE ENERGY PREDICTED BY IDOCK:   -8.86 KCAL/MOL
REMARK 923 INTER-LIGAND FREE ENERGY PREDICTED BY IDOCK:   -8.02 KCAL/MOL
REMARK 924 INTRA-LIGAND FREE ENERGY PREDICTED BY IDOCK:   -0.84 KCAL/MOL
REMARK 927      BINDING AFFINITY PREDICTED BY RF-SCORE:    0.00 PKD
ROOT
HETATM    1  O   UNL     1     -11.534   6.522  67.800  1.00  0.00    -0.664 OA 
HETATM    2  H   UNL     1     -12.264   6.483  67.194  1.00  0.00     0.000 HD 
HETATM    3  C   UNL     1     -10.636   7.576  67.476  1.00  0.00    -0.261 C  
ENDROOT
BRANCH   3   4
HETATM    4  C   UNL     1      -9.456   7.640  68.456  1.00  0.00    -0.147 C  
HETATM    5  O   UNL     1      -8.982   8.988  68.614  1.00  0.00    -0.136 OA 
HETATM    6  C   UNL     1      -9.741   9.835  69.491  1.00  0.00    -0.212 C  
HETATM    7  C   UNL     1      -9.880   9.209  70.902  1.00  0.00    -0.291 C  
HETATM    8  H   UNL     1     -12.212   6.943  70.535  1.00  0.00     0.000 HD 
HETATM    9  H   UNL     1      -8.516   6.112  71.158  1.00  0.00     0.000 HD 
HETATM   10  O   UNL     1      -8.629   9.159  71.607  1.00  0.00    -0.342 OA 
HETATM   11  C   UNL     1     -10.451   7.782  70.824  1.00  0.00    -0.210 C  
HETATM   12  H   UNL     1      -8.714   8.775  72.471  1.00  0.00     0.000 HD 
HETATM   13  C   UNL     1      -9.676   6.921  69.808  1.00  0.00    -0.164 C  
HETATM   14  O   UNL     1      -8.381   6.555  70.328  1.00  0.00    -0.123 OA 
HETATM   15  O   UNL     1     -11.859   7.823  70.583  1.00  0.00    -0.239 OA 
BRANCH   6  16
HETATM   16  O   UNL     1     -11.044  10.096  68.964  1.00  0.00    -0.223 OA 
BRANCH  16  17
HETATM   17  C   UNL     1     -11.280  11.266  68.304  1.00  0.00    -0.267 A  
HETATM   18  O   UNL     1     -11.806  12.645  70.221  1.00  0.00    -0.489 OA 
HETATM   19  C   UNL     1     -11.929  13.594  68.078  1.00  0.00    -0.385 A  
HETATM   20  H   UNL     1     -12.053  13.476  70.610  1.00  0.00     0.000 HD 
HETATM   21  C   UNL     1     -11.888  13.456  66.693  1.00  0.00    -0.395 A  
HETATM   22  C   UNL     1     -11.642  12.487  68.876  1.00  0.00    -0.318 A  
HETATM   23  O   UNL     1     -12.244  14.576  65.916  1.00  0.00    -0.349 OA 
HETATM   24  C   UNL     1     -12.271  14.510  64.530  1.00  0.00    -0.465 C  
HETATM   25  O   UNL     1     -12.608  15.459  63.831  1.00  0.00    -0.725 OA 
HETATM   26  C   UNL     1     -11.872  13.231  63.913  1.00  0.00    -0.522 C  
HETATM   27  C   UNL     1     -11.523  12.164  64.642  1.00  0.00    -0.388 C  
HETATM   28  C   UNL     1     -11.542  12.249  66.091  1.00  0.00    -0.450 A  
HETATM   29  C   UNL     1     -11.239  11.155  66.907  1.00  0.00    -0.258 A  
ENDBRANCH  16  17
ENDBRANCH   6  16
ENDBRANCH   3   4
TORSDOF 3
ENDMDL
MODEL       16
REMARK 921   NORMALIZED FREE ENERGY PREDICTED BY IDOCK:   -6.69 KCAL/MOL
REMARK 922        TOTAL FREE ENERGY PREDICTED BY IDOCK:   -8.82 KCAL/MOL
REMARK 923 INTER-LIGAND FREE ENERGY PREDICTED BY IDOCK:   -7.98 KCAL/MOL
REMARK 924 INTRA-LIGAND FREE ENERGY PREDICTED BY IDOCK:   -0.84 KCAL/MOL
REMARK 927      BINDING AFFINITY PREDICTED BY RF-SCORE:    0.00 PKD
ROOT
HETATM    1  O   UNL     1     -11.616  16.309  63.897  1.00  0.00    -1.489 OA 
HETATM    2  H   UNL     1     -12.075  17.130  64.026  1.00  0.00     0.000 HD 
HETATM    3  C   UNL     1     -12.347  15.208  64.421  1.00  0.00    -0.209 C  
ENDROOT
BRANCH   3   4
HETATM    4  C   UNL     1     -11.604  13.881  64.212  1.00  0.00    -0.355 C  
HETATM    5  O   UNL     1     -10.199  14.022  64.477  1.00  0.00    -0.381 OA 
HETATM    6  C   UNL     1      -9.804  14.011  65.859  1.00  0.00    -0.281 C  
HETATM    7  C   UNL     1     -10.301  12.732  66.579  1.00  0.00    -0.251 C  
HETATM    8  H   UNL     1     -13.468  13.324  67.146  1.00  0.00     0.000 HD 
HETATM    9  H   UNL     1     -12.208  10.721  64.621  1.00  0.00     0.000 HD 
HETATM   10  O   UNL     1      -9.639  11.546  66.111  1.00  0.00    -0.211 OA 
HETATM   11  C   UNL     1     -11.817  12.546  66.399  1.00  0.00    -0.381 C  
HETATM   12  H   UNL     1      -9.943  10.762  66.552  1.00  0.00     0.000 HD 
HETATM   13  C   UNL     1     -12.226  12.653  64.917  1.00  0.00    -0.471 C  
HETATM   14  O   UNL     1     -11.825  11.475  64.188  1.00  0.00    -0.221 OA 
HETATM   15  O   UNL     1     -12.532  13.439  67.257  1.00  0.00    -0.194 OA 
BRANCH   6  16
HETATM   16  O   UNL     1     -10.299  15.161  66.550  1.00  0.00    -0.269 OA 
BRANCH  16  17
HETATM   17  C   UNL     1      -9.422  16.010  67.157  1.00  0.00    -0.216 A  
HETATM   18  O   UNL     1      -9.259  14.875  69.288  1.00  0.00    -0.325 OA 
HETATM   19  C   UNL     1      -8.077  16.879  68.981  1.00  0.00    -0.162 A  
HETATM   20  H   UNL     1      -8.913  14.799  70.169  1.00  0.00     0.000 HD 
HETATM   21  C   UNL     1      -7.783  18.002  68.211  1.00  0.00    -0.282 A  
HETATM   22  C   UNL     1      -8.913  15.897  68.452  1.00  0.00    -0.189 A  
HETATM   23  O   UNL     1      -6.986  19.005  68.798  1.00  0.00    -0.284 OA 
HETATM   24  C   UNL     1      -6.684  20.174  68.115  1.00  0.00    -0.294 C  
HETATM   25  O   UNL     1      -6.020  21.076  68.613  1.00  0.00    -0.343 OA 
HETATM   26  C   UNL     1      -7.199  20.297  66.738  1.00  0.00    -0.311 C  
HETATM   27  C   UNL     1      -7.949  19.346  66.168  1.00  0.00    -0.320 C  
HETATM   28  C   UNL     1      -8.284  18.151  66.920  1.00  0.00    -0.258 A  
HETATM   29  C   UNL     1      -9.105  17.146  66.399  1.00  0.00    -0.285 A  
ENDBRANCH  16  17
ENDBRANCH   6  16
ENDBRANCH   3   4
TORSDOF 3
ENDMDL
MODEL       17
REMARK 921   NORMALIZED FREE ENERGY PREDICTED BY IDOCK:   -6.65 KCAL/MOL
REMARK 922        TOTAL FREE ENERGY PREDICTED BY IDOCK:   -8.77 KCAL/MOL
REMARK 923 INTER-LIGAND FREE ENERGY PREDICTED BY IDOCK:   -8.03 KCAL/MOL
REMARK 924 INTRA-LIGAND FREE ENERGY PREDICTED BY IDOCK:   -0.74 KCAL/MOL
REMARK 927      BINDING AFFINITY PREDICTED BY RF-SCORE:    0.00 PKD
ROOT
HETATM    1  O   UNL     1      -7.390  15.303  66.759  1.00  0.00    -0.270 OA 
HETATM    2  H   UNL     1      -6.954  14.476  66.928  1.00  0.00     0.000 HD 
HETATM    3  C   UNL     1      -8.784  15.129  66.543  1.00  0.00    -0.245 C  
ENDROOT
BRANCH   3   4
HETATM    4  C   UNL     1      -9.489  16.465  66.271  1.00  0.00    -0.317 C  
HETATM    5  O   UNL     1     -10.812  16.481  66.832  1.00  0.00    -0.225 OA 
HETATM    6  C   UNL     1     -10.905  16.733  68.243  1.00  0.00    -0.366 C  
HETATM    7  C   UNL     1     -10.206  18.062  68.628  1.00  0.00    -0.377 C  
HETATM    8  H   UNL     1      -7.023  17.307  68.640  1.00  0.00     0.000 HD 
HETATM    9  H   UNL     1      -8.659  19.590  66.023  1.00  0.00     0.000 HD 
HETATM   10  O   UNL     1     -10.894  19.213  68.112  1.00  0.00    -0.347 OA 
HETATM   11  C   UNL     1      -8.755  18.095  68.120  1.00  0.00    -0.277 C  
HETATM   12  H   UNL     1     -10.465  20.028  68.348  1.00  0.00     0.000 HD 
HETATM   13  C   UNL     1      -8.673  17.731  66.625  1.00  0.00    -0.261 C  
HETATM   14  O   UNL     1      -9.161  18.813  65.806  1.00  0.00    -0.391 OA 
HETATM   15  O   UNL     1      -7.919  17.286  68.953  1.00  0.00    -0.255 OA 
BRANCH   6  16
HETATM   16  O   UNL     1     -10.332  15.666  69.002  1.00  0.00    -0.205 OA 
BRANCH  16  17
HETATM   17  C   UNL     1     -11.142  14.860  69.747  1.00  0.00    -0.274 A  
HETATM   18  O   UNL     1     -11.850  16.499  71.381  1.00  0.00    -0.640 OA 
HETATM   19  C   UNL     1     -12.606  14.288  71.597  1.00  0.00    -0.431 A  
HETATM   20  H   UNL     1     -12.346  16.751  72.151  1.00  0.00     0.000 HD 
HETATM   21  C   UNL     1     -12.571  12.955  71.193  1.00  0.00    -0.281 A  
HETATM   22  C   UNL     1     -11.872  15.230  70.879  1.00  0.00    -0.341 A  
HETATM   23  O   UNL     1     -13.273  12.018  71.978  1.00  0.00    -0.499 OA 
HETATM   24  C   UNL     1     -13.253  10.665  71.670  1.00  0.00    -0.392 C  
HETATM   25  O   UNL     1     -13.827   9.825  72.352  1.00  0.00    -0.330 OA 
HETATM   26  C   UNL     1     -12.501  10.263  70.466  1.00  0.00    -0.351 C  
HETATM   27  C   UNL     1     -11.838  11.147  69.709  1.00  0.00    -0.422 C  
HETATM   28  C   UNL     1     -11.843  12.551  70.077  1.00  0.00    -0.363 A  
HETATM   29  C   UNL     1     -11.129  13.514  69.357  1.00  0.00    -0.173 A  
ENDBRANCH  16  17
ENDBRANCH   6  16
ENDBRANCH   3   4
TORSDOF 3
ENDMDL
MODEL       18
REMARK 921   NORMALIZED FREE ENERGY PREDICTED BY IDOCK:   -6.64 KCAL/MOL
REMARK 922        TOTAL FREE ENERGY PREDICTED BY IDOCK:   -8.76 KCAL/MOL
REMARK 923 INTER-LIGAND FREE ENERGY PREDICTED BY IDOCK:   -7.72 KCAL/MOL
REMARK 924 INTRA-LIGAND FREE ENERGY PREDICTED BY IDOCK:   -1.04 KCAL/MOL
REMARK 927      BINDING AFFINITY PREDICTED BY RF-SCORE:    0.00 PKD
ROOT
HETATM    1  O   UNL     1     -11.536   6.590  67.081  1.00  0.00    -0.768 OA 
HETATM    2  H   UNL     1     -12.300   6.750  66.541  1.00  0.00     0.000 HD 
HETATM    3  C   UNL     1     -10.645   7.697  67.078  1.00  0.00    -0.336 C  
ENDROOT
BRANCH   3   4
HETATM    4  C   UNL     1      -9.410   7.437  67.951  1.00  0.00    -0.134 C  
HETATM    5  O   UNL     1      -8.995   8.630  68.636  1.00  0.00    -0.141 OA 
HETATM    6  C   UNL     1      -9.738   8.983  69.814  1.00  0.00    -0.175 C  
HETATM    7  C   UNL     1      -9.755   7.823  70.841  1.00  0.00    -0.168 C  
HETATM    8  H   UNL     1     -11.988   5.747  69.653  1.00  0.00     0.000 HD 
HETATM    9  H   UNL     1      -8.222   5.004  69.736  1.00  0.00     0.000 HD 
HETATM   10  O   UNL     1      -8.461   7.578  71.415  1.00  0.00    -0.110 OA 
HETATM   11  C   UNL     1     -10.257   6.518  70.199  1.00  0.00    -0.192 C  
HETATM   12  H   UNL     1      -8.471   6.867  72.044  1.00  0.00     0.000 HD 
HETATM   13  C   UNL     1      -9.506   6.211  68.889  1.00  0.00    -0.123 C  
HETATM   14  O   UNL     1      -8.163   5.757  69.161  1.00  0.00    -0.100 OA 
HETATM   15  O   UNL     1     -11.678   6.553  70.049  1.00  0.00    -0.416 OA 
BRANCH   6  16
HETATM   16  O   UNL     1     -11.084   9.343  69.492  1.00  0.00    -0.210 OA 
BRANCH  16  17
HETATM   17  C   UNL     1     -11.747  10.238  70.278  1.00  0.00    -0.306 A  
HETATM   18  O   UNL     1     -12.949   8.659  71.662  1.00  0.00    -0.325 OA 
HETATM   19  C   UNL     1     -13.308  10.954  71.994  1.00  0.00    -0.394 A  
HETATM   20  H   UNL     1     -13.554   8.456  72.366  1.00  0.00     0.000 HD 
HETATM   21  C   UNL     1     -13.111  12.276  71.601  1.00  0.00    -0.306 A  
HETATM   22  C   UNL     1     -12.636   9.940  71.313  1.00  0.00    -0.381 A  
HETATM   23  O   UNL     1     -13.853  13.271  72.268  1.00  0.00    -0.549 OA 
HETATM   24  C   UNL     1     -13.749  14.607  71.908  1.00  0.00    -0.419 C  
HETATM   25  O   UNL     1     -14.405  15.489  72.449  1.00  0.00    -0.558 OA 
HETATM   26  C   UNL     1     -12.799  14.938  70.829  1.00  0.00    -0.428 C  
HETATM   27  C   UNL     1     -12.082  14.001  70.196  1.00  0.00    -0.419 C  
HETATM   28  C   UNL     1     -12.241  12.606  70.565  1.00  0.00    -0.383 A  
HETATM   29  C   UNL     1     -11.561  11.577  69.907  1.00  0.00    -0.387 A  
ENDBRANCH  16  17
ENDBRANCH   6  16
ENDBRANCH   3   4
TORSDOF 3
ENDMDL
MODEL       19
REMARK 921   NORMALIZED FREE ENERGY PREDICTED BY IDOCK:   -6.63 KCAL/MOL
REMARK 922        TOTAL FREE ENERGY PREDICTED BY IDOCK:   -8.75 KCAL/MOL
REMARK 923 INTER-LIGAND FREE ENERGY PREDICTED BY IDOCK:   -7.73 KCAL/MOL
REMARK 924 INTRA-LIGAND FREE ENERGY PREDICTED BY IDOCK:   -1.02 KCAL/MOL
REMARK 927      BINDING AFFINITY PREDICTED BY RF-SCORE:    0.00 PKD
ROOT
HETATM    1  O   UNL     1     -10.089  12.413  63.766  1.00  0.00    -0.490 OA 
HETATM    2  H   UNL     1     -10.740  12.659  63.120  1.00  0.00     0.000 HD 
HETATM    3  C   UNL     1     -10.595  11.459  64.689  1.00  0.00    -0.318 C  
ENDROOT
BRANCH   3   4
HETATM    4  C   UNL     1      -9.541  11.061  65.733  1.00  0.00    -0.222 C  
HETATM    5  O   UNL     1      -8.844  12.213  66.234  1.00  0.00    -0.154 OA 
HETATM    6  C   UNL     1      -9.524  12.987  67.234  1.00  0.00    -0.224 C  
HETATM    7  C   UNL     1      -9.934  12.112  68.446  1.00  0.00    -0.206 C  
HETATM    8  H   UNL     1     -12.594  10.517  67.402  1.00  0.00     0.000 HD 
HETATM    9  H   UNL     1      -9.212   8.820  68.053  1.00  0.00     0.000 HD 
HETATM   10  O   UNL     1      -8.802  11.651  69.200  1.00  0.00    -0.370 OA 
HETATM   11  C   UNL     1     -10.750  10.888  67.996  1.00  0.00    -0.220 C  
HETATM   12  H   UNL     1      -9.054  11.114  69.942  1.00  0.00     0.000 HD 
HETATM   13  C   UNL     1     -10.042  10.126  66.859  1.00  0.00    -0.223 C  
HETATM   14  O   UNL     1      -8.905   9.394  67.362  1.00  0.00    -0.127 OA 
HETATM   15  O   UNL     1     -12.090  11.273  67.679  1.00  0.00    -0.600 OA 
BRANCH   6  16
HETATM   16  O   UNL     1     -10.687  13.623  66.699  1.00  0.00    -0.278 OA 
BRANCH  16  17
HETATM   17  C   UNL     1     -10.690  14.973  66.511  1.00  0.00    -0.312 A  
HETATM   18  O   UNL     1     -11.145  14.991  64.135  1.00  0.00    -0.597 OA 
HETATM   19  C   UNL     1     -10.806  17.036  65.236  1.00  0.00    -0.079 A  
HETATM   20  H   UNL     1     -11.291  15.449  63.315  1.00  0.00     0.000 HD 
HETATM   21  C   UNL     1     -10.450  17.746  66.379  1.00  0.00    -0.297 A  
HETATM   22  C   UNL     1     -10.904  15.647  65.307  1.00  0.00    -0.406 A  
HETATM   23  O   UNL     1     -10.298  19.142  66.258  1.00  0.00    -0.412 OA 
HETATM   24  C   UNL     1      -9.902  19.918  67.339  1.00  0.00    -0.409 C  
HETATM   25  O   UNL     1      -9.732  21.128  67.254  1.00  0.00    -0.336 OA 
HETATM   26  C   UNL     1      -9.691  19.221  68.622  1.00  0.00    -0.494 C  
HETATM   27  C   UNL     1      -9.842  17.897  68.750  1.00  0.00    -0.354 C  
HETATM   28  C   UNL     1     -10.217  17.104  67.593  1.00  0.00    -0.329 A  
HETATM   29  C   UNL     1     -10.340  15.713  67.650  1.00  0.00    -0.275 A  
ENDBRANCH  16  17
ENDBRANCH   6  16
ENDBRANCH   3   4
TORSDOF 3
ENDMDL
MODEL       20
REMARK 921   NORMALIZED FREE ENERGY PREDICTED BY IDOCK:   -6.60 KCAL/MOL
REMARK 922        TOTAL FREE ENERGY PREDICTED BY IDOCK:   -8.71 KCAL/MOL
REMARK 923 INTER-LIGAND FREE ENERGY PREDICTED BY IDOCK:   -7.73 KCAL/MOL
REMARK 924 INTRA-LIGAND FREE ENERGY PREDICTED BY IDOCK:   -0.99 KCAL/MOL
REMARK 927      BINDING AFFINITY PREDICTED BY RF-SCORE:    0.00 PKD
ROOT
HETATM    1  O   UNL     1     -12.376   6.842  70.691  1.00  0.00    -0.550 OA 
HETATM    2  H   UNL     1     -13.274   6.698  70.417  1.00  0.00     0.000 HD 
HETATM    3  C   UNL     1     -11.463   6.671  69.616  1.00  0.00    -0.298 C  
ENDROOT
BRANCH   3   4
HETATM    4  C   UNL     1     -10.012   6.905  70.059  1.00  0.00    -0.180 C  
HETATM    5  O   UNL     1      -9.296   7.702  69.101  1.00  0.00    -0.148 OA 
HETATM    6  C   UNL     1      -9.527   9.120  69.150  1.00  0.00    -0.156 C  
HETATM    7  C   UNL     1      -9.237   9.692  70.561  1.00  0.00    -0.152 C  
HETATM    8  H   UNL     1     -11.881   8.870  72.305  1.00  0.00     0.000 HD 
HETATM    9  H   UNL     1      -8.408   7.324  72.846  1.00  0.00     0.000 HD 
HETATM   10  O   UNL     1      -7.841   9.644  70.898  1.00  0.00    -0.317 OA 
HETATM   11  C   UNL     1     -10.024   8.931  71.642  1.00  0.00    -0.327 C  
HETATM   12  H   UNL     1      -7.664   9.994  71.763  1.00  0.00     0.000 HD 
HETATM   13  C   UNL     1      -9.833   7.407  71.510  1.00  0.00    -0.173 C  
HETATM   14  O   UNL     1      -8.518   7.015  71.954  1.00  0.00    -0.110 OA 
HETATM   15  O   UNL     1     -11.395   9.339  71.637  1.00  0.00    -0.358 OA 
BRANCH   6  16
HETATM   16  O   UNL     1     -10.869   9.442  68.780  1.00  0.00    -0.199 OA 
BRANCH  16  17
HETATM   17  C   UNL     1     -11.134  10.640  68.184  1.00  0.00    -0.285 A  
HETATM   18  O   UNL     1     -11.769  11.879  70.162  1.00  0.00    -0.432 OA 
HETATM   19  C   UNL     1     -11.869  12.950  68.076  1.00  0.00    -0.390 A  
HETATM   20  H   UNL     1     -12.060  12.675  70.592  1.00  0.00     0.000 HD 
HETATM   21  C   UNL     1     -11.783  12.899  66.688  1.00  0.00    -0.390 A  
HETATM   22  C   UNL     1     -11.561  11.809  68.815  1.00  0.00    -0.307 A  
HETATM   23  O   UNL     1     -12.161  14.049  65.968  1.00  0.00    -0.412 OA 
HETATM   24  C   UNL     1     -12.147  14.066  64.580  1.00  0.00    -0.440 C  
HETATM   25  O   UNL     1     -12.501  15.042  63.929  1.00  0.00    -0.790 OA 
HETATM   26  C   UNL     1     -11.679  12.843  63.901  1.00  0.00    -0.526 C  
HETATM   27  C   UNL     1     -11.309  11.748  64.575  1.00  0.00    -0.349 C  
HETATM   28  C   UNL     1     -11.372  11.744  66.026  1.00  0.00    -0.335 A  
HETATM   29  C   UNL     1     -11.048  10.616  66.784  1.00  0.00    -0.103 A  
ENDBRANCH  16  17
ENDBRANCH   6  16
ENDBRANCH   3   4
TORSDOF 3
ENDMDL
MODEL       21
REMARK 921   NORMALIZED FREE ENERGY PREDICTED BY IDOCK:   -6.59 KCAL/MOL
REMARK 922        TOTAL FREE ENERGY PREDICTED BY IDOCK:   -8.70 KCAL/MOL
REMARK 923 INTER-LIGAND FREE ENERGY PREDICTED BY IDOCK:   -7.64 KCAL/MOL
REMARK 924 INTRA-LIGAND FREE ENERGY PREDICTED BY IDOCK:   -1.06 KCAL/MOL
REMARK 927      BINDING AFFINITY PREDICTED BY RF-SCORE:    0.00 PKD
ROOT
HETATM    1  O   UNL     1     -12.796   9.574  70.760  1.00  0.00    -0.516 OA 
HETATM    2  H   UNL     1     -13.148  10.350  71.178  1.00  0.00     0.000 HD 
HETATM    3  C   UNL     1     -11.706   9.029  71.494  1.00  0.00    -0.345 C  
ENDROOT
BRANCH   3   4
HETATM    4  C   UNL     1     -11.136   7.774  70.818  1.00  0.00    -0.257 C  
HETATM    5  O   UNL     1     -11.031   7.950  69.396  1.00  0.00    -0.156 OA 
HETATM    6  C   UNL     1      -9.899   8.701  68.927  1.00  0.00    -0.179 C  
HETATM    7  C   UNL     1      -8.567   8.094  69.434  1.00  0.00    -0.135 C  
HETATM    8  H   UNL     1      -8.369   9.108  72.539  1.00  0.00     0.000 HD 
HETATM    9  H   UNL     1      -8.982   5.456  71.528  1.00  0.00     0.000 HD 
HETATM   10  O   UNL     1      -8.288   6.813  68.849  1.00  0.00    -0.119 OA 
HETATM   11  C   UNL     1      -8.574   7.938  70.965  1.00  0.00    -0.131 C  
HETATM   12  H   UNL     1      -7.472   6.441  69.160  1.00  0.00     0.000 HD 
HETATM   13  C   UNL     1      -9.842   7.210  71.450  1.00  0.00    -0.176 C  
HETATM   14  O   UNL     1      -9.777   5.803  71.139  1.00  0.00    -0.164 OA 
HETATM   15  O   UNL     1      -8.365   9.205  71.594  1.00  0.00    -0.339 OA 
BRANCH   6  16
HETATM   16  O   UNL     1      -9.977  10.069  69.335  1.00  0.00    -0.197 OA 
BRANCH  16  17
HETATM   17  C   UNL     1     -10.509  10.995  68.487  1.00  0.00    -0.189 A  
HETATM   18  O   UNL     1     -11.639  12.363  70.131  1.00  0.00    -0.514 OA 
HETATM   19  C   UNL     1     -11.843  12.924  67.861  1.00  0.00    -0.388 A  
HETATM   20  H   UNL     1     -12.176  13.109  70.371  1.00  0.00     0.000 HD 
HETATM   21  C   UNL     1     -11.621  12.625  66.520  1.00  0.00    -0.381 A  
HETATM   22  C   UNL     1     -11.298  12.091  68.838  1.00  0.00    -0.278 A  
HETATM   23  O   UNL     1     -12.237  13.449  65.558  1.00  0.00    -0.400 OA 
HETATM   24  C   UNL     1     -12.103  13.194  64.200  1.00  0.00    -0.430 C  
HETATM   25  O   UNL     1     -12.653  13.875  63.344  1.00  0.00    -0.853 OA 
HETATM   26  C   UNL     1     -11.255  12.050  63.815  1.00  0.00    -0.516 C  
HETATM   27  C   UNL     1     -10.657  11.266  64.721  1.00  0.00    -0.376 C  
HETATM   28  C   UNL     1     -10.848  11.532  66.135  1.00  0.00    -0.330 A  
HETATM   29  C   UNL     1     -10.294  10.720  67.129  1.00  0.00    -0.269 A  
ENDBRANCH  16  17
ENDBRANCH   6  16
ENDBRANCH   3   4
TORSDOF 3
ENDMDL
MODEL       22
REMARK 921   NORMALIZED FREE ENERGY PREDICTED BY IDOCK:   -6.57 KCAL/MOL
REMARK 922        TOTAL FREE ENERGY PREDICTED BY IDOCK:   -8.68 KCAL/MOL
REMARK 923 INTER-LIGAND FREE ENERGY PREDICTED BY IDOCK:   -7.89 KCAL/MOL
REMARK 924 INTRA-LIGAND FREE ENERGY PREDICTED BY IDOCK:   -0.79 KCAL/MOL
REMARK 927      BINDING AFFINITY PREDICTED BY RF-SCORE:    0.00 PKD
ROOT
HETATM    1  O   UNL     1      -5.732  17.550  67.794  1.00  0.00    -0.135 OA 
HETATM    2  H   UNL     1      -5.280  17.009  68.431  1.00  0.00     0.000 HD 
HETATM    3  C   UNL     1      -6.745  16.825  67.110  1.00  0.00    -0.189 C  
ENDROOT
BRANCH   3   4
HETATM    4  C   UNL     1      -7.474  17.700  66.081  1.00  0.00    -0.299 C  
HETATM    5  O   UNL     1      -8.877  17.390  66.035  1.00  0.00    -0.498 OA 
HETATM    6  C   UNL     1      -9.691  17.956  67.074  1.00  0.00    -0.298 C  
HETATM    7  C   UNL     1      -9.543  19.498  67.134  1.00  0.00    -0.331 C  
HETATM    8  H   UNL     1      -6.689  19.958  68.666  1.00  0.00     0.000 HD 
HETATM    9  H   UNL     1      -7.259  20.731  64.949  1.00  0.00     0.000 HD 
HETATM   10  O   UNL     1     -10.103  20.148  65.983  1.00  0.00    -0.490 OA 
HETATM   11  C   UNL     1      -8.066  19.910  67.255  1.00  0.00    -0.306 C  
HETATM   12  H   UNL     1     -10.012  21.093  66.019  1.00  0.00     0.000 HD 
HETATM   13  C   UNL     1      -7.199  19.218  66.185  1.00  0.00    -0.265 C  
HETATM   14  O   UNL     1      -7.429  19.799  64.885  1.00  0.00    -0.152 OA 
HETATM   15  O   UNL     1      -7.600  19.703  68.591  1.00  0.00    -0.338 OA 
BRANCH   6  16
HETATM   16  O   UNL     1      -9.363  17.403  68.351  1.00  0.00    -0.268 OA 
BRANCH  16  17
HETATM   17  C   UNL     1     -10.152  16.428  68.886  1.00  0.00    -0.255 A  
HETATM   18  O   UNL     1     -10.152  14.911  67.001  1.00  0.00    -0.240 OA 
HETATM   19  C   UNL     1     -11.416  14.356  68.899  1.00  0.00    -0.319 A  
HETATM   20  H   UNL     1     -10.416  14.101  66.581  1.00  0.00     0.000 HD 
HETATM   21  C   UNL     1     -11.933  14.696  70.147  1.00  0.00    -0.313 A  
HETATM   22  C   UNL     1     -10.541  15.238  68.268  1.00  0.00    -0.244 A  
HETATM   23  O   UNL     1     -12.864  13.813  70.729  1.00  0.00    -0.298 OA 
HETATM   24  C   UNL     1     -13.460  14.099  71.949  1.00  0.00    -0.405 C  
HETATM   25  O   UNL     1     -14.295  13.365  72.463  1.00  0.00    -0.692 OA 
HETATM   26  C   UNL     1     -13.044  15.344  72.622  1.00  0.00    -0.541 C  
HETATM   27  C   UNL     1     -12.154  16.186  72.082  1.00  0.00    -0.593 C  
HETATM   28  C   UNL     1     -11.576  15.881  70.785  1.00  0.00    -0.441 A  
HETATM   29  C   UNL     1     -10.682  16.744  70.145  1.00  0.00     0.016 A  
ENDBRANCH  16  17
ENDBRANCH   6  16
ENDBRANCH   3   4
TORSDOF 3
ENDMDL
MODEL       23
REMARK 921   NORMALIZED FREE ENERGY PREDICTED BY IDOCK:   -6.51 KCAL/MOL
REMARK 922        TOTAL FREE ENERGY PREDICTED BY IDOCK:   -8.61 KCAL/MOL
REMARK 923 INTER-LIGAND FREE ENERGY PREDICTED BY IDOCK:   -7.66 KCAL/MOL
REMARK 924 INTRA-LIGAND FREE ENERGY PREDICTED BY IDOCK:   -0.95 KCAL/MOL
REMARK 927      BINDING AFFINITY PREDICTED BY RF-SCORE:    0.00 PKD
ROOT
HETATM    1  O   UNL     1      -9.740  20.341  67.971  1.00  0.00    -0.352 OA 
HETATM    2  H   UNL     1     -10.616  20.699  68.052  1.00  0.00     0.000 HD 
HETATM    3  C   UNL     1      -9.469  19.378  68.980  1.00  0.00    -0.340 C  
ENDROOT
BRANCH   3   4
HETATM    4  C   UNL     1      -8.053  18.799  68.849  1.00  0.00    -0.232 C  
HETATM    5  O   UNL     1      -8.077  17.363  68.819  1.00  0.00    -0.269 OA 
HETATM    6  C   UNL     1      -8.428  16.756  67.565  1.00  0.00    -0.192 C  
HETATM    7  C   UNL     1      -7.502  17.243  66.422  1.00  0.00    -0.301 C  
HETATM    8  H   UNL     1      -8.657  20.213  65.682  1.00  0.00     0.000 HD 
HETATM    9  H   UNL     1      -5.272  19.611  67.390  1.00  0.00     0.000 HD 
HETATM   10  O   UNL     1      -6.153  16.773  66.569  1.00  0.00    -0.292 OA 
HETATM   11  C   UNL     1      -7.476  18.779  66.343  1.00  0.00    -0.252 C  
HETATM   12  H   UNL     1      -5.585  17.072  65.868  1.00  0.00     0.000 HD 
HETATM   13  C   UNL     1      -7.189  19.408  67.720  1.00  0.00    -0.251 C  
HETATM   14  O   UNL     1      -5.803  19.236  68.083  1.00  0.00    -0.204 OA 
HETATM   15  O   UNL     1      -8.673  19.265  65.730  1.00  0.00    -0.399 OA 
BRANCH   6  16
HETATM   16  O   UNL     1      -9.787  17.029  67.217  1.00  0.00    -0.249 OA 
BRANCH  16  17
HETATM   17  C   UNL     1     -10.386  16.306  66.228  1.00  0.00    -0.326 A  
HETATM   18  O   UNL     1     -11.103  18.151  64.836  1.00  0.00    -0.673 OA 
HETATM   19  C   UNL     1     -11.658  15.964  64.189  1.00  0.00    -0.058 A  
HETATM   20  H   UNL     1     -11.532  18.496  64.062  1.00  0.00     0.000 HD 
HETATM   21  C   UNL     1     -11.698  14.599  64.459  1.00  0.00    -0.401 A  
HETATM   22  C   UNL     1     -11.016  16.813  65.090  1.00  0.00    -0.100 A  
HETATM   23  O   UNL     1     -12.409  13.778  63.562  1.00  0.00    -0.706 OA 
HETATM   24  C   UNL     1     -12.534  12.413  63.782  1.00  0.00    -0.492 C  
HETATM   25  O   UNL     1     -13.173  11.681  63.035  1.00  0.00    -0.411 OA 
HETATM   26  C   UNL     1     -11.857  11.861  64.970  1.00  0.00    -0.213 C  
HETATM   27  C   UNL     1     -11.171  12.632  65.824  1.00  0.00    -0.347 C  
HETATM   28  C   UNL     1     -11.090  14.062  65.592  1.00  0.00    -0.302 A  
HETATM   29  C   UNL     1     -10.434  14.926  66.473  1.00  0.00    -0.297 A  
ENDBRANCH  16  17
ENDBRANCH   6  16
ENDBRANCH   3   4
TORSDOF 3
ENDMDL
MODEL       24
REMARK 921   NORMALIZED FREE ENERGY PREDICTED BY IDOCK:   -6.50 KCAL/MOL
REMARK 922        TOTAL FREE ENERGY PREDICTED BY IDOCK:   -8.60 KCAL/MOL
REMARK 923 INTER-LIGAND FREE ENERGY PREDICTED BY IDOCK:   -8.09 KCAL/MOL
REMARK 924 INTRA-LIGAND FREE ENERGY PREDICTED BY IDOCK:   -0.52 KCAL/MOL
REMARK 927      BINDING AFFINITY PREDICTED BY RF-SCORE:    0.00 PKD
ROOT
HETATM    1  O   UNL     1     -10.016  15.998  66.696  1.00  0.00    -0.247 OA 
HETATM    2  H   UNL     1      -9.404  16.222  67.386  1.00  0.00     0.000 HD 
HETATM    3  C   UNL     1      -9.496  14.994  65.834  1.00  0.00    -0.278 C  
ENDROOT
BRANCH   3   4
HETATM    4  C   UNL     1     -10.486  14.632  64.718  1.00  0.00    -0.313 C  
HETATM    5  O   UNL     1     -10.299  13.278  64.275  1.00  0.00    -0.427 OA 
HETATM    6  C   UNL     1     -10.871  12.250  65.099  1.00  0.00    -0.301 C  
HETATM    7  C   UNL     1     -12.388  12.477  65.315  1.00  0.00    -0.403 C  
HETATM    8  H   UNL     1     -12.519  14.828  67.587  1.00  0.00     0.000 HD 
HETATM    9  H   UNL     1     -13.548  15.347  63.924  1.00  0.00     0.000 HD 
HETATM   10  O   UNL     1     -13.149  12.296  64.110  1.00  0.00    -0.749 OA 
HETATM   11  C   UNL     1     -12.668  13.889  65.859  1.00  0.00    -0.421 C  
HETATM   12  H   UNL     1     -14.079  12.436  64.243  1.00  0.00     0.000 HD 
HETATM   13  C   UNL     1     -11.967  14.968  65.010  1.00  0.00    -0.191 C  
HETATM   14  O   UNL     1     -12.638  15.140  63.745  1.00  0.00    -0.752 OA 
HETATM   15  O   UNL     1     -12.347  13.957  67.251  1.00  0.00    -0.347 OA 
BRANCH   6  16
HETATM   16  O   UNL     1     -10.221  12.180  66.370  1.00  0.00    -0.214 OA 
BRANCH  16  17
HETATM   17  C   UNL     1     -10.313  11.039  67.111  1.00  0.00    -0.220 A  
HETATM   18  O   UNL     1      -9.889   9.443  65.343  1.00  0.00    -0.424 OA 
HETATM   19  C   UNL     1     -10.353   8.644  67.500  1.00  0.00    -0.336 A  
HETATM   20  H   UNL     1      -9.785   8.553  65.028  1.00  0.00     0.000 HD 
HETATM   21  C   UNL     1     -10.742   8.878  68.816  1.00  0.00    -0.090 A  
HETATM   22  C   UNL     1     -10.160   9.731  66.649  1.00  0.00    -0.237 A  
HETATM   23  O   UNL     1     -10.991   7.756  69.632  1.00  0.00    -0.220 OA 
HETATM   24  C   UNL     1     -11.425   7.903  70.943  1.00  0.00    -0.281 C  
HETATM   25  O   UNL     1     -11.678   6.945  71.663  1.00  0.00    -0.271 OA 
HETATM   26  C   UNL     1     -11.572   9.280  71.449  1.00  0.00    -0.437 C  
HETATM   27  C   UNL     1     -11.330  10.353  70.685  1.00  0.00    -0.411 C  
HETATM   28  C   UNL     1     -10.916  10.171  69.306  1.00  0.00    -0.279 A  
HETATM   29  C   UNL     1     -10.698  11.249  68.443  1.00  0.00    -0.238 A  
ENDBRANCH  16  17
ENDBRANCH   6  16
ENDBRANCH   3   4
TORSDOF 3
ENDMDL
MODEL       25
REMARK 921   NORMALIZED FREE ENERGY PREDICTED BY IDOCK:   -6.50 KCAL/MOL
REMARK 922        TOTAL FREE ENERGY PREDICTED BY IDOCK:   -8.60 KCAL/MOL
REMARK 923 INTER-LIGAND FREE ENERGY PREDICTED BY IDOCK:   -7.81 KCAL/MOL
REMARK 924 INTRA-LIGAND FREE ENERGY PREDICTED BY IDOCK:   -0.79 KCAL/MOL
REMARK 927      BINDING AFFINITY PREDICTED BY RF-SCORE:    0.00 PKD
ROOT
HETATM    1  O   UNL     1     -11.131  19.474  67.158  1.00  0.00    -0.446 OA 
HETATM    2  H   UNL     1     -11.857  19.583  66.556  1.00  0.00     0.000 HD 
HETATM    3  C   UNL     1      -9.993  20.224  66.753  1.00  0.00    -0.450 C  
ENDROOT
BRANCH   3   4
HETATM    4  C   UNL     1      -8.819  20.048  67.727  1.00  0.00    -0.302 C  
HETATM    5  O   UNL     1      -8.796  18.722  68.280  1.00  0.00    -0.311 OA 
HETATM    6  C   UNL     1      -8.243  17.691  67.446  1.00  0.00    -0.212 C  
HETATM    7  C   UNL     1      -6.805  18.045  66.988  1.00  0.00    -0.188 C  
HETATM    8  H   UNL     1      -7.255  20.210  64.577  1.00  0.00     0.000 HD 
HETATM    9  H   UNL     1      -5.769  21.113  67.999  1.00  0.00     0.000 HD 
HETATM   10  O   UNL     1      -5.864  18.033  68.073  1.00  0.00    -0.160 OA 
HETATM   11  C   UNL     1      -6.759  19.429  66.318  1.00  0.00    -0.206 C  
HETATM   12  H   UNL     1      -4.983  18.250  67.792  1.00  0.00     0.000 HD 
HETATM   13  C   UNL     1      -7.440  20.500  67.193  1.00  0.00    -0.328 C  
HETATM   14  O   UNL     1      -6.616  20.835  68.328  1.00  0.00    -0.289 OA 
HETATM   15  O   UNL     1      -7.283  19.356  64.990  1.00  0.00    -0.338 OA 
BRANCH   6  16
HETATM   16  O   UNL     1      -9.058  17.459  66.296  1.00  0.00    -0.356 OA 
BRANCH  16  17
HETATM   17  C   UNL     1      -9.611  16.228  66.100  1.00  0.00    -0.331 A  
HETATM   18  O   UNL     1     -11.138  16.814  64.317  1.00  0.00    -1.301 OA 
HETATM   19  C   UNL     1     -11.132  14.609  65.121  1.00  0.00    -0.382 A  
HETATM   20  H   UNL     1     -11.810  16.587  63.684  1.00  0.00     0.000 HD 
HETATM   21  C   UNL     1     -10.696  13.663  66.045  1.00  0.00    -0.280 A  
HETATM   22  C   UNL     1     -10.597  15.896  65.169  1.00  0.00    -0.397 A  
HETATM   23  O   UNL     1     -11.302  12.391  66.011  1.00  0.00    -0.317 OA 
HETATM   24  C   UNL     1     -10.956  11.405  66.925  1.00  0.00    -0.299 C  
HETATM   25  O   UNL     1     -11.489  10.302  66.937  1.00  0.00    -0.038 OA 
HETATM   26  C   UNL     1      -9.902  11.737  67.901  1.00  0.00    -0.186 C  
HETATM   27  C   UNL     1      -9.313  12.939  67.936  1.00  0.00    -0.208 C  
HETATM   28  C   UNL     1      -9.722  13.965  66.994  1.00  0.00    -0.250 A  
HETATM   29  C   UNL     1      -9.183  15.255  67.014  1.00  0.00    -0.235 A  
ENDBRANCH  16  17
ENDBRANCH   6  16
ENDBRANCH   3   4
TORSDOF 3
ENDMDL
MODEL       26
REMARK 921   NORMALIZED FREE ENERGY PREDICTED BY IDOCK:   -6.47 KCAL/MOL
REMARK 922        TOTAL FREE ENERGY PREDICTED BY IDOCK:   -8.57 KCAL/MOL
REMARK 923 INTER-LIGAND FREE ENERGY PREDICTED BY IDOCK:   -7.47 KCAL/MOL
REMARK 924 INTRA-LIGAND FREE ENERGY PREDICTED BY IDOCK:   -1.09 KCAL/MOL
REMARK 927      BINDING AFFINITY PREDICTED BY RF-SCORE:    0.00 PKD
ROOT
HETATM    1  O   UNL     1      -7.875  13.287  67.046  1.00  0.00    -0.378 OA 
HETATM    2  H   UNL     1      -7.245  13.269  67.757  1.00  0.00     0.000 HD 
HETATM    3  C   UNL     1      -8.551  14.536  66.972  1.00  0.00    -0.217 C  
ENDROOT
BRANCH   3   4
HETATM    4  C   UNL     1      -9.569  14.565  65.823  1.00  0.00    -0.207 C  
HETATM    5  O   UNL     1     -10.254  13.307  65.702  1.00  0.00    -0.283 OA 
HETATM    6  C   UNL     1     -11.325  13.070  66.630  1.00  0.00    -0.325 C  
HETATM    7  C   UNL     1     -12.385  14.199  66.571  1.00  0.00    -0.372 C  
HETATM    8  H   UNL     1     -11.024  16.647  68.261  1.00  0.00     0.000 HD 
HETATM    9  H   UNL     1     -11.565  16.727  64.462  1.00  0.00     0.000 HD 
HETATM   10  O   UNL     1     -13.111  14.207  65.332  1.00  0.00    -0.743 OA 
HETATM   11  C   UNL     1     -11.737  15.581  66.764  1.00  0.00     0.255 C  
HETATM   12  H   UNL     1     -13.761  14.899  65.297  1.00  0.00     0.000 HD 
HETATM   13  C   UNL     1     -10.533  15.774  65.821  1.00  0.00    -0.367 C  
HETATM   14  O   UNL     1     -10.974  15.984  64.463  1.00  0.00    -0.592 OA 
HETATM   15  O   UNL     1     -11.424  15.794  68.143  1.00  0.00    -0.352 OA 
BRANCH   6  16
HETATM   16  O   UNL     1     -10.837  12.952  67.968  1.00  0.00    -0.227 OA 
BRANCH  16  17
HETATM   17  C   UNL     1     -10.821  11.731  68.574  1.00  0.00    -0.224 A  
HETATM   18  O   UNL     1      -9.295  10.616  67.063  1.00  0.00    -0.154 OA 
HETATM   19  C   UNL     1     -10.228   9.391  68.834  1.00  0.00    -0.215 A  
HETATM   20  H   UNL     1      -8.803   9.852  66.785  1.00  0.00     0.000 HD 
HETATM   21  C   UNL     1     -11.123   9.297  69.897  1.00  0.00    -0.181 A  
HETATM   22  C   UNL     1     -10.099  10.608  68.165  1.00  0.00    -0.158 A  
HETATM   23  O   UNL     1     -11.277   8.038  70.509  1.00  0.00    -0.265 OA 
HETATM   24  C   UNL     1     -12.180   7.849  71.546  1.00  0.00    -0.311 C  
HETATM   25  O   UNL     1     -12.356   6.758  72.076  1.00  0.00    -0.322 OA 
HETATM   26  C   UNL     1     -12.935   9.031  72.000  1.00  0.00    -0.470 C  
HETATM   27  C   UNL     1     -12.790  10.234  71.431  1.00  0.00    -0.544 C  
HETATM   28  C   UNL     1     -11.867  10.395  70.321  1.00  0.00    -0.399 A  
HETATM   29  C   UNL     1     -11.709  11.612  69.652  1.00  0.00    -0.418 A  
ENDBRANCH  16  17
ENDBRANCH   6  16
ENDBRANCH   3   4
TORSDOF 3
ENDMDL
MODEL       27
REMARK 921   NORMALIZED FREE ENERGY PREDICTED BY IDOCK:   -6.44 KCAL/MOL
REMARK 922        TOTAL FREE ENERGY PREDICTED BY IDOCK:   -8.52 KCAL/MOL
REMARK 923 INTER-LIGAND FREE ENERGY PREDICTED BY IDOCK:   -7.47 KCAL/MOL
REMARK 924 INTRA-LIGAND FREE ENERGY PREDICTED BY IDOCK:   -1.05 KCAL/MOL
REMARK 927      BINDING AFFINITY PREDICTED BY RF-SCORE:    0.00 PKD
ROOT
HETATM    1  O   UNL     1      -9.877   7.048  68.528  1.00  0.00    -0.143 OA 
HETATM    2  H   UNL     1     -10.381   7.061  67.723  1.00  0.00     0.000 HD 
HETATM    3  C   UNL     1     -10.412   6.129  69.471  1.00  0.00    -0.254 C  
ENDROOT
BRANCH   3   4
HETATM    4  C   UNL     1      -9.598   6.108  70.772  1.00  0.00    -0.169 C  
HETATM    5  O   UNL     1      -9.230   7.437  71.177  1.00  0.00    -0.154 OA 
HETATM    6  C   UNL     1     -10.245   8.208  71.840  1.00  0.00    -0.224 C  
HETATM    7  C   UNL     1     -10.800   7.465  73.081  1.00  0.00    -0.386 C  
HETATM    8  H   UNL     1     -12.844   5.242  71.824  1.00  0.00     0.000 HD 
HETATM    9  H   UNL     1      -9.506   4.356  73.499  1.00  0.00     0.000 HD 
HETATM   10  O   UNL     1      -9.829   7.354  74.135  1.00  0.00    -0.413 OA 
HETATM   11  C   UNL     1     -11.282   6.051  72.714  1.00  0.00    -0.261 C  
HETATM   12  H   UNL     1     -10.169   6.899  74.895  1.00  0.00     0.000 HD 
HETATM   13  C   UNL     1     -10.208   5.277  71.924  1.00  0.00    -0.207 C  
HETATM   14  O   UNL     1      -9.131   4.867  72.791  1.00  0.00    -0.125 OA 
HETATM   15  O   UNL     1     -12.547   6.114  72.050  1.00  0.00    -0.199 OA 
BRANCH   6  16
HETATM   16  O   UNL     1     -11.325   8.515  70.955  1.00  0.00    -0.259 OA 
BRANCH  16  17
HETATM   17  C   UNL     1     -11.590   9.815  70.643  1.00  0.00    -0.313 A  
HETATM   18  O   UNL     1     -10.088  10.032  68.759  1.00  0.00    -0.170 OA 
HETATM   19  C   UNL     1     -11.322  11.907  69.441  1.00  0.00    -0.327 A  
HETATM   20  H   UNL     1      -9.698  10.536  68.054  1.00  0.00     0.000 HD 
HETATM   21  C   UNL     1     -12.179  12.523  70.350  1.00  0.00    -0.286 A  
HETATM   22  C   UNL     1     -11.018  10.557  69.607  1.00  0.00    -0.283 A  
HETATM   23  O   UNL     1     -12.416  13.902  70.190  1.00  0.00    -0.333 OA 
HETATM   24  C   UNL     1     -13.223  14.600  71.079  1.00  0.00    -0.374 C  
HETATM   25  O   UNL     1     -13.420  15.806  70.982  1.00  0.00    -0.581 OA 
HETATM   26  C   UNL     1     -13.849  13.825  72.166  1.00  0.00    -0.649 C  
HETATM   27  C   UNL     1     -13.638  12.512  72.321  1.00  0.00    -0.443 C  
HETATM   28  C   UNL     1     -12.757  11.814  71.400  1.00  0.00    -0.413 A  
HETATM   29  C   UNL     1     -12.456  10.457  71.540  1.00  0.00    -0.508 A  
ENDBRANCH  16  17
ENDBRANCH   6  16
ENDBRANCH   3   4
TORSDOF 3
ENDMDL
MODEL       28
REMARK 921   NORMALIZED FREE ENERGY PREDICTED BY IDOCK:   -6.43 KCAL/MOL
REMARK 922        TOTAL FREE ENERGY PREDICTED BY IDOCK:   -8.52 KCAL/MOL
REMARK 923 INTER-LIGAND FREE ENERGY PREDICTED BY IDOCK:   -8.17 KCAL/MOL
REMARK 924 INTRA-LIGAND FREE ENERGY PREDICTED BY IDOCK:   -0.35 KCAL/MOL
REMARK 927      BINDING AFFINITY PREDICTED BY RF-SCORE:    0.00 PKD
ROOT
HETATM    1  O   UNL     1      -5.585  17.924  65.807  1.00  0.00    -0.184 OA 
HETATM    2  H   UNL     1      -5.085  17.366  65.223  1.00  0.00     0.000 HD 
HETATM    3  C   UNL     1      -6.461  18.785  65.092  1.00  0.00    -0.203 C  
ENDROOT
BRANCH   3   4
HETATM    4  C   UNL     1      -7.269  19.687  66.035  1.00  0.00    -0.291 C  
HETATM    5  O   UNL     1      -8.680  19.552  65.803  1.00  0.00    -0.400 OA 
HETATM    6  C   UNL     1      -9.316  18.400  66.380  1.00  0.00    -0.283 C  
HETATM    7  C   UNL     1      -9.073  18.326  67.909  1.00  0.00    -0.279 C  
HETATM    8  H   UNL     1      -6.019  17.180  68.168  1.00  0.00     0.000 HD 
HETATM    9  H   UNL     1      -7.031  20.768  69.084  1.00  0.00     0.000 HD 
HETATM   10  O   UNL     1      -9.742  19.377  68.624  1.00  0.00    -0.383 OA 
HETATM   11  C   UNL     1      -7.571  18.394  68.238  1.00  0.00    -0.286 C  
HETATM   12  H   UNL     1      -9.593  19.331  69.561  1.00  0.00     0.000 HD 
HETATM   13  C   UNL     1      -6.895  19.586  67.533  1.00  0.00    -0.215 C  
HETATM   14  O   UNL     1      -7.261  20.830  68.164  1.00  0.00    -0.169 OA 
HETATM   15  O   UNL     1      -6.946  17.137  67.965  1.00  0.00    -0.163 OA 
BRANCH   6  16
HETATM   16  O   UNL     1      -8.854  17.192  65.772  1.00  0.00    -0.526 OA 
BRANCH  16  17
HETATM   17  C   UNL     1      -9.607  16.059  65.870  1.00  0.00    -0.335 A  
HETATM   18  O   UNL     1     -11.268  16.602  64.197  1.00  0.00    -1.410 OA 
HETATM   19  C   UNL     1     -11.477  14.589  65.385  1.00  0.00    -0.348 A  
HETATM   20  H   UNL     1     -12.049  16.395  63.697  1.00  0.00     0.000 HD 
HETATM   21  C   UNL     1     -11.060  13.745  66.411  1.00  0.00    -0.308 A  
HETATM   22  C   UNL     1     -10.754  15.755  65.135  1.00  0.00    -0.435 A  
HETATM   23  O   UNL     1     -11.849  12.608  66.679  1.00  0.00    -0.389 OA 
HETATM   24  C   UNL     1     -11.528  11.739  67.713  1.00  0.00    -0.311 C  
HETATM   25  O   UNL     1     -12.213  10.761  67.988  1.00  0.00    -0.297 OA 
HETATM   26  C   UNL     1     -10.307  12.038  68.485  1.00  0.00    -0.228 C  
HETATM   27  C   UNL     1      -9.546  13.110  68.232  1.00  0.00    -0.218 C  
HETATM   28  C   UNL     1      -9.927  14.025  67.171  1.00  0.00    -0.252 A  
HETATM   29  C   UNL     1      -9.204  15.188  66.892  1.00  0.00    -0.259 A  
ENDBRANCH  16  17
ENDBRANCH   6  16
ENDBRANCH   3   4
TORSDOF 3
ENDMDL
MODEL       29
REMARK 921   NORMALIZED FREE ENERGY PREDICTED BY IDOCK:   -6.42 KCAL/MOL
REMARK 922        TOTAL FREE ENERGY PREDICTED BY IDOCK:   -8.51 KCAL/MOL
REMARK 923 INTER-LIGAND FREE ENERGY PREDICTED BY IDOCK:   -7.42 KCAL/MOL
REMARK 924 INTRA-LIGAND FREE ENERGY PREDICTED BY IDOCK:   -1.09 KCAL/MOL
REMARK 927      BINDING AFFINITY PREDICTED BY RF-SCORE:    0.00 PKD
ROOT
HETATM    1  O   UNL     1      -9.154  15.760  68.257  1.00  0.00    -0.182 OA 
HETATM    2  H   UNL     1      -8.692  15.963  69.062  1.00  0.00     0.000 HD 
HETATM    3  C   UNL     1      -8.744  14.512  67.714  1.00  0.00    -0.174 C  
ENDROOT
BRANCH   3   4
HETATM    4  C   UNL     1      -9.491  14.184  66.414  1.00  0.00    -0.269 C  
HETATM    5  O   UNL     1      -9.601  12.765  66.219  1.00  0.00    -0.257 OA 
HETATM    6  C   UNL     1     -10.631  12.096  66.965  1.00  0.00    -0.228 C  
HETATM    7  C   UNL     1     -12.022  12.725  66.698  1.00  0.00    -0.341 C  
HETATM    8  H   UNL     1     -12.019  15.446  68.514  1.00  0.00     0.000 HD 
HETATM    9  H   UNL     1     -11.920  15.448  64.677  1.00  0.00     0.000 HD 
HETATM   10  O   UNL     1     -12.481  12.495  65.357  1.00  0.00    -0.630 OA 
HETATM   11  C   UNL     1     -12.005  14.242  66.953  1.00  0.00    -0.438 C  
HETATM   12  H   UNL     1     -13.334  12.881  65.193  1.00  0.00     0.000 HD 
HETATM   13  C   UNL     1     -10.835  14.923  66.215  1.00  0.00    -0.331 C  
HETATM   14  O   UNL     1     -11.095  14.994  64.798  1.00  0.00    -0.387 OA 
HETATM   15  O   UNL     1     -12.030  14.510  68.357  1.00  0.00    -0.321 OA 
BRANCH   6  16
HETATM   16  O   UNL     1     -10.362  12.128  68.368  1.00  0.00    -0.219 OA 
BRANCH  16  17
HETATM   17  C   UNL     1     -10.982  11.236  69.193  1.00  0.00    -0.240 A  
HETATM   18  O   UNL     1     -12.122  12.821  70.623  1.00  0.00    -0.464 OA 
HETATM   19  C   UNL     1     -12.334  10.529  71.081  1.00  0.00    -0.510 A  
HETATM   20  H   UNL     1     -12.693  13.026  71.354  1.00  0.00     0.000 HD 
HETATM   21  C   UNL     1     -11.966   9.209  70.831  1.00  0.00    -0.242 A  
HETATM   22  C   UNL     1     -11.821  11.538  70.267  1.00  0.00    -0.342 A  
HETATM   23  O   UNL     1     -12.451   8.220  71.710  1.00  0.00    -0.305 OA 
HETATM   24  C   UNL     1     -12.096   6.887  71.558  1.00  0.00    -0.358 C  
HETATM   25  O   UNL     1     -12.478   6.012  72.326  1.00  0.00    -0.206 OA 
HETATM   26  C   UNL     1     -11.226   6.552  70.415  1.00  0.00    -0.414 C  
HETATM   27  C   UNL     1     -10.767   7.483  69.569  1.00  0.00    -0.222 C  
HETATM   28  C   UNL     1     -11.122   8.875  69.775  1.00  0.00    -0.099 A  
HETATM   29  C   UNL     1     -10.633   9.899  68.958  1.00  0.00    -0.240 A  
ENDBRANCH  16  17
ENDBRANCH   6  16
ENDBRANCH   3   4
TORSDOF 3
ENDMDL
MODEL       30
REMARK 921   NORMALIZED FREE ENERGY PREDICTED BY IDOCK:   -6.40 KCAL/MOL
REMARK 922        TOTAL FREE ENERGY PREDICTED BY IDOCK:   -8.48 KCAL/MOL
REMARK 923 INTER-LIGAND FREE ENERGY PREDICTED BY IDOCK:   -7.41 KCAL/MOL
REMARK 924 INTRA-LIGAND FREE ENERGY PREDICTED BY IDOCK:   -1.07 KCAL/MOL
REMARK 927      BINDING AFFINITY PREDICTED BY RF-SCORE:    0.00 PKD
ROOT
HETATM    1  O   UNL     1     -10.712  14.891  66.924  1.00  0.00    -0.295 OA 
HETATM    2  H   UNL     1     -10.286  15.010  67.764  1.00  0.00     0.000 HD 
HETATM    3  C   UNL     1      -9.823  14.358  65.951  1.00  0.00    -0.310 C  
ENDROOT
BRANCH   3   4
HETATM    4  C   UNL     1     -10.513  14.166  64.593  1.00  0.00    -0.339 C  
HETATM    5  O   UNL     1      -9.938  13.067  63.868  1.00  0.00    -0.311 OA 
HETATM    6  C   UNL     1     -10.366  11.751  64.256  1.00  0.00    -0.314 C  
HETATM    7  C   UNL     1     -11.908  11.614  64.191  1.00  0.00    -0.172 C  
HETATM    8  H   UNL     1     -12.950  13.113  66.906  1.00  0.00     0.000 HD 
HETATM    9  H   UNL     1     -13.496  14.498  63.368  1.00  0.00     0.000 HD 
HETATM   10  O   UNL     1     -12.407  11.662  62.845  1.00  0.00    -0.923 OA 
HETATM   11  C   UNL     1     -12.600  12.721  65.005  1.00  0.00    -0.468 C  
HETATM   12  H   UNL     1     -13.352  11.579  62.805  1.00  0.00     0.000 HD 
HETATM   13  C   UNL     1     -12.058  14.115  64.634  1.00  0.00    -0.452 C  
HETATM   14  O   UNL     1     -12.547  14.528  63.342  1.00  0.00    -0.673 OA 
HETATM   15  O   UNL     1     -12.523  12.430  66.403  1.00  0.00    -0.418 OA 
BRANCH   6  16
HETATM   16  O   UNL     1      -9.922  11.429  65.576  1.00  0.00    -0.218 OA 
BRANCH  16  17
HETATM   17  C   UNL     1      -9.908  10.127  65.982  1.00  0.00    -0.246 A  
HETATM   18  O   UNL     1     -11.479  10.319  67.813  1.00  0.00    -0.593 OA 
HETATM   19  C   UNL     1     -10.475   8.238  67.398  1.00  0.00    -0.353 A  
HETATM   20  H   UNL     1     -11.975   9.943  68.531  1.00  0.00     0.000 HD 
HETATM   21  C   UNL     1      -9.542   7.463  66.713  1.00  0.00    -0.192 A  
HETATM   22  C   UNL     1     -10.637   9.575  67.038  1.00  0.00    -0.201 A  
HETATM   23  O   UNL     1      -9.358   6.134  67.143  1.00  0.00    -0.116 OA 
HETATM   24  C   UNL     1      -8.417   5.309  66.543  1.00  0.00    -0.112 C  
HETATM   25  O   UNL     1      -8.214   4.160  66.918  1.00  0.00    -0.100 OA 
HETATM   26  C   UNL     1      -7.655   5.873  65.414  1.00  0.00    -0.085 C  
HETATM   27  C   UNL     1      -7.829   7.132  64.991  1.00  0.00    -0.125 C  
HETATM   28  C   UNL     1      -8.791   7.986  65.664  1.00  0.00    -0.133 A  
HETATM   29  C   UNL     1      -8.981   9.323  65.304  1.00  0.00    -0.260 A  
ENDBRANCH  16  17
ENDBRANCH   6  16
ENDBRANCH   3   4
TORSDOF 3
ENDMDL
MODEL       31
REMARK 921   NORMALIZED FREE ENERGY PREDICTED BY IDOCK:   -6.38 KCAL/MOL
REMARK 922        TOTAL FREE ENERGY PREDICTED BY IDOCK:   -8.46 KCAL/MOL
REMARK 923 INTER-LIGAND FREE ENERGY PREDICTED BY IDOCK:   -7.41 KCAL/MOL
REMARK 924 INTRA-LIGAND FREE ENERGY PREDICTED BY IDOCK:   -1.05 KCAL/MOL
REMARK 927      BINDING AFFINITY PREDICTED BY RF-SCORE:    0.00 PKD
ROOT
HETATM    1  O   UNL     1      -9.585  11.789  63.879  1.00  0.00    -0.439 OA 
HETATM    2  H   UNL     1     -10.086  12.128  63.147  1.00  0.00     0.000 HD 
HETATM    3  C   UNL     1     -10.353  10.898  64.676  1.00  0.00    -0.338 C  
ENDROOT
BRANCH   3   4
HETATM    4  C   UNL     1      -9.543  10.350  65.860  1.00  0.00    -0.206 C  
HETATM    5  O   UNL     1      -8.597  11.321  66.338  1.00  0.00    -0.168 OA 
HETATM    6  C   UNL     1      -9.117  12.355  67.188  1.00  0.00    -0.199 C  
HETATM    7  C   UNL     1      -9.855  11.762  68.415  1.00  0.00    -0.199 C  
HETATM    8  H   UNL     1     -12.755  10.833  67.219  1.00  0.00     0.000 HD 
HETATM    9  H   UNL     1     -10.045   8.374  68.381  1.00  0.00     0.000 HD 
HETATM   10  O   UNL     1      -8.962  11.101  69.326  1.00  0.00    -0.388 OA 
HETATM   11  C   UNL     1     -10.938  10.759  67.981  1.00  0.00    -0.283 C  
HETATM   12  H   UNL     1      -9.415  10.737  70.078  1.00  0.00     0.000 HD 
HETATM   13  C   UNL     1     -10.375   9.714  66.997  1.00  0.00    -0.248 C  
HETATM   14  O   UNL     1      -9.533   8.765  67.683  1.00  0.00    -0.138 OA 
HETATM   15  O   UNL     1     -12.086  11.452  67.487  1.00  0.00    -0.592 OA 
BRANCH   6  16
HETATM   16  O   UNL     1     -10.009  13.216  66.476  1.00  0.00    -0.255 OA 
BRANCH  16  17
HETATM   17  C   UNL     1     -10.193  14.497  66.904  1.00  0.00    -0.264 A  
HETATM   18  O   UNL     1     -12.321  14.190  68.012  1.00  0.00    -0.560 OA 
HETATM   19  C   UNL     1     -11.381  16.339  67.946  1.00  0.00    -0.141 A  
HETATM   20  H   UNL     1     -13.061  14.521  68.509  1.00  0.00     0.000 HD 
HETATM   21  C   UNL     1     -10.401  17.214  67.485  1.00  0.00    -0.341 A  
HETATM   22  C   UNL     1     -11.279  14.985  67.634  1.00  0.00    -0.326 A  
HETATM   23  O   UNL     1     -10.568  18.585  67.764  1.00  0.00    -0.406 OA 
HETATM   24  C   UNL     1      -9.659  19.528  67.303  1.00  0.00    -0.337 C  
HETATM   25  O   UNL     1      -9.797  20.729  67.504  1.00  0.00    -0.439 OA 
HETATM   26  C   UNL     1      -8.497  19.025  66.548  1.00  0.00    -0.320 C  
HETATM   27  C   UNL     1      -8.324  17.723  66.285  1.00  0.00    -0.240 C  
HETATM   28  C   UNL     1      -9.311  16.763  66.745  1.00  0.00    -0.263 A  
HETATM   29  C   UNL     1      -9.215  15.398  66.458  1.00  0.00    -0.323 A  
ENDBRANCH  16  17
ENDBRANCH   6  16
ENDBRANCH   3   4
TORSDOF 3
ENDMDL
MODEL       32
REMARK 921   NORMALIZED FREE ENERGY PREDICTED BY IDOCK:   -6.36 KCAL/MOL
REMARK 922        TOTAL FREE ENERGY PREDICTED BY IDOCK:   -8.43 KCAL/MOL
REMARK 923 INTER-LIGAND FREE ENERGY PREDICTED BY IDOCK:   -7.58 KCAL/MOL
REMARK 924 INTRA-LIGAND FREE ENERGY PREDICTED BY IDOCK:   -0.85 KCAL/MOL
REMARK 927      BINDING AFFINITY PREDICTED BY RF-SCORE:    0.00 PKD
ROOT
HETATM    1  O   UNL     1     -11.069  15.264  69.338  1.00  0.00    -0.248 OA 
HETATM    2  H   UNL     1     -11.701  15.245  70.047  1.00  0.00     0.000 HD 
HETATM    3  C   UNL     1     -11.699  15.419  68.074  1.00  0.00    -0.221 C  
ENDROOT
BRANCH   3   4
HETATM    4  C   UNL     1     -10.678  15.449  66.928  1.00  0.00    -0.314 C  
HETATM    5  O   UNL     1      -9.838  14.283  66.948  1.00  0.00    -0.249 OA 
HETATM    6  C   UNL     1     -10.401  13.080  66.399  1.00  0.00    -0.281 C  
HETATM    7  C   UNL     1     -10.886  13.296  64.943  1.00  0.00    -0.345 C  
HETATM    8  H   UNL     1     -13.736  14.865  65.284  1.00  0.00     0.000 HD 
HETATM    9  H   UNL     1     -10.566  16.496  63.861  1.00  0.00     0.000 HD 
HETATM   10  O   UNL     1      -9.800  13.515  64.029  1.00  0.00    -0.678 OA 
HETATM   11  C   UNL     1     -11.850  14.491  64.849  1.00  0.00    -0.416 C  
HETATM   12  H   UNL     1     -10.097  13.647  63.137  1.00  0.00     0.000 HD 
HETATM   13  C   UNL     1     -11.260  15.744  65.526  1.00  0.00    -0.093 C  
HETATM   14  O   UNL     1     -10.208  16.314  64.722  1.00  0.00    -0.425 OA 
HETATM   15  O   UNL     1     -13.141  14.127  65.343  1.00  0.00    -0.743 OA 
BRANCH   6  16
HETATM   16  O   UNL     1     -11.492  12.607  67.192  1.00  0.00    -0.305 OA 
BRANCH  16  17
HETATM   17  C   UNL     1     -11.301  11.559  68.043  1.00  0.00    -0.298 A  
HETATM   18  O   UNL     1     -11.593  12.749  70.129  1.00  0.00    -0.515 OA 
HETATM   19  C   UNL     1     -11.055  10.465  70.196  1.00  0.00    -0.383 A  
HETATM   20  H   UNL     1     -11.622  12.776  71.079  1.00  0.00     0.000 HD 
HETATM   21  C   UNL     1     -10.682   9.293  69.542  1.00  0.00    -0.222 A  
HETATM   22  C   UNL     1     -11.343  11.599  69.438  1.00  0.00    -0.278 A  
HETATM   23  O   UNL     1     -10.336   8.184  70.340  1.00  0.00    -0.200 OA 
HETATM   24  C   UNL     1      -9.912   6.993  69.768  1.00  0.00    -0.173 C  
HETATM   25  O   UNL     1      -9.575   6.024  70.438  1.00  0.00    -0.161 OA 
HETATM   26  C   UNL     1      -9.880   6.931  68.295  1.00  0.00    -0.141 C  
HETATM   27  C   UNL     1     -10.216   7.976  67.528  1.00  0.00    -0.311 C  
HETATM   28  C   UNL     1     -10.618   9.223  68.153  1.00  0.00    -0.248 A  
HETATM   29  C   UNL     1     -10.930  10.364  67.409  1.00  0.00    -0.335 A  
ENDBRANCH  16  17
ENDBRANCH   6  16
ENDBRANCH   3   4
TORSDOF 3
ENDMDL
MODEL       33
REMARK 921   NORMALIZED FREE ENERGY PREDICTED BY IDOCK:   -6.35 KCAL/MOL
REMARK 922        TOTAL FREE ENERGY PREDICTED BY IDOCK:   -8.42 KCAL/MOL
REMARK 923 INTER-LIGAND FREE ENERGY PREDICTED BY IDOCK:   -7.58 KCAL/MOL
REMARK 924 INTRA-LIGAND FREE ENERGY PREDICTED BY IDOCK:   -0.84 KCAL/MOL
REMARK 927      BINDING AFFINITY PREDICTED BY RF-SCORE:    0.00 PKD
ROOT
HETATM    1  O   UNL     1     -11.535   6.675  68.427  1.00  0.00    -0.571 OA 
HETATM    2  H   UNL     1     -11.870   6.911  67.571  1.00  0.00     0.000 HD 
HETATM    3  C   UNL     1     -10.637   7.655  68.931  1.00  0.00    -0.159 C  
ENDROOT
BRANCH   3   4
HETATM    4  C   UNL     1     -10.094   7.273  70.315  1.00  0.00    -0.192 C  
HETATM    5  O   UNL     1      -9.872   8.437  71.128  1.00  0.00    -0.174 OA 
HETATM    6  C   UNL     1     -11.031   9.010  71.754  1.00  0.00    -0.372 C  
HETATM    7  C   UNL     1     -11.787   7.965  72.612  1.00  0.00    -0.297 C  
HETATM    8  H   UNL     1     -13.443   6.190  70.419  1.00  0.00     0.000 HD 
HETATM    9  H   UNL     1     -10.465   4.845  72.433  1.00  0.00     0.000 HD 
HETATM   10  O   UNL     1     -11.039   7.561  73.770  1.00  0.00    -0.522 OA 
HETATM   11  C   UNL     1     -12.124   6.709  71.790  1.00  0.00    -0.353 C  
HETATM   12  H   UNL     1     -11.502   6.920  74.296  1.00  0.00     0.000 HD 
HETATM   13  C   UNL     1     -10.883   6.167  71.055  1.00  0.00    -0.279 C  
HETATM   14  O   UNL     1      -9.980   5.524  71.979  1.00  0.00    -0.173 OA 
HETATM   15  O   UNL     1     -13.235   6.965  70.926  1.00  0.00    -0.169 OA 
BRANCH   6  16
HETATM   16  O   UNL     1     -11.929   9.558  70.785  1.00  0.00    -0.279 OA 
BRANCH  16  17
HETATM   17  C   UNL     1     -11.909  10.898  70.531  1.00  0.00    -0.360 A  
HETATM   18  O   UNL     1     -13.364  11.611  72.328  1.00  0.00    -0.625 OA 
HETATM   19  C   UNL     1     -12.535  13.223  70.836  1.00  0.00    -0.424 A  
HETATM   20  H   UNL     1     -13.821  12.288  72.815  1.00  0.00     0.000 HD 
HETATM   21  C   UNL     1     -11.842  13.548  69.673  1.00  0.00    -0.336 A  
HETATM   22  C   UNL     1     -12.580  11.892  71.247  1.00  0.00    -0.277 A  
HETATM   23  O   UNL     1     -11.870  14.892  69.252  1.00  0.00    -0.299 OA 
HETATM   24  C   UNL     1     -11.241  15.291  68.081  1.00  0.00    -0.324 C  
HETATM   25  O   UNL     1     -11.276  16.447  67.675  1.00  0.00    -0.218 OA 
HETATM   26  C   UNL     1     -10.513  14.255  67.325  1.00  0.00    -0.269 C  
HETATM   27  C   UNL     1     -10.472  12.977  67.722  1.00  0.00    -0.232 C  
HETATM   28  C   UNL     1     -11.172  12.579  68.930  1.00  0.00    -0.330 A  
HETATM   29  C   UNL     1     -11.211  11.252  69.368  1.00  0.00    -0.345 A  
ENDBRANCH  16  17
ENDBRANCH   6  16
ENDBRANCH   3   4
TORSDOF 3
ENDMDL
MODEL       34
REMARK 921   NORMALIZED FREE ENERGY PREDICTED BY IDOCK:   -6.31 KCAL/MOL
REMARK 922        TOTAL FREE ENERGY PREDICTED BY IDOCK:   -8.37 KCAL/MOL
REMARK 923 INTER-LIGAND FREE ENERGY PREDICTED BY IDOCK:   -7.74 KCAL/MOL
REMARK 924 INTRA-LIGAND FREE ENERGY PREDICTED BY IDOCK:   -0.64 KCAL/MOL
REMARK 927      BINDING AFFINITY PREDICTED BY RF-SCORE:    0.00 PKD
ROOT
HETATM    1  O   UNL     1     -10.682  10.834  62.877  1.00  0.00    -0.722 OA 
HETATM    2  H   UNL     1      -9.927  10.321  62.615  1.00  0.00     0.000 HD 
HETATM    3  C   UNL     1     -10.302  12.024  63.555  1.00  0.00    -0.461 C  
ENDROOT
BRANCH   3   4
HETATM    4  C   UNL     1     -11.523  12.853  63.977  1.00  0.00    -0.422 C  
HETATM    5  O   UNL     1     -12.308  12.161  64.962  1.00  0.00    -0.454 OA 
HETATM    6  C   UNL     1     -11.824  12.208  66.314  1.00  0.00    -0.246 C  
HETATM    7  C   UNL     1     -11.631  13.668  66.796  1.00  0.00    -0.364 C  
HETATM    8  H   UNL     1      -8.816  14.593  65.407  1.00  0.00     0.000 HD 
HETATM    9  H   UNL     1     -12.247  15.986  64.396  1.00  0.00     0.000 HD 
HETATM   10  O   UNL     1     -12.877  14.368  66.942  1.00  0.00    -0.340 OA 
HETATM   11  C   UNL     1     -10.739  14.461  65.825  1.00  0.00    -0.307 C  
HETATM   12  H   UNL     1     -12.759  15.263  67.237  1.00  0.00     0.000 HD 
HETATM   13  C   UNL     1     -11.227  14.320  64.370  1.00  0.00    -0.249 C  
HETATM   14  O   UNL     1     -12.430  15.086  64.155  1.00  0.00    -0.756 OA 
HETATM   15  O   UNL     1      -9.367  14.103  66.007  1.00  0.00    -0.203 OA 
BRANCH   6  16
HETATM   16  O   UNL     1     -10.588  11.503  66.449  1.00  0.00    -0.241 OA 
BRANCH  16  17
HETATM   17  C   UNL     1     -10.461  10.546  67.413  1.00  0.00    -0.244 A  
HETATM   18  O   UNL     1      -9.675  11.965  69.208  1.00  0.00    -0.378 OA 
HETATM   19  C   UNL     1      -9.874   9.659  69.595  1.00  0.00    -0.233 A  
HETATM   20  H   UNL     1      -9.383  12.096  70.102  1.00  0.00     0.000 HD 
HETATM   21  C   UNL     1     -10.114   8.372  69.120  1.00  0.00    -0.203 A  
HETATM   22  C   UNL     1     -10.031  10.739  68.727  1.00  0.00    -0.193 A  
HETATM   23  O   UNL     1      -9.885   7.298  70.004  1.00  0.00    -0.175 OA 
HETATM   24  C   UNL     1     -10.059   5.983  69.597  1.00  0.00    -0.190 C  
HETATM   25  O   UNL     1      -9.836   5.030  70.334  1.00  0.00    -0.192 OA 
HETATM   26  C   UNL     1     -10.531   5.766  68.216  1.00  0.00    -0.281 C  
HETATM   27  C   UNL     1     -10.760   6.779  67.372  1.00  0.00    -0.405 C  
HETATM   28  C   UNL     1     -10.532   8.144  67.811  1.00  0.00    -0.279 A  
HETATM   29  C   UNL     1     -10.704   9.241  66.962  1.00  0.00    -0.199 A  
ENDBRANCH  16  17
ENDBRANCH   6  16
ENDBRANCH   3   4
TORSDOF 3
ENDMDL
MODEL       35
REMARK 921   NORMALIZED FREE ENERGY PREDICTED BY IDOCK:   -6.31 KCAL/MOL
REMARK 922        TOTAL FREE ENERGY PREDICTED BY IDOCK:   -8.37 KCAL/MOL
REMARK 923 INTER-LIGAND FREE ENERGY PREDICTED BY IDOCK:   -8.22 KCAL/MOL
REMARK 924 INTRA-LIGAND FREE ENERGY PREDICTED BY IDOCK:   -0.16 KCAL/MOL
REMARK 927      BINDING AFFINITY PREDICTED BY RF-SCORE:    0.00 PKD
ROOT
HETATM    1  O   UNL     1      -8.282  17.321  69.191  1.00  0.00    -0.152 OA 
HETATM    2  H   UNL     1      -8.276  16.531  69.718  1.00  0.00     0.000 HD 
HETATM    3  C   UNL     1      -7.748  17.093  67.894  1.00  0.00    -0.184 C  
ENDROOT
BRANCH   3   4
HETATM    4  C   UNL     1      -7.758  18.369  67.041  1.00  0.00    -0.222 C  
HETATM    5  O   UNL     1      -8.461  18.165  65.805  1.00  0.00    -0.482 OA 
HETATM    6  C   UNL     1      -9.895  18.212  65.869  1.00  0.00    -0.033 C  
HETATM    7  C   UNL     1     -10.391  19.544  66.487  1.00  0.00    -0.482 C  
HETATM    8  H   UNL     1      -9.931  19.143  69.701  1.00  0.00     0.000 HD 
HETATM    9  H   UNL     1      -7.883  21.570  67.545  1.00  0.00     0.000 HD 
HETATM   10  O   UNL     1     -10.132  20.673  65.638  1.00  0.00    -0.478 OA 
HETATM   11  C   UNL     1      -9.733  19.802  67.853  1.00  0.00    -0.389 C  
HETATM   12  H   UNL     1     -10.436  21.489  66.017  1.00  0.00     0.000 HD 
HETATM   13  C   UNL     1      -8.201  19.656  67.777  1.00  0.00    -0.302 C  
HETATM   14  O   UNL     1      -7.612  20.780  67.092  1.00  0.00    -0.335 OA 
HETATM   15  O   UNL     1     -10.337  18.983  68.858  1.00  0.00    -0.295 OA 
BRANCH   6  16
HETATM   16  O   UNL     1     -10.418  17.119  66.629  1.00  0.00    -0.314 OA 
BRANCH  16  17
HETATM   17  C   UNL     1     -10.408  15.864  66.096  1.00  0.00    -0.328 A  
HETATM   18  O   UNL     1     -11.541  16.362  64.016  1.00  0.00    -1.447 OA 
HETATM   19  C   UNL     1     -10.925  14.142  64.465  1.00  0.00    -0.340 A  
HETATM   20  H   UNL     1     -11.898  16.100  63.176  1.00  0.00     0.000 HD 
HETATM   21  C   UNL     1     -10.420  13.183  65.338  1.00  0.00    -0.296 A  
HETATM   22  C   UNL     1     -10.933  15.479  64.860  1.00  0.00    -0.436 A  
HETATM   23  O   UNL     1     -10.484  11.834  64.933  1.00  0.00    -0.262 OA 
HETATM   24  C   UNL     1     -10.042  10.813  65.763  1.00  0.00    -0.261 C  
HETATM   25  O   UNL     1     -10.116   9.631  65.449  1.00  0.00    -0.272 OA 
HETATM   26  C   UNL     1      -9.468  11.208  67.063  1.00  0.00    -0.193 C  
HETATM   27  C   UNL     1      -9.393  12.487  67.453  1.00  0.00    -0.187 C  
HETATM   28  C   UNL     1      -9.900  13.532  66.582  1.00  0.00    -0.279 A  
HETATM   29  C   UNL     1      -9.898  14.879  66.954  1.00  0.00    -0.246 A  
ENDBRANCH  16  17
ENDBRANCH   6  16
ENDBRANCH   3   4
TORSDOF 3
ENDMDL
MODEL       36
REMARK 921   NORMALIZED FREE ENERGY PREDICTED BY IDOCK:   -6.30 KCAL/MOL
REMARK 922        TOTAL FREE ENERGY PREDICTED BY IDOCK:   -8.37 KCAL/MOL
REMARK 923 INTER-LIGAND FREE ENERGY PREDICTED BY IDOCK:   -7.30 KCAL/MOL
REMARK 924 INTRA-LIGAND FREE ENERGY PREDICTED BY IDOCK:   -1.07 KCAL/MOL
REMARK 927      BINDING AFFINITY PREDICTED BY RF-SCORE:    0.00 PKD
ROOT
HETATM    1  O   UNL     1      -8.099   9.040  69.303  1.00  0.00    -0.100 OA 
HETATM    2  H   UNL     1      -7.991   9.340  68.409  1.00  0.00     0.000 HD 
HETATM    3  C   UNL     1      -8.562   7.698  69.358  1.00  0.00    -0.136 C  
ENDROOT
BRANCH   3   4
HETATM    4  C   UNL     1      -8.737   7.214  70.804  1.00  0.00    -0.147 C  
HETATM    5  O   UNL     1      -9.296   8.245  71.635  1.00  0.00    -0.158 OA 
HETATM    6  C   UNL     1     -10.716   8.441  71.542  1.00  0.00    -0.247 C  
HETATM    7  C   UNL     1     -11.489   7.128  71.824  1.00  0.00    -0.267 C  
HETATM    8  H   UNL     1     -11.209   5.433  69.040  1.00  0.00     0.000 HD 
HETATM    9  H   UNL     1      -9.474   4.442  72.318  1.00  0.00     0.000 HD 
HETATM   10  O   UNL     1     -11.374   6.706  73.193  1.00  0.00    -0.472 OA 
HETATM   11  C   UNL     1     -10.993   5.986  70.921  1.00  0.00    -0.289 C  
HETATM   12  H   UNL     1     -11.847   5.901  73.366  1.00  0.00     0.000 HD 
HETATM   13  C   UNL     1      -9.458   5.856  70.968  1.00  0.00    -0.165 C  
HETATM   14  O   UNL     1      -9.031   5.277  72.218  1.00  0.00    -0.128 OA 
HETATM   15  O   UNL     1     -11.515   6.138  69.598  1.00  0.00    -0.429 OA 
BRANCH   6  16
HETATM   16  O   UNL     1     -11.089   8.938  70.254  1.00  0.00    -0.245 OA 
BRANCH  16  17
HETATM   17  C   UNL     1     -11.489  10.235  70.123  1.00  0.00    -0.309 A  
HETATM   18  O   UNL     1     -10.182  10.804  68.169  1.00  0.00    -0.163 OA 
HETATM   19  C   UNL     1     -11.505  12.466  69.167  1.00  0.00    -0.358 A  
HETATM   20  H   UNL     1      -9.900  11.420  67.503  1.00  0.00     0.000 HD 
HETATM   21  C   UNL     1     -12.327  12.891  70.208  1.00  0.00    -0.223 A  
HETATM   22  C   UNL     1     -11.075  11.140  69.144  1.00  0.00    -0.248 A  
HETATM   23  O   UNL     1     -12.692  14.251  70.236  1.00  0.00    -0.345 OA 
HETATM   24  C   UNL     1     -13.473  14.765  71.262  1.00  0.00    -0.411 C  
HETATM   25  O   UNL     1     -13.779  15.949  71.328  1.00  0.00    -0.455 OA 
HETATM   26  C   UNL     1     -13.934  13.815  72.292  1.00  0.00    -0.672 C  
HETATM   27  C   UNL     1     -13.600  12.519  72.270  1.00  0.00    -0.443 C  
HETATM   28  C   UNL     1     -12.749  12.016  71.206  1.00  0.00    -0.382 A  
HETATM   29  C   UNL     1     -12.324  10.686  71.156  1.00  0.00    -0.505 A  
ENDBRANCH  16  17
ENDBRANCH   6  16
ENDBRANCH   3   4
TORSDOF 3
ENDMDL
MODEL       37
REMARK 921   NORMALIZED FREE ENERGY PREDICTED BY IDOCK:   -6.29 KCAL/MOL
REMARK 922        TOTAL FREE ENERGY PREDICTED BY IDOCK:   -8.35 KCAL/MOL
REMARK 923 INTER-LIGAND FREE ENERGY PREDICTED BY IDOCK:   -7.22 KCAL/MOL
REMARK 924 INTRA-LIGAND FREE ENERGY PREDICTED BY IDOCK:   -1.13 KCAL/MOL
REMARK 927      BINDING AFFINITY PREDICTED BY RF-SCORE:    0.00 PKD
ROOT
HETATM    1  O   UNL     1      -9.454   5.474  71.644  1.00  0.00    -0.145 OA 
HETATM    2  H   UNL     1      -8.922   5.836  72.343  1.00  0.00     0.000 HD 
HETATM    3  C   UNL     1      -8.717   5.342  70.435  1.00  0.00    -0.129 C  
ENDROOT
BRANCH   3   4
HETATM    4  C   UNL     1      -9.576   4.758  69.306  1.00  0.00    -0.173 C  
HETATM    5  O   UNL     1     -10.893   5.334  69.301  1.00  0.00    -0.151 OA 
HETATM    6  C   UNL     1     -11.019   6.636  68.707  1.00  0.00    -0.260 C  
HETATM    7  C   UNL     1     -10.486   6.648  67.252  1.00  0.00    -0.275 C  
HETATM    8  H   UNL     1      -7.235   6.762  67.602  1.00  0.00     0.000 HD 
HETATM    9  H   UNL     1      -9.127   3.697  66.274  1.00  0.00     0.000 HD 
HETATM   10  O   UNL     1     -11.305   5.876  66.360  1.00  0.00    -0.730 OA 
HETATM   11  C   UNL     1      -9.047   6.108  67.182  1.00  0.00    -0.114 C  
HETATM   12  H   UNL     1     -10.978   5.883  65.468  1.00  0.00     0.000 HD 
HETATM   13  C   UNL     1      -8.919   4.753  67.906  1.00  0.00    -0.111 C  
HETATM   14  O   UNL     1      -9.531   3.700  67.134  1.00  0.00    -0.191 OA 
HETATM   15  O   UNL     1      -8.123   7.095  67.646  1.00  0.00    -0.112 OA 
BRANCH   6  16
HETATM   16  O   UNL     1     -10.324   7.625  69.469  1.00  0.00    -0.207 OA 
BRANCH  16  17
HETATM   17  C   UNL     1     -11.028   8.471  70.275  1.00  0.00    -0.235 A  
HETATM   18  O   UNL     1     -11.942   6.824  71.792  1.00  0.00    -0.307 OA 
HETATM   19  C   UNL     1     -12.535   9.076  72.078  1.00  0.00    -0.460 A  
HETATM   20  H   UNL     1     -12.469   6.583  72.545  1.00  0.00     0.000 HD 
HETATM   21  C   UNL     1     -12.518  10.395  71.631  1.00  0.00    -0.370 A  
HETATM   22  C   UNL     1     -11.802   8.117  71.381  1.00  0.00    -0.295 A  
HETATM   23  O   UNL     1     -13.320  11.327  72.320  1.00  0.00    -0.394 OA 
HETATM   24  C   UNL     1     -13.394  12.651  71.912  1.00  0.00    -0.387 C  
HETATM   25  O   UNL     1     -14.107  13.475  72.473  1.00  0.00    -0.731 OA 
HETATM   26  C   UNL     1     -12.566  13.043  70.756  1.00  0.00    -0.321 C  
HETATM   27  C   UNL     1     -11.794  12.168  70.100  1.00  0.00    -0.368 C  
HETATM   28  C   UNL     1     -11.766  10.779  70.524  1.00  0.00    -0.449 A  
HETATM   29  C   UNL     1     -11.022   9.807  69.849  1.00  0.00    -0.299 A  
ENDBRANCH  16  17
ENDBRANCH   6  16
ENDBRANCH   3   4
TORSDOF 3
ENDMDL
MODEL       38
REMARK 921   NORMALIZED FREE ENERGY PREDICTED BY IDOCK:   -6.27 KCAL/MOL
REMARK 922        TOTAL FREE ENERGY PREDICTED BY IDOCK:   -8.33 KCAL/MOL
REMARK 923 INTER-LIGAND FREE ENERGY PREDICTED BY IDOCK:   -7.36 KCAL/MOL
REMARK 924 INTRA-LIGAND FREE ENERGY PREDICTED BY IDOCK:   -0.97 KCAL/MOL
REMARK 927      BINDING AFFINITY PREDICTED BY RF-SCORE:    0.00 PKD
ROOT
HETATM    1  O   UNL     1     -10.618  10.965  69.962  1.00  0.00    -0.454 OA 
HETATM    2  H   UNL     1     -10.687  11.154  70.890  1.00  0.00     0.000 HD 
HETATM    3  C   UNL     1     -11.610  11.649  69.209  1.00  0.00    -0.320 C  
ENDROOT
BRANCH   3   4
HETATM    4  C   UNL     1     -11.499  11.343  67.709  1.00  0.00    -0.281 C  
HETATM    5  O   UNL     1     -11.926  12.463  66.915  1.00  0.00    -0.550 OA 
HETATM    6  C   UNL     1     -10.979  13.531  66.755  1.00  0.00    -0.292 C  
HETATM    7  C   UNL     1      -9.637  13.017  66.174  1.00  0.00    -0.202 C  
HETATM    8  H   UNL     1      -8.144  11.637  68.737  1.00  0.00     0.000 HD 
HETATM    9  H   UNL     1      -9.534   9.650  65.761  1.00  0.00     0.000 HD 
HETATM   10  O   UNL     1      -9.761  12.574  64.813  1.00  0.00    -0.476 OA 
HETATM   11  C   UNL     1      -9.076  11.856  67.014  1.00  0.00    -0.191 C  
HETATM   12  H   UNL     1      -8.939  12.259  64.458  1.00  0.00     0.000 HD 
HETATM   13  C   UNL     1     -10.140  10.766  67.248  1.00  0.00    -0.196 C  
HETATM   14  O   UNL     1     -10.369  10.006  66.044  1.00  0.00    -0.231 OA 
HETATM   15  O   UNL     1      -8.490  12.353  68.219  1.00  0.00    -0.171 OA 
BRANCH   6  16
HETATM   16  O   UNL     1     -10.729  14.195  67.996  1.00  0.00    -0.236 OA 
BRANCH  16  17
HETATM   17  C   UNL     1     -10.012  15.355  68.006  1.00  0.00    -0.221 A  
HETATM   18  O   UNL     1      -8.484  14.803  69.799  1.00  0.00    -0.424 OA 
HETATM   19  C   UNL     1      -8.343  16.925  68.806  1.00  0.00    -0.240 A  
HETATM   20  H   UNL     1      -7.757  15.016  70.373  1.00  0.00     0.000 HD 
HETATM   21  C   UNL     1      -8.848  17.886  67.934  1.00  0.00    -0.260 A  
HETATM   22  C   UNL     1      -8.944  15.668  68.849  1.00  0.00    -0.221 A  
HETATM   23  O   UNL     1      -8.258  19.165  67.961  1.00  0.00    -0.285 OA 
HETATM   24  C   UNL     1      -8.731  20.192  67.155  1.00  0.00    -0.344 C  
HETATM   25  O   UNL     1      -8.258  21.321  67.181  1.00  0.00    -0.103 OA 
HETATM   26  C   UNL     1      -9.847  19.869  66.245  1.00  0.00    -0.570 C  
HETATM   27  C   UNL     1     -10.408  18.654  66.206  1.00  0.00    -0.483 C  
HETATM   28  C   UNL     1      -9.920  17.610  67.089  1.00  0.00    -0.316 A  
HETATM   29  C   UNL     1     -10.498  16.338  67.131  1.00  0.00    -0.297 A  
ENDBRANCH  16  17
ENDBRANCH   6  16
ENDBRANCH   3   4
TORSDOF 3
ENDMDL
MODEL       39
REMARK 921   NORMALIZED FREE ENERGY PREDICTED BY IDOCK:   -6.26 KCAL/MOL
REMARK 922        TOTAL FREE ENERGY PREDICTED BY IDOCK:   -8.32 KCAL/MOL
REMARK 923 INTER-LIGAND FREE ENERGY PREDICTED BY IDOCK:   -7.51 KCAL/MOL
REMARK 924 INTRA-LIGAND FREE ENERGY PREDICTED BY IDOCK:   -0.82 KCAL/MOL
REMARK 927      BINDING AFFINITY PREDICTED BY RF-SCORE:    0.00 PKD
ROOT
HETATM    1  O   UNL     1      -8.458   9.129  70.142  1.00  0.00    -0.139 OA 
HETATM    2  H   UNL     1      -7.998   8.991  69.323  1.00  0.00     0.000 HD 
HETATM    3  C   UNL     1      -9.080   7.937  70.604  1.00  0.00    -0.153 C  
ENDROOT
BRANCH   3   4
HETATM    4  C   UNL     1      -9.824   8.160  71.928  1.00  0.00    -0.212 C  
HETATM    5  O   UNL     1     -10.471   9.443  71.953  1.00  0.00    -0.217 OA 
HETATM    6  C   UNL     1     -11.719   9.542  71.249  1.00  0.00    -0.370 C  
HETATM    7  C   UNL     1     -12.736   8.483  71.746  1.00  0.00    -0.349 C  
HETATM    8  H   UNL     1     -11.764   5.715  70.300  1.00  0.00     0.000 HD 
HETATM    9  H   UNL     1     -11.466   6.363  74.072  1.00  0.00     0.000 HD 
HETATM   10  O   UNL     1     -13.176   8.733  73.091  1.00  0.00    -0.866 OA 
HETATM   11  C   UNL     1     -12.139   7.067  71.685  1.00  0.00    -0.347 C  
HETATM   12  H   UNL     1     -13.798   8.084  73.396  1.00  0.00     0.000 HD 
HETATM   13  C   UNL     1     -10.758   7.008  72.367  1.00  0.00    -0.231 C  
HETATM   14  O   UNL     1     -10.892   7.071  73.802  1.00  0.00    -0.301 OA 
HETATM   15  O   UNL     1     -12.132   6.589  70.337  1.00  0.00    -0.360 OA 
BRANCH   6  16
HETATM   16  O   UNL     1     -11.536   9.390  69.839  1.00  0.00    -0.161 OA 
BRANCH  16  17
HETATM   17  C   UNL     1     -11.404  10.498  69.055  1.00  0.00    -0.257 A  
HETATM   18  O   UNL     1     -10.586   9.409  67.054  1.00  0.00    -0.251 OA 
HETATM   19  C   UNL     1     -10.797  11.747  67.064  1.00  0.00    -0.306 A  
HETATM   20  H   UNL     1     -10.282   9.434  66.155  1.00  0.00     0.000 HD 
HETATM   21  C   UNL     1     -11.052  12.933  67.748  1.00  0.00    -0.259 A  
HETATM   22  C   UNL     1     -10.957  10.534  67.733  1.00  0.00    -0.313 A  
HETATM   23  O   UNL     1     -10.820  14.143  67.063  1.00  0.00    -0.289 OA 
HETATM   24  C   UNL     1     -11.008  15.368  67.686  1.00  0.00    -0.315 C  
HETATM   25  O   UNL     1     -10.784  16.434  67.125  1.00  0.00    -0.307 OA 
HETATM   26  C   UNL     1     -11.499  15.344  69.077  1.00  0.00    -0.349 C  
HETATM   27  C   UNL     1     -11.731  14.201  69.733  1.00  0.00    -0.370 C  
HETATM   28  C   UNL     1     -11.488  12.932  69.070  1.00  0.00    -0.358 A  
HETATM   29  C   UNL     1     -11.662  11.706  69.718  1.00  0.00    -0.425 A  
ENDBRANCH  16  17
ENDBRANCH   6  16
ENDBRANCH   3   4
TORSDOF 3
ENDMDL
MODEL       40
REMARK 921   NORMALIZED FREE ENERGY PREDICTED BY IDOCK:   -6.25 KCAL/MOL
REMARK 922        TOTAL FREE ENERGY PREDICTED BY IDOCK:   -8.31 KCAL/MOL
REMARK 923 INTER-LIGAND FREE ENERGY PREDICTED BY IDOCK:   -7.48 KCAL/MOL
REMARK 924 INTRA-LIGAND FREE ENERGY PREDICTED BY IDOCK:   -0.83 KCAL/MOL
REMARK 927      BINDING AFFINITY PREDICTED BY RF-SCORE:    0.00 PKD
ROOT
HETATM    1  O   UNL     1      -6.807  12.410  66.802  1.00  0.00    -0.365 OA 
HETATM    2  H   UNL     1      -6.215  12.756  66.145  1.00  0.00     0.000 HD 
HETATM    3  C   UNL     1      -7.205  11.078  66.505  1.00  0.00    -0.143 C  
ENDROOT
BRANCH   3   4
HETATM    4  C   UNL     1      -8.162  10.520  67.567  1.00  0.00    -0.114 C  
HETATM    5  O   UNL     1      -8.992  11.556  68.117  1.00  0.00    -0.159 OA 
HETATM    6  C   UNL     1     -10.123  11.957  67.326  1.00  0.00    -0.196 C  
HETATM    7  C   UNL     1     -11.030  10.748  66.983  1.00  0.00    -0.227 C  
HETATM    8  H   UNL     1      -9.447   9.238  64.550  1.00  0.00     0.000 HD 
HETATM    9  H   UNL     1      -9.814   7.777  68.081  1.00  0.00     0.000 HD 
HETATM   10  O   UNL     1     -11.697  10.216  68.138  1.00  0.00    -0.694 OA 
HETATM   11  C   UNL     1     -10.224   9.617  66.323  1.00  0.00    -0.216 C  
HETATM   12  H   UNL     1     -12.253   9.475  67.927  1.00  0.00     0.000 HD 
HETATM   13  C   UNL     1      -8.967   9.269  67.144  1.00  0.00    -0.126 C  
HETATM   14  O   UNL     1      -9.320   8.546  68.341  1.00  0.00    -0.135 OA 
HETATM   15  O   UNL     1      -9.945   9.937  64.957  1.00  0.00    -0.316 OA 
BRANCH   6  16
HETATM   16  O   UNL     1      -9.711  12.593  66.114  1.00  0.00    -0.256 OA 
BRANCH  16  17
HETATM   17  C   UNL     1     -10.109  13.872  65.857  1.00  0.00    -0.317 A  
HETATM   18  O   UNL     1     -11.351  13.446  63.825  1.00  0.00    -0.574 OA 
HETATM   19  C   UNL     1     -11.161  15.656  64.592  1.00  0.00    -0.387 A  
HETATM   20  H   UNL     1     -11.880  13.739  63.092  1.00  0.00     0.000 HD 
HETATM   21  C   UNL     1     -10.615  16.585  65.474  1.00  0.00    -0.295 A  
HETATM   22  C   UNL     1     -10.886  14.303  64.780  1.00  0.00    -0.405 A  
HETATM   23  O   UNL     1     -10.860  17.949  65.219  1.00  0.00    -0.614 OA 
HETATM   24  C   UNL     1     -10.316  18.940  66.025  1.00  0.00    -0.429 C  
HETATM   25  O   UNL     1     -10.487  20.133  65.807  1.00  0.00    -0.430 OA 
HETATM   26  C   UNL     1      -9.509  18.498  67.177  1.00  0.00    -0.294 C  
HETATM   27  C   UNL     1      -9.278  17.204  67.434  1.00  0.00    -0.232 C  
HETATM   28  C   UNL     1      -9.825  16.190  66.551  1.00  0.00    -0.283 A  
HETATM   29  C   UNL     1      -9.577  14.826  66.736  1.00  0.00    -0.267 A  
ENDBRANCH  16  17
ENDBRANCH   6  16
ENDBRANCH   3   4
TORSDOF 3
ENDMDL
MODEL       41
REMARK 921   NORMALIZED FREE ENERGY PREDICTED BY IDOCK:   -6.24 KCAL/MOL
REMARK 922        TOTAL FREE ENERGY PREDICTED BY IDOCK:   -8.29 KCAL/MOL
REMARK 923 INTER-LIGAND FREE ENERGY PREDICTED BY IDOCK:   -7.32 KCAL/MOL
REMARK 924 INTRA-LIGAND FREE ENERGY PREDICTED BY IDOCK:   -0.97 KCAL/MOL
REMARK 927      BINDING AFFINITY PREDICTED BY RF-SCORE:    0.00 PKD
ROOT
HETATM    1  O   UNL     1      -7.673  18.467  69.020  1.00  0.00    -0.251 OA 
HETATM    2  H   UNL     1      -7.223  18.210  69.816  1.00  0.00     0.000 HD 
HETATM    3  C   UNL     1      -7.228  17.717  67.897  1.00  0.00    -0.210 C  
ENDROOT
BRANCH   3   4
HETATM    4  C   UNL     1      -7.956  18.133  66.611  1.00  0.00    -0.251 C  
HETATM    5  O   UNL     1      -8.102  17.020  65.713  1.00  0.00    -0.460 OA 
HETATM    6  C   UNL     1      -9.167  16.100  66.003  1.00  0.00    -0.328 C  
HETATM    7  C   UNL     1     -10.533  16.826  66.094  1.00  0.00    -0.277 C  
HETATM    8  H   UNL     1     -10.492  18.222  69.052  1.00  0.00     0.000 HD 
HETATM    9  H   UNL     1     -10.310  20.196  65.764  1.00  0.00     0.000 HD 
HETATM   10  O   UNL     1     -10.970  17.336  64.824  1.00  0.00    -0.950 OA 
HETATM   11  C   UNL     1     -10.478  17.993  67.093  1.00  0.00    -0.367 C  
HETATM   12  H   UNL     1     -11.807  17.780  64.879  1.00  0.00     0.000 HD 
HETATM   13  C   UNL     1      -9.274  18.915  66.816  1.00  0.00    -0.319 C  
HETATM   14  O   UNL     1      -9.501  19.715  65.638  1.00  0.00    -0.328 OA 
HETATM   15  O   UNL     1     -10.526  17.501  68.435  1.00  0.00    -0.360 OA 
BRANCH   6  16
HETATM   16  O   UNL     1      -8.928  15.396  67.224  1.00  0.00    -0.184 OA 
BRANCH  16  17
HETATM   17  C   UNL     1      -9.470  14.158  67.404  1.00  0.00    -0.220 A  
HETATM   18  O   UNL     1     -10.317  14.474  69.648  1.00  0.00    -0.422 OA 
HETATM   19  C   UNL     1     -10.578  12.377  68.626  1.00  0.00    -0.243 A  
HETATM   20  H   UNL     1     -10.769  14.160  70.422  1.00  0.00     0.000 HD 
HETATM   21  C   UNL     1     -10.315  11.508  67.570  1.00  0.00    -0.194 A  
HETATM   22  C   UNL     1     -10.134  13.696  68.542  1.00  0.00    -0.219 A  
HETATM   23  O   UNL     1     -10.721  10.167  67.713  1.00  0.00    -0.237 OA 
HETATM   24  C   UNL     1     -10.459   9.227  66.727  1.00  0.00    -0.193 C  
HETATM   25  O   UNL     1     -10.772   8.048  66.839  1.00  0.00    -0.322 OA 
HETATM   26  C   UNL     1      -9.775   9.706  65.511  1.00  0.00    -0.372 C  
HETATM   27  C   UNL     1      -9.393  10.980  65.360  1.00  0.00    -0.244 C  
HETATM   28  C   UNL     1      -9.645  11.934  66.426  1.00  0.00    -0.239 A  
HETATM   29  C   UNL     1      -9.224  13.265  66.351  1.00  0.00    -0.133 A  
ENDBRANCH  16  17
ENDBRANCH   6  16
ENDBRANCH   3   4
TORSDOF 3
ENDMDL
MODEL       42
REMARK 921   NORMALIZED FREE ENERGY PREDICTED BY IDOCK:   -6.22 KCAL/MOL
REMARK 922        TOTAL FREE ENERGY PREDICTED BY IDOCK:   -8.27 KCAL/MOL
REMARK 923 INTER-LIGAND FREE ENERGY PREDICTED BY IDOCK:   -7.21 KCAL/MOL
REMARK 924 INTRA-LIGAND FREE ENERGY PREDICTED BY IDOCK:   -1.06 KCAL/MOL
REMARK 927      BINDING AFFINITY PREDICTED BY RF-SCORE:    0.00 PKD
ROOT
HETATM    1  O   UNL     1      -8.494   9.880  70.491  1.00  0.00    -0.338 OA 
HETATM    2  H   UNL     1      -7.764  10.484  70.565  1.00  0.00     0.000 HD 
HETATM    3  C   UNL     1      -8.104   8.653  69.889  1.00  0.00    -0.111 C  
ENDROOT
BRANCH   3   4
HETATM    4  C   UNL     1      -9.283   7.678  69.769  1.00  0.00    -0.147 C  
HETATM    5  O   UNL     1     -10.486   8.360  69.380  1.00  0.00    -0.217 OA 
HETATM    6  C   UNL     1     -10.620   8.674  67.984  1.00  0.00    -0.145 C  
HETATM    7  C   UNL     1     -10.482   7.407  67.103  1.00  0.00    -0.333 C  
HETATM    8  H   UNL     1      -7.258   6.859  67.007  1.00  0.00     0.000 HD 
HETATM    9  H   UNL     1      -9.748   4.599  68.861  1.00  0.00     0.000 HD 
HETATM   10  O   UNL     1     -11.582   6.498  67.271  1.00  0.00    -0.737 OA 
HETATM   11  C   UNL     1      -9.177   6.654  67.412  1.00  0.00    -0.122 C  
HETATM   12  H   UNL     1     -11.497   5.722  66.731  1.00  0.00     0.000 HD 
HETATM   13  C   UNL     1      -9.014   6.410  68.926  1.00  0.00    -0.123 C  
HETATM   14  O   UNL     1      -9.914   5.378  69.379  1.00  0.00    -0.172 OA 
HETATM   15  O   UNL     1      -8.064   7.324  66.817  1.00  0.00    -0.115 OA 
BRANCH   6  16
HETATM   16  O   UNL     1      -9.650   9.640  67.573  1.00  0.00    -0.145 OA 
BRANCH  16  17
HETATM   17  C   UNL     1     -10.061  10.873  67.159  1.00  0.00    -0.198 A  
HETATM   18  O   UNL     1      -9.800  12.047  69.258  1.00  0.00    -0.375 OA 
HETATM   19  C   UNL     1     -10.651  13.214  67.408  1.00  0.00    -0.247 A  
HETATM   20  H   UNL     1      -9.855  12.834  69.788  1.00  0.00     0.000 HD 
HETATM   21  C   UNL     1     -11.119  13.221  66.097  1.00  0.00    -0.285 A  
HETATM   22  C   UNL     1     -10.141  12.029  67.937  1.00  0.00    -0.195 A  
HETATM   23  O   UNL     1     -11.686  14.417  65.613  1.00  0.00    -0.347 OA 
HETATM   24  C   UNL     1     -12.216  14.495  64.333  1.00  0.00    -0.458 C  
HETATM   25  O   UNL     1     -12.743  15.512  63.899  1.00  0.00    -0.665 OA 
HETATM   26  C   UNL     1     -12.120  13.286  63.494  1.00  0.00    -0.550 C  
HETATM   27  C   UNL     1     -11.575  12.147  63.940  1.00  0.00    -0.532 C  
HETATM   28  C   UNL     1     -11.065  12.081  65.298  1.00  0.00    -0.367 A  
HETATM   29  C   UNL     1     -10.532  10.908  65.839  1.00  0.00    -0.285 A  
ENDBRANCH  16  17
ENDBRANCH   6  16
ENDBRANCH   3   4
TORSDOF 3
ENDMDL
MODEL       43
REMARK 921   NORMALIZED FREE ENERGY PREDICTED BY IDOCK:   -6.18 KCAL/MOL
REMARK 922        TOTAL FREE ENERGY PREDICTED BY IDOCK:   -8.22 KCAL/MOL
REMARK 923 INTER-LIGAND FREE ENERGY PREDICTED BY IDOCK:   -7.76 KCAL/MOL
REMARK 924 INTRA-LIGAND FREE ENERGY PREDICTED BY IDOCK:   -0.46 KCAL/MOL
REMARK 927      BINDING AFFINITY PREDICTED BY RF-SCORE:    0.00 PKD
ROOT
HETATM    1  O   UNL     1     -11.241  12.098  63.017  1.00  0.00    -0.681 OA 
HETATM    2  H   UNL     1     -11.419  12.567  62.210  1.00  0.00     0.000 HD 
HETATM    3  C   UNL     1     -10.988  12.986  64.097  1.00  0.00    -0.408 C  
ENDROOT
BRANCH   3   4
HETATM    4  C   UNL     1     -10.699  12.229  65.401  1.00  0.00    -0.284 C  
HETATM    5  O   UNL     1      -9.420  12.595  65.945  1.00  0.00    -0.202 OA 
HETATM    6  C   UNL     1      -9.364  13.835  66.667  1.00  0.00    -0.264 C  
HETATM    7  C   UNL     1     -10.400  13.867  67.819  1.00  0.00    -0.240 C  
HETATM    8  H   UNL     1     -13.237  14.493  66.313  1.00  0.00     0.000 HD 
HETATM    9  H   UNL     1     -12.389  11.119  67.937  1.00  0.00     0.000 HD 
HETATM   10  O   UNL     1     -10.083  12.940  68.870  1.00  0.00    -0.418 OA 
HETATM   11  C   UNL     1     -11.815  13.551  67.304  1.00  0.00    -0.385 C  
HETATM   12  H   UNL     1     -10.718  12.959  69.575  1.00  0.00     0.000 HD 
HETATM   13  C   UNL     1     -11.831  12.265  66.455  1.00  0.00    -0.311 C  
HETATM   14  O   UNL     1     -11.693  11.097  67.291  1.00  0.00    -0.540 OA 
HETATM   15  O   UNL     1     -12.363  14.688  66.631  1.00  0.00    -0.258 OA 
BRANCH   6  16
HETATM   16  O   UNL     1      -9.589  14.952  65.803  1.00  0.00    -0.326 OA 
BRANCH  16  17
HETATM   17  C   UNL     1      -9.260  16.206  66.225  1.00  0.00    -0.331 A  
HETATM   18  O   UNL     1     -10.893  17.444  64.939  1.00  0.00    -0.814 OA 
HETATM   19  C   UNL     1      -9.378  18.630  66.283  1.00  0.00    -0.251 A  
HETATM   20  H   UNL     1     -11.303  18.258  64.671  1.00  0.00     0.000 HD 
HETATM   21  C   UNL     1      -8.255  18.651  67.106  1.00  0.00    -0.252 A  
HETATM   22  C   UNL     1      -9.862  17.403  65.831  1.00  0.00    -0.103 A  
HETATM   23  O   UNL     1      -7.755  19.910  67.494  1.00  0.00    -0.268 OA 
HETATM   24  C   UNL     1      -6.614  20.020  68.277  1.00  0.00    -0.287 C  
HETATM   25  O   UNL     1      -6.139  21.101  68.601  1.00  0.00    -0.278 OA 
HETATM   26  C   UNL     1      -5.979  18.763  68.715  1.00  0.00    -0.223 C  
HETATM   27  C   UNL     1      -6.452  17.561  68.361  1.00  0.00    -0.183 C  
HETATM   28  C   UNL     1      -7.624  17.476  67.508  1.00  0.00    -0.209 A  
HETATM   29  C   UNL     1      -8.135  16.254  67.061  1.00  0.00    -0.244 A  
ENDBRANCH  16  17
ENDBRANCH   6  16
ENDBRANCH   3   4
TORSDOF 3
ENDMDL
MODEL       44
REMARK 921   NORMALIZED FREE ENERGY PREDICTED BY IDOCK:   -6.16 KCAL/MOL
REMARK 922        TOTAL FREE ENERGY PREDICTED BY IDOCK:   -8.20 KCAL/MOL
REMARK 923 INTER-LIGAND FREE ENERGY PREDICTED BY IDOCK:   -7.11 KCAL/MOL
REMARK 924 INTRA-LIGAND FREE ENERGY PREDICTED BY IDOCK:   -1.09 KCAL/MOL
REMARK 927      BINDING AFFINITY PREDICTED BY RF-SCORE:    0.00 PKD
ROOT
HETATM    1  O   UNL     1      -8.558  16.185  68.855  1.00  0.00    -0.219 OA 
HETATM    2  H   UNL     1      -8.047  16.191  69.655  1.00  0.00     0.000 HD 
HETATM    3  C   UNL     1      -8.284  15.038  68.061  1.00  0.00    -0.137 C  
ENDROOT
BRANCH   3   4
HETATM    4  C   UNL     1      -9.111  15.030  66.768  1.00  0.00    -0.262 C  
HETATM    5  O   UNL     1      -9.562  13.704  66.446  1.00  0.00    -0.277 OA 
HETATM    6  C   UNL     1     -10.708  13.225  67.168  1.00  0.00    -0.259 C  
HETATM    7  C   UNL     1     -11.913  14.189  67.021  1.00  0.00    -0.439 C  
HETATM    8  H   UNL     1     -11.225  16.634  69.082  1.00  0.00     0.000 HD 
HETATM    9  H   UNL     1     -11.199  17.001  65.261  1.00  0.00     0.000 HD 
HETATM   10  O   UNL     1     -12.438  14.211  65.684  1.00  0.00    -0.457 OA 
HETATM   11  C   UNL     1     -11.528  15.625  67.416  1.00  0.00    -0.086 C  
HETATM   12  H   UNL     1     -13.176  14.802  65.594  1.00  0.00     0.000 HD 
HETATM   13  C   UNL     1     -10.243  16.081  66.697  1.00  0.00    -0.291 C  
HETATM   14  O   UNL     1     -10.504  16.355  65.305  1.00  0.00    -0.572 OA 
HETATM   15  O   UNL     1     -11.462  15.748  68.839  1.00  0.00    -0.334 OA 
BRANCH   6  16
HETATM   16  O   UNL     1     -10.413  13.051  68.556  1.00  0.00    -0.249 OA 
BRANCH  16  17
HETATM   17  C   UNL     1     -11.073  12.093  69.268  1.00  0.00    -0.167 A  
HETATM   18  O   UNL     1     -12.502  13.551  70.568  1.00  0.00    -0.332 OA 
HETATM   19  C   UNL     1     -12.609  11.236  70.940  1.00  0.00    -0.467 A  
HETATM   20  H   UNL     1     -13.178  13.694  71.220  1.00  0.00     0.000 HD 
HETATM   21  C   UNL     1     -12.119   9.953  70.713  1.00  0.00    -0.308 A  
HETATM   22  C   UNL     1     -12.066  12.303  70.227  1.00  0.00    -0.295 A  
HETATM   23  O   UNL     1     -12.645   8.906  71.495  1.00  0.00    -0.312 OA 
HETATM   24  C   UNL     1     -12.180   7.605  71.362  1.00  0.00    -0.326 C  
HETATM   25  O   UNL     1     -12.597   6.682  72.051  1.00  0.00    -0.317 OA 
HETATM   26  C   UNL     1     -11.144   7.366  70.339  1.00  0.00    -0.284 C  
HETATM   27  C   UNL     1     -10.644   8.352  69.584  1.00  0.00    -0.219 C  
HETATM   28  C   UNL     1     -11.120   9.711  69.773  1.00  0.00    -0.247 A  
HETATM   29  C   UNL     1     -10.601  10.790  69.053  1.00  0.00    -0.250 A  
ENDBRANCH  16  17
ENDBRANCH   6  16
ENDBRANCH   3   4
TORSDOF 3
ENDMDL
MODEL       45
REMARK 921   NORMALIZED FREE ENERGY PREDICTED BY IDOCK:   -6.15 KCAL/MOL
REMARK 922        TOTAL FREE ENERGY PREDICTED BY IDOCK:   -8.18 KCAL/MOL
REMARK 923 INTER-LIGAND FREE ENERGY PREDICTED BY IDOCK:   -7.55 KCAL/MOL
REMARK 924 INTRA-LIGAND FREE ENERGY PREDICTED BY IDOCK:   -0.63 KCAL/MOL
REMARK 927      BINDING AFFINITY PREDICTED BY RF-SCORE:    0.00 PKD
ROOT
HETATM    1  O   UNL     1      -8.434  14.329  66.412  1.00  0.00    -0.392 OA 
HETATM    2  H   UNL     1      -7.999  14.307  67.256  1.00  0.00     0.000 HD 
HETATM    3  C   UNL     1      -9.846  14.408  66.547  1.00  0.00    -0.287 C  
ENDROOT
BRANCH   3   4
HETATM    4  C   UNL     1     -10.548  14.444  65.182  1.00  0.00    -0.410 C  
HETATM    5  O   UNL     1      -9.856  13.632  64.219  1.00  0.00    -0.111 OA 
HETATM    6  C   UNL     1     -10.092  12.216  64.290  1.00  0.00    -0.290 C  
HETATM    7  C   UNL     1     -11.603  11.888  64.194  1.00  0.00    -0.351 C  
HETATM    8  H   UNL     1     -12.747  12.559  67.185  1.00  0.00     0.000 HD 
HETATM    9  H   UNL     1     -13.588  14.638  64.069  1.00  0.00     0.000 HD 
HETATM   10  O   UNL     1     -12.148  12.178  62.897  1.00  0.00    -0.628 OA 
HETATM   11  C   UNL     1     -12.409  12.670  65.246  1.00  0.00    -0.466 C  
HETATM   12  H   UNL     1     -13.074  11.977  62.839  1.00  0.00     0.000 HD 
HETATM   13  C   UNL     1     -12.071  14.173  65.211  1.00  0.00    -0.405 C  
HETATM   14  O   UNL     1     -12.653  14.803  64.051  1.00  0.00    -0.822 OA 
HETATM   15  O   UNL     1     -12.249  12.077  66.537  1.00  0.00    -0.548 OA 
BRANCH   6  16
HETATM   16  O   UNL     1      -9.566  11.661  65.497  1.00  0.00    -0.226 OA 
BRANCH  16  17
HETATM   17  C   UNL     1      -9.201  10.347  65.531  1.00  0.00    -0.184 A  
HETATM   18  O   UNL     1      -7.339  10.467  63.990  1.00  0.00    -0.324 OA 
HETATM   19  C   UNL     1      -7.927   8.382  64.892  1.00  0.00    -0.136 A  
HETATM   20  H   UNL     1      -6.623  10.065  63.511  1.00  0.00     0.000 HD 
HETATM   21  C   UNL     1      -8.796   7.593  65.641  1.00  0.00    -0.050 A  
HETATM   22  C   UNL     1      -8.149   9.757  64.827  1.00  0.00    -0.146 A  
HETATM   23  O   UNL     1      -8.581   6.200  65.635  1.00  0.00    -0.148 OA 
HETATM   24  C   UNL     1      -9.427   5.339  66.320  1.00  0.00    -0.156 C  
HETATM   25  O   UNL     1      -9.282   4.123  66.305  1.00  0.00    -0.136 OA 
HETATM   26  C   UNL     1     -10.531   5.952  67.083  1.00  0.00    -0.335 C  
HETATM   27  C   UNL     1     -10.738   7.275  67.103  1.00  0.00    -0.413 C  
HETATM   28  C   UNL     1      -9.861   8.149  66.345  1.00  0.00    -0.261 A  
HETATM   29  C   UNL     1     -10.057   9.532  66.284  1.00  0.00    -0.327 A  
ENDBRANCH  16  17
ENDBRANCH   6  16
ENDBRANCH   3   4
TORSDOF 3
ENDMDL
MODEL       46
REMARK 921   NORMALIZED FREE ENERGY PREDICTED BY IDOCK:   -6.12 KCAL/MOL
REMARK 922        TOTAL FREE ENERGY PREDICTED BY IDOCK:   -8.16 KCAL/MOL
REMARK 923 INTER-LIGAND FREE ENERGY PREDICTED BY IDOCK:   -7.10 KCAL/MOL
REMARK 924 INTRA-LIGAND FREE ENERGY PREDICTED BY IDOCK:   -1.05 KCAL/MOL
REMARK 927      BINDING AFFINITY PREDICTED BY RF-SCORE:    0.00 PKD
ROOT
HETATM    1  O   UNL     1      -6.947   8.913  69.220  1.00  0.00    -0.056 OA 
HETATM    2  H   UNL     1      -6.171   9.402  68.974  1.00  0.00     0.000 HD 
HETATM    3  C   UNL     1      -7.076   7.714  68.467  1.00  0.00    -0.081 C  
ENDROOT
BRANCH   3   4
HETATM    4  C   UNL     1      -8.330   6.924  68.865  1.00  0.00    -0.121 C  
HETATM    5  O   UNL     1      -9.463   7.793  69.031  1.00  0.00    -0.150 OA 
HETATM    6  C   UNL     1     -10.125   8.217  67.829  1.00  0.00    -0.204 C  
HETATM    7  C   UNL     1     -10.574   7.006  66.973  1.00  0.00    -0.341 C  
HETATM    8  H   UNL     1      -7.824   6.019  65.500  1.00  0.00     0.000 HD 
HETATM    9  H   UNL     1      -9.609   4.010  68.241  1.00  0.00     0.000 HD 
HETATM   10  O   UNL     1     -11.625   6.251  67.596  1.00  0.00    -0.558 OA 
HETATM   11  C   UNL     1      -9.396   6.058  66.690  1.00  0.00    -0.144 C  
HETATM   12  H   UNL     1     -11.899   5.508  67.071  1.00  0.00     0.000 HD 
HETATM   13  C   UNL     1      -8.645   5.691  67.986  1.00  0.00    -0.101 C  
HETATM   14  O   UNL     1      -9.416   4.767  68.781  1.00  0.00    -0.128 OA 
HETATM   15  O   UNL     1      -8.551   6.604  65.674  1.00  0.00    -0.152 OA 
BRANCH   6  16
HETATM   16  O   UNL     1      -9.284   9.063  67.042  1.00  0.00    -0.130 OA 
BRANCH  16  17
HETATM   17  C   UNL     1      -9.847   9.956  66.179  1.00  0.00    -0.260 A  
HETATM   18  O   UNL     1      -8.852   9.135  64.132  1.00  0.00    -0.348 OA 
HETATM   19  C   UNL     1     -10.237  11.027  64.036  1.00  0.00    -0.420 A  
HETATM   20  H   UNL     1      -8.723   9.173  63.191  1.00  0.00     0.000 HD 
HETATM   21  C   UNL     1     -10.978  12.014  64.680  1.00  0.00    -0.317 A  
HETATM   22  C   UNL     1      -9.659  10.012  64.796  1.00  0.00    -0.308 A  
HETATM   23  O   UNL     1     -11.496  13.060  63.890  1.00  0.00    -0.399 OA 
HETATM   24  C   UNL     1     -12.208  14.106  64.460  1.00  0.00    -0.445 C  
HETATM   25  O   UNL     1     -12.642  15.044  63.801  1.00  0.00    -0.776 OA 
HETATM   26  C   UNL     1     -12.430  14.049  65.917  1.00  0.00    -0.513 C  
HETATM   27  C   UNL     1     -11.951  13.056  66.675  1.00  0.00    -0.453 C  
HETATM   28  C   UNL     1     -11.175  11.995  66.058  1.00  0.00    -0.385 A  
HETATM   29  C   UNL     1     -10.604  10.958  66.803  1.00  0.00    -0.313 A  
ENDBRANCH  16  17
ENDBRANCH   6  16
ENDBRANCH   3   4
TORSDOF 3
ENDMDL
MODEL       47
REMARK 921   NORMALIZED FREE ENERGY PREDICTED BY IDOCK:   -6.09 KCAL/MOL
REMARK 922        TOTAL FREE ENERGY PREDICTED BY IDOCK:   -8.12 KCAL/MOL
REMARK 923 INTER-LIGAND FREE ENERGY PREDICTED BY IDOCK:   -7.28 KCAL/MOL
REMARK 924 INTRA-LIGAND FREE ENERGY PREDICTED BY IDOCK:   -0.84 KCAL/MOL
REMARK 927      BINDING AFFINITY PREDICTED BY RF-SCORE:    0.00 PKD
ROOT
HETATM    1  O   UNL     1     -12.222  15.853  68.807  1.00  0.00    -0.519 OA 
HETATM    2  H   UNL     1     -12.912  16.034  69.433  1.00  0.00     0.000 HD 
HETATM    3  C   UNL     1     -11.193  15.053  69.373  1.00  0.00    -0.284 C  
ENDROOT
BRANCH   3   4
HETATM    4  C   UNL     1     -10.077  14.761  68.359  1.00  0.00    -0.225 C  
HETATM    5  O   UNL     1      -9.596  13.412  68.488  1.00  0.00    -0.212 OA 
HETATM    6  C   UNL     1     -10.399  12.387  67.882  1.00  0.00    -0.210 C  
HETATM    7  C   UNL     1     -10.636  12.669  66.377  1.00  0.00    -0.251 C  
HETATM    8  H   UNL     1     -12.968  14.963  66.360  1.00  0.00     0.000 HD 
HETATM    9  H   UNL     1      -9.331  15.618  65.322  1.00  0.00     0.000 HD 
HETATM   10  O   UNL     1      -9.434  12.550  65.600  1.00  0.00    -0.428 OA 
HETATM   11  C   UNL     1     -11.219  14.076  66.159  1.00  0.00    -0.318 C  
HETATM   12  H   UNL     1      -9.579  12.723  64.677  1.00  0.00     0.000 HD 
HETATM   13  C   UNL     1     -10.391  15.148  66.895  1.00  0.00    -0.272 C  
HETATM   14  O   UNL     1      -9.137  15.380  66.221  1.00  0.00    -0.288 OA 
HETATM   15  O   UNL     1     -12.609  14.095  66.494  1.00  0.00    -0.394 OA 
BRANCH   6  16
HETATM   16  O   UNL     1     -11.662  12.258  68.539  1.00  0.00    -0.297 OA 
BRANCH  16  17
HETATM   17  C   UNL     1     -11.822  11.313  69.510  1.00  0.00    -0.357 A  
HETATM   18  O   UNL     1     -13.063  12.654  71.097  1.00  0.00    -0.211 OA 
HETATM   19  C   UNL     1     -12.510  10.447  71.670  1.00  0.00    -0.471 A  
HETATM   20  H   UNL     1     -13.511  12.764  71.927  1.00  0.00     0.000 HD 
HETATM   21  C   UNL     1     -11.834   9.261  71.394  1.00  0.00    -0.358 A  
HETATM   22  C   UNL     1     -12.482  11.475  70.730  1.00  0.00    -0.349 A  
HETATM   23  O   UNL     1     -11.830   8.265  72.391  1.00  0.00    -0.364 OA 
HETATM   24  C   UNL     1     -11.143   7.072  72.213  1.00  0.00    -0.252 C  
HETATM   25  O   UNL     1     -11.096   6.204  73.076  1.00  0.00    -0.255 OA 
HETATM   26  C   UNL     1     -10.459   6.881  70.921  1.00  0.00    -0.233 C  
HETATM   27  C   UNL     1     -10.465   7.816  69.963  1.00  0.00    -0.230 C  
HETATM   28  C   UNL     1     -11.157   9.071  70.192  1.00  0.00    -0.228 A  
HETATM   29  C   UNL     1     -11.156  10.107  69.252  1.00  0.00    -0.270 A  
ENDBRANCH  16  17
ENDBRANCH   6  16
ENDBRANCH   3   4
TORSDOF 3
ENDMDL
MODEL       48
REMARK 921   NORMALIZED FREE ENERGY PREDICTED BY IDOCK:   -6.07 KCAL/MOL
REMARK 922        TOTAL FREE ENERGY PREDICTED BY IDOCK:   -8.09 KCAL/MOL
REMARK 923 INTER-LIGAND FREE ENERGY PREDICTED BY IDOCK:   -7.05 KCAL/MOL
REMARK 924 INTRA-LIGAND FREE ENERGY PREDICTED BY IDOCK:   -1.04 KCAL/MOL
REMARK 927      BINDING AFFINITY PREDICTED BY RF-SCORE:    0.00 PKD
ROOT
HETATM    1  O   UNL     1      -8.198   8.574  73.020  1.00  0.00    -0.357 OA 
HETATM    2  H   UNL     1      -7.341   8.839  72.708  1.00  0.00     0.000 HD 
HETATM    3  C   UNL     1      -8.409   7.178  72.861  1.00  0.00    -0.106 C  
ENDROOT
BRANCH   3   4
HETATM    4  C   UNL     1      -9.795   6.750  73.365  1.00  0.00    -0.205 C  
HETATM    5  O   UNL     1     -10.726   7.844  73.321  1.00  0.00    -0.341 OA 
HETATM    6  C   UNL     1     -11.299   8.145  72.039  1.00  0.00    -0.316 C  
HETATM    7  C   UNL     1     -11.991   6.903  71.422  1.00  0.00    -0.349 C  
HETATM    8  H   UNL     1      -9.511   5.112  70.261  1.00  0.00     0.000 HD 
HETATM    9  H   UNL     1     -11.644   4.087  73.284  1.00  0.00     0.000 HD 
HETATM   10  O   UNL     1     -13.168   6.513  72.148  1.00  0.00    -0.520 OA 
HETATM   11  C   UNL     1     -11.032   5.701  71.370  1.00  0.00    -0.190 C  
HETATM   12  H   UNL     1     -13.592   5.752  71.770  1.00  0.00     0.000 HD 
HETATM   13  C   UNL     1     -10.361   5.456  72.735  1.00  0.00    -0.195 C  
HETATM   14  O   UNL     1     -11.297   4.882  73.671  1.00  0.00    -0.303 OA 
HETATM   15  O   UNL     1     -10.103   5.854  70.294  1.00  0.00    -0.181 OA 
BRANCH   6  16
HETATM   16  O   UNL     1     -10.310   8.631  71.128  1.00  0.00    -0.202 OA 
BRANCH  16  17
HETATM   17  C   UNL     1     -10.692   9.396  70.066  1.00  0.00    -0.239 A  
HETATM   18  O   UNL     1     -10.113   7.848  68.299  1.00  0.00    -0.182 OA 
HETATM   19  C   UNL     1     -10.967   9.956  67.720  1.00  0.00    -0.278 A  
HETATM   20  H   UNL     1     -10.057   7.611  67.380  1.00  0.00     0.000 HD 
HETATM   21  C   UNL     1     -11.373  11.237  68.088  1.00  0.00    -0.303 A  
HETATM   22  C   UNL     1     -10.610   9.049  68.716  1.00  0.00    -0.169 A  
HETATM   23  O   UNL     1     -11.666  12.149  67.055  1.00  0.00    -0.477 OA 
HETATM   24  C   UNL     1     -12.035  13.457  67.335  1.00  0.00    -0.346 C  
HETATM   25  O   UNL     1     -12.264  14.280  66.456  1.00  0.00    -0.441 OA 
HETATM   26  C   UNL     1     -12.144  13.832  68.757  1.00  0.00    -0.344 C  
HETATM   27  C   UNL     1     -11.877  12.970  69.746  1.00  0.00    -0.381 C  
HETATM   28  C   UNL     1     -11.454  11.619  69.424  1.00  0.00    -0.372 A  
HETATM   29  C   UNL     1     -11.111  10.689  70.410  1.00  0.00    -0.253 A  
ENDBRANCH  16  17
ENDBRANCH   6  16
ENDBRANCH   3   4
TORSDOF 3
ENDMDL
MODEL       49
REMARK 921   NORMALIZED FREE ENERGY PREDICTED BY IDOCK:   -6.05 KCAL/MOL
REMARK 922        TOTAL FREE ENERGY PREDICTED BY IDOCK:   -8.07 KCAL/MOL
REMARK 923 INTER-LIGAND FREE ENERGY PREDICTED BY IDOCK:   -6.99 KCAL/MOL
REMARK 924 INTRA-LIGAND FREE ENERGY PREDICTED BY IDOCK:   -1.08 KCAL/MOL
REMARK 927      BINDING AFFINITY PREDICTED BY RF-SCORE:    0.00 PKD
ROOT
HETATM    1  O   UNL     1      -9.981  12.511  64.900  1.00  0.00    -0.409 OA 
HETATM    2  H   UNL     1     -10.750  12.786  64.416  1.00  0.00     0.000 HD 
HETATM    3  C   UNL     1      -9.856  11.095  64.930  1.00  0.00    -0.266 C  
ENDROOT
BRANCH   3   4
HETATM    4  C   UNL     1      -8.613  10.650  65.712  1.00  0.00    -0.181 C  
HETATM    5  O   UNL     1      -8.365  11.514  66.834  1.00  0.00    -0.155 OA 
HETATM    6  C   UNL     1      -9.168  11.288  68.004  1.00  0.00    -0.160 C  
HETATM    7  C   UNL     1      -9.053   9.823  68.495  1.00  0.00    -0.128 C  
HETATM    8  H   UNL     1     -10.982   8.151  66.448  1.00  0.00     0.000 HD 
HETATM    9  H   UNL     1      -7.155   7.858  66.483  1.00  0.00     0.000 HD 
HETATM   10  O   UNL     1      -7.748   9.517  69.012  1.00  0.00    -0.073 OA 
HETATM   11  C   UNL     1      -9.373   8.831  67.364  1.00  0.00    -0.137 C  
HETATM   12  H   UNL     1      -7.678   8.618  69.312  1.00  0.00     0.000 HD 
HETATM   13  C   UNL     1      -8.567   9.151  66.090  1.00  0.00    -0.136 C  
HETATM   14  O   UNL     1      -7.183   8.779  66.252  1.00  0.00    -0.083 OA 
HETATM   15  O   UNL     1     -10.785   8.764  67.146  1.00  0.00    -0.271 OA 
BRANCH   6  16
HETATM   16  O   UNL     1     -10.542  11.595  67.760  1.00  0.00    -0.184 OA 
BRANCH  16  17
HETATM   17  C   UNL     1     -11.138  12.609  68.450  1.00  0.00    -0.265 A  
HETATM   18  O   UNL     1     -10.386  14.453  67.077  1.00  0.00    -0.260 OA 
HETATM   19  C   UNL     1     -11.676  14.915  68.982  1.00  0.00    -0.347 A  
HETATM   20  H   UNL     1     -10.346  15.380  66.871  1.00  0.00     0.000 HD 
HETATM   21  C   UNL     1     -12.300  14.486  70.150  1.00  0.00    -0.342 A  
HETATM   22  C   UNL     1     -11.080  13.971  68.148  1.00  0.00    -0.260 A  
HETATM   23  O   UNL     1     -12.837  15.471  71.003  1.00  0.00    -0.437 OA 
HETATM   24  C   UNL     1     -13.437  15.130  72.207  1.00  0.00    -0.437 C  
HETATM   25  O   UNL     1     -13.883  15.968  72.981  1.00  0.00    -0.592 OA 
HETATM   26  C   UNL     1     -13.523  13.693  72.529  1.00  0.00    -0.675 C  
HETATM   27  C   UNL     1     -13.024  12.749  71.722  1.00  0.00    -0.416 C  
HETATM   28  C   UNL     1     -12.366  13.136  70.487  1.00  0.00    -0.380 A  
HETATM   29  C   UNL     1     -11.780  12.201  69.629  1.00  0.00    -0.396 A  
ENDBRANCH  16  17
ENDBRANCH   6  16
ENDBRANCH   3   4
TORSDOF 3
ENDMDL
MODEL       50
REMARK 921   NORMALIZED FREE ENERGY PREDICTED BY IDOCK:   -6.05 KCAL/MOL
REMARK 922        TOTAL FREE ENERGY PREDICTED BY IDOCK:   -8.07 KCAL/MOL
REMARK 923 INTER-LIGAND FREE ENERGY PREDICTED BY IDOCK:   -6.94 KCAL/MOL
REMARK 924 INTRA-LIGAND FREE ENERGY PREDICTED BY IDOCK:   -1.13 KCAL/MOL
REMARK 927      BINDING AFFINITY PREDICTED BY RF-SCORE:    0.00 PKD
ROOT
HETATM    1  O   UNL     1     -11.514   6.443  68.557  1.00  0.00    -0.547 OA 
HETATM    2  H   UNL     1     -12.355   6.396  68.117  1.00  0.00     0.000 HD 
HETATM    3  C   UNL     1     -11.645   6.283  69.963  1.00  0.00    -0.308 C  
ENDROOT
BRANCH   3   4
HETATM    4  C   UNL     1     -10.286   6.359  70.674  1.00  0.00    -0.198 C  
HETATM    5  O   UNL     1      -9.462   7.394  70.112  1.00  0.00    -0.165 OA 
HETATM    6  C   UNL     1      -9.745   8.737  70.536  1.00  0.00    -0.190 C  
HETATM    7  C   UNL     1      -9.692   8.867  72.079  1.00  0.00    -0.234 C  
HETATM    8  H   UNL     1     -12.539   7.602  73.078  1.00  0.00     0.000 HD 
HETATM    9  H   UNL     1      -9.138   5.924  73.675  1.00  0.00     0.000 HD 
HETATM   10  O   UNL     1      -8.362   8.706  72.598  1.00  0.00    -0.378 OA 
HETATM   11  C   UNL     1     -10.607   7.833  72.757  1.00  0.00    -0.341 C  
HETATM   12  H   UNL     1      -8.329   8.786  73.544  1.00  0.00     0.000 HD 
HETATM   13  C   UNL     1     -10.346   6.413  72.218  1.00  0.00    -0.192 C  
HETATM   14  O   UNL     1      -9.101   5.892  72.726  1.00  0.00    -0.131 OA 
HETATM   15  O   UNL     1     -11.974   8.240  72.659  1.00  0.00    -0.399 OA 
BRANCH   6  16
HETATM   16  O   UNL     1     -11.027   9.170  70.073  1.00  0.00    -0.231 OA 
BRANCH  16  17
HETATM   17  C   UNL     1     -11.106  10.016  69.006  1.00  0.00    -0.180 A  
HETATM   18  O   UNL     1     -10.230   8.525  67.315  1.00  0.00    -0.226 OA 
HETATM   19  C   UNL     1     -10.798  10.718  66.703  1.00  0.00    -0.228 A  
HETATM   20  H   UNL     1      -9.978   8.334  66.419  1.00  0.00     0.000 HD 
HETATM   21  C   UNL     1     -11.200  12.004  67.057  1.00  0.00    -0.320 A  
HETATM   22  C   UNL     1     -10.736   9.735  67.690  1.00  0.00    -0.274 A  
HETATM   23  O   UNL     1     -11.191  12.989  66.049  1.00  0.00    -0.282 OA 
HETATM   24  C   UNL     1     -11.535  14.305  66.327  1.00  0.00    -0.357 C  
HETATM   25  O   UNL     1     -11.506  15.187  65.478  1.00  0.00    -0.312 OA 
HETATM   26  C   UNL     1     -11.947  14.611  67.710  1.00  0.00    -0.302 C  
HETATM   27  C   UNL     1     -11.968  13.680  68.673  1.00  0.00    -0.395 C  
HETATM   28  C   UNL     1     -11.564  12.320  68.363  1.00  0.00    -0.377 A  
HETATM   29  C   UNL     1     -11.514  11.317  69.335  1.00  0.00    -0.370 A  
ENDBRANCH  16  17
ENDBRANCH   6  16
ENDBRANCH   3   4
TORSDOF 3
ENDMDL
MODEL       51
REMARK 921   NORMALIZED FREE ENERGY PREDICTED BY IDOCK:   -6.02 KCAL/MOL
REMARK 922        TOTAL FREE ENERGY PREDICTED BY IDOCK:   -8.03 KCAL/MOL
REMARK 923 INTER-LIGAND FREE ENERGY PREDICTED BY IDOCK:   -7.09 KCAL/MOL
REMARK 924 INTRA-LIGAND FREE ENERGY PREDICTED BY IDOCK:   -0.94 KCAL/MOL
REMARK 927      BINDING AFFINITY PREDICTED BY RF-SCORE:    0.00 PKD
ROOT
HETATM    1  O   UNL     1     -11.150  19.345  67.320  1.00  0.00    -0.458 OA 
HETATM    2  H   UNL     1     -11.885  19.128  66.759  1.00  0.00     0.000 HD 
HETATM    3  C   UNL     1     -10.054  19.860  66.576  1.00  0.00    -0.488 C  
ENDROOT
BRANCH   3   4
HETATM    4  C   UNL     1      -8.865  20.209  67.483  1.00  0.00    -0.342 C  
HETATM    5  O   UNL     1      -8.809  19.341  68.627  1.00  0.00    -0.361 OA 
HETATM    6  C   UNL     1      -8.247  18.037  68.413  1.00  0.00    -0.298 C  
HETATM    7  C   UNL     1      -6.822  18.126  67.810  1.00  0.00    -0.202 C  
HETATM    8  H   UNL     1      -7.341  18.782  64.647  1.00  0.00     0.000 HD 
HETATM    9  H   UNL     1      -5.832  21.298  67.123  1.00  0.00     0.000 HD 
HETATM   10  O   UNL     1      -5.868  18.672  68.735  1.00  0.00    -0.202 OA 
HETATM   11  C   UNL     1      -6.810  18.987  66.535  1.00  0.00    -0.202 C  
HETATM   12  H   UNL     1      -4.995  18.727  68.366  1.00  0.00     0.000 HD 
HETATM   13  C   UNL     1      -7.501  20.345  66.767  1.00  0.00    -0.280 C  
HETATM   14  O   UNL     1      -6.669  21.214  67.563  1.00  0.00    -0.364 OA 
HETATM   15  O   UNL     1      -7.349  18.251  65.434  1.00  0.00    -0.531 OA 
BRANCH   6  16
HETATM   16  O   UNL     1      -9.072  17.249  67.551  1.00  0.00    -0.221 OA 
BRANCH  16  17
HETATM   17  C   UNL     1      -9.879  16.289  68.085  1.00  0.00    -0.229 A  
HETATM   18  O   UNL     1     -10.954  17.642  69.778  1.00  0.00    -0.088 OA 
HETATM   19  C   UNL     1     -11.495  15.362  69.641  1.00  0.00    -0.331 A  
HETATM   20  H   UNL     1     -11.567  17.751  70.496  1.00  0.00     0.000 HD 
HETATM   21  C   UNL     1     -11.270  14.099  69.101  1.00  0.00    -0.272 A  
HETATM   22  C   UNL     1     -10.780  16.449  69.139  1.00  0.00    -0.317 A  
HETATM   23  O   UNL     1     -11.962  13.013  69.673  1.00  0.00    -0.315 OA 
HETATM   24  C   UNL     1     -11.762  11.716  69.222  1.00  0.00    -0.331 C  
HETATM   25  O   UNL     1     -12.326  10.750  69.722  1.00  0.00    -0.327 OA 
HETATM   26  C   UNL     1     -10.828  11.535  68.095  1.00  0.00    -0.259 C  
HETATM   27  C   UNL     1     -10.172  12.561  67.539  1.00  0.00    -0.219 C  
HETATM   28  C   UNL     1     -10.370  13.903  68.056  1.00  0.00    -0.245 A  
HETATM   29  C   UNL     1      -9.677  15.007  67.553  1.00  0.00    -0.215 A  
ENDBRANCH  16  17
ENDBRANCH   6  16
ENDBRANCH   3   4
TORSDOF 3
ENDMDL
MODEL       52
REMARK 921   NORMALIZED FREE ENERGY PREDICTED BY IDOCK:   -5.99 KCAL/MOL
REMARK 922        TOTAL FREE ENERGY PREDICTED BY IDOCK:   -8.00 KCAL/MOL
REMARK 923 INTER-LIGAND FREE ENERGY PREDICTED BY IDOCK:   -7.82 KCAL/MOL
REMARK 924 INTRA-LIGAND FREE ENERGY PREDICTED BY IDOCK:   -0.19 KCAL/MOL
REMARK 927      BINDING AFFINITY PREDICTED BY RF-SCORE:    0.00 PKD
ROOT
HETATM    1  O   UNL     1      -9.763  10.122  66.687  1.00  0.00    -0.176 OA 
HETATM    2  H   UNL     1      -8.847   9.952  66.870  1.00  0.00     0.000 HD 
HETATM    3  C   UNL     1     -10.009  11.504  66.465  1.00  0.00    -0.210 C  
ENDROOT
BRANCH   3   4
HETATM    4  C   UNL     1     -11.491  11.778  66.170  1.00  0.00    -0.220 C  
HETATM    5  O   UNL     1     -12.073  12.628  67.171  1.00  0.00    -0.466 OA 
HETATM    6  C   UNL     1     -11.802  14.034  67.054  1.00  0.00    -0.428 C  
HETATM    7  C   UNL     1     -12.220  14.577  65.664  1.00  0.00    -0.273 C  
HETATM    8  H   UNL     1      -9.806  13.610  63.679  1.00  0.00     0.000 HD 
HETATM    9  H   UNL     1     -13.365  12.178  63.554  1.00  0.00     0.000 HD 
HETATM   10  O   UNL     1     -13.645  14.570  65.477  1.00  0.00    -0.468 OA 
HETATM   11  C   UNL     1     -11.578  13.758  64.531  1.00  0.00    -0.392 C  
HETATM   12  H   UNL     1     -13.901  14.903  64.625  1.00  0.00     0.000 HD 
HETATM   13  C   UNL     1     -11.805  12.247  64.730  1.00  0.00    -0.364 C  
HETATM   14  O   UNL     1     -13.173  11.891  64.439  1.00  0.00    -0.545 OA 
HETATM   15  O   UNL     1     -10.202  14.115  64.379  1.00  0.00    -0.272 OA 
BRANCH   6  16
HETATM   16  O   UNL     1     -10.418  14.317  67.271  1.00  0.00    -0.266 OA 
BRANCH  16  17
HETATM   17  C   UNL     1     -10.026  15.596  67.534  1.00  0.00    -0.231 A  
HETATM   18  O   UNL     1     -11.830  16.212  69.024  1.00  0.00    -0.327 OA 
HETATM   19  C   UNL     1     -10.209  17.821  68.486  1.00  0.00    -0.382 A  
HETATM   20  H   UNL     1     -12.273  16.836  69.587  1.00  0.00     0.000 HD 
HETATM   21  C   UNL     1      -9.101  18.216  67.741  1.00  0.00    -0.263 A  
HETATM   22  C   UNL     1     -10.676  16.514  68.361  1.00  0.00    -0.339 A  
HETATM   23  O   UNL     1      -8.692  19.561  67.843  1.00  0.00    -0.305 OA 
HETATM   24  C   UNL     1      -7.624  20.046  67.101  1.00  0.00    -0.287 C  
HETATM   25  O   UNL     1      -7.268  21.217  67.147  1.00  0.00    -0.475 OA 
HETATM   26  C   UNL     1      -6.916  19.082  66.238  1.00  0.00    -0.253 C  
HETATM   27  C   UNL     1      -7.290  17.800  66.141  1.00  0.00    -0.335 C  
HETATM   28  C   UNL     1      -8.436  17.329  66.898  1.00  0.00    -0.251 A  
HETATM   29  C   UNL     1      -8.907  16.017  66.800  1.00  0.00    -0.288 A  
ENDBRANCH  16  17
ENDBRANCH   6  16
ENDBRANCH   3   4
TORSDOF 3
ENDMDL
MODEL       53
REMARK 921   NORMALIZED FREE ENERGY PREDICTED BY IDOCK:   -5.99 KCAL/MOL
REMARK 922        TOTAL FREE ENERGY PREDICTED BY IDOCK:   -8.00 KCAL/MOL
REMARK 923 INTER-LIGAND FREE ENERGY PREDICTED BY IDOCK:   -7.55 KCAL/MOL
REMARK 924 INTRA-LIGAND FREE ENERGY PREDICTED BY IDOCK:   -0.45 KCAL/MOL
REMARK 927      BINDING AFFINITY PREDICTED BY RF-SCORE:    0.00 PKD
ROOT
HETATM    1  O   UNL     1      -9.208  13.477  66.112  1.00  0.00    -0.466 OA 
HETATM    2  H   UNL     1      -9.468  14.389  66.151  1.00  0.00     0.000 HD 
HETATM    3  C   UNL     1      -8.907  12.958  67.400  1.00  0.00    -0.199 C  
ENDROOT
BRANCH   3   4
HETATM    4  C   UNL     1      -8.487  11.482  67.336  1.00  0.00    -0.147 C  
HETATM    5  O   UNL     1      -9.096  10.720  68.391  1.00  0.00    -0.149 OA 
HETATM    6  C   UNL     1     -10.463  10.327  68.189  1.00  0.00    -0.190 C  
HETATM    7  C   UNL     1     -10.635   9.537  66.867  1.00  0.00    -0.171 C  
HETATM    8  H   UNL     1     -10.614  11.851  64.554  1.00  0.00     0.000 HD 
HETATM    9  H   UNL     1      -7.784   9.302  65.040  1.00  0.00     0.000 HD 
HETATM   10  O   UNL     1      -9.998   8.250  66.909  1.00  0.00    -0.220 OA 
HETATM   11  C   UNL     1     -10.066  10.321  65.672  1.00  0.00    -0.271 C  
HETATM   12  H   UNL     1     -10.103   7.766  66.099  1.00  0.00     0.000 HD 
HETATM   13  C   UNL     1      -8.632  10.810  65.951  1.00  0.00    -0.179 C  
HETATM   14  O   UNL     1      -7.696   9.714  65.892  1.00  0.00    -0.099 OA 
HETATM   15  O   UNL     1     -10.964  11.367  65.292  1.00  0.00    -0.262 OA 
BRANCH   6  16
HETATM   16  O   UNL     1     -11.334  11.461  68.174  1.00  0.00    -0.253 OA 
BRANCH  16  17
HETATM   17  C   UNL     1     -11.742  12.011  69.353  1.00  0.00    -0.340 A  
HETATM   18  O   UNL     1     -12.929  10.095  70.236  1.00  0.00    -0.584 OA 
HETATM   19  C   UNL     1     -12.914  12.087  71.477  1.00  0.00    -0.407 A  
HETATM   20  H   UNL     1     -13.443   9.670  70.912  1.00  0.00     0.000 HD 
HETATM   21  C   UNL     1     -12.599  13.439  71.587  1.00  0.00    -0.187 A  
HETATM   22  C   UNL     1     -12.498  11.385  70.347  1.00  0.00    -0.261 A  
HETATM   23  O   UNL     1     -13.089  14.133  72.711  1.00  0.00    -0.478 OA 
HETATM   24  C   UNL     1     -12.857  15.492  72.873  1.00  0.00    -0.457 C  
HETATM   25  O   UNL     1     -13.297  16.127  73.824  1.00  0.00    -0.640 OA 
HETATM   26  C   UNL     1     -12.043  16.160  71.840  1.00  0.00    -0.548 C  
HETATM   27  C   UNL     1     -11.565  15.508  70.773  1.00  0.00    -0.399 C  
HETATM   28  C   UNL     1     -11.857  14.095  70.608  1.00  0.00    -0.333 A  
HETATM   29  C   UNL     1     -11.431  13.371  69.491  1.00  0.00    -0.308 A  
ENDBRANCH  16  17
ENDBRANCH   6  16
ENDBRANCH   3   4
TORSDOF 3
ENDMDL
MODEL       54
REMARK 921   NORMALIZED FREE ENERGY PREDICTED BY IDOCK:   -5.98 KCAL/MOL
REMARK 922        TOTAL FREE ENERGY PREDICTED BY IDOCK:   -7.99 KCAL/MOL
REMARK 923 INTER-LIGAND FREE ENERGY PREDICTED BY IDOCK:   -8.18 KCAL/MOL
REMARK 924 INTRA-LIGAND FREE ENERGY PREDICTED BY IDOCK:    0.19 KCAL/MOL
REMARK 927      BINDING AFFINITY PREDICTED BY RF-SCORE:    0.00 PKD
ROOT
HETATM    1  O   UNL     1     -12.003  12.404  62.966  1.00  0.00    -0.691 OA 
HETATM    2  H   UNL     1     -12.014  11.492  62.701  1.00  0.00     0.000 HD 
HETATM    3  C   UNL     1     -12.174  12.547  64.370  1.00  0.00    -0.449 C  
ENDROOT
BRANCH   3   4
HETATM    4  C   UNL     1     -12.157  14.021  64.798  1.00  0.00    -0.437 C  
HETATM    5  O   UNL     1     -12.814  14.204  66.063  1.00  0.00    -0.425 OA 
HETATM    6  C   UNL     1     -12.053  13.867  67.234  1.00  0.00    -0.368 C  
HETATM    7  C   UNL     1     -10.709  14.638  67.277  1.00  0.00    -0.290 C  
HETATM    8  H   UNL     1      -8.801  13.020  65.169  1.00  0.00     0.000 HD 
HETATM    9  H   UNL     1     -10.153  16.557  64.534  1.00  0.00     0.000 HD 
HETATM   10  O   UNL     1     -10.892  16.048  67.482  1.00  0.00    -0.317 OA 
HETATM   11  C   UNL     1      -9.910  14.436  65.979  1.00  0.00    -0.319 C  
HETATM   12  H   UNL     1     -10.068  16.521  67.508  1.00  0.00     0.000 HD 
HETATM   13  C   UNL     1     -10.776  14.715  64.735  1.00  0.00    -0.377 C  
HETATM   14  O   UNL     1     -11.001  16.131  64.573  1.00  0.00    -0.645 OA 
HETATM   15  O   UNL     1      -9.295  13.145  65.970  1.00  0.00    -0.153 OA 
BRANCH   6  16
HETATM   16  O   UNL     1     -11.790  12.463  67.298  1.00  0.00    -0.455 OA 
BRANCH  16  17
HETATM   17  C   UNL     1     -11.875  11.817  68.496  1.00  0.00    -0.303 A  
HETATM   18  O   UNL     1     -12.664  13.671  69.835  1.00  0.00    -0.141 OA 
HETATM   19  C   UNL     1     -12.256  11.612  70.884  1.00  0.00    -0.401 A  
HETATM   20  H   UNL     1     -12.944  14.045  70.663  1.00  0.00     0.000 HD 
HETATM   21  C   UNL     1     -11.771  10.308  70.835  1.00  0.00    -0.379 A  
HETATM   22  C   UNL     1     -12.286  12.366  69.712  1.00  0.00    -0.131 A  
HETATM   23  O   UNL     1     -11.695   9.595  72.048  1.00  0.00    -0.282 OA 
HETATM   24  C   UNL     1     -11.182   8.306  72.093  1.00  0.00    -0.345 C  
HETATM   25  O   UNL     1     -11.075   7.675  73.139  1.00  0.00    -0.404 OA 
HETATM   26  C   UNL     1     -10.762   7.707  70.813  1.00  0.00    -0.231 C  
HETATM   27  C   UNL     1     -10.839   8.372  69.653  1.00  0.00    -0.153 C  
HETATM   28  C   UNL     1     -11.342   9.734  69.641  1.00  0.00    -0.165 A  
HETATM   29  C   UNL     1     -11.397  10.499  68.472  1.00  0.00    -0.320 A  
ENDBRANCH  16  17
ENDBRANCH   6  16
ENDBRANCH   3   4
TORSDOF 3
ENDMDL
MODEL       55
REMARK 921   NORMALIZED FREE ENERGY PREDICTED BY IDOCK:   -5.95 KCAL/MOL
REMARK 922        TOTAL FREE ENERGY PREDICTED BY IDOCK:   -7.96 KCAL/MOL
REMARK 923 INTER-LIGAND FREE ENERGY PREDICTED BY IDOCK:   -7.38 KCAL/MOL
REMARK 924 INTRA-LIGAND FREE ENERGY PREDICTED BY IDOCK:   -0.58 KCAL/MOL
REMARK 927      BINDING AFFINITY PREDICTED BY RF-SCORE:    0.00 PKD
ROOT
HETATM    1  O   UNL     1      -7.288  16.247  68.464  1.00  0.00    -0.153 OA 
HETATM    2  H   UNL     1      -7.318  15.655  69.205  1.00  0.00     0.000 HD 
HETATM    3  C   UNL     1      -7.791  17.534  68.796  1.00  0.00    -0.242 C  
ENDROOT
BRANCH   3   4
HETATM    4  C   UNL     1      -7.742  18.491  67.596  1.00  0.00    -0.231 C  
HETATM    5  O   UNL     1      -8.456  17.954  66.471  1.00  0.00    -0.250 OA 
HETATM    6  C   UNL     1      -9.887  18.084  66.500  1.00  0.00    -0.353 C  
HETATM    7  C   UNL     1     -10.318  19.561  66.679  1.00  0.00    -0.465 C  
HETATM    8  H   UNL     1      -9.871  20.134  69.869  1.00  0.00     0.000 HD 
HETATM    9  H   UNL     1      -7.715  21.696  67.104  1.00  0.00     0.000 HD 
HETATM   10  O   UNL     1     -10.007  20.367  65.531  1.00  0.00    -0.548 OA 
HETATM   11  C   UNL     1      -9.646  20.192  67.911  1.00  0.00    -0.341 C  
HETATM   12  H   UNL     1     -10.271  21.273  65.641  1.00  0.00     0.000 HD 
HETATM   13  C   UNL     1      -8.122  19.959  67.902  1.00  0.00    -0.286 C  
HETATM   14  O   UNL     1      -7.482  20.795  66.916  1.00  0.00    -0.286 OA 
HETATM   15  O   UNL     1     -10.286  19.745  69.109  1.00  0.00    -0.412 OA 
BRANCH   6  16
HETATM   16  O   UNL     1     -10.459  17.298  67.549  1.00  0.00    -0.345 OA 
BRANCH  16  17
HETATM   17  C   UNL     1     -10.552  15.945  67.402  1.00  0.00    -0.315 A  
HETATM   18  O   UNL     1     -10.475  15.337  69.742  1.00  0.00    -0.260 OA 
HETATM   19  C   UNL     1     -10.587  13.632  68.134  1.00  0.00    -0.255 A  
HETATM   20  H   UNL     1     -10.482  14.690  70.438  1.00  0.00     0.000 HD 
HETATM   21  C   UNL     1     -10.562  13.225  66.802  1.00  0.00    -0.276 A  
HETATM   22  C   UNL     1     -10.563  14.995  68.424  1.00  0.00    -0.239 A  
HETATM   23  O   UNL     1     -10.524  11.840  66.544  1.00  0.00    -0.218 OA 
HETATM   24  C   UNL     1     -10.453  11.352  65.247  1.00  0.00    -0.283 C  
HETATM   25  O   UNL     1     -10.387  10.155  64.996  1.00  0.00    -0.246 OA 
HETATM   26  C   UNL     1     -10.461  12.346  64.157  1.00  0.00    -0.415 C  
HETATM   27  C   UNL     1     -10.506  13.663  64.391  1.00  0.00    -0.322 C  
HETATM   28  C   UNL     1     -10.540  14.147  65.759  1.00  0.00    -0.306 A  
HETATM   29  C   UNL     1     -10.535  15.510  66.069  1.00  0.00    -0.335 A  
ENDBRANCH  16  17
ENDBRANCH   6  16
ENDBRANCH   3   4
TORSDOF 3
ENDMDL
MODEL       56
REMARK 921   NORMALIZED FREE ENERGY PREDICTED BY IDOCK:   -5.94 KCAL/MOL
REMARK 922        TOTAL FREE ENERGY PREDICTED BY IDOCK:   -7.94 KCAL/MOL
REMARK 923 INTER-LIGAND FREE ENERGY PREDICTED BY IDOCK:   -6.93 KCAL/MOL
REMARK 924 INTRA-LIGAND FREE ENERGY PREDICTED BY IDOCK:   -1.01 KCAL/MOL
REMARK 927      BINDING AFFINITY PREDICTED BY RF-SCORE:    0.00 PKD
ROOT
HETATM    1  O   UNL     1      -7.791  11.578  65.832  1.00  0.00    -0.368 OA 
HETATM    2  H   UNL     1      -7.584  11.775  64.927  1.00  0.00     0.000 HD 
HETATM    3  C   UNL     1      -9.178  11.320  66.010  1.00  0.00    -0.208 C  
ENDROOT
BRANCH   3   4
HETATM    4  C   UNL     1      -9.514  11.001  67.474  1.00  0.00    -0.163 C  
HETATM    5  O   UNL     1      -9.150  12.088  68.341  1.00  0.00    -0.188 OA 
HETATM    6  C   UNL     1     -10.059  13.200  68.387  1.00  0.00    -0.231 C  
HETATM    7  C   UNL     1     -11.491  12.745  68.765  1.00  0.00    -0.304 C  
HETATM    8  H   UNL     1     -12.673  11.472  65.992  1.00  0.00     0.000 HD 
HETATM    9  H   UNL     1     -11.810   9.383  69.095  1.00  0.00     0.000 HD 
HETATM   10  O   UNL     1     -11.581  12.281  70.121  1.00  0.00    -0.509 OA 
HETATM   11  C   UNL     1     -11.983  11.624  67.833  1.00  0.00    -0.089 C  
HETATM   12  H   UNL     1     -12.458  12.001  70.352  1.00  0.00     0.000 HD 
HETATM   13  C   UNL     1     -10.949  10.486  67.729  1.00  0.00    -0.313 C  
HETATM   14  O   UNL     1     -10.928   9.700  68.939  1.00  0.00    -0.202 OA 
HETATM   15  O   UNL     1     -12.369  12.164  66.567  1.00  0.00    -0.474 OA 
BRANCH   6  16
HETATM   16  O   UNL     1     -10.100  13.891  67.136  1.00  0.00    -0.246 OA 
BRANCH  16  17
HETATM   17  C   UNL     1      -9.460  15.088  67.007  1.00  0.00    -0.229 A  
HETATM   18  O   UNL     1      -7.186  14.261  66.972  1.00  0.00    -0.350 OA 
HETATM   19  C   UNL     1      -7.548  16.578  66.871  1.00  0.00    -0.272 A  
HETATM   20  H   UNL     1      -6.247  14.399  66.918  1.00  0.00     0.000 HD 
HETATM   21  C   UNL     1      -8.412  17.668  66.936  1.00  0.00    -0.241 A  
HETATM   22  C   UNL     1      -8.081  15.290  66.926  1.00  0.00    -0.189 A  
HETATM   23  O   UNL     1      -7.837  18.955  66.941  1.00  0.00    -0.235 OA 
HETATM   24  C   UNL     1      -8.624  20.093  67.048  1.00  0.00    -0.336 C  
HETATM   25  O   UNL     1      -8.149  21.222  67.086  1.00  0.00    -0.156 OA 
HETATM   26  C   UNL     1     -10.084  19.893  67.114  1.00  0.00    -0.573 C  
HETATM   27  C   UNL     1     -10.641  18.676  67.101  1.00  0.00    -0.468 C  
HETATM   28  C   UNL     1      -9.791  17.501  67.029  1.00  0.00    -0.295 A  
HETATM   29  C   UNL     1     -10.308  16.202  67.063  1.00  0.00    -0.290 A  
ENDBRANCH  16  17
ENDBRANCH   6  16
ENDBRANCH   3   4
TORSDOF 3
ENDMDL
MODEL       57
REMARK 921   NORMALIZED FREE ENERGY PREDICTED BY IDOCK:   -5.93 KCAL/MOL
REMARK 922        TOTAL FREE ENERGY PREDICTED BY IDOCK:   -7.93 KCAL/MOL
REMARK 923 INTER-LIGAND FREE ENERGY PREDICTED BY IDOCK:   -7.21 KCAL/MOL
REMARK 924 INTRA-LIGAND FREE ENERGY PREDICTED BY IDOCK:   -0.72 KCAL/MOL
REMARK 927      BINDING AFFINITY PREDICTED BY RF-SCORE:    0.00 PKD
ROOT
HETATM    1  O   UNL     1     -12.953  15.246  69.828  1.00  0.00    -0.590 OA 
HETATM    2  H   UNL     1     -13.678  14.898  70.333  1.00  0.00     0.000 HD 
HETATM    3  C   UNL     1     -11.795  14.428  69.933  1.00  0.00    -0.323 C  
ENDROOT
BRANCH   3   4
HETATM    4  C   UNL     1     -10.624  14.992  69.116  1.00  0.00    -0.251 C  
HETATM    5  O   UNL     1      -9.646  13.976  68.839  1.00  0.00    -0.140 OA 
HETATM    6  C   UNL     1      -9.947  13.075  67.761  1.00  0.00    -0.227 C  
HETATM    7  C   UNL     1     -10.228  13.841  66.444  1.00  0.00    -0.292 C  
HETATM    8  H   UNL     1     -13.285  14.949  66.810  1.00  0.00     0.000 HD 
HETATM    9  H   UNL     1     -10.186  17.216  66.797  1.00  0.00     0.000 HD 
HETATM   10  O   UNL     1      -9.055  14.486  65.922  1.00  0.00    -0.500 OA 
HETATM   11  C   UNL     1     -11.320  14.906  66.642  1.00  0.00    -0.326 C  
HETATM   12  H   UNL     1      -9.227  14.956  65.115  1.00  0.00     0.000 HD 
HETATM   13  C   UNL     1     -11.019  15.802  67.860  1.00  0.00    -0.324 C  
HETATM   14  O   UNL     1      -9.943  16.718  67.569  1.00  0.00    -0.254 OA 
HETATM   15  O   UNL     1     -12.610  14.292  66.688  1.00  0.00    -0.318 OA 
BRANCH   6  16
HETATM   16  O   UNL     1     -11.072  12.250  68.072  1.00  0.00    -0.212 OA 
BRANCH  16  17
HETATM   17  C   UNL     1     -10.871  10.972  68.505  1.00  0.00    -0.213 A  
HETATM   18  O   UNL     1     -10.225   9.988  66.392  1.00  0.00    -0.236 OA 
HETATM   19  C   UNL     1     -10.371   8.607  68.284  1.00  0.00    -0.252 A  
HETATM   20  H   UNL     1      -9.952   9.247  65.864  1.00  0.00     0.000 HD 
HETATM   21  C   UNL     1     -10.719   8.423  69.620  1.00  0.00    -0.198 A  
HETATM   22  C   UNL     1     -10.469   9.883  67.730  1.00  0.00    -0.242 A  
HETATM   23  O   UNL     1     -10.669   7.111  70.131  1.00  0.00    -0.227 OA 
HETATM   24  C   UNL     1     -11.042   6.835  71.439  1.00  0.00    -0.254 C  
HETATM   25  O   UNL     1     -11.039   5.700  71.900  1.00  0.00    -0.256 OA 
HETATM   26  C   UNL     1     -11.450   7.980  72.275  1.00  0.00    -0.419 C  
HETATM   27  C   UNL     1     -11.492   9.232  71.801  1.00  0.00    -0.448 C  
HETATM   28  C   UNL     1     -11.135   9.486  70.417  1.00  0.00    -0.330 A  
HETATM   29  C   UNL     1     -11.208  10.762  69.850  1.00  0.00    -0.371 A  
ENDBRANCH  16  17
ENDBRANCH   6  16
ENDBRANCH   3   4
TORSDOF 3
ENDMDL
MODEL       58
REMARK 921   NORMALIZED FREE ENERGY PREDICTED BY IDOCK:   -5.93 KCAL/MOL
REMARK 922        TOTAL FREE ENERGY PREDICTED BY IDOCK:   -7.93 KCAL/MOL
REMARK 923 INTER-LIGAND FREE ENERGY PREDICTED BY IDOCK:   -7.54 KCAL/MOL
REMARK 924 INTRA-LIGAND FREE ENERGY PREDICTED BY IDOCK:   -0.39 KCAL/MOL
REMARK 927      BINDING AFFINITY PREDICTED BY RF-SCORE:    0.00 PKD
ROOT
HETATM    1  O   UNL     1      -9.966  10.662  70.063  1.00  0.00    -0.411 OA 
HETATM    2  H   UNL     1      -9.820  11.262  70.785  1.00  0.00     0.000 HD 
HETATM    3  C   UNL     1     -10.882  11.191  69.114  1.00  0.00    -0.238 C  
ENDROOT
BRANCH   3   4
HETATM    4  C   UNL     1     -11.118  10.221  67.948  1.00  0.00    -0.276 C  
HETATM    5  O   UNL     1     -11.437  10.928  66.738  1.00  0.00    -0.285 OA 
HETATM    6  C   UNL     1     -10.331  11.500  66.022  1.00  0.00    -0.246 C  
HETATM    7  C   UNL     1      -9.261  10.431  65.684  1.00  0.00    -0.182 C  
HETATM    8  H   UNL     1      -7.647  10.012  68.499  1.00  0.00     0.000 HD 
HETATM    9  H   UNL     1      -9.955   7.362  66.954  1.00  0.00     0.000 HD 
HETATM   10  O   UNL     1      -9.726   9.474  64.720  1.00  0.00    -0.441 OA 
HETATM   11  C   UNL     1      -8.814   9.673  66.946  1.00  0.00    -0.131 C  
HETATM   12  H   UNL     1      -9.071   8.818  64.513  1.00  0.00     0.000 HD 
HETATM   13  C   UNL     1     -10.023   9.148  67.745  1.00  0.00    -0.189 C  
HETATM   14  O   UNL     1     -10.628   8.021  67.078  1.00  0.00    -0.335 OA 
HETATM   15  O   UNL     1      -7.923  10.480  67.720  1.00  0.00    -0.104 OA 
BRANCH   6  16
HETATM   16  O   UNL     1      -9.719  12.557  66.766  1.00  0.00    -0.221 OA 
BRANCH  16  17
HETATM   17  C   UNL     1     -10.031  13.852  66.476  1.00  0.00    -0.285 A  
HETATM   18  O   UNL     1     -10.242  13.628  64.076  1.00  0.00    -0.701 OA 
HETATM   19  C   UNL     1     -10.519  15.749  65.042  1.00  0.00    -0.331 A  
HETATM   20  H   UNL     1     -10.413  13.991  63.215  1.00  0.00     0.000 HD 
HETATM   21  C   UNL     1     -10.460  16.586  66.153  1.00  0.00    -0.294 A  
HETATM   22  C   UNL     1     -10.284  14.385  65.210  1.00  0.00    -0.389 A  
HETATM   23  O   UNL     1     -10.640  17.967  65.939  1.00  0.00    -0.451 OA 
HETATM   24  C   UNL     1     -10.553  18.874  66.986  1.00  0.00    -0.438 C  
HETATM   25  O   UNL     1     -10.674  20.082  66.823  1.00  0.00    -0.422 OA 
HETATM   26  C   UNL     1     -10.306  18.322  68.331  1.00  0.00    -0.366 C  
HETATM   27  C   UNL     1     -10.143  17.011  68.547  1.00  0.00    -0.303 C  
HETATM   28  C   UNL     1     -10.199  16.088  67.428  1.00  0.00    -0.273 A  
HETATM   29  C   UNL     1      -9.985  14.715  67.580  1.00  0.00    -0.227 A  
ENDBRANCH  16  17
ENDBRANCH   6  16
ENDBRANCH   3   4
TORSDOF 3
ENDMDL
MODEL       59
REMARK 921   NORMALIZED FREE ENERGY PREDICTED BY IDOCK:   -5.92 KCAL/MOL
REMARK 922        TOTAL FREE ENERGY PREDICTED BY IDOCK:   -7.92 KCAL/MOL
REMARK 923 INTER-LIGAND FREE ENERGY PREDICTED BY IDOCK:   -7.32 KCAL/MOL
REMARK 924 INTRA-LIGAND FREE ENERGY PREDICTED BY IDOCK:   -0.60 KCAL/MOL
REMARK 927      BINDING AFFINITY PREDICTED BY RF-SCORE:    0.00 PKD
ROOT
HETATM    1  O   UNL     1     -12.313  15.102  68.529  1.00  0.00    -0.572 OA 
HETATM    2  H   UNL     1     -12.907  14.872  69.234  1.00  0.00     0.000 HD 
HETATM    3  C   UNL     1     -12.007  13.981  67.711  1.00  0.00    -0.357 C  
ENDROOT
BRANCH   3   4
HETATM    4  C   UNL     1     -11.046  14.352  66.572  1.00  0.00    -0.331 C  
HETATM    5  O   UNL     1      -9.958  13.419  66.483  1.00  0.00    -0.270 OA 
HETATM    6  C   UNL     1     -10.237  12.173  65.824  1.00  0.00    -0.254 C  
HETATM    7  C   UNL     1     -10.791  12.399  64.395  1.00  0.00    -0.337 C  
HETATM    8  H   UNL     1     -13.921  13.219  64.884  1.00  0.00     0.000 HD 
HETATM    9  H   UNL     1     -11.251  15.670  63.616  1.00  0.00     0.000 HD 
HETATM   10  O   UNL     1      -9.808  12.949  63.505  1.00  0.00    -0.672 OA 
HETATM   11  C   UNL     1     -12.009  13.339  64.414  1.00  0.00    -0.406 C  
HETATM   12  H   UNL     1     -10.148  13.088  62.629  1.00  0.00     0.000 HD 
HETATM   13  C   UNL     1     -11.713  14.628  65.205  1.00  0.00    -0.364 C  
HETATM   14  O   UNL     1     -10.841  15.500  64.456  1.00  0.00    -0.331 OA 
HETATM   15  O   UNL     1     -13.169  12.640  64.872  1.00  0.00    -0.819 OA 
BRANCH   6  16
HETATM   16  O   UNL     1     -11.169  11.387  66.570  1.00  0.00    -0.296 OA 
BRANCH  16  17
HETATM   17  C   UNL     1     -10.710  10.496  67.495  1.00  0.00    -0.276 A  
HETATM   18  O   UNL     1     -12.503  10.714  69.106  1.00  0.00    -0.752 OA 
HETATM   19  C   UNL     1     -10.708   9.284  69.598  1.00  0.00    -0.244 A  
HETATM   20  H   UNL     1     -12.920  10.485  69.928  1.00  0.00     0.000 HD 
HETATM   21  C   UNL     1      -9.449   8.777  69.288  1.00  0.00    -0.161 A  
HETATM   22  C   UNL     1     -11.323  10.159  68.704  1.00  0.00    -0.112 A  
HETATM   23  O   UNL     1      -8.829   7.945  70.242  1.00  0.00    -0.138 OA 
HETATM   24  C   UNL     1      -7.556   7.434  70.030  1.00  0.00    -0.089 C  
HETATM   25  O   UNL     1      -6.981   6.735  70.856  1.00  0.00    -0.064 OA 
HETATM   26  C   UNL     1      -6.906   7.767  68.749  1.00  0.00    -0.059 C  
HETATM   27  C   UNL     1      -7.490   8.548  67.832  1.00  0.00    -0.097 C  
HETATM   28  C   UNL     1      -8.805   9.102  68.097  1.00  0.00    -0.129 A  
HETATM   29  C   UNL     1      -9.446   9.965  67.203  1.00  0.00    -0.190 A  
ENDBRANCH  16  17
ENDBRANCH   6  16
ENDBRANCH   3   4
TORSDOF 3
ENDMDL
MODEL       60
REMARK 921   NORMALIZED FREE ENERGY PREDICTED BY IDOCK:   -5.91 KCAL/MOL
REMARK 922        TOTAL FREE ENERGY PREDICTED BY IDOCK:   -7.90 KCAL/MOL
REMARK 923 INTER-LIGAND FREE ENERGY PREDICTED BY IDOCK:   -7.09 KCAL/MOL
REMARK 924 INTRA-LIGAND FREE ENERGY PREDICTED BY IDOCK:   -0.82 KCAL/MOL
REMARK 927      BINDING AFFINITY PREDICTED BY RF-SCORE:    0.00 PKD
ROOT
HETATM    1  O   UNL     1      -7.220   8.677  69.847  1.00  0.00    -0.049 OA 
HETATM    2  H   UNL     1      -6.522   9.314  69.943  1.00  0.00     0.000 HD 
HETATM    3  C   UNL     1      -8.503   9.282  69.942  1.00  0.00    -0.163 C  
ENDROOT
BRANCH   3   4
HETATM    4  C   UNL     1      -9.631   8.253  69.786  1.00  0.00    -0.171 C  
HETATM    5  O   UNL     1     -10.782   8.834  69.152  1.00  0.00    -0.213 OA 
HETATM    6  C   UNL     1     -10.724   8.968  67.722  1.00  0.00    -0.151 C  
HETATM    7  C   UNL     1     -10.434   7.609  67.037  1.00  0.00    -0.349 C  
HETATM    8  H   UNL     1      -7.218   7.183  67.456  1.00  0.00     0.000 HD 
HETATM    9  H   UNL     1      -9.892   5.070  69.222  1.00  0.00     0.000 HD 
HETATM   10  O   UNL     1     -11.526   6.684  67.166  1.00  0.00    -0.779 OA 
HETATM   11  C   UNL     1      -9.170   6.952  67.616  1.00  0.00    -0.119 C  
HETATM   12  H   UNL     1     -11.348   5.851  66.746  1.00  0.00     0.000 HD 
HETATM   13  C   UNL     1      -9.216   6.903  69.156  1.00  0.00    -0.141 C  
HETATM   14  O   UNL     1     -10.148   5.900  69.609  1.00  0.00    -0.173 OA 
HETATM   15  O   UNL     1      -7.998   7.589  67.099  1.00  0.00    -0.113 OA 
BRANCH   6  16
HETATM   16  O   UNL     1      -9.727   9.914  67.329  1.00  0.00    -0.161 OA 
BRANCH  16  17
HETATM   17  C   UNL     1     -10.070  10.954  66.516  1.00  0.00    -0.222 A  
HETATM   18  O   UNL     1      -9.839   9.822  64.390  1.00  0.00    -0.403 OA 
HETATM   19  C   UNL     1     -10.425  12.095  64.403  1.00  0.00    -0.352 A  
HETATM   20  H   UNL     1      -9.880   9.811  63.441  1.00  0.00     0.000 HD 
HETATM   21  C   UNL     1     -10.620  13.287  65.095  1.00  0.00    -0.330 A  
HETATM   22  C   UNL     1     -10.131  10.937  65.121  1.00  0.00    -0.292 A  
HETATM   23  O   UNL     1     -10.852  14.451  64.336  1.00  0.00    -0.310 OA 
HETATM   24  C   UNL     1     -11.013  15.687  64.947  1.00  0.00    -0.431 C  
HETATM   25  O   UNL     1     -11.185  16.720  64.310  1.00  0.00    -1.163 OA 
HETATM   26  C   UNL     1     -10.970  15.716  66.421  1.00  0.00    -0.197 C  
HETATM   27  C   UNL     1     -10.759  14.615  67.152  1.00  0.00    -0.292 C  
HETATM   28  C   UNL     1     -10.554  13.341  66.485  1.00  0.00    -0.289 A  
HETATM   29  C   UNL     1     -10.278  12.166  67.190  1.00  0.00    -0.226 A  
ENDBRANCH  16  17
ENDBRANCH   6  16
ENDBRANCH   3   4
TORSDOF 3
ENDMDL
MODEL       61
REMARK 921   NORMALIZED FREE ENERGY PREDICTED BY IDOCK:   -5.90 KCAL/MOL
REMARK 922        TOTAL FREE ENERGY PREDICTED BY IDOCK:   -7.90 KCAL/MOL
REMARK 923 INTER-LIGAND FREE ENERGY PREDICTED BY IDOCK:   -7.17 KCAL/MOL
REMARK 924 INTRA-LIGAND FREE ENERGY PREDICTED BY IDOCK:   -0.73 KCAL/MOL
REMARK 927      BINDING AFFINITY PREDICTED BY RF-SCORE:    0.00 PKD
ROOT
HETATM    1  O   UNL     1     -11.117  10.923  63.211  1.00  0.00    -0.650 OA 
HETATM    2  H   UNL     1     -10.463  10.616  62.594  1.00  0.00     0.000 HD 
HETATM    3  C   UNL     1     -11.096  12.338  63.341  1.00  0.00    -0.418 C  
ENDROOT
BRANCH   3   4
HETATM    4  C   UNL     1     -12.153  12.834  64.338  1.00  0.00    -0.416 C  
HETATM    5  O   UNL     1     -12.204  11.994  65.503  1.00  0.00    -0.483 OA 
HETATM    6  C   UNL     1     -11.186  12.211  66.493  1.00  0.00    -0.328 C  
HETATM    7  C   UNL     1     -11.163  13.687  66.967  1.00  0.00    -0.312 C  
HETATM    8  H   UNL     1      -9.616  15.266  64.555  1.00  0.00     0.000 HD 
HETATM    9  H   UNL     1     -13.356  15.682  65.316  1.00  0.00     0.000 HD 
HETATM   10  O   UNL     1     -12.335  14.042  67.718  1.00  0.00    -0.516 OA 
HETATM   11  C   UNL     1     -11.038  14.652  65.775  1.00  0.00    -0.331 C  
HETATM   12  H   UNL     1     -12.321  14.946  68.008  1.00  0.00     0.000 HD 
HETATM   13  C   UNL     1     -12.083  14.339  64.686  1.00  0.00    -0.463 C  
HETATM   14  O   UNL     1     -13.399  14.757  65.103  1.00  0.00    -0.160 OA 
HETATM   15  O   UNL     1      -9.693  14.671  65.290  1.00  0.00    -0.265 OA 
BRANCH   6  16
HETATM   16  O   UNL     1      -9.893  11.858  65.996  1.00  0.00    -0.224 OA 
BRANCH  16  17
HETATM   17  C   UNL     1      -9.510  10.549  65.989  1.00  0.00    -0.183 A  
HETATM   18  O   UNL     1      -8.012  10.638  64.091  1.00  0.00    -0.341 OA 
HETATM   19  C   UNL     1      -8.371   8.576  65.153  1.00  0.00    -0.178 A  
HETATM   20  H   UNL     1      -7.407  10.227  63.485  1.00  0.00     0.000 HD 
HETATM   21  C   UNL     1      -9.053   7.802  66.089  1.00  0.00    -0.153 A  
HETATM   22  C   UNL     1      -8.621   9.946  65.098  1.00  0.00    -0.153 A  
HETATM   23  O   UNL     1      -8.824   6.412  66.077  1.00  0.00    -0.155 OA 
HETATM   24  C   UNL     1      -9.497   5.565  66.947  1.00  0.00    -0.135 C  
HETATM   25  O   UNL     1      -9.341   4.350  66.936  1.00  0.00    -0.131 OA 
HETATM   26  C   UNL     1     -10.426   6.192  67.906  1.00  0.00    -0.286 C  
HETATM   27  C   UNL     1     -10.643   7.513  67.933  1.00  0.00    -0.250 C  
HETATM   28  C   UNL     1      -9.956   8.371  66.984  1.00  0.00    -0.323 A  
HETATM   29  C   UNL     1     -10.179   9.749  66.927  1.00  0.00    -0.310 A  
ENDBRANCH  16  17
ENDBRANCH   6  16
ENDBRANCH   3   4
TORSDOF 3
ENDMDL
MODEL       62
REMARK 921   NORMALIZED FREE ENERGY PREDICTED BY IDOCK:   -5.87 KCAL/MOL
REMARK 922        TOTAL FREE ENERGY PREDICTED BY IDOCK:   -7.86 KCAL/MOL
REMARK 923 INTER-LIGAND FREE ENERGY PREDICTED BY IDOCK:   -6.81 KCAL/MOL
REMARK 924 INTRA-LIGAND FREE ENERGY PREDICTED BY IDOCK:   -1.05 KCAL/MOL
REMARK 927      BINDING AFFINITY PREDICTED BY RF-SCORE:    0.00 PKD
ROOT
HETATM    1  O   UNL     1      -7.580  12.783  67.644  1.00  0.00    -0.126 OA 
HETATM    2  H   UNL     1      -7.512  13.613  67.186  1.00  0.00     0.000 HD 
HETATM    3  C   UNL     1      -7.654  11.688  66.741  1.00  0.00    -0.104 C  
ENDROOT
BRANCH   3   4
HETATM    4  C   UNL     1      -7.765  10.347  67.481  1.00  0.00    -0.094 C  
HETATM    5  O   UNL     1      -8.572  10.470  68.663  1.00  0.00    -0.124 OA 
HETATM    6  C   UNL     1      -9.996  10.467  68.470  1.00  0.00    -0.167 C  
HETATM    7  C   UNL     1     -10.460   9.203  67.702  1.00  0.00    -0.261 C  
HETATM    8  H   UNL     1      -9.706   9.849  64.585  1.00  0.00     0.000 HD 
HETATM    9  H   UNL     1      -7.908   7.202  66.705  1.00  0.00     0.000 HD 
HETATM   10  O   UNL     1     -10.301   8.002  68.475  1.00  0.00    -0.204 OA 
HETATM   11  C   UNL     1      -9.688   9.038  66.382  1.00  0.00    -0.268 C  
HETATM   12  H   UNL     1     -10.585   7.228  68.004  1.00  0.00     0.000 HD 
HETATM   13  C   UNL     1      -8.166   9.137  66.605  1.00  0.00    -0.115 C  
HETATM   14  O   UNL     1      -7.662   7.945  67.243  1.00  0.00    -0.101 OA 
HETATM   15  O   UNL     1     -10.183   9.951  65.400  1.00  0.00    -0.273 OA 
BRANCH   6  16
HETATM   16  O   UNL     1     -10.427  11.631  67.760  1.00  0.00    -0.181 OA 
BRANCH  16  17
HETATM   17  C   UNL     1     -11.041  12.642  68.437  1.00  0.00    -0.265 A  
HETATM   18  O   UNL     1     -10.179  14.498  67.146  1.00  0.00    -0.256 OA 
HETATM   19  C   UNL     1     -11.565  14.948  68.986  1.00  0.00    -0.330 A  
HETATM   20  H   UNL     1     -10.111  15.427  66.961  1.00  0.00     0.000 HD 
HETATM   21  C   UNL     1     -12.261  14.508  70.109  1.00  0.00    -0.342 A  
HETATM   22  C   UNL     1     -10.941  14.008  68.167  1.00  0.00    -0.252 A  
HETATM   23  O   UNL     1     -12.826  15.488  70.950  1.00  0.00    -0.448 OA 
HETATM   24  C   UNL     1     -13.498  15.135  72.112  1.00  0.00    -0.424 C  
HETATM   25  O   UNL     1     -13.971  15.967  72.877  1.00  0.00    -0.592 OA 
HETATM   26  C   UNL     1     -13.628  13.695  72.400  1.00  0.00    -0.703 C  
HETATM   27  C   UNL     1     -13.103  12.756  71.602  1.00  0.00    -0.428 C  
HETATM   28  C   UNL     1     -12.370  13.154  70.414  1.00  0.00    -0.351 A  
HETATM   29  C   UNL     1     -11.755  12.225  69.570  1.00  0.00    -0.398 A  
ENDBRANCH  16  17
ENDBRANCH   6  16
ENDBRANCH   3   4
TORSDOF 3
ENDMDL
MODEL       63
REMARK 921   NORMALIZED FREE ENERGY PREDICTED BY IDOCK:   -5.86 KCAL/MOL
REMARK 922        TOTAL FREE ENERGY PREDICTED BY IDOCK:   -7.85 KCAL/MOL
REMARK 923 INTER-LIGAND FREE ENERGY PREDICTED BY IDOCK:   -6.82 KCAL/MOL
REMARK 924 INTRA-LIGAND FREE ENERGY PREDICTED BY IDOCK:   -1.04 KCAL/MOL
REMARK 927      BINDING AFFINITY PREDICTED BY RF-SCORE:    0.00 PKD
ROOT
HETATM    1  O   UNL     1     -10.879   8.862  71.838  1.00  0.00    -0.333 OA 
HETATM    2  H   UNL     1     -11.395   9.445  72.381  1.00  0.00     0.000 HD 
HETATM    3  C   UNL     1     -11.407   8.761  70.522  1.00  0.00    -0.227 C  
ENDROOT
BRANCH   3   4
HETATM    4  C   UNL     1     -10.572   7.817  69.645  1.00  0.00    -0.242 C  
HETATM    5  O   UNL     1     -10.741   8.117  68.249  1.00  0.00    -0.138 OA 
HETATM    6  C   UNL     1      -9.992   9.233  67.740  1.00  0.00    -0.190 C  
HETATM    7  C   UNL     1      -8.475   9.069  68.015  1.00  0.00    -0.125 C  
HETATM    8  H   UNL     1      -8.153   9.871  71.171  1.00  0.00     0.000 HD 
HETATM    9  H   UNL     1      -7.710   6.303  69.825  1.00  0.00     0.000 HD 
HETATM   10  O   UNL     1      -7.892   7.997  67.257  1.00  0.00    -0.106 OA 
HETATM   11  C   UNL     1      -8.205   8.812  69.507  1.00  0.00    -0.111 C  
HETATM   12  H   UNL     1      -6.963   7.897  67.426  1.00  0.00     0.000 HD 
HETATM   13  C   UNL     1      -9.087   7.672  70.051  1.00  0.00    -0.151 C  
HETATM   14  O   UNL     1      -8.622   6.392  69.575  1.00  0.00    -0.131 OA 
HETATM   15  O   UNL     1      -8.320  10.029  70.249  1.00  0.00    -0.135 OA 
BRANCH   6  16
HETATM   16  O   UNL     1     -10.441  10.464  68.310  1.00  0.00    -0.171 OA 
BRANCH  16  17
HETATM   17  C   UNL     1     -10.296  11.623  67.606  1.00  0.00    -0.189 A  
HETATM   18  O   UNL     1      -8.353  12.488  68.761  1.00  0.00    -0.337 OA 
HETATM   19  C   UNL     1      -9.323  13.778  67.057  1.00  0.00    -0.250 A  
HETATM   20  H   UNL     1      -7.686  13.152  68.893  1.00  0.00     0.000 HD 
HETATM   21  C   UNL     1     -10.350  13.993  66.141  1.00  0.00    -0.297 A  
HETATM   22  C   UNL     1      -9.315  12.599  67.799  1.00  0.00    -0.198 A  
HETATM   23  O   UNL     1     -10.363  15.222  65.453  1.00  0.00    -0.340 OA 
HETATM   24  C   UNL     1     -11.375  15.533  64.555  1.00  0.00    -0.314 C  
HETATM   25  O   UNL     1     -11.428  16.606  63.968  1.00  0.00    -1.192 OA 
HETATM   26  C   UNL     1     -12.406  14.503  64.327  1.00  0.00    -0.396 C  
HETATM   27  C   UNL     1     -12.398  13.328  64.969  1.00  0.00    -0.499 C  
HETATM   28  C   UNL     1     -11.349  13.046  65.932  1.00  0.00    -0.344 A  
HETATM   29  C   UNL     1     -11.314  11.860  66.672  1.00  0.00    -0.400 A  
ENDBRANCH  16  17
ENDBRANCH   6  16
ENDBRANCH   3   4
TORSDOF 3
ENDMDL
MODEL       64
REMARK 921   NORMALIZED FREE ENERGY PREDICTED BY IDOCK:   -5.85 KCAL/MOL
REMARK 922        TOTAL FREE ENERGY PREDICTED BY IDOCK:   -7.84 KCAL/MOL
REMARK 923 INTER-LIGAND FREE ENERGY PREDICTED BY IDOCK:   -6.99 KCAL/MOL
REMARK 924 INTRA-LIGAND FREE ENERGY PREDICTED BY IDOCK:   -0.85 KCAL/MOL
REMARK 927      BINDING AFFINITY PREDICTED BY RF-SCORE:    0.00 PKD
ROOT
HETATM    1  O   UNL     1     -12.225  14.792  63.913  1.00  0.00    -0.900 OA 
HETATM    2  H   UNL     1     -11.983  14.655  63.005  1.00  0.00     0.000 HD 
HETATM    3  C   UNL     1     -11.608  13.842  64.772  1.00  0.00    -0.374 C  
ENDROOT
BRANCH   3   4
HETATM    4  C   UNL     1     -12.000  14.064  66.240  1.00  0.00    -0.432 C  
HETATM    5  O   UNL     1     -12.370  12.827  66.872  1.00  0.00    -0.412 OA 
HETATM    6  C   UNL     1     -11.292  11.981  67.301  1.00  0.00    -0.330 C  
HETATM    7  C   UNL     1     -10.324  12.733  68.249  1.00  0.00    -0.243 C  
HETATM    8  H   UNL     1      -8.516  14.573  66.236  1.00  0.00     0.000 HD 
HETATM    9  H   UNL     1     -11.108  16.006  68.678  1.00  0.00     0.000 HD 
HETATM   10  O   UNL     1     -10.927  13.045  69.515  1.00  0.00    -0.454 OA 
HETATM   11  C   UNL     1      -9.825  14.041  67.612  1.00  0.00    -0.233 C  
HETATM   12  H   UNL     1     -10.334  13.506  70.096  1.00  0.00     0.000 HD 
HETATM   13  C   UNL     1     -10.997  14.889  67.078  1.00  0.00    -0.327 C  
HETATM   14  O   UNL     1     -11.725  15.499  68.164  1.00  0.00    -0.342 OA 
HETATM   15  O   UNL     1      -8.824  13.765  66.629  1.00  0.00    -0.182 OA 
BRANCH   6  16
HETATM   16  O   UNL     1     -10.555  11.472  66.186  1.00  0.00    -0.250 OA 
BRANCH  16  17
HETATM   17  C   UNL     1      -9.840  10.319  66.322  1.00  0.00    -0.219 A  
HETATM   18  O   UNL     1      -7.675  11.174  65.660  1.00  0.00    -0.364 OA 
HETATM   19  C   UNL     1      -7.879   8.895  66.186  1.00  0.00    -0.102 A  
HETATM   20  H   UNL     1      -6.747  11.059  65.495  1.00  0.00     0.000 HD 
HETATM   21  C   UNL     1      -8.672   7.795  66.500  1.00  0.00    -0.148 A  
HETATM   22  C   UNL     1      -8.475  10.151  66.080  1.00  0.00    -0.131 A  
HETATM   23  O   UNL     1      -8.050   6.532  66.538  1.00  0.00    -0.107 OA 
HETATM   24  C   UNL     1      -8.778   5.380  66.800  1.00  0.00    -0.113 C  
HETATM   25  O   UNL     1      -8.268   4.265  66.807  1.00  0.00    -0.101 OA 
HETATM   26  C   UNL     1     -10.217   5.545  67.077  1.00  0.00    -0.265 C  
HETATM   27  C   UNL     1     -10.816   6.742  67.053  1.00  0.00    -0.453 C  
HETATM   28  C   UNL     1     -10.039   7.926  66.736  1.00  0.00    -0.352 A  
HETATM   29  C   UNL     1     -10.616   9.196  66.645  1.00  0.00    -0.157 A  
ENDBRANCH  16  17
ENDBRANCH   6  16
ENDBRANCH   3   4
TORSDOF 3
ENDMDL
MODEL       65
REMARK 921   NORMALIZED FREE ENERGY PREDICTED BY IDOCK:   -5.83 KCAL/MOL
REMARK 922        TOTAL FREE ENERGY PREDICTED BY IDOCK:   -7.81 KCAL/MOL
REMARK 923 INTER-LIGAND FREE ENERGY PREDICTED BY IDOCK:   -7.68 KCAL/MOL
REMARK 924 INTRA-LIGAND FREE ENERGY PREDICTED BY IDOCK:   -0.14 KCAL/MOL
REMARK 927      BINDING AFFINITY PREDICTED BY RF-SCORE:    0.00 PKD
ROOT
HETATM    1  O   UNL     1      -8.267   9.204  69.893  1.00  0.00    -0.112 OA 
HETATM    2  H   UNL     1      -7.837   9.165  69.047  1.00  0.00     0.000 HD 
HETATM    3  C   UNL     1      -8.926   7.985  70.206  1.00  0.00    -0.147 C  
ENDROOT
BRANCH   3   4
HETATM    4  C   UNL     1      -9.622   8.048  71.573  1.00  0.00    -0.163 C  
HETATM    5  O   UNL     1     -10.267   9.317  71.771  1.00  0.00    -0.311 OA 
HETATM    6  C   UNL     1     -11.540   9.493  71.129  1.00  0.00    -0.367 C  
HETATM    7  C   UNL     1     -12.539   8.379  71.535  1.00  0.00    -0.308 C  
HETATM    8  H   UNL     1     -11.621   5.803  69.740  1.00  0.00     0.000 HD 
HETATM    9  H   UNL     1     -11.185   6.007  73.549  1.00  0.00     0.000 HD 
HETATM   10  O   UNL     1     -12.929   8.468  72.915  1.00  0.00    -0.667 OA 
HETATM   11  C   UNL     1     -11.945   6.982  71.287  1.00  0.00    -0.346 C  
HETATM   12  H   UNL     1     -13.540   7.785  73.164  1.00  0.00     0.000 HD 
HETATM   13  C   UNL     1     -10.540   6.849  71.907  1.00  0.00    -0.211 C  
HETATM   14  O   UNL     1     -10.622   6.743  73.344  1.00  0.00    -0.279 OA 
HETATM   15  O   UNL     1     -11.988   6.665  69.893  1.00  0.00    -0.301 OA 
BRANCH   6  16
HETATM   16  O   UNL     1     -11.408   9.508  69.706  1.00  0.00    -0.195 OA 
BRANCH  16  17
HETATM   17  C   UNL     1     -11.436  10.698  69.040  1.00  0.00    -0.274 A  
HETATM   18  O   UNL     1     -12.132  12.108  70.879  1.00  0.00    -0.420 OA 
HETATM   19  C   UNL     1     -11.837  13.075  68.761  1.00  0.00    -0.355 A  
HETATM   20  H   UNL     1     -12.362  12.955  71.241  1.00  0.00     0.000 HD 
HETATM   21  C   UNL     1     -11.593  12.942  67.397  1.00  0.00    -0.360 A  
HETATM   22  C   UNL     1     -11.775  11.943  69.572  1.00  0.00    -0.345 A  
HETATM   23  O   UNL     1     -11.725  14.094  66.595  1.00  0.00    -0.365 OA 
HETATM   24  C   UNL     1     -11.543  14.038  65.221  1.00  0.00    -0.337 C  
HETATM   25  O   UNL     1     -11.683  15.016  64.497  1.00  0.00    -0.416 OA 
HETATM   26  C   UNL     1     -11.166  12.732  64.648  1.00  0.00    -0.356 C  
HETATM   27  C   UNL     1     -11.028  11.634  65.401  1.00  0.00    -0.328 C  
HETATM   28  C   UNL     1     -11.265  11.712  66.832  1.00  0.00    -0.376 A  
HETATM   29  C   UNL     1     -11.188  10.591  67.664  1.00  0.00    -0.338 A  
ENDBRANCH  16  17
ENDBRANCH   6  16
ENDBRANCH   3   4
TORSDOF 3
ENDMDL
MODEL       66
REMARK 921   NORMALIZED FREE ENERGY PREDICTED BY IDOCK:   -5.82 KCAL/MOL
REMARK 922        TOTAL FREE ENERGY PREDICTED BY IDOCK:   -7.80 KCAL/MOL
REMARK 923 INTER-LIGAND FREE ENERGY PREDICTED BY IDOCK:   -6.98 KCAL/MOL
REMARK 924 INTRA-LIGAND FREE ENERGY PREDICTED BY IDOCK:   -0.81 KCAL/MOL
REMARK 927      BINDING AFFINITY PREDICTED BY RF-SCORE:    0.00 PKD
ROOT
HETATM    1  O   UNL     1      -8.539  14.583  66.142  1.00  0.00    -0.370 OA 
HETATM    2  H   UNL     1      -8.125  14.774  66.975  1.00  0.00     0.000 HD 
HETATM    3  C   UNL     1      -9.910  14.957  66.137  1.00  0.00    -0.308 C  
ENDROOT
BRANCH   3   4
HETATM    4  C   UNL     1     -10.580  14.648  64.791  1.00  0.00    -0.353 C  
HETATM    5  O   UNL     1      -9.952  13.531  64.141  1.00  0.00    -0.214 OA 
HETATM    6  C   UNL     1     -10.323  12.225  64.612  1.00  0.00    -0.301 C  
HETATM    7  C   UNL     1     -11.857  12.015  64.548  1.00  0.00    -0.285 C  
HETATM    8  H   UNL     1     -12.986  13.637  67.155  1.00  0.00     0.000 HD 
HETATM    9  H   UNL     1     -13.566  14.765  63.532  1.00  0.00     0.000 HD 
HETATM   10  O   UNL     1     -12.348  11.954  63.199  1.00  0.00    -0.808 OA 
HETATM   11  C   UNL     1     -12.604  13.140  65.286  1.00  0.00    -0.472 C  
HETATM   12  H   UNL     1     -13.288  11.826  63.160  1.00  0.00     0.000 HD 
HETATM   13  C   UNL     1     -12.122  14.530  64.828  1.00  0.00    -0.445 C  
HETATM   14  O   UNL     1     -12.619  14.837  63.509  1.00  0.00    -0.654 OA 
HETATM   15  O   UNL     1     -12.525  12.943  66.700  1.00  0.00    -0.367 OA 
BRANCH   6  16
HETATM   16  O   UNL     1      -9.876  12.009  65.952  1.00  0.00    -0.231 OA 
BRANCH  16  17
HETATM   17  C   UNL     1      -9.208  10.861  66.261  1.00  0.00    -0.177 A  
HETATM   18  O   UNL     1      -6.960  11.755  66.253  1.00  0.00    -0.368 OA 
HETATM   19  C   UNL     1      -7.263   9.463  66.655  1.00  0.00    -0.086 A  
HETATM   20  H   UNL     1      -6.020  11.655  66.354  1.00  0.00     0.000 HD 
HETATM   21  C   UNL     1      -8.094   8.347  66.712  1.00  0.00    -0.098 A  
HETATM   22  C   UNL     1      -7.828  10.713  66.410  1.00  0.00    -0.144 A  
HETATM   23  O   UNL     1      -7.486   7.089  66.898  1.00  0.00    -0.083 OA 
HETATM   24  C   UNL     1      -8.238   5.923  66.922  1.00  0.00    -0.105 C  
HETATM   25  O   UNL     1      -7.732   4.815  67.050  1.00  0.00    -0.090 OA 
HETATM   26  C   UNL     1      -9.700   6.067  66.785  1.00  0.00    -0.182 C  
HETATM   27  C   UNL     1     -10.289   7.257  66.617  1.00  0.00    -0.229 C  
HETATM   28  C   UNL     1      -9.474   8.457  66.555  1.00  0.00    -0.284 A  
HETATM   29  C   UNL     1     -10.024   9.722  66.330  1.00  0.00    -0.331 A  
ENDBRANCH  16  17
ENDBRANCH   6  16
ENDBRANCH   3   4
TORSDOF 3
ENDMDL
MODEL       67
REMARK 921   NORMALIZED FREE ENERGY PREDICTED BY IDOCK:   -5.81 KCAL/MOL
REMARK 922        TOTAL FREE ENERGY PREDICTED BY IDOCK:   -7.79 KCAL/MOL
REMARK 923 INTER-LIGAND FREE ENERGY PREDICTED BY IDOCK:   -6.73 KCAL/MOL
REMARK 924 INTRA-LIGAND FREE ENERGY PREDICTED BY IDOCK:   -1.06 KCAL/MOL
REMARK 927      BINDING AFFINITY PREDICTED BY RF-SCORE:    0.00 PKD
ROOT
HETATM    1  O   UNL     1     -11.990   7.703  70.006  1.00  0.00    -0.419 OA 
HETATM    2  H   UNL     1     -12.078   8.336  70.708  1.00  0.00     0.000 HD 
HETATM    3  C   UNL     1     -10.836   6.890  70.169  1.00  0.00    -0.263 C  
ENDROOT
BRANCH   3   4
HETATM    4  C   UNL     1     -10.695   5.867  69.033  1.00  0.00    -0.309 C  
HETATM    5  O   UNL     1     -11.093   6.430  67.773  1.00  0.00    -0.328 OA 
HETATM    6  C   UNL     1     -10.132   7.273  67.117  1.00  0.00    -0.236 C  
HETATM    7  C   UNL     1      -8.783   6.538  66.909  1.00  0.00    -0.115 C  
HETATM    8  H   UNL     1      -7.361   6.648  69.853  1.00  0.00     0.000 HD 
HETATM    9  H   UNL     1      -8.706   3.426  68.258  1.00  0.00     0.000 HD 
HETATM   10  O   UNL     1      -8.882   5.468  65.956  1.00  0.00    -0.137 OA 
HETATM   11  C   UNL     1      -8.253   5.963  68.233  1.00  0.00    -0.109 C  
HETATM   12  H   UNL     1      -8.056   5.017  65.829  1.00  0.00     0.000 HD 
HETATM   13  C   UNL     1      -9.333   5.139  68.961  1.00  0.00    -0.121 C  
HETATM   14  O   UNL     1      -9.543   3.873  68.302  1.00  0.00    -0.162 OA 
HETATM   15  O   UNL     1      -7.689   7.003  69.035  1.00  0.00    -0.105 OA 
BRANCH   6  16
HETATM   16  O   UNL     1      -9.902   8.474  67.857  1.00  0.00    -0.157 OA 
BRANCH  16  17
HETATM   17  C   UNL     1     -10.446   9.647  67.423  1.00  0.00    -0.257 A  
HETATM   18  O   UNL     1     -11.422  10.372  69.515  1.00  0.00    -0.246 OA 
HETATM   19  C   UNL     1     -11.738  11.694  67.602  1.00  0.00    -0.300 A  
HETATM   20  H   UNL     1     -11.914  10.996  70.035  1.00  0.00     0.000 HD 
HETATM   21  C   UNL     1     -11.608  11.879  66.228  1.00  0.00    -0.246 A  
HETATM   22  C   UNL     1     -11.170  10.564  68.188  1.00  0.00    -0.293 A  
HETATM   23  O   UNL     1     -12.248  12.998  65.658  1.00  0.00    -0.429 OA 
HETATM   24  C   UNL     1     -12.205  13.231  64.290  1.00  0.00    -0.392 C  
HETATM   25  O   UNL     1     -12.778  14.177  63.765  1.00  0.00    -0.761 OA 
HETATM   26  C   UNL     1     -11.427  12.280  63.473  1.00  0.00    -0.558 C  
HETATM   27  C   UNL     1     -10.808  11.220  64.006  1.00  0.00    -0.414 C  
HETATM   28  C   UNL     1     -10.903  10.977  65.434  1.00  0.00    -0.168 A  
HETATM   29  C   UNL     1     -10.323   9.860  66.043  1.00  0.00    -0.202 A  
ENDBRANCH  16  17
ENDBRANCH   6  16
ENDBRANCH   3   4
TORSDOF 3
ENDMDL
MODEL       68
REMARK 921   NORMALIZED FREE ENERGY PREDICTED BY IDOCK:   -5.80 KCAL/MOL
REMARK 922        TOTAL FREE ENERGY PREDICTED BY IDOCK:   -7.78 KCAL/MOL
REMARK 923 INTER-LIGAND FREE ENERGY PREDICTED BY IDOCK:   -6.71 KCAL/MOL
REMARK 924 INTRA-LIGAND FREE ENERGY PREDICTED BY IDOCK:   -1.06 KCAL/MOL
REMARK 927      BINDING AFFINITY PREDICTED BY RF-SCORE:    0.00 PKD
ROOT
HETATM    1  O   UNL     1      -7.584  11.774  66.501  1.00  0.00    -0.342 OA 
HETATM    2  H   UNL     1      -6.991  11.757  65.760  1.00  0.00     0.000 HD 
HETATM    3  C   UNL     1      -8.943  11.688  66.091  1.00  0.00    -0.178 C  
ENDROOT
BRANCH   3   4
HETATM    4  C   UNL     1      -9.902  11.715  67.289  1.00  0.00    -0.187 C  
HETATM    5  O   UNL     1      -9.517  12.720  68.242  1.00  0.00    -0.214 OA 
HETATM    6  C   UNL     1      -9.888  14.072  67.930  1.00  0.00    -0.233 C  
HETATM    7  C   UNL     1     -11.413  14.200  67.689  1.00  0.00    -0.338 C  
HETATM    8  H   UNL     1     -11.835  13.038  64.660  1.00  0.00     0.000 HD 
HETATM    9  H   UNL     1     -13.066  11.239  67.821  1.00  0.00     0.000 HD 
HETATM   10  O   UNL     1     -12.178  13.992  68.887  1.00  0.00    -0.464 OA 
HETATM   11  C   UNL     1     -11.894  13.199  66.625  1.00  0.00    -0.391 C  
HETATM   12  H   UNL     1     -13.113  14.070  68.739  1.00  0.00     0.000 HD 
HETATM   13  C   UNL     1     -11.406  11.771  66.934  1.00  0.00    -0.320 C  
HETATM   14  O   UNL     1     -12.142  11.206  68.039  1.00  0.00    -0.635 OA 
HETATM   15  O   UNL     1     -11.538  13.656  65.317  1.00  0.00    -0.310 OA 
BRANCH   6  16
HETATM   16  O   UNL     1      -9.189  14.550  66.778  1.00  0.00    -0.243 OA 
BRANCH  16  17
HETATM   17  C   UNL     1      -8.262  15.541  66.916  1.00  0.00    -0.252 A  
HETATM   18  O   UNL     1      -6.367  14.160  67.512  1.00  0.00    -0.289 OA 
HETATM   19  C   UNL     1      -6.091  16.490  67.444  1.00  0.00    -0.192 A  
HETATM   20  H   UNL     1      -5.453  14.052  67.748  1.00  0.00     0.000 HD 
HETATM   21  C   UNL     1      -6.633  17.766  67.314  1.00  0.00    -0.164 A  
HETATM   22  C   UNL     1      -6.919  15.383  67.263  1.00  0.00    -0.145 A  
HETATM   23  O   UNL     1      -5.785  18.863  67.565  1.00  0.00    -0.170 OA 
HETATM   24  C   UNL     1      -6.257  20.166  67.500  1.00  0.00    -0.205 C  
HETATM   25  O   UNL     1      -5.550  21.136  67.745  1.00  0.00    -0.269 OA 
HETATM   26  C   UNL     1      -7.670  20.348  67.116  1.00  0.00    -0.369 C  
HETATM   27  C   UNL     1      -8.481  19.313  66.866  1.00  0.00    -0.308 C  
HETATM   28  C   UNL     1      -7.971  17.958  66.981  1.00  0.00    -0.234 A  
HETATM   29  C   UNL     1      -8.781  16.836  66.783  1.00  0.00    -0.260 A  
ENDBRANCH  16  17
ENDBRANCH   6  16
ENDBRANCH   3   4
TORSDOF 3
ENDMDL
MODEL       69
REMARK 921   NORMALIZED FREE ENERGY PREDICTED BY IDOCK:   -5.76 KCAL/MOL
REMARK 922        TOTAL FREE ENERGY PREDICTED BY IDOCK:   -7.73 KCAL/MOL
REMARK 923 INTER-LIGAND FREE ENERGY PREDICTED BY IDOCK:   -6.85 KCAL/MOL
REMARK 924 INTRA-LIGAND FREE ENERGY PREDICTED BY IDOCK:   -0.88 KCAL/MOL
REMARK 927      BINDING AFFINITY PREDICTED BY RF-SCORE:    0.00 PKD
ROOT
HETATM    1  O   UNL     1      -7.952   8.496  69.870  1.00  0.00    -0.100 OA 
HETATM    2  H   UNL     1      -7.463   8.131  69.142  1.00  0.00     0.000 HD 
HETATM    3  C   UNL     1      -8.729   7.507  70.531  1.00  0.00    -0.146 C  
ENDROOT
BRANCH   3   4
HETATM    4  C   UNL     1      -9.520   8.097  71.708  1.00  0.00    -0.188 C  
HETATM    5  O   UNL     1     -10.021   9.406  71.394  1.00  0.00    -0.286 OA 
HETATM    6  C   UNL     1     -11.208   9.461  70.585  1.00  0.00    -0.284 C  
HETATM    7  C   UNL     1     -12.363   8.645  71.219  1.00  0.00    -0.263 C  
HETATM    8  H   UNL     1     -11.622   5.539  70.507  1.00  0.00     0.000 HD 
HETATM    9  H   UNL     1     -11.475   7.003  74.053  1.00  0.00     0.000 HD 
HETATM   10  O   UNL     1     -12.850   9.236  72.435  1.00  0.00    -0.387 OA 
HETATM   11  C   UNL     1     -11.924   7.202  71.523  1.00  0.00    -0.326 C  
HETATM   12  H   UNL     1     -13.558   8.737  72.823  1.00  0.00     0.000 HD 
HETATM   13  C   UNL     1     -10.601   7.170  72.312  1.00  0.00    -0.215 C  
HETATM   14  O   UNL     1     -10.811   7.572  73.681  1.00  0.00    -0.329 OA 
HETATM   15  O   UNL     1     -11.892   6.430  70.320  1.00  0.00    -0.396 OA 
BRANCH   6  16
HETATM   16  O   UNL     1     -10.960   8.973  69.264  1.00  0.00    -0.161 OA 
BRANCH  16  17
HETATM   17  C   UNL     1     -10.859   9.855  68.229  1.00  0.00    -0.230 A  
HETATM   18  O   UNL     1      -9.508   8.500  66.749  1.00  0.00    -0.165 OA 
HETATM   19  C   UNL     1     -10.090  10.672  66.077  1.00  0.00    -0.308 A  
HETATM   20  H   UNL     1      -9.044   8.364  65.931  1.00  0.00     0.000 HD 
HETATM   21  C   UNL     1     -10.659  11.911  66.360  1.00  0.00    -0.248 A  
HETATM   22  C   UNL     1     -10.178   9.656  67.027  1.00  0.00    -0.244 A  
HETATM   23  O   UNL     1     -10.497  12.936  65.406  1.00  0.00    -0.282 OA 
HETATM   24  C   UNL     1     -10.996  14.211  65.630  1.00  0.00    -0.308 C  
HETATM   25  O   UNL     1     -10.842  15.128  64.832  1.00  0.00    -0.404 OA 
HETATM   26  C   UNL     1     -11.734  14.430  66.888  1.00  0.00    -0.422 C  
HETATM   27  C   UNL     1     -11.902  13.462  67.796  1.00  0.00    -0.395 C  
HETATM   28  C   UNL     1     -11.335  12.147  67.555  1.00  0.00    -0.392 A  
HETATM   29  C   UNL     1     -11.430  11.110  68.487  1.00  0.00    -0.371 A  
ENDBRANCH  16  17
ENDBRANCH   6  16
ENDBRANCH   3   4
TORSDOF 3
ENDMDL
MODEL       70
REMARK 921   NORMALIZED FREE ENERGY PREDICTED BY IDOCK:   -5.76 KCAL/MOL
REMARK 922        TOTAL FREE ENERGY PREDICTED BY IDOCK:   -7.73 KCAL/MOL
REMARK 923 INTER-LIGAND FREE ENERGY PREDICTED BY IDOCK:   -7.11 KCAL/MOL
REMARK 924 INTRA-LIGAND FREE ENERGY PREDICTED BY IDOCK:   -0.62 KCAL/MOL
REMARK 927      BINDING AFFINITY PREDICTED BY RF-SCORE:    0.00 PKD
ROOT
HETATM    1  O   UNL     1      -8.054  11.662  65.790  1.00  0.00    -0.357 OA 
HETATM    2  H   UNL     1      -7.318  11.397  66.328  1.00  0.00     0.000 HD 
HETATM    3  C   UNL     1      -9.254  11.007  66.178  1.00  0.00    -0.190 C  
ENDROOT
BRANCH   3   4
HETATM    4  C   UNL     1     -10.444  11.436  65.307  1.00  0.00    -0.283 C  
HETATM    5  O   UNL     1     -11.689  11.263  66.004  1.00  0.00    -0.132 OA 
HETATM    6  C   UNL     1     -12.035  12.281  66.957  1.00  0.00    -0.143 C  
HETATM    7  C   UNL     1     -12.043  13.687  66.306  1.00  0.00    -0.434 C  
HETATM    8  H   UNL     1      -8.875  14.485  66.112  1.00  0.00     0.000 HD 
HETATM    9  H   UNL     1     -11.061  13.689  63.058  1.00  0.00     0.000 HD 
HETATM   10  O   UNL     1     -13.108  13.847  65.356  1.00  0.00    -0.752 OA 
HETATM   11  C   UNL     1     -10.710  13.978  65.595  1.00  0.00    -0.303 C  
HETATM   12  H   UNL     1     -13.112  14.709  64.957  1.00  0.00     0.000 HD 
HETATM   13  C   UNL     1     -10.315  12.829  64.647  1.00  0.00    -0.338 C  
HETATM   14  O   UNL     1     -11.140  12.834  63.464  1.00  0.00    -0.433 OA 
HETATM   15  O   UNL     1      -9.698  14.305  66.551  1.00  0.00    -0.269 OA 
BRANCH   6  16
HETATM   16  O   UNL     1     -11.134  12.283  68.067  1.00  0.00    -0.212 OA 
BRANCH  16  17
HETATM   17  C   UNL     1     -11.395  11.491  69.146  1.00  0.00    -0.286 A  
HETATM   18  O   UNL     1     -12.737  13.058  70.410  1.00  0.00    -0.126 OA 
HETATM   19  C   UNL     1     -12.280  10.953  71.342  1.00  0.00    -0.332 A  
HETATM   20  H   UNL     1     -13.251  13.292  71.174  1.00  0.00     0.000 HD 
HETATM   21  C   UNL     1     -11.608   9.734  71.298  1.00  0.00    -0.390 A  
HETATM   22  C   UNL     1     -12.151  11.834  70.269  1.00  0.00    -0.342 A  
HETATM   23  O   UNL     1     -11.708   8.894  72.426  1.00  0.00    -0.331 OA 
HETATM   24  C   UNL     1     -11.034   7.683  72.481  1.00  0.00    -0.324 C  
HETATM   25  O   UNL     1     -11.077   6.948  73.461  1.00  0.00    -0.199 OA 
HETATM   26  C   UNL     1     -10.247   7.299  71.294  1.00  0.00    -0.198 C  
HETATM   27  C   UNL     1     -10.153   8.085  70.214  1.00  0.00    -0.192 C  
HETATM   28  C   UNL     1     -10.836   9.366  70.199  1.00  0.00    -0.287 A  
HETATM   29  C   UNL     1     -10.735  10.254  69.124  1.00  0.00    -0.259 A  
ENDBRANCH  16  17
ENDBRANCH   6  16
ENDBRANCH   3   4
TORSDOF 3
ENDMDL
MODEL       71
REMARK 921   NORMALIZED FREE ENERGY PREDICTED BY IDOCK:   -5.74 KCAL/MOL
REMARK 922        TOTAL FREE ENERGY PREDICTED BY IDOCK:   -7.71 KCAL/MOL
REMARK 923 INTER-LIGAND FREE ENERGY PREDICTED BY IDOCK:   -6.62 KCAL/MOL
REMARK 924 INTRA-LIGAND FREE ENERGY PREDICTED BY IDOCK:   -1.09 KCAL/MOL
REMARK 927      BINDING AFFINITY PREDICTED BY RF-SCORE:    0.00 PKD
ROOT
HETATM    1  O   UNL     1      -7.816  11.192  68.140  1.00  0.00    -0.107 OA 
HETATM    2  H   UNL     1      -7.769  11.835  67.443  1.00  0.00     0.000 HD 
HETATM    3  C   UNL     1      -8.007   9.878  67.632  1.00  0.00    -0.109 C  
ENDROOT
BRANCH   3   4
HETATM    4  C   UNL     1      -8.083   8.838  68.759  1.00  0.00    -0.115 C  
HETATM    5  O   UNL     1      -8.826   9.340  69.882  1.00  0.00    -0.154 OA 
HETATM    6  C   UNL     1     -10.258   9.305  69.769  1.00  0.00    -0.211 C  
HETATM    7  C   UNL     1     -10.766   7.874  69.460  1.00  0.00    -0.192 C  
HETATM    8  H   UNL     1     -10.176   7.499  66.264  1.00  0.00     0.000 HD 
HETATM    9  H   UNL     1      -8.277   5.611  69.015  1.00  0.00     0.000 HD 
HETATM   10  O   UNL     1     -10.570   6.971  70.560  1.00  0.00    -0.216 OA 
HETATM   11  C   UNL     1     -10.065   7.290  68.222  1.00  0.00    -0.170 C  
HETATM   12  H   UNL     1     -10.882   6.094  70.371  1.00  0.00     0.000 HD 
HETATM   13  C   UNL     1      -8.533   7.423  68.327  1.00  0.00    -0.125 C  
HETATM   14  O   UNL     1      -8.001   6.480  69.280  1.00  0.00    -0.108 OA 
HETATM   15  O   UNL     1     -10.609   7.859  67.028  1.00  0.00    -0.337 OA 
BRANCH   6  16
HETATM   16  O   UNL     1     -10.722  10.197  68.753  1.00  0.00    -0.201 OA 
BRANCH  16  17
HETATM   17  C   UNL     1     -11.238  11.409  69.106  1.00  0.00    -0.272 A  
HETATM   18  O   UNL     1     -10.169  12.751  67.400  1.00  0.00    -0.219 OA 
HETATM   19  C   UNL     1     -11.526  13.816  68.991  1.00  0.00    -0.349 A  
HETATM   20  H   UNL     1     -10.002  13.584  66.975  1.00  0.00     0.000 HD 
HETATM   21  C   UNL     1     -12.281  13.767  70.160  1.00  0.00    -0.356 A  
HETATM   22  C   UNL     1     -10.992  12.633  68.482  1.00  0.00    -0.261 A  
HETATM   23  O   UNL     1     -12.753  14.988  70.683  1.00  0.00    -0.344 OA 
HETATM   24  C   UNL     1     -13.475  15.032  71.867  1.00  0.00    -0.402 C  
HETATM   25  O   UNL     1     -13.870  16.082  72.360  1.00  0.00    -0.364 OA 
HETATM   26  C   UNL     1     -13.758  13.743  72.527  1.00  0.00    -0.667 C  
HETATM   27  C   UNL     1     -13.322  12.577  72.034  1.00  0.00    -0.528 C  
HETATM   28  C   UNL     1     -12.534  12.564  70.814  1.00  0.00    -0.357 A  
HETATM   29  C   UNL     1     -12.007  11.386  70.278  1.00  0.00    -0.460 A  
ENDBRANCH  16  17
ENDBRANCH   6  16
ENDBRANCH   3   4
TORSDOF 3
ENDMDL
MODEL       72
REMARK 921   NORMALIZED FREE ENERGY PREDICTED BY IDOCK:   -5.66 KCAL/MOL
REMARK 922        TOTAL FREE ENERGY PREDICTED BY IDOCK:   -7.61 KCAL/MOL
REMARK 923 INTER-LIGAND FREE ENERGY PREDICTED BY IDOCK:   -6.62 KCAL/MOL
REMARK 924 INTRA-LIGAND FREE ENERGY PREDICTED BY IDOCK:   -0.99 KCAL/MOL
REMARK 927      BINDING AFFINITY PREDICTED BY RF-SCORE:    0.00 PKD
ROOT
HETATM    1  O   UNL     1     -10.835  17.075  69.685  1.00  0.00    -0.386 OA 
HETATM    2  H   UNL     1     -11.783  17.123  69.712  1.00  0.00     0.000 HD 
HETATM    3  C   UNL     1     -10.283  18.058  68.819  1.00  0.00    -0.354 C  
ENDROOT
BRANCH   3   4
HETATM    4  C   UNL     1      -8.750  17.981  68.776  1.00  0.00    -0.195 C  
HETATM    5  O   UNL     1      -8.291  16.628  68.934  1.00  0.00    -0.238 OA 
HETATM    6  C   UNL     1      -8.354  15.791  67.768  1.00  0.00    -0.154 C  
HETATM    7  C   UNL     1      -7.587  16.421  66.577  1.00  0.00    -0.223 C  
HETATM    8  H   UNL     1      -9.628  18.713  65.446  1.00  0.00     0.000 HD 
HETATM    9  H   UNL     1      -6.329  19.501  67.244  1.00  0.00     0.000 HD 
HETATM   10  O   UNL     1      -6.168  16.456  66.795  1.00  0.00    -0.301 OA 
HETATM   11  C   UNL     1      -8.072  17.854  66.298  1.00  0.00    -0.231 C  
HETATM   12  H   UNL     1      -5.698  16.842  66.066  1.00  0.00     0.000 HD 
HETATM   13  C   UNL     1      -8.082  18.705  67.583  1.00  0.00    -0.247 C  
HETATM   14  O   UNL     1      -6.739  19.056  67.976  1.00  0.00    -0.225 OA 
HETATM   15  O   UNL     1      -9.329  17.829  65.618  1.00  0.00    -0.406 OA 
BRANCH   6  16
HETATM   16  O   UNL     1      -9.707  15.545  67.376  1.00  0.00    -0.217 OA 
BRANCH  16  17
HETATM   17  C   UNL     1     -10.188  14.269  67.384  1.00  0.00    -0.247 A  
HETATM   18  O   UNL     1     -12.167  14.653  68.722  1.00  0.00    -0.544 OA 
HETATM   19  C   UNL     1     -11.692  12.468  68.008  1.00  0.00    -0.410 A  
HETATM   20  H   UNL     1     -12.958  14.348  69.150  1.00  0.00     0.000 HD 
HETATM   21  C   UNL     1     -10.833  11.558  67.396  1.00  0.00    -0.246 A  
HETATM   22  C   UNL     1     -11.350  13.820  68.013  1.00  0.00    -0.288 A  
HETATM   23  O   UNL     1     -11.176  10.193  67.463  1.00  0.00    -0.265 OA 
HETATM   24  C   UNL     1     -10.352   9.218  66.918  1.00  0.00    -0.246 C  
HETATM   25  O   UNL     1     -10.610   8.022  66.989  1.00  0.00    -0.335 OA 
HETATM   26  C   UNL     1      -9.130   9.680  66.233  1.00  0.00    -0.197 C  
HETATM   27  C   UNL     1      -8.800  10.975  66.156  1.00  0.00    -0.197 C  
HETATM   28  C   UNL     1      -9.660  11.971  66.770  1.00  0.00    -0.215 A  
HETATM   29  C   UNL     1      -9.344  13.333  66.769  1.00  0.00    -0.254 A  
ENDBRANCH  16  17
ENDBRANCH   6  16
ENDBRANCH   3   4
TORSDOF 3
ENDMDL
MODEL       73
REMARK 921   NORMALIZED FREE ENERGY PREDICTED BY IDOCK:   -5.65 KCAL/MOL
REMARK 922        TOTAL FREE ENERGY PREDICTED BY IDOCK:   -7.61 KCAL/MOL
REMARK 923 INTER-LIGAND FREE ENERGY PREDICTED BY IDOCK:   -7.14 KCAL/MOL
REMARK 924 INTRA-LIGAND FREE ENERGY PREDICTED BY IDOCK:   -0.46 KCAL/MOL
REMARK 927      BINDING AFFINITY PREDICTED BY RF-SCORE:    0.00 PKD
ROOT
HETATM    1  O   UNL     1      -5.456  17.660  67.522  1.00  0.00    -0.128 OA 
HETATM    2  H   UNL     1      -4.993  17.237  68.235  1.00  0.00     0.000 HD 
HETATM    3  C   UNL     1      -6.809  17.231  67.444  1.00  0.00    -0.161 C  
ENDROOT
BRANCH   3   4
HETATM    4  C   UNL     1      -7.558  17.915  66.292  1.00  0.00    -0.280 C  
HETATM    5  O   UNL     1      -8.691  17.137  65.873  1.00  0.00    -0.526 OA 
HETATM    6  C   UNL     1      -9.872  17.238  66.684  1.00  0.00    -0.295 C  
HETATM    7  C   UNL     1     -10.332  18.711  66.834  1.00  0.00    -0.402 C  
HETATM    8  H   UNL     1      -8.290  19.951  69.070  1.00  0.00     0.000 HD 
HETATM    9  H   UNL     1      -8.245  20.945  65.362  1.00  0.00     0.000 HD 
HETATM   10  O   UNL     1     -10.817  19.263  65.600  1.00  0.00    -0.427 OA 
HETATM   11  C   UNL     1      -9.188  19.601  67.349  1.00  0.00    -0.325 C  
HETATM   12  H   UNL     1     -11.098  20.166  65.692  1.00  0.00     0.000 HD 
HETATM   13  C   UNL     1      -7.905  19.405  66.518  1.00  0.00    -0.288 C  
HETATM   14  O   UNL     1      -8.033  20.029  65.223  1.00  0.00    -0.213 OA 
HETATM   15  O   UNL     1      -8.997  19.402  68.752  1.00  0.00    -0.368 OA 
BRANCH   6  16
HETATM   16  O   UNL     1      -9.661  16.678  67.983  1.00  0.00    -0.234 OA 
BRANCH  16  17
HETATM   17  C   UNL     1     -10.047  15.394  68.232  1.00  0.00    -0.218 A  
HETATM   18  O   UNL     1      -9.116  14.362  66.252  1.00  0.00    -0.455 OA 
HETATM   19  C   UNL     1     -10.317  13.028  67.764  1.00  0.00    -0.227 A  
HETATM   20  H   UNL     1      -8.949  13.603  65.705  1.00  0.00     0.000 HD 
HETATM   21  C   UNL     1     -11.120  12.910  68.896  1.00  0.00    -0.255 A  
HETATM   22  C   UNL     1      -9.801  14.279  67.429  1.00  0.00    -0.235 A  
HETATM   23  O   UNL     1     -11.677  11.645  69.171  1.00  0.00    -0.271 OA 
HETATM   24  C   UNL     1     -12.523  11.453  70.254  1.00  0.00    -0.232 C  
HETATM   25  O   UNL     1     -13.046  10.372  70.498  1.00  0.00    -0.328 OA 
HETATM   26  C   UNL     1     -12.775  12.619  71.122  1.00  0.00    -0.347 C  
HETATM   27  C   UNL     1     -12.244  13.822  70.875  1.00  0.00    -0.427 C  
HETATM   28  C   UNL     1     -11.394  14.005  69.712  1.00  0.00    -0.239 A  
HETATM   29  C   UNL     1     -10.852  15.247  69.371  1.00  0.00    -0.263 A  
ENDBRANCH  16  17
ENDBRANCH   6  16
ENDBRANCH   3   4
TORSDOF 3
ENDMDL
MODEL       74
REMARK 921   NORMALIZED FREE ENERGY PREDICTED BY IDOCK:   -5.64 KCAL/MOL
REMARK 922        TOTAL FREE ENERGY PREDICTED BY IDOCK:   -7.59 KCAL/MOL
REMARK 923 INTER-LIGAND FREE ENERGY PREDICTED BY IDOCK:   -6.93 KCAL/MOL
REMARK 924 INTRA-LIGAND FREE ENERGY PREDICTED BY IDOCK:   -0.66 KCAL/MOL
REMARK 927      BINDING AFFINITY PREDICTED BY RF-SCORE:    0.00 PKD
ROOT
HETATM    1  O   UNL     1     -10.045  12.598  65.180  1.00  0.00    -0.314 OA 
HETATM    2  H   UNL     1     -10.852  12.951  64.827  1.00  0.00     0.000 HD 
HETATM    3  C   UNL     1     -10.085  11.180  65.272  1.00  0.00    -0.276 C  
ENDROOT
BRANCH   3   4
HETATM    4  C   UNL     1      -8.780  10.609  65.844  1.00  0.00    -0.177 C  
HETATM    5  O   UNL     1      -8.545  11.083  67.180  1.00  0.00    -0.132 OA 
HETATM    6  C   UNL     1      -9.277  10.428  68.229  1.00  0.00    -0.149 C  
HETATM    7  C   UNL     1      -9.037   8.897  68.215  1.00  0.00    -0.140 C  
HETATM    8  H   UNL     1     -10.932   7.823  65.774  1.00  0.00     0.000 HD 
HETATM    9  H   UNL     1      -7.096   7.845  65.639  1.00  0.00     0.000 HD 
HETATM   10  O   UNL     1      -7.693   8.548  68.580  1.00  0.00    -0.100 OA 
HETATM   11  C   UNL     1      -9.336   8.299  66.829  1.00  0.00    -0.182 C  
HETATM   12  H   UNL     1      -7.546   7.609  68.571  1.00  0.00     0.000 HD 
HETATM   13  C   UNL     1      -8.612   9.077  65.713  1.00  0.00    -0.160 C  
HETATM   14  O   UNL     1      -7.199   8.786  65.720  1.00  0.00    -0.082 OA 
HETATM   15  O   UNL     1     -10.748   8.192  66.629  1.00  0.00    -0.210 OA 
BRANCH   6  16
HETATM   16  O   UNL     1     -10.679  10.685  68.123  1.00  0.00    -0.192 OA 
BRANCH  16  17
HETATM   17  C   UNL     1     -11.331  11.295  69.154  1.00  0.00    -0.282 A  
HETATM   18  O   UNL     1     -12.138   9.311  70.278  1.00  0.00    -0.470 OA 
HETATM   19  C   UNL     1     -12.717  11.414  71.143  1.00  0.00    -0.479 A  
HETATM   20  H   UNL     1     -12.613   8.884  70.981  1.00  0.00     0.000 HD 
HETATM   21  C   UNL     1     -12.733  12.802  71.032  1.00  0.00    -0.243 A  
HETATM   22  C   UNL     1     -12.029  10.668  70.187  1.00  0.00    -0.334 A  
HETATM   23  O   UNL     1     -13.490  13.523  71.977  1.00  0.00    -0.421 OA 
HETATM   24  C   UNL     1     -13.594  14.905  71.910  1.00  0.00    -0.407 C  
HETATM   25  O   UNL     1     -14.270  15.554  72.700  1.00  0.00    -0.518 OA 
HETATM   26  C   UNL     1     -12.845  15.582  70.835  1.00  0.00    -0.535 C  
HETATM   27  C   UNL     1     -12.116  14.908  69.937  1.00  0.00    -0.379 C  
HETATM   28  C   UNL     1     -12.057  13.459  70.006  1.00  0.00    -0.404 A  
HETATM   29  C   UNL     1     -11.356  12.695  69.069  1.00  0.00    -0.345 A  
ENDBRANCH  16  17
ENDBRANCH   6  16
ENDBRANCH   3   4
TORSDOF 3
ENDMDL
MODEL       75
REMARK 921   NORMALIZED FREE ENERGY PREDICTED BY IDOCK:   -5.61 KCAL/MOL
REMARK 922        TOTAL FREE ENERGY PREDICTED BY IDOCK:   -7.56 KCAL/MOL
REMARK 923 INTER-LIGAND FREE ENERGY PREDICTED BY IDOCK:   -6.73 KCAL/MOL
REMARK 924 INTRA-LIGAND FREE ENERGY PREDICTED BY IDOCK:   -0.83 KCAL/MOL
REMARK 927      BINDING AFFINITY PREDICTED BY RF-SCORE:    0.00 PKD
ROOT
HETATM    1  O   UNL     1      -9.046   6.130  65.071  1.00  0.00    -0.360 OA 
HETATM    2  H   UNL     1      -9.233   6.040  64.144  1.00  0.00     0.000 HD 
HETATM    3  C   UNL     1      -8.362   7.343  65.356  1.00  0.00    -0.117 C  
ENDROOT
BRANCH   3   4
HETATM    4  C   UNL     1      -8.061   7.488  66.854  1.00  0.00    -0.116 C  
HETATM    5  O   UNL     1      -8.123   8.863  67.267  1.00  0.00    -0.103 OA 
HETATM    6  C   UNL     1      -9.435   9.405  67.491  1.00  0.00    -0.127 C  
HETATM    7  C   UNL     1     -10.229   8.559  68.519  1.00  0.00    -0.198 C  
HETATM    8  H   UNL     1     -11.234   5.964  66.800  1.00  0.00     0.000 HD 
HETATM    9  H   UNL     1      -8.577   5.786  69.565  1.00  0.00     0.000 HD 
HETATM   10  O   UNL     1      -9.681   8.650  69.844  1.00  0.00    -0.170 OA 
HETATM   11  C   UNL     1     -10.267   7.077  68.109  1.00  0.00    -0.181 C  
HETATM   12  H   UNL     1     -10.167   8.132  70.474  1.00  0.00     0.000 HD 
HETATM   13  C   UNL     1      -8.857   6.545  67.786  1.00  0.00    -0.113 C  
HETATM   14  O   UNL     1      -8.088   6.365  68.993  1.00  0.00    -0.109 OA 
HETATM   15  O   UNL     1     -11.210   6.879  67.053  1.00  0.00    -0.369 OA 
BRANCH   6  16
HETATM   16  O   UNL     1     -10.180   9.483  66.273  1.00  0.00    -0.271 OA 
BRANCH  16  17
HETATM   17  C   UNL     1     -10.363  10.694  65.673  1.00  0.00    -0.216 A  
HETATM   18  O   UNL     1     -10.001  10.003  63.383  1.00  0.00    -0.494 OA 
HETATM   19  C   UNL     1     -10.419  12.269  63.828  1.00  0.00    -0.476 A  
HETATM   20  H   UNL     1      -9.947  10.189  62.453  1.00  0.00     0.000 HD 
HETATM   21  C   UNL     1     -10.596  13.308  64.738  1.00  0.00    -0.386 A  
HETATM   22  C   UNL     1     -10.284  10.967  64.306  1.00  0.00    -0.352 A  
HETATM   23  O   UNL     1     -10.666  14.619  64.226  1.00  0.00    -0.081 OA 
HETATM   24  C   UNL     1     -10.797  15.714  65.069  1.00  0.00    -0.450 C  
HETATM   25  O   UNL     1     -10.829  16.866  64.653  1.00  0.00    -0.864 OA 
HETATM   26  C   UNL     1     -10.901  15.437  66.514  1.00  0.00    -0.298 C  
HETATM   27  C   UNL     1     -10.845  14.195  67.010  1.00  0.00    -0.295 C  
HETATM   28  C   UNL     1     -10.667  13.071  66.109  1.00  0.00    -0.288 A  
HETATM   29  C   UNL     1     -10.549  11.756  66.569  1.00  0.00    -0.289 A  
ENDBRANCH  16  17
ENDBRANCH   6  16
ENDBRANCH   3   4
TORSDOF 3
ENDMDL
MODEL       76
REMARK 921   NORMALIZED FREE ENERGY PREDICTED BY IDOCK:   -5.59 KCAL/MOL
REMARK 922        TOTAL FREE ENERGY PREDICTED BY IDOCK:   -7.53 KCAL/MOL
REMARK 923 INTER-LIGAND FREE ENERGY PREDICTED BY IDOCK:   -6.41 KCAL/MOL
REMARK 924 INTRA-LIGAND FREE ENERGY PREDICTED BY IDOCK:   -1.12 KCAL/MOL
REMARK 927      BINDING AFFINITY PREDICTED BY RF-SCORE:    0.00 PKD
ROOT
HETATM    1  O   UNL     1      -7.606   8.330  69.746  1.00  0.00    -0.087 OA 
HETATM    2  H   UNL     1      -7.131   8.126  68.950  1.00  0.00     0.000 HD 
HETATM    3  C   UNL     1      -8.596   7.351  70.034  1.00  0.00    -0.140 C  
ENDROOT
BRANCH   3   4
HETATM    4  C   UNL     1      -9.365   7.681  71.322  1.00  0.00    -0.149 C  
HETATM    5  O   UNL     1      -9.695   9.078  71.388  1.00  0.00    -0.276 OA 
HETATM    6  C   UNL     1     -10.830   9.504  70.617  1.00  0.00    -0.306 C  
HETATM    7  C   UNL     1     -12.099   8.694  70.982  1.00  0.00    -0.215 C  
HETATM    8  H   UNL     1     -11.694   5.846  69.423  1.00  0.00     0.000 HD 
HETATM    9  H   UNL     1     -11.536   6.225  73.240  1.00  0.00     0.000 HD 
HETATM   10  O   UNL     1     -12.568   8.976  72.310  1.00  0.00    -0.380 OA 
HETATM   11  C   UNL     1     -11.846   7.181  70.866  1.00  0.00    -0.339 C  
HETATM   12  H   UNL     1     -13.346   8.479  72.533  1.00  0.00     0.000 HD 
HETATM   13  C   UNL     1     -10.572   6.764  71.627  1.00  0.00    -0.214 C  
HETATM   14  O   UNL     1     -10.795   6.788  73.052  1.00  0.00    -0.259 OA 
HETATM   15  O   UNL     1     -11.850   6.780  69.494  1.00  0.00    -0.133 OA 
BRANCH   6  16
HETATM   16  O   UNL     1     -10.581   9.380  69.214  1.00  0.00    -0.219 OA 
BRANCH  16  17
HETATM   17  C   UNL     1     -10.263  10.489  68.487  1.00  0.00    -0.174 A  
HETATM   18  O   UNL     1      -8.173  11.031  69.580  1.00  0.00    -0.380 OA 
HETATM   19  C   UNL     1      -8.958  12.443  67.877  1.00  0.00    -0.184 A  
HETATM   20  H   UNL     1      -7.401  11.575  69.684  1.00  0.00     0.000 HD 
HETATM   21  C   UNL     1      -9.958  12.814  66.983  1.00  0.00    -0.231 A  
HETATM   22  C   UNL     1      -9.128  11.288  68.640  1.00  0.00    -0.151 A  
HETATM   23  O   UNL     1      -9.784  14.019  66.273  1.00  0.00    -0.288 OA 
HETATM   24  C   UNL     1     -10.754  14.483  65.396  1.00  0.00    -0.361 C  
HETATM   25  O   UNL     1     -10.643  15.543  64.791  1.00  0.00    -0.390 OA 
HETATM   26  C   UNL     1     -11.949  13.638  65.211  1.00  0.00    -0.395 C  
HETATM   27  C   UNL     1     -12.120  12.487  65.872  1.00  0.00    -0.420 C  
HETATM   28  C   UNL     1     -11.108  12.046  66.815  1.00  0.00    -0.353 A  
HETATM   29  C   UNL     1     -11.252  10.881  67.574  1.00  0.00    -0.364 A  
ENDBRANCH  16  17
ENDBRANCH   6  16
ENDBRANCH   3   4
TORSDOF 3
ENDMDL
MODEL       77
REMARK 921   NORMALIZED FREE ENERGY PREDICTED BY IDOCK:   -5.56 KCAL/MOL
REMARK 922        TOTAL FREE ENERGY PREDICTED BY IDOCK:   -7.50 KCAL/MOL
REMARK 923 INTER-LIGAND FREE ENERGY PREDICTED BY IDOCK:   -6.89 KCAL/MOL
REMARK 924 INTRA-LIGAND FREE ENERGY PREDICTED BY IDOCK:   -0.61 KCAL/MOL
REMARK 927      BINDING AFFINITY PREDICTED BY RF-SCORE:    0.00 PKD
ROOT
HETATM    1  O   UNL     1     -10.108  10.038  70.625  1.00  0.00    -0.374 OA 
HETATM    2  H   UNL     1      -9.991  10.248  71.544  1.00  0.00     0.000 HD 
HETATM    3  C   UNL     1     -11.309  10.591  70.106  1.00  0.00    -0.323 C  
ENDROOT
BRANCH   3   4
HETATM    4  C   UNL     1     -11.499  10.250  68.621  1.00  0.00    -0.112 C  
HETATM    5  O   UNL     1     -11.941  11.396  67.875  1.00  0.00    -0.626 OA 
HETATM    6  C   UNL     1     -10.932  12.353  67.515  1.00  0.00    -0.252 C  
HETATM    7  C   UNL     1      -9.775  11.686  66.727  1.00  0.00    -0.201 C  
HETATM    8  H   UNL     1      -8.002  10.194  69.036  1.00  0.00     0.000 HD 
HETATM    9  H   UNL     1     -10.098   8.322  66.421  1.00  0.00     0.000 HD 
HETATM   10  O   UNL     1     -10.185  11.237  65.425  1.00  0.00    -0.247 OA 
HETATM   11  C   UNL     1      -9.198  10.485  67.496  1.00  0.00    -0.142 C  
HETATM   12  H   UNL     1      -9.476  10.828  64.942  1.00  0.00     0.000 HD 
HETATM   13  C   UNL     1     -10.311   9.521  67.951  1.00  0.00    -0.227 C  
HETATM   14  O   UNL     1     -10.828   8.770  66.833  1.00  0.00    -0.171 OA 
HETATM   15  O   UNL     1      -8.359  10.935  68.562  1.00  0.00    -0.127 OA 
BRANCH   6  16
HETATM   16  O   UNL     1     -10.397  13.006  68.669  1.00  0.00    -0.241 OA 
BRANCH  16  17
HETATM   17  C   UNL     1     -10.392  14.368  68.729  1.00  0.00    -0.241 A  
HETATM   18  O   UNL     1     -11.201  14.618  70.995  1.00  0.00    -0.519 OA 
HETATM   19  C   UNL     1     -10.786  16.546  69.723  1.00  0.00    -0.302 A  
HETATM   20  H   UNL     1     -11.456  15.154  71.737  1.00  0.00     0.000 HD 
HETATM   21  C   UNL     1     -10.462  17.144  68.508  1.00  0.00    -0.377 A  
HETATM   22  C   UNL     1     -10.767  15.156  69.818  1.00  0.00    -0.274 A  
HETATM   23  O   UNL     1     -10.553  18.548  68.428  1.00  0.00    -0.287 OA 
HETATM   24  C   UNL     1     -10.289  19.219  67.242  1.00  0.00    -0.436 C  
HETATM   25  O   UNL     1     -10.391  20.435  67.136  1.00  0.00    -0.361 OA 
HETATM   26  C   UNL     1      -9.873  18.400  66.088  1.00  0.00    -0.279 C  
HETATM   27  C   UNL     1      -9.775  17.066  66.156  1.00  0.00    -0.283 C  
HETATM   28  C   UNL     1     -10.095  16.387  67.399  1.00  0.00    -0.262 A  
HETATM   29  C   UNL     1     -10.062  14.995  67.518  1.00  0.00    -0.228 A  
ENDBRANCH  16  17
ENDBRANCH   6  16
ENDBRANCH   3   4
TORSDOF 3
ENDMDL
MODEL       78
REMARK 921   NORMALIZED FREE ENERGY PREDICTED BY IDOCK:   -5.55 KCAL/MOL
REMARK 922        TOTAL FREE ENERGY PREDICTED BY IDOCK:   -7.48 KCAL/MOL
REMARK 923 INTER-LIGAND FREE ENERGY PREDICTED BY IDOCK:   -6.58 KCAL/MOL
REMARK 924 INTRA-LIGAND FREE ENERGY PREDICTED BY IDOCK:   -0.90 KCAL/MOL
REMARK 927      BINDING AFFINITY PREDICTED BY RF-SCORE:    0.00 PKD
ROOT
HETATM    1  O   UNL     1     -10.706  19.831  68.490  1.00  0.00    -0.439 OA 
HETATM    2  H   UNL     1     -11.606  19.631  68.718  1.00  0.00     0.000 HD 
HETATM    3  C   UNL     1      -9.810  18.831  68.954  1.00  0.00    -0.365 C  
ENDROOT
BRANCH   3   4
HETATM    4  C   UNL     1      -8.355  19.155  68.585  1.00  0.00    -0.368 C  
HETATM    5  O   UNL     1      -7.619  17.961  68.272  1.00  0.00    -0.246 OA 
HETATM    6  C   UNL     1      -7.817  17.414  66.958  1.00  0.00    -0.210 C  
HETATM    7  C   UNL     1      -7.520  18.463  65.857  1.00  0.00    -0.173 C  
HETATM    8  H   UNL     1     -10.187  20.357  65.829  1.00  0.00     0.000 HD 
HETATM    9  H   UNL     1      -6.753  21.536  67.075  1.00  0.00     0.000 HD 
HETATM   10  O   UNL     1      -6.127  18.807  65.787  1.00  0.00    -0.176 OA 
HETATM   11  C   UNL     1      -8.328  19.752  66.084  1.00  0.00    -0.345 C  
HETATM   12  H   UNL     1      -5.945  19.450  65.112  1.00  0.00     0.000 HD 
HETATM   13  C   UNL     1      -8.170  20.268  67.528  1.00  0.00    -0.310 C  
HETATM   14  O   UNL     1      -6.866  20.852  67.724  1.00  0.00    -0.322 OA 
HETATM   15  O   UNL     1      -9.689  19.561  65.689  1.00  0.00    -0.356 OA 
BRANCH   6  16
HETATM   16  O   UNL     1      -9.151  16.927  66.794  1.00  0.00    -0.224 OA 
BRANCH  16  17
HETATM   17  C   UNL     1      -9.422  15.613  67.039  1.00  0.00    -0.224 A  
HETATM   18  O   UNL     1      -8.829  15.569  69.385  1.00  0.00    -0.243 OA 
HETATM   19  C   UNL     1      -9.521  13.576  68.356  1.00  0.00    -0.185 A  
HETATM   20  H   UNL     1      -8.732  15.115  70.214  1.00  0.00     0.000 HD 
HETATM   21  C   UNL     1      -9.872  12.869  67.210  1.00  0.00    -0.218 A  
HETATM   22  C   UNL     1      -9.279  14.946  68.257  1.00  0.00    -0.187 A  
HETATM   23  O   UNL     1     -10.049  11.476  67.332  1.00  0.00    -0.188 OA 
HETATM   24  C   UNL     1     -10.356  10.691  66.229  1.00  0.00    -0.234 C  
HETATM   25  O   UNL     1     -10.483   9.475  66.301  1.00  0.00    -0.192 OA 
HETATM   26  C   UNL     1     -10.529  11.386  64.940  1.00  0.00    -0.363 C  
HETATM   27  C   UNL     1     -10.373  12.710  64.815  1.00  0.00    -0.335 C  
HETATM   28  C   UNL     1     -10.012  13.502  65.977  1.00  0.00    -0.308 A  
HETATM   29  C   UNL     1      -9.784  14.879  65.901  1.00  0.00    -0.366 A  
ENDBRANCH  16  17
ENDBRANCH   6  16
ENDBRANCH   3   4
TORSDOF 3
ENDMDL
MODEL       79
REMARK 921   NORMALIZED FREE ENERGY PREDICTED BY IDOCK:   -5.53 KCAL/MOL
REMARK 922        TOTAL FREE ENERGY PREDICTED BY IDOCK:   -7.46 KCAL/MOL
REMARK 923 INTER-LIGAND FREE ENERGY PREDICTED BY IDOCK:   -6.32 KCAL/MOL
REMARK 924 INTRA-LIGAND FREE ENERGY PREDICTED BY IDOCK:   -1.14 KCAL/MOL
REMARK 927      BINDING AFFINITY PREDICTED BY RF-SCORE:    0.00 PKD
ROOT
HETATM    1  O   UNL     1     -11.973  10.493  68.134  1.00  0.00    -0.788 OA 
HETATM    2  H   UNL     1     -12.352  10.650  68.991  1.00  0.00     0.000 HD 
HETATM    3  C   UNL     1     -10.812   9.677  68.212  1.00  0.00    -0.182 C  
ENDROOT
BRANCH   3   4
HETATM    4  C   UNL     1     -10.200   9.424  66.828  1.00  0.00    -0.250 C  
HETATM    5  O   UNL     1     -10.232  10.611  66.019  1.00  0.00    -0.242 OA 
HETATM    6  C   UNL     1      -9.212  11.590  66.277  1.00  0.00    -0.211 C  
HETATM    7  C   UNL     1      -7.795  10.973  66.166  1.00  0.00    -0.117 C  
HETATM    8  H   UNL     1      -7.415   9.351  68.981  1.00  0.00     0.000 HD 
HETATM    9  H   UNL     1      -7.807   7.632  65.571  1.00  0.00     0.000 HD 
HETATM   10  O   UNL     1      -7.462  10.601  64.819  1.00  0.00    -0.343 OA 
HETATM   11  C   UNL     1      -7.657   9.730  67.061  1.00  0.00    -0.092 C  
HETATM   12  H   UNL     1      -6.594  10.223  64.750  1.00  0.00     0.000 HD 
HETATM   13  C   UNL     1      -8.814   8.738  66.830  1.00  0.00    -0.129 C  
HETATM   14  O   UNL     1      -8.658   8.054  65.569  1.00  0.00    -0.155 OA 
HETATM   15  O   UNL     1      -7.500  10.118  68.428  1.00  0.00    -0.083 OA 
BRANCH   6  16
HETATM   16  O   UNL     1      -9.369  12.174  67.572  1.00  0.00    -0.173 OA 
BRANCH  16  17
HETATM   17  C   UNL     1      -9.864  13.440  67.684  1.00  0.00    -0.226 A  
HETATM   18  O   UNL     1     -12.119  12.997  66.928  1.00  0.00    -0.373 OA 
HETATM   19  C   UNL     1     -11.521  15.201  67.473  1.00  0.00    -0.306 A  
HETATM   20  H   UNL     1     -13.003  13.281  66.725  1.00  0.00     0.000 HD 
HETATM   21  C   UNL     1     -10.552  16.136  67.825  1.00  0.00    -0.309 A  
HETATM   22  C   UNL     1     -11.163  13.856  67.386  1.00  0.00    -0.312 A  
HETATM   23  O   UNL     1     -10.932  17.493  67.842  1.00  0.00    -0.323 OA 
HETATM   24  C   UNL     1     -10.015  18.492  68.140  1.00  0.00    -0.361 C  
HETATM   25  O   UNL     1     -10.310  19.681  68.131  1.00  0.00    -0.428 OA 
HETATM   26  C   UNL     1      -8.644  18.064  68.476  1.00  0.00    -0.306 C  
HETATM   27  C   UNL     1      -8.275  16.777  68.471  1.00  0.00    -0.242 C  
HETATM   28  C   UNL     1      -9.244  15.756  68.117  1.00  0.00    -0.189 A  
HETATM   29  C   UNL     1      -8.908  14.401  68.044  1.00  0.00    -0.178 A  
ENDBRANCH  16  17
ENDBRANCH   6  16
ENDBRANCH   3   4
TORSDOF 3
ENDMDL
MODEL       80
REMARK 921   NORMALIZED FREE ENERGY PREDICTED BY IDOCK:   -5.50 KCAL/MOL
REMARK 922        TOTAL FREE ENERGY PREDICTED BY IDOCK:   -7.42 KCAL/MOL
REMARK 923 INTER-LIGAND FREE ENERGY PREDICTED BY IDOCK:   -7.07 KCAL/MOL
REMARK 924 INTRA-LIGAND FREE ENERGY PREDICTED BY IDOCK:   -0.35 KCAL/MOL
REMARK 927      BINDING AFFINITY PREDICTED BY RF-SCORE:    0.00 PKD
ROOT
HETATM    1  O   UNL     1     -13.333  12.391  71.654  1.00  0.00    -0.351 OA 
HETATM    2  H   UNL     1     -13.094  13.236  72.016  1.00  0.00     0.000 HD 
HETATM    3  C   UNL     1     -12.193  11.666  71.213  1.00  0.00    -0.044 C  
ENDROOT
BRANCH   3   4
HETATM    4  C   UNL     1     -12.580  10.300  70.628  1.00  0.00    -0.304 C  
HETATM    5  O   UNL     1     -12.442  10.288  69.197  1.00  0.00     0.016 OA 
HETATM    6  C   UNL     1     -11.111  10.117  68.685  1.00  0.00    -0.205 C  
HETATM    7  C   UNL     1     -10.451   8.829  69.240  1.00  0.00    -0.219 C  
HETATM    8  H   UNL     1      -9.532   9.656  72.269  1.00  0.00     0.000 HD 
HETATM    9  H   UNL     1     -12.369   7.185  71.505  1.00  0.00     0.000 HD 
HETATM   10  O   UNL     1     -11.075   7.635  68.744  1.00  0.00    -0.424 OA 
HETATM   11  C   UNL     1     -10.496   8.800  70.777  1.00  0.00    -0.219 C  
HETATM   12  H   UNL     1     -10.671   6.845  69.085  1.00  0.00     0.000 HD 
HETATM   13  C   UNL     1     -11.918   9.076  71.304  1.00  0.00    -0.312 C  
HETATM   14  O   UNL     1     -12.775   7.936  71.089  1.00  0.00    -0.260 OA 
HETATM   15  O   UNL     1      -9.504   9.674  71.320  1.00  0.00    -0.154 OA 
BRANCH   6  16
HETATM   16  O   UNL     1     -10.284  11.240  68.999  1.00  0.00    -0.205 OA 
BRANCH  16  17
HETATM   17  C   UNL     1     -10.174  12.265  68.106  1.00  0.00    -0.212 A  
HETATM   18  O   UNL     1      -7.990  13.069  68.768  1.00  0.00    -0.301 OA 
HETATM   19  C   UNL     1      -9.144  14.202  67.067  1.00  0.00    -0.255 A  
HETATM   20  H   UNL     1      -7.258  13.668  68.680  1.00  0.00     0.000 HD 
HETATM   21  C   UNL     1     -10.299  14.395  66.313  1.00  0.00    -0.295 A  
HETATM   22  C   UNL     1      -9.098  13.146  67.976  1.00  0.00    -0.207 A  
HETATM   23  O   UNL     1     -10.336  15.509  65.451  1.00  0.00    -0.350 OA 
HETATM   24  C   UNL     1     -11.465  15.797  64.698  1.00  0.00    -0.282 C  
HETATM   25  O   UNL     1     -11.536  16.776  63.965  1.00  0.00    -1.195 OA 
HETATM   26  C   UNL     1     -12.602  14.864  64.812  1.00  0.00    -0.030 C  
HETATM   27  C   UNL     1     -12.573  13.798  65.621  1.00  0.00    -0.551 C  
HETATM   28  C   UNL     1     -11.394  13.542  66.428  1.00  0.00    -0.335 A  
HETATM   29  C   UNL     1     -11.323  12.476  67.329  1.00  0.00    -0.373 A  
ENDBRANCH  16  17
ENDBRANCH   6  16
ENDBRANCH   3   4
TORSDOF 3
ENDMDL
MODEL       81
REMARK 921   NORMALIZED FREE ENERGY PREDICTED BY IDOCK:   -5.49 KCAL/MOL
REMARK 922        TOTAL FREE ENERGY PREDICTED BY IDOCK:   -7.41 KCAL/MOL
REMARK 923 INTER-LIGAND FREE ENERGY PREDICTED BY IDOCK:   -7.01 KCAL/MOL
REMARK 924 INTRA-LIGAND FREE ENERGY PREDICTED BY IDOCK:   -0.41 KCAL/MOL
REMARK 927      BINDING AFFINITY PREDICTED BY RF-SCORE:    0.00 PKD
ROOT
HETATM    1  O   UNL     1      -6.482  19.971  67.784  1.00  0.00    -0.219 OA 
HETATM    2  H   UNL     1      -6.014  19.946  68.610  1.00  0.00     0.000 HD 
HETATM    3  C   UNL     1      -7.589  19.079  67.777  1.00  0.00    -0.245 C  
ENDROOT
BRANCH   3   4
HETATM    4  C   UNL     1      -8.344  19.120  66.441  1.00  0.00    -0.318 C  
HETATM    5  O   UNL     1      -8.185  17.890  65.715  1.00  0.00    -0.530 OA 
HETATM    6  C   UNL     1      -9.007  16.789  66.133  1.00  0.00    -0.260 C  
HETATM    7  C   UNL     1     -10.511  17.165  66.112  1.00  0.00    -0.275 C  
HETATM    8  H   UNL     1     -10.920  18.933  68.835  1.00  0.00     0.000 HD 
HETATM    9  H   UNL     1     -11.091  20.407  65.295  1.00  0.00     0.000 HD 
HETATM   10  O   UNL     1     -11.008  17.370  64.780  1.00  0.00    -0.964 OA 
HETATM   11  C   UNL     1     -10.776  18.441  66.931  1.00  0.00    -0.266 C  
HETATM   12  H   UNL     1     -11.929  17.601  64.768  1.00  0.00     0.000 HD 
HETATM   13  C   UNL     1      -9.819  19.579  66.526  1.00  0.00    -0.404 C  
HETATM   14  O   UNL     1     -10.185  20.125  65.242  1.00  0.00    -0.220 OA 
HETATM   15  O   UNL     1     -10.756  18.146  68.330  1.00  0.00    -0.303 OA 
BRANCH   6  16
HETATM   16  O   UNL     1      -8.653  16.344  67.445  1.00  0.00    -0.174 OA 
BRANCH  16  17
HETATM   17  C   UNL     1      -8.710  15.014  67.742  1.00  0.00    -0.164 A  
HETATM   18  O   UNL     1      -6.446  14.424  67.125  1.00  0.00    -0.360 OA 
HETATM   19  C   UNL     1      -7.891  12.733  67.871  1.00  0.00    -0.156 A  
HETATM   20  H   UNL     1      -5.744  13.791  67.028  1.00  0.00     0.000 HD 
HETATM   21  C   UNL     1      -9.164  12.312  68.249  1.00  0.00    -0.189 A  
HETATM   22  C   UNL     1      -7.679  14.083  67.600  1.00  0.00    -0.177 A  
HETATM   23  O   UNL     1      -9.360  10.932  68.454  1.00  0.00    -0.157 OA 
HETATM   24  C   UNL     1     -10.608  10.426  68.791  1.00  0.00    -0.208 C  
HETATM   25  O   UNL     1     -10.814   9.228  68.944  1.00  0.00    -0.194 OA 
HETATM   26  C   UNL     1     -11.702  11.400  68.962  1.00  0.00    -0.409 C  
HETATM   27  C   UNL     1     -11.524  12.714  68.779  1.00  0.00    -0.349 C  
HETATM   28  C   UNL     1     -10.217  13.213  68.388  1.00  0.00    -0.247 A  
HETATM   29  C   UNL     1      -9.981  14.566  68.132  1.00  0.00    -0.220 A  
ENDBRANCH  16  17
ENDBRANCH   6  16
ENDBRANCH   3   4
TORSDOF 3
ENDMDL
MODEL       82
REMARK 921   NORMALIZED FREE ENERGY PREDICTED BY IDOCK:   -5.47 KCAL/MOL
REMARK 922        TOTAL FREE ENERGY PREDICTED BY IDOCK:   -7.39 KCAL/MOL
REMARK 923 INTER-LIGAND FREE ENERGY PREDICTED BY IDOCK:   -6.57 KCAL/MOL
REMARK 924 INTRA-LIGAND FREE ENERGY PREDICTED BY IDOCK:   -0.82 KCAL/MOL
REMARK 927      BINDING AFFINITY PREDICTED BY RF-SCORE:    0.00 PKD
ROOT
HETATM    1  O   UNL     1      -7.335  16.745  67.012  1.00  0.00    -0.163 OA 
HETATM    2  H   UNL     1      -6.466  16.444  66.773  1.00  0.00     0.000 HD 
HETATM    3  C   UNL     1      -8.325  16.263  66.114  1.00  0.00    -0.225 C  
ENDROOT
BRANCH   3   4
HETATM    4  C   UNL     1      -9.729  16.749  66.501  1.00  0.00    -0.283 C  
HETATM    5  O   UNL     1     -10.717  15.733  66.259  1.00  0.00    -0.312 OA 
HETATM    6  C   UNL     1     -10.820  14.692  67.243  1.00  0.00    -0.305 C  
HETATM    7  C   UNL     1     -11.068  15.273  68.658  1.00  0.00    -0.279 C  
HETATM    8  H   UNL     1      -8.121  16.332  69.606  1.00  0.00     0.000 HD 
HETATM    9  H   UNL     1     -11.050  18.665  68.759  1.00  0.00     0.000 HD 
HETATM   10  O   UNL     1     -12.365  15.878  68.784  1.00  0.00    -0.481 OA 
HETATM   11  C   UNL     1     -10.005  16.324  69.023  1.00  0.00    -0.256 C  
HETATM   12  H   UNL     1     -12.517  16.234  69.651  1.00  0.00     0.000 HD 
HETATM   13  C   UNL     1      -9.850  17.378  67.909  1.00  0.00    -0.287 C  
HETATM   14  O   UNL     1     -10.977  18.278  67.895  1.00  0.00    -0.291 OA 
HETATM   15  O   UNL     1      -8.777  15.684  69.381  1.00  0.00    -0.247 OA 
BRANCH   6  16
HETATM   16  O   UNL     1      -9.642  13.883  67.269  1.00  0.00    -0.230 OA 
BRANCH  16  17
HETATM   17  C   UNL     1      -9.722  12.567  66.921  1.00  0.00    -0.232 A  
HETATM   18  O   UNL     1      -9.655  12.840  64.517  1.00  0.00    -0.521 OA 
HETATM   19  C   UNL     1      -9.892  10.679  65.404  1.00  0.00    -0.325 A  
HETATM   20  H   UNL     1      -9.660  12.485  63.636  1.00  0.00     0.000 HD 
HETATM   21  C   UNL     1     -10.087   9.838  66.496  1.00  0.00    -0.239 A  
HETATM   22  C   UNL     1      -9.730  12.046  65.625  1.00  0.00    -0.223 A  
HETATM   23  O   UNL     1     -10.311   8.471  66.233  1.00  0.00    -0.185 OA 
HETATM   24  C   UNL     1     -10.558   7.573  67.262  1.00  0.00    -0.324 C  
HETATM   25  O   UNL     1     -10.787   6.386  67.061  1.00  0.00    -0.325 OA 
HETATM   26  C   UNL     1     -10.533   8.107  68.637  1.00  0.00    -0.195 C  
HETATM   27  C   UNL     1     -10.312   9.401  68.898  1.00  0.00    -0.230 C  
HETATM   28  C   UNL     1     -10.097  10.326  67.800  1.00  0.00    -0.213 A  
HETATM   29  C   UNL     1      -9.913  11.697  68.004  1.00  0.00    -0.194 A  
ENDBRANCH  16  17
ENDBRANCH   6  16
ENDBRANCH   3   4
TORSDOF 3
ENDMDL
MODEL       83
REMARK 921   NORMALIZED FREE ENERGY PREDICTED BY IDOCK:   -5.43 KCAL/MOL
REMARK 922        TOTAL FREE ENERGY PREDICTED BY IDOCK:   -7.34 KCAL/MOL
REMARK 923 INTER-LIGAND FREE ENERGY PREDICTED BY IDOCK:   -6.84 KCAL/MOL
REMARK 924 INTRA-LIGAND FREE ENERGY PREDICTED BY IDOCK:   -0.50 KCAL/MOL
REMARK 927      BINDING AFFINITY PREDICTED BY RF-SCORE:    0.00 PKD
ROOT
HETATM    1  O   UNL     1     -12.187  14.502  64.073  1.00  0.00    -0.757 OA 
HETATM    2  H   UNL     1     -12.083  14.148  63.197  1.00  0.00     0.000 HD 
HETATM    3  C   UNL     1     -12.101  13.487  65.065  1.00  0.00    -0.397 C  
ENDROOT
BRANCH   3   4
HETATM    4  C   UNL     1     -12.269  14.059  66.480  1.00  0.00    -0.451 C  
HETATM    5  O   UNL     1     -12.465  13.012  67.444  1.00  0.00    -0.177 OA 
HETATM    6  C   UNL     1     -11.287  12.314  67.880  1.00  0.00    -0.298 C  
HETATM    7  C   UNL     1     -10.226  13.293  68.444  1.00  0.00    -0.249 C  
HETATM    8  H   UNL     1      -8.863  14.605  65.775  1.00  0.00     0.000 HD 
HETATM    9  H   UNL     1     -11.115  16.558  68.194  1.00  0.00     0.000 HD 
HETATM   10  O   UNL     1     -10.639  13.899  69.679  1.00  0.00    -0.445 OA 
HETATM   11  C   UNL     1      -9.908  14.410  67.436  1.00  0.00    -0.224 C  
HETATM   12  H   UNL     1      -9.989  14.499  70.024  1.00  0.00     0.000 HD 
HETATM   13  C   UNL     1     -11.194  15.081  66.915  1.00  0.00    -0.323 C  
HETATM   14  O   UNL     1     -11.775  15.929  67.927  1.00  0.00    -0.192 OA 
HETATM   15  O   UNL     1      -9.059  13.915  66.397  1.00  0.00    -0.198 OA 
BRANCH   6  16
HETATM   16  O   UNL     1     -10.708  11.557  66.815  1.00  0.00    -0.245 OA 
BRANCH  16  17
HETATM   17  C   UNL     1     -10.407  10.241  67.011  1.00  0.00    -0.243 A  
HETATM   18  O   UNL     1      -9.725   9.702  64.753  1.00  0.00    -0.427 OA 
HETATM   19  C   UNL     1      -9.741   7.998  66.367  1.00  0.00    -0.255 A  
HETATM   20  H   UNL     1      -9.406   9.090  64.100  1.00  0.00     0.000 HD 
HETATM   21  C   UNL     1     -10.054   7.552  67.648  1.00  0.00    -0.187 A  
HETATM   22  C   UNL     1      -9.940   9.341  66.051  1.00  0.00    -0.255 A  
HETATM   23  O   UNL     1      -9.902   6.177  67.915  1.00  0.00    -0.117 OA 
HETATM   24  C   UNL     1     -10.233   5.644  69.153  1.00  0.00    -0.236 C  
HETATM   25  O   UNL     1     -10.141   4.448  69.402  1.00  0.00    -0.162 OA 
HETATM   26  C   UNL     1     -10.710   6.588  70.182  1.00  0.00    -0.305 C  
HETATM   27  C   UNL     1     -10.850   7.897  69.941  1.00  0.00    -0.221 C  
HETATM   28  C   UNL     1     -10.534   8.421  68.625  1.00  0.00    -0.197 A  
HETATM   29  C   UNL     1     -10.708   9.769  68.296  1.00  0.00    -0.277 A  
ENDBRANCH  16  17
ENDBRANCH   6  16
ENDBRANCH   3   4
TORSDOF 3
ENDMDL
MODEL       84
REMARK 921   NORMALIZED FREE ENERGY PREDICTED BY IDOCK:   -5.41 KCAL/MOL
REMARK 922        TOTAL FREE ENERGY PREDICTED BY IDOCK:   -7.32 KCAL/MOL
REMARK 923 INTER-LIGAND FREE ENERGY PREDICTED BY IDOCK:   -6.59 KCAL/MOL
REMARK 924 INTRA-LIGAND FREE ENERGY PREDICTED BY IDOCK:   -0.73 KCAL/MOL
REMARK 927      BINDING AFFINITY PREDICTED BY RF-SCORE:    0.00 PKD
ROOT
HETATM    1  O   UNL     1     -11.194   5.411  66.278  1.00  0.00    -0.709 OA 
HETATM    2  H   UNL     1     -12.002   5.541  65.797  1.00  0.00     0.000 HD 
HETATM    3  C   UNL     1     -10.914   6.502  67.145  1.00  0.00    -0.408 C  
ENDROOT
BRANCH   3   4
HETATM    4  C   UNL     1      -9.608   6.291  67.923  1.00  0.00    -0.118 C  
HETATM    5  O   UNL     1      -8.986   7.545  68.247  1.00  0.00    -0.131 OA 
HETATM    6  C   UNL     1      -9.527   8.255  69.373  1.00  0.00    -0.159 C  
HETATM    7  C   UNL     1      -9.527   7.376  70.650  1.00  0.00    -0.164 C  
HETATM    8  H   UNL     1     -12.098   5.394  70.245  1.00  0.00     0.000 HD 
HETATM    9  H   UNL     1      -8.451   4.202  70.117  1.00  0.00     0.000 HD 
HETATM   10  O   UNL     1      -8.200   7.103  71.128  1.00  0.00    -0.110 OA 
HETATM   11  C   UNL     1     -10.240   6.036  70.402  1.00  0.00    -0.204 C  
HETATM   12  H   UNL     1      -8.200   6.564  71.910  1.00  0.00     0.000 HD 
HETATM   13  C   UNL     1      -9.704   5.338  69.137  1.00  0.00    -0.168 C  
HETATM   14  O   UNL     1      -8.391   4.788  69.372  1.00  0.00    -0.076 OA 
HETATM   15  O   UNL     1     -11.658   6.221  70.397  1.00  0.00    -0.381 OA 
BRANCH   6  16
HETATM   16  O   UNL     1     -10.859   8.704  69.113  1.00  0.00    -0.165 OA 
BRANCH  16  17
HETATM   17  C   UNL     1     -11.069   9.992  68.715  1.00  0.00    -0.173 A  
HETATM   18  O   UNL     1     -10.292   9.778  66.433  1.00  0.00    -0.233 OA 
HETATM   19  C   UNL     1     -11.001  11.882  67.195  1.00  0.00    -0.319 A  
HETATM   20  H   UNL     1     -10.115  10.142  65.573  1.00  0.00     0.000 HD 
HETATM   21  C   UNL     1     -11.419  12.713  68.231  1.00  0.00    -0.313 A  
HETATM   22  C   UNL     1     -10.809  10.526  67.451  1.00  0.00    -0.291 A  
HETATM   23  O   UNL     1     -11.541  14.089  67.954  1.00  0.00    -0.303 OA 
HETATM   24  C   UNL     1     -11.910  14.991  68.943  1.00  0.00    -0.307 C  
HETATM   25  O   UNL     1     -11.994  16.196  68.738  1.00  0.00    -0.286 OA 
HETATM   26  C   UNL     1     -12.207  14.437  70.277  1.00  0.00    -0.397 C  
HETATM   27  C   UNL     1     -12.102  13.130  70.548  1.00  0.00    -0.385 C  
HETATM   28  C   UNL     1     -11.675  12.214  69.506  1.00  0.00    -0.402 A  
HETATM   29  C   UNL     1     -11.497  10.848  69.740  1.00  0.00    -0.390 A  
ENDBRANCH  16  17
ENDBRANCH   6  16
ENDBRANCH   3   4
TORSDOF 3
ENDMDL
MODEL       85
REMARK 921   NORMALIZED FREE ENERGY PREDICTED BY IDOCK:   -5.37 KCAL/MOL
REMARK 922        TOTAL FREE ENERGY PREDICTED BY IDOCK:   -7.27 KCAL/MOL
REMARK 923 INTER-LIGAND FREE ENERGY PREDICTED BY IDOCK:   -7.03 KCAL/MOL
REMARK 924 INTRA-LIGAND FREE ENERGY PREDICTED BY IDOCK:   -0.24 KCAL/MOL
REMARK 927      BINDING AFFINITY PREDICTED BY RF-SCORE:    0.00 PKD
ROOT
HETATM    1  O   UNL     1     -13.469   9.176  73.066  1.00  0.00    -0.845 OA 
HETATM    2  H   UNL     1     -13.686  10.090  73.201  1.00  0.00     0.000 HD 
HETATM    3  C   UNL     1     -12.867   8.958  71.797  1.00  0.00    -0.365 C  
ENDROOT
BRANCH   3   4
HETATM    4  C   UNL     1     -12.516   7.480  71.580  1.00  0.00    -0.346 C  
HETATM    5  O   UNL     1     -12.130   7.231  70.218  1.00  0.00    -0.096 OA 
HETATM    6  C   UNL     1     -10.786   7.590  69.858  1.00  0.00    -0.246 C  
HETATM    7  C   UNL     1      -9.749   6.903  70.783  1.00  0.00    -0.171 C  
HETATM    8  H   UNL     1      -9.840   8.679  73.529  1.00  0.00     0.000 HD 
HETATM    9  H   UNL     1     -11.150   5.079  73.279  1.00  0.00     0.000 HD 
HETATM   10  O   UNL     1      -9.698   5.480  70.589  1.00  0.00    -0.163 OA 
HETATM   11  C   UNL     1     -10.055   7.181  72.265  1.00  0.00    -0.181 C  
HETATM   12  H   UNL     1      -9.063   5.059  71.156  1.00  0.00     0.000 HD 
HETATM   13  C   UNL     1     -11.527   6.874  72.603  1.00  0.00    -0.196 C  
HETATM   14  O   UNL     1     -11.757   5.451  72.649  1.00  0.00    -0.271 OA 
HETATM   15  O   UNL     1      -9.652   8.507  72.615  1.00  0.00    -0.280 OA 
BRANCH   6  16
HETATM   16  O   UNL     1     -10.594   9.006  69.910  1.00  0.00    -0.217 OA 
BRANCH  16  17
HETATM   17  C   UNL     1     -10.765   9.750  68.780  1.00  0.00    -0.215 A  
HETATM   18  O   UNL     1      -9.733   8.229  67.206  1.00  0.00    -0.154 OA 
HETATM   19  C   UNL     1     -10.535  10.292  66.425  1.00  0.00    -0.233 A  
HETATM   20  H   UNL     1      -9.461   7.995  66.326  1.00  0.00     0.000 HD 
HETATM   21  C   UNL     1     -11.073  11.551  66.677  1.00  0.00    -0.295 A  
HETATM   22  C   UNL     1     -10.367   9.405  67.487  1.00  0.00    -0.255 A  
HETATM   23  O   UNL     1     -11.171  12.447  65.593  1.00  0.00    -0.298 OA 
HETATM   24  C   UNL     1     -11.656  13.736  65.768  1.00  0.00    -0.331 C  
HETATM   25  O   UNL     1     -11.722  14.545  64.850  1.00  0.00    -0.367 OA 
HETATM   26  C   UNL     1     -12.098  14.107  67.125  1.00  0.00    -0.432 C  
HETATM   27  C   UNL     1     -12.018  13.260  68.160  1.00  0.00    -0.340 C  
HETATM   28  C   UNL     1     -11.470  11.931  67.957  1.00  0.00    -0.389 A  
HETATM   29  C   UNL     1     -11.312  11.021  69.006  1.00  0.00    -0.345 A  
ENDBRANCH  16  17
ENDBRANCH   6  16
ENDBRANCH   3   4
TORSDOF 3
ENDMDL
MODEL       86
REMARK 921   NORMALIZED FREE ENERGY PREDICTED BY IDOCK:   -5.36 KCAL/MOL
REMARK 922        TOTAL FREE ENERGY PREDICTED BY IDOCK:   -7.26 KCAL/MOL
REMARK 923 INTER-LIGAND FREE ENERGY PREDICTED BY IDOCK:   -7.21 KCAL/MOL
REMARK 924 INTRA-LIGAND FREE ENERGY PREDICTED BY IDOCK:   -0.06 KCAL/MOL
REMARK 927      BINDING AFFINITY PREDICTED BY RF-SCORE:    0.00 PKD
ROOT
HETATM    1  O   UNL     1      -8.999  11.512  63.489  1.00  0.00    -0.456 OA 
HETATM    2  H   UNL     1      -8.112  11.189  63.592  1.00  0.00     0.000 HD 
HETATM    3  C   UNL     1      -9.787  11.270  64.646  1.00  0.00    -0.268 C  
ENDROOT
BRANCH   3   4
HETATM    4  C   UNL     1     -11.221  11.792  64.478  1.00  0.00    -0.305 C  
HETATM    5  O   UNL     1     -11.989  11.600  65.677  1.00  0.00    -0.262 OA 
HETATM    6  C   UNL     1     -11.779  12.554  66.731  1.00  0.00    -0.384 C  
HETATM    7  C   UNL     1     -12.015  14.004  66.238  1.00  0.00    -0.432 C  
HETATM    8  H   UNL     1      -9.285  14.732  64.588  1.00  0.00     0.000 HD 
HETATM    9  H   UNL     1     -12.706  14.220  62.923  1.00  0.00     0.000 HD 
HETATM   10  O   UNL     1     -13.394  14.261  65.927  1.00  0.00    -0.545 OA 
HETATM   11  C   UNL     1     -11.170  14.312  64.991  1.00  0.00    -0.364 C  
HETATM   12  H   UNL     1     -13.538  15.150  65.625  1.00  0.00     0.000 HD 
HETATM   13  C   UNL     1     -11.343  13.226  63.911  1.00  0.00    -0.318 C  
HETATM   14  O   UNL     1     -12.632  13.340  63.272  1.00  0.00    -0.711 OA 
HETATM   15  O   UNL     1      -9.807  14.541  65.358  1.00  0.00    -0.334 OA 
BRANCH   6  16
HETATM   16  O   UNL     1     -10.459  12.450  67.270  1.00  0.00    -0.220 OA 
BRANCH  16  17
HETATM   17  C   UNL     1     -10.175  11.466  68.170  1.00  0.00    -0.187 A  
HETATM   18  O   UNL     1     -12.443  10.918  68.810  1.00  0.00    -0.767 OA 
HETATM   19  C   UNL     1     -10.669   9.795  69.859  1.00  0.00    -0.303 A  
HETATM   20  H   UNL     1     -13.070  10.413  69.316  1.00  0.00     0.000 HD 
HETATM   21  C   UNL     1      -9.304   9.640  70.086  1.00  0.00    -0.251 A  
HETATM   22  C   UNL     1     -11.096  10.725  68.913  1.00  0.00    -0.253 A  
HETATM   23  O   UNL     1      -8.908   8.738  71.093  1.00  0.00    -0.181 OA 
HETATM   24  C   UNL     1      -7.569   8.558  71.411  1.00  0.00    -0.105 C  
HETATM   25  O   UNL     1      -7.200   7.804  72.303  1.00  0.00    -0.071 OA 
HETATM   26  C   UNL     1      -6.585   9.321  70.621  1.00  0.00    -0.079 C  
HETATM   27  C   UNL     1      -6.950  10.174  69.656  1.00  0.00    -0.103 C  
HETATM   28  C   UNL     1      -8.359  10.373  69.371  1.00  0.00    -0.152 A  
HETATM   29  C   UNL     1      -8.806  11.287  68.412  1.00  0.00    -0.159 A  
ENDBRANCH  16  17
ENDBRANCH   6  16
ENDBRANCH   3   4
TORSDOF 3
ENDMDL
MODEL       87
REMARK 921   NORMALIZED FREE ENERGY PREDICTED BY IDOCK:   -5.32 KCAL/MOL
REMARK 922        TOTAL FREE ENERGY PREDICTED BY IDOCK:   -7.21 KCAL/MOL
REMARK 923 INTER-LIGAND FREE ENERGY PREDICTED BY IDOCK:   -6.38 KCAL/MOL
REMARK 924 INTRA-LIGAND FREE ENERGY PREDICTED BY IDOCK:   -0.83 KCAL/MOL
REMARK 927      BINDING AFFINITY PREDICTED BY RF-SCORE:    0.00 PKD
ROOT
HETATM    1  O   UNL     1     -11.213  16.865  69.794  1.00  0.00    -0.338 OA 
HETATM    2  H   UNL     1     -11.963  16.436  70.186  1.00  0.00     0.000 HD 
HETATM    3  C   UNL     1     -10.072  16.017  69.773  1.00  0.00    -0.212 C  
ENDROOT
BRANCH   3   4
HETATM    4  C   UNL     1      -8.858  16.712  69.139  1.00  0.00    -0.136 C  
HETATM    5  O   UNL     1      -8.129  15.812  68.288  1.00  0.00    -0.137 OA 
HETATM    6  C   UNL     1      -8.673  15.591  66.976  1.00  0.00    -0.231 C  
HETATM    7  C   UNL     1      -8.864  16.925  66.211  1.00  0.00    -0.279 C  
HETATM    8  H   UNL     1     -11.599  18.185  67.490  1.00  0.00     0.000 HD 
HETATM    9  H   UNL     1      -8.105  19.673  68.052  1.00  0.00     0.000 HD 
HETATM   10  O   UNL     1      -7.615  17.549  65.872  1.00  0.00    -0.482 OA 
HETATM   11  C   UNL     1      -9.699  17.923  67.032  1.00  0.00    -0.298 C  
HETATM   12  H   UNL     1      -7.733  18.366  65.404  1.00  0.00     0.000 HD 
HETATM   13  C   UNL     1      -9.149  18.072  68.464  1.00  0.00    -0.284 C  
HETATM   14  O   UNL     1      -7.926  18.837  68.466  1.00  0.00    -0.324 OA 
HETATM   15  O   UNL     1     -11.084  17.569  66.984  1.00  0.00    -0.012 OA 
BRANCH   6  16
HETATM   16  O   UNL     1      -9.924  14.903  67.040  1.00  0.00    -0.235 OA 
BRANCH  16  17
HETATM   17  C   UNL     1      -9.986  13.586  66.695  1.00  0.00    -0.282 A  
HETATM   18  O   UNL     1     -10.070  13.860  64.293  1.00  0.00    -0.727 OA 
HETATM   19  C   UNL     1     -10.191  11.694  65.188  1.00  0.00    -0.319 A  
HETATM   20  H   UNL     1     -10.117  13.506  63.413  1.00  0.00     0.000 HD 
HETATM   21  C   UNL     1     -10.296  10.847  66.288  1.00  0.00    -0.250 A  
HETATM   22  C   UNL     1     -10.056  13.065  65.402  1.00  0.00    -0.252 A  
HETATM   23  O   UNL     1     -10.495   9.475  66.037  1.00  0.00    -0.146 OA 
HETATM   24  C   UNL     1     -10.653   8.570  67.078  1.00  0.00    -0.235 C  
HETATM   25  O   UNL     1     -10.859   7.377  66.888  1.00  0.00    -0.357 OA 
HETATM   26  C   UNL     1     -10.563   9.104  68.449  1.00  0.00    -0.217 C  
HETATM   27  C   UNL     1     -10.365  10.404  68.699  1.00  0.00    -0.202 C  
HETATM   28  C   UNL     1     -10.243  11.335  67.592  1.00  0.00    -0.206 A  
HETATM   29  C   UNL     1     -10.087  12.711  67.786  1.00  0.00    -0.220 A  
ENDBRANCH  16  17
ENDBRANCH   6  16
ENDBRANCH   3   4
TORSDOF 3
ENDMDL
MODEL       88
REMARK 921   NORMALIZED FREE ENERGY PREDICTED BY IDOCK:   -5.30 KCAL/MOL
REMARK 922        TOTAL FREE ENERGY PREDICTED BY IDOCK:   -7.19 KCAL/MOL
REMARK 923 INTER-LIGAND FREE ENERGY PREDICTED BY IDOCK:   -6.71 KCAL/MOL
REMARK 924 INTRA-LIGAND FREE ENERGY PREDICTED BY IDOCK:   -0.48 KCAL/MOL
REMARK 927      BINDING AFFINITY PREDICTED BY RF-SCORE:    0.00 PKD
ROOT
HETATM    1  O   UNL     1      -8.196  15.998  69.699  1.00  0.00    -0.115 OA 
HETATM    2  H   UNL     1      -8.266  15.253  70.283  1.00  0.00     0.000 HD 
HETATM    3  C   UNL     1      -6.855  16.212  69.277  1.00  0.00    -0.206 C  
ENDROOT
BRANCH   3   4
HETATM    4  C   UNL     1      -6.741  17.417  68.332  1.00  0.00    -0.187 C  
HETATM    5  O   UNL     1      -6.932  17.025  66.963  1.00  0.00    -0.156 OA 
HETATM    6  C   UNL     1      -8.290  16.834  66.535  1.00  0.00    -0.285 C  
HETATM    7  C   UNL     1      -9.148  18.097  66.795  1.00  0.00    -0.282 C  
HETATM    8  H   UNL     1      -9.793  17.969  70.000  1.00  0.00     0.000 HD 
HETATM    9  H   UNL     1      -7.474  20.575  68.398  1.00  0.00     0.000 HD 
HETATM   10  O   UNL     1      -8.767  19.202  65.960  1.00  0.00    -0.450 OA 
HETATM   11  C   UNL     1      -9.053  18.542  68.265  1.00  0.00    -0.317 C  
HETATM   12  H   UNL     1      -9.293  19.977  66.120  1.00  0.00     0.000 HD 
HETATM   13  C   UNL     1      -7.586  18.651  68.725  1.00  0.00    -0.298 C  
HETATM   14  O   UNL     1      -6.955  19.817  68.156  1.00  0.00    -0.270 OA 
HETATM   15  O   UNL     1      -9.852  17.694  69.093  1.00  0.00    -0.248 OA 
BRANCH   6  16
HETATM   16  O   UNL     1      -8.890  15.715  67.193  1.00  0.00    -0.187 OA 
BRANCH  16  17
HETATM   17  C   UNL     1      -9.996  15.130  66.651  1.00  0.00    -0.251 A  
HETATM   18  O   UNL     1     -11.598  15.789  68.341  1.00  0.00    -0.373 OA 
HETATM   19  C   UNL     1     -12.323  14.446  66.558  1.00  0.00    -0.272 A  
HETATM   20  H   UNL     1     -12.479  15.802  68.697  1.00  0.00     0.000 HD 
HETATM   21  C   UNL     1     -12.039  13.684  65.427  1.00  0.00    -0.403 A  
HETATM   22  C   UNL     1     -11.290  15.150  67.175  1.00  0.00    -0.290 A  
HETATM   23  O   UNL     1     -13.091  12.934  64.865  1.00  0.00    -0.799 OA 
HETATM   24  C   UNL     1     -12.882  12.115  63.764  1.00  0.00    -0.333 C  
HETATM   25  O   UNL     1     -13.771  11.429  63.275  1.00  0.00     0.230 OA 
HETATM   26  C   UNL     1     -11.524  12.100  63.190  1.00  0.00    -0.263 C  
HETATM   27  C   UNL     1     -10.519  12.816  63.711  1.00  0.00    -0.335 C  
HETATM   28  C   UNL     1     -10.756  13.633  64.887  1.00  0.00    -0.400 A  
HETATM   29  C   UNL     1      -9.738  14.362  65.507  1.00  0.00    -0.214 A  
ENDBRANCH  16  17
ENDBRANCH   6  16
ENDBRANCH   3   4
TORSDOF 3
ENDMDL
MODEL       89
REMARK 921   NORMALIZED FREE ENERGY PREDICTED BY IDOCK:   -5.29 KCAL/MOL
REMARK 922        TOTAL FREE ENERGY PREDICTED BY IDOCK:   -7.18 KCAL/MOL
REMARK 923 INTER-LIGAND FREE ENERGY PREDICTED BY IDOCK:   -6.81 KCAL/MOL
REMARK 924 INTRA-LIGAND FREE ENERGY PREDICTED BY IDOCK:   -0.37 KCAL/MOL
REMARK 927      BINDING AFFINITY PREDICTED BY RF-SCORE:    0.00 PKD
ROOT
HETATM    1  O   UNL     1     -12.895  12.417  71.552  1.00  0.00    -0.366 OA 
HETATM    2  H   UNL     1     -12.657  13.231  71.980  1.00  0.00     0.000 HD 
HETATM    3  C   UNL     1     -11.933  12.032  70.580  1.00  0.00    -0.246 C  
ENDROOT
BRANCH   3   4
HETATM    4  C   UNL     1     -12.318  10.717  69.887  1.00  0.00    -0.235 C  
HETATM    5  O   UNL     1     -12.331  10.865  68.458  1.00  0.00    -0.490 OA 
HETATM    6  C   UNL     1     -11.055  10.824  67.799  1.00  0.00    -0.318 C  
HETATM    7  C   UNL     1     -10.284   9.524  68.138  1.00  0.00    -0.193 C  
HETATM    8  H   UNL     1      -9.088  10.072  71.134  1.00  0.00     0.000 HD 
HETATM    9  H   UNL     1     -11.877   7.543  70.386  1.00  0.00     0.000 HD 
HETATM   10  O   UNL     1     -10.903   8.355  67.577  1.00  0.00    -0.484 OA 
HETATM   11  C   UNL     1     -10.165   9.328  69.659  1.00  0.00    -0.208 C  
HETATM   12  H   UNL     1     -10.431   7.558  67.785  1.00  0.00     0.000 HD 
HETATM   13  C   UNL     1     -11.535   9.467  70.353  1.00  0.00    -0.242 C  
HETATM   14  O   UNL     1     -12.358   8.310  70.099  1.00  0.00     0.500 OA 
HETATM   15  O   UNL     1      -9.161  10.194  70.195  1.00  0.00    -0.117 OA 
BRANCH   6  16
HETATM   16  O   UNL     1     -10.251  11.952  68.152  1.00  0.00    -0.187 OA 
BRANCH  16  17
HETATM   17  C   UNL     1     -10.315  13.087  67.399  1.00  0.00    -0.234 A  
HETATM   18  O   UNL     1      -9.741  12.115  65.259  1.00  0.00    -0.353 OA 
HETATM   19  C   UNL     1     -10.105  14.430  65.388  1.00  0.00    -0.388 A  
HETATM   20  H   UNL     1      -9.580  12.186  64.325  1.00  0.00     0.000 HD 
HETATM   21  C   UNL     1     -10.332  15.575  66.146  1.00  0.00    -0.315 A  
HETATM   22  C   UNL     1     -10.079  13.191  66.027  1.00  0.00    -0.286 A  
HETATM   23  O   UNL     1     -10.290  16.817  65.480  1.00  0.00    -0.558 OA 
HETATM   24  C   UNL     1     -10.463  18.008  66.170  1.00  0.00    -0.331 C  
HETATM   25  O   UNL     1     -10.399  19.102  65.622  1.00  0.00    -0.511 OA 
HETATM   26  C   UNL     1     -10.733  17.911  67.617  1.00  0.00    -0.343 C  
HETATM   27  C   UNL     1     -10.784  16.737  68.257  1.00  0.00    -0.364 C  
HETATM   28  C   UNL     1     -10.560  15.508  67.518  1.00  0.00    -0.297 A  
HETATM   29  C   UNL     1     -10.550  14.255  68.138  1.00  0.00    -0.246 A  
ENDBRANCH  16  17
ENDBRANCH   6  16
ENDBRANCH   3   4
TORSDOF 3
ENDMDL
MODEL       90
REMARK 921   NORMALIZED FREE ENERGY PREDICTED BY IDOCK:   -5.26 KCAL/MOL
REMARK 922        TOTAL FREE ENERGY PREDICTED BY IDOCK:   -7.14 KCAL/MOL
REMARK 923 INTER-LIGAND FREE ENERGY PREDICTED BY IDOCK:   -6.15 KCAL/MOL
REMARK 924 INTRA-LIGAND FREE ENERGY PREDICTED BY IDOCK:   -1.00 KCAL/MOL
REMARK 927      BINDING AFFINITY PREDICTED BY RF-SCORE:    0.00 PKD
ROOT
HETATM    1  O   UNL     1     -11.990   7.738  73.099  1.00  0.00    -0.644 OA 
HETATM    2  H   UNL     1     -12.373   8.468  73.569  1.00  0.00     0.000 HD 
HETATM    3  C   UNL     1     -12.363   7.739  71.727  1.00  0.00    -0.317 C  
ENDROOT
BRANCH   3   4
HETATM    4  C   UNL     1     -11.743   6.558  70.967  1.00  0.00    -0.343 C  
HETATM    5  O   UNL     1     -11.661   6.831  69.558  1.00  0.00    -0.230 OA 
HETATM    6  C   UNL     1     -10.570   7.663  69.131  1.00  0.00    -0.186 C  
HETATM    7  C   UNL     1      -9.206   7.087  69.587  1.00  0.00    -0.146 C  
HETATM    8  H   UNL     1      -9.022   7.905  72.750  1.00  0.00     0.000 HD 
HETATM    9  H   UNL     1      -9.478   4.301  71.507  1.00  0.00     0.000 HD 
HETATM   10  O   UNL     1      -8.875   5.860  68.917  1.00  0.00    -0.115 OA 
HETATM   11  C   UNL     1      -9.190   6.831  71.104  1.00  0.00    -0.159 C  
HETATM   12  H   UNL     1      -8.039   5.507  69.197  1.00  0.00     0.000 HD 
HETATM   13  C   UNL     1     -10.418   6.015  71.551  1.00  0.00    -0.228 C  
HETATM   14  O   UNL     1     -10.292   4.635  71.147  1.00  0.00    -0.171 OA 
HETATM   15  O   UNL     1      -9.032   8.062  71.814  1.00  0.00    -0.127 OA 
BRANCH   6  16
HETATM   16  O   UNL     1     -10.706   8.996  69.628  1.00  0.00    -0.229 OA 
BRANCH  16  17
HETATM   17  C   UNL     1     -10.249  10.042  68.883  1.00  0.00    -0.193 A  
HETATM   18  O   UNL     1      -8.111  10.339  69.977  1.00  0.00    -0.325 OA 
HETATM   19  C   UNL     1      -8.707  11.806  68.245  1.00  0.00    -0.167 A  
HETATM   20  H   UNL     1      -7.277  10.784  70.076  1.00  0.00     0.000 HD 
HETATM   21  C   UNL     1      -9.650  12.282  67.338  1.00  0.00    -0.179 A  
HETATM   22  C   UNL     1      -9.023  10.696  69.027  1.00  0.00    -0.157 A  
HETATM   23  O   UNL     1      -9.324  13.443  66.608  1.00  0.00    -0.252 OA 
HETATM   24  C   UNL     1     -10.225  14.008  65.717  1.00  0.00    -0.328 C  
HETATM   25  O   UNL     1      -9.980  15.034  65.093  1.00  0.00    -0.330 OA 
HETATM   26  C   UNL     1     -11.516  13.316  65.540  1.00  0.00    -0.335 C  
HETATM   27  C   UNL     1     -11.832  12.208  66.222  1.00  0.00    -0.320 C  
HETATM   28  C   UNL     1     -10.887  11.661  67.178  1.00  0.00    -0.306 A  
HETATM   29  C   UNL     1     -11.178  10.538  67.957  1.00  0.00    -0.361 A  
ENDBRANCH  16  17
ENDBRANCH   6  16
ENDBRANCH   3   4
TORSDOF 3
ENDMDL
MODEL       91
REMARK 921   NORMALIZED FREE ENERGY PREDICTED BY IDOCK:   -5.25 KCAL/MOL
REMARK 922        TOTAL FREE ENERGY PREDICTED BY IDOCK:   -7.13 KCAL/MOL
REMARK 923 INTER-LIGAND FREE ENERGY PREDICTED BY IDOCK:   -6.54 KCAL/MOL
REMARK 924 INTRA-LIGAND FREE ENERGY PREDICTED BY IDOCK:   -0.58 KCAL/MOL
REMARK 927      BINDING AFFINITY PREDICTED BY RF-SCORE:    0.00 PKD
ROOT
HETATM    1  O   UNL     1     -10.503  10.402  70.227  1.00  0.00    -0.430 OA 
HETATM    2  H   UNL     1     -10.630  10.517  71.161  1.00  0.00     0.000 HD 
HETATM    3  C   UNL     1     -11.648  10.802  69.486  1.00  0.00    -0.303 C  
ENDROOT
BRANCH   3   4
HETATM    4  C   UNL     1     -11.442  10.617  67.976  1.00  0.00    -0.212 C  
HETATM    5  O   UNL     1     -11.719  11.831  67.259  1.00  0.00    -0.546 OA 
HETATM    6  C   UNL     1     -10.685  12.828  67.266  1.00  0.00    -0.237 C  
HETATM    7  C   UNL     1      -9.344  12.256  66.738  1.00  0.00    -0.218 C  
HETATM    8  H   UNL     1      -8.166  10.545  69.265  1.00  0.00     0.000 HD 
HETATM    9  H   UNL     1      -9.464   8.940  66.028  1.00  0.00     0.000 HD 
HETATM   10  O   UNL     1      -9.394  11.943  65.337  1.00  0.00    -0.392 OA 
HETATM   11  C   UNL     1      -8.940  10.986  67.506  1.00  0.00    -0.137 C  
HETATM   12  H   UNL     1      -8.572  11.592  65.014  1.00  0.00     0.000 HD 
HETATM   13  C   UNL     1     -10.098   9.971  67.563  1.00  0.00    -0.198 C  
HETATM   14  O   UNL     1     -10.289   9.337  66.281  1.00  0.00    -0.240 OA 
HETATM   15  O   UNL     1      -8.415  11.329  68.791  1.00  0.00    -0.155 OA 
BRANCH   6  16
HETATM   16  O   UNL     1     -10.483  13.361  68.577  1.00  0.00    -0.247 OA 
BRANCH  16  17
HETATM   17  C   UNL     1     -10.124  14.668  68.724  1.00  0.00    -0.235 A  
HETATM   18  O   UNL     1     -12.327  15.654  68.558  1.00  0.00    -0.489 OA 
HETATM   19  C   UNL     1     -10.471  17.069  68.805  1.00  0.00    -0.347 A  
HETATM   20  H   UNL     1     -12.908  16.406  68.555  1.00  0.00     0.000 HD 
HETATM   21  C   UNL     1      -9.092  17.252  68.857  1.00  0.00    -0.172 A  
HETATM   22  C   UNL     1     -10.977  15.773  68.719  1.00  0.00    -0.291 A  
HETATM   23  O   UNL     1      -8.611  18.577  68.880  1.00  0.00    -0.266 OA 
HETATM   24  C   UNL     1      -7.249  18.847  68.887  1.00  0.00    -0.316 C  
HETATM   25  O   UNL     1      -6.804  19.988  68.875  1.00  0.00    -0.316 OA 
HETATM   26  C   UNL     1      -6.337  17.688  68.912  1.00  0.00    -0.213 C  
HETATM   27  C   UNL     1      -6.784  16.426  68.900  1.00  0.00    -0.174 C  
HETATM   28  C   UNL     1      -8.212  16.172  68.851  1.00  0.00    -0.229 A  
HETATM   29  C   UNL     1      -8.739  14.879  68.785  1.00  0.00    -0.182 A  
ENDBRANCH  16  17
ENDBRANCH   6  16
ENDBRANCH   3   4
TORSDOF 3
ENDMDL
MODEL       92
REMARK 921   NORMALIZED FREE ENERGY PREDICTED BY IDOCK:   -5.24 KCAL/MOL
REMARK 922        TOTAL FREE ENERGY PREDICTED BY IDOCK:   -7.12 KCAL/MOL
REMARK 923 INTER-LIGAND FREE ENERGY PREDICTED BY IDOCK:   -7.03 KCAL/MOL
REMARK 924 INTRA-LIGAND FREE ENERGY PREDICTED BY IDOCK:   -0.09 KCAL/MOL
REMARK 927      BINDING AFFINITY PREDICTED BY RF-SCORE:    0.00 PKD
ROOT
HETATM    1  O   UNL     1     -11.023  11.059  63.776  1.00  0.00    -0.543 OA 
HETATM    2  H   UNL     1     -10.740  10.373  63.183  1.00  0.00     0.000 HD 
HETATM    3  C   UNL     1     -10.163  11.171  64.902  1.00  0.00    -0.303 C  
ENDROOT
BRANCH   3   4
HETATM    4  C   UNL     1     -10.621  12.281  65.859  1.00  0.00    -0.256 C  
HETATM    5  O   UNL     1     -11.601  11.793  66.791  1.00  0.00    -0.489 OA 
HETATM    6  C   UNL     1     -11.102  11.048  67.913  1.00  0.00    -0.288 C  
HETATM    7  C   UNL     1     -10.048  11.859  68.708  1.00  0.00    -0.120 C  
HETATM    8  H   UNL     1      -7.329  11.601  66.907  1.00  0.00     0.000 HD 
HETATM    9  H   UNL     1      -9.309  14.864  67.316  1.00  0.00     0.000 HD 
HETATM   10  O   UNL     1     -10.620  12.991  69.382  1.00  0.00    -0.435 OA 
HETATM   11  C   UNL     1      -8.921  12.360  67.788  1.00  0.00    -0.182 C  
HETATM   12  H   UNL     1      -9.974  13.488  69.869  1.00  0.00     0.000 HD 
HETATM   13  C   UNL     1      -9.486  13.076  66.545  1.00  0.00    -0.245 C  
HETATM   14  O   UNL     1     -10.007  14.375  66.895  1.00  0.00    -0.251 OA 
HETATM   15  O   UNL     1      -8.024  11.292  67.475  1.00  0.00    -0.116 OA 
BRANCH   6  16
HETATM   16  O   UNL     1     -10.523   9.808  67.498  1.00  0.00    -0.218 OA 
BRANCH  16  17
HETATM   17  C   UNL     1     -10.586   8.726  68.326  1.00  0.00    -0.142 A  
HETATM   18  O   UNL     1     -10.914   7.020  66.641  1.00  0.00    -0.513 OA 
HETATM   19  C   UNL     1     -10.891   6.388  68.901  1.00  0.00    -0.382 A  
HETATM   20  H   UNL     1     -11.039   6.114  66.382  1.00  0.00     0.000 HD 
HETATM   21  C   UNL     1     -10.866   6.731  70.251  1.00  0.00    -0.270 A  
HETATM   22  C   UNL     1     -10.770   7.395  67.945  1.00  0.00    -0.149 A  
HETATM   23  O   UNL     1     -11.055   5.698  71.190  1.00  0.00    -0.230 OA 
HETATM   24  C   UNL     1     -11.087   5.962  72.552  1.00  0.00    -0.283 C  
HETATM   25  O   UNL     1     -11.281   5.087  73.388  1.00  0.00    -0.315 OA 
HETATM   26  C   UNL     1     -10.875   7.361  72.968  1.00  0.00    -0.423 C  
HETATM   27  C   UNL     1     -10.686   8.349  72.084  1.00  0.00    -0.407 C  
HETATM   28  C   UNL     1     -10.697   8.050  70.663  1.00  0.00    -0.235 A  
HETATM   29  C   UNL     1     -10.557   9.045  69.691  1.00  0.00    -0.230 A  
ENDBRANCH  16  17
ENDBRANCH   6  16
ENDBRANCH   3   4
TORSDOF 3
ENDMDL
MODEL       93
REMARK 921   NORMALIZED FREE ENERGY PREDICTED BY IDOCK:   -5.20 KCAL/MOL
REMARK 922        TOTAL FREE ENERGY PREDICTED BY IDOCK:   -7.07 KCAL/MOL
REMARK 923 INTER-LIGAND FREE ENERGY PREDICTED BY IDOCK:   -5.98 KCAL/MOL
REMARK 924 INTRA-LIGAND FREE ENERGY PREDICTED BY IDOCK:   -1.09 KCAL/MOL
REMARK 927      BINDING AFFINITY PREDICTED BY RF-SCORE:    0.00 PKD
ROOT
HETATM    1  O   UNL     1     -12.442  14.241  63.636  1.00  0.00    -1.043 OA 
HETATM    2  H   UNL     1     -12.729  14.038  62.754  1.00  0.00     0.000 HD 
HETATM    3  C   UNL     1     -12.870  13.259  64.570  1.00  0.00    -0.053 C  
ENDROOT
BRANCH   3   4
HETATM    4  C   UNL     1     -12.406  13.588  65.996  1.00  0.00    -0.433 C  
HETATM    5  O   UNL     1     -12.021  12.399  66.706  1.00  0.00    -0.559 OA 
HETATM    6  C   UNL     1     -10.715  11.875  66.414  1.00  0.00    -0.266 C  
HETATM    7  C   UNL     1      -9.614  12.943  66.636  1.00  0.00    -0.257 C  
HETATM    8  H   UNL     1      -9.806  14.840  63.977  1.00  0.00     0.000 HD 
HETATM    9  H   UNL     1     -10.829  15.993  67.494  1.00  0.00     0.000 HD 
HETATM   10  O   UNL     1      -9.453  13.286  68.021  1.00  0.00    -0.206 OA 
HETATM   11  C   UNL     1      -9.920  14.229  65.849  1.00  0.00    -0.319 C  
HETATM   12  H   UNL     1      -8.778  13.941  68.157  1.00  0.00     0.000 HD 
HETATM   13  C   UNL     1     -11.358  14.719  66.108  1.00  0.00    -0.330 C  
HETATM   14  O   UNL     1     -11.472  15.298  67.425  1.00  0.00    -0.324 OA 
HETATM   15  O   UNL     1      -9.618  14.046  64.463  1.00  0.00     0.227 OA 
BRANCH   6  16
HETATM   16  O   UNL     1     -10.636  11.392  65.071  1.00  0.00    -0.286 OA 
BRANCH  16  17
HETATM   17  C   UNL     1      -9.633  10.537  64.721  1.00  0.00    -0.285 A  
HETATM   18  O   UNL     1      -8.767  11.774  62.831  1.00  0.00    -0.636 OA 
HETATM   19  C   UNL     1      -7.797   9.706  63.368  1.00  0.00    -0.138 A  
HETATM   20  H   UNL     1      -8.155  11.882  62.112  1.00  0.00     0.000 HD 
HETATM   21  C   UNL     1      -7.795   8.532  64.118  1.00  0.00    -0.144 A  
HETATM   22  C   UNL     1      -8.734  10.695  63.665  1.00  0.00    -0.145 A  
HETATM   23  O   UNL     1      -6.878   7.527  63.751  1.00  0.00    -0.052 OA 
HETATM   24  C   UNL     1      -6.841   6.310  64.418  1.00  0.00    -0.042 C  
HETATM   25  O   UNL     1      -6.076   5.408  64.100  1.00  0.00    -0.021 OA 
HETATM   26  C   UNL     1      -7.772   6.138  65.549  1.00  0.00    -0.094 C  
HETATM   27  C   UNL     1      -8.641   7.090  65.911  1.00  0.00    -0.152 C  
HETATM   28  C   UNL     1      -8.686   8.338  65.170  1.00  0.00    -0.089 A  
HETATM   29  C   UNL     1      -9.605   9.349  65.466  1.00  0.00    -0.328 A  
ENDBRANCH  16  17
ENDBRANCH   6  16
ENDBRANCH   3   4
TORSDOF 3
ENDMDL
MODEL       94
REMARK 921   NORMALIZED FREE ENERGY PREDICTED BY IDOCK:   -5.15 KCAL/MOL
REMARK 922        TOTAL FREE ENERGY PREDICTED BY IDOCK:   -7.01 KCAL/MOL
REMARK 923 INTER-LIGAND FREE ENERGY PREDICTED BY IDOCK:   -6.16 KCAL/MOL
REMARK 924 INTRA-LIGAND FREE ENERGY PREDICTED BY IDOCK:   -0.85 KCAL/MOL
REMARK 927      BINDING AFFINITY PREDICTED BY RF-SCORE:    0.00 PKD
ROOT
HETATM    1  O   UNL     1     -10.369  19.023  70.033  1.00  0.00    -0.082 OA 
HETATM    2  H   UNL     1     -11.277  19.024  70.308  1.00  0.00     0.000 HD 
HETATM    3  C   UNL     1     -10.144  19.918  68.952  1.00  0.00    -0.335 C  
ENDROOT
BRANCH   3   4
HETATM    4  C   UNL     1      -8.675  19.916  68.506  1.00  0.00    -0.136 C  
HETATM    5  O   UNL     1      -8.134  18.584  68.499  1.00  0.00    -0.316 OA 
HETATM    6  C   UNL     1      -8.466  17.766  67.366  1.00  0.00    -0.226 C  
HETATM    7  C   UNL     1      -8.066  18.452  66.035  1.00  0.00    -0.084 C  
HETATM    8  H   UNL     1     -10.428  20.662  65.545  1.00  0.00     0.000 HD 
HETATM    9  H   UNL     1      -6.808  21.577  66.440  1.00  0.00     0.000 HD 
HETATM   10  O   UNL     1      -6.642  18.552  65.875  1.00  0.00    -0.221 OA 
HETATM   11  C   UNL     1      -8.667  19.864  65.935  1.00  0.00    -0.131 C  
HETATM   12  H   UNL     1      -6.397  18.972  65.060  1.00  0.00     0.000 HD 
HETATM   13  C   UNL     1      -8.375  20.692  67.202  1.00  0.00    -0.210 C  
HETATM   14  O   UNL     1      -6.992  21.100  67.240  1.00  0.00    -0.413 OA 
HETATM   15  O   UNL     1     -10.057  19.791  65.607  1.00  0.00    -0.388 OA 
BRANCH   6  16
HETATM   16  O   UNL     1      -9.863  17.461  67.336  1.00  0.00    -0.267 OA 
BRANCH  16  17
HETATM   17  C   UNL     1     -10.268  16.159  67.369  1.00  0.00    -0.272 A  
HETATM   18  O   UNL     1     -10.229  15.723  64.990  1.00  0.00    -0.456 OA 
HETATM   19  C   UNL     1     -10.941  14.021  66.440  1.00  0.00    -0.308 A  
HETATM   20  H   UNL     1     -10.352  15.148  64.243  1.00  0.00     0.000 HD 
HETATM   21  C   UNL     1     -11.291  13.591  67.718  1.00  0.00    -0.296 A  
HETATM   22  C   UNL     1     -10.449  15.314  66.273  1.00  0.00    -0.307 A  
HETATM   23  O   UNL     1     -11.844  12.301  67.843  1.00  0.00    -0.383 OA 
HETATM   24  C   UNL     1     -12.259  11.814  69.075  1.00  0.00    -0.071 C  
HETATM   25  O   UNL     1     -12.773  10.710  69.207  1.00  0.00    -0.202 OA 
HETATM   26  C   UNL     1     -12.056  12.690  70.244  1.00  0.00    -0.372 C  
HETATM   27  C   UNL     1     -11.523  13.913  70.137  1.00  0.00    -0.166 C  
HETATM   28  C   UNL     1     -11.134  14.414  68.831  1.00  0.00    -0.277 A  
HETATM   29  C   UNL     1     -10.620  15.701  68.647  1.00  0.00    -0.243 A  
ENDBRANCH  16  17
ENDBRANCH   6  16
ENDBRANCH   3   4
TORSDOF 3
ENDMDL
MODEL       95
REMARK 921   NORMALIZED FREE ENERGY PREDICTED BY IDOCK:   -5.10 KCAL/MOL
REMARK 922        TOTAL FREE ENERGY PREDICTED BY IDOCK:   -6.96 KCAL/MOL
REMARK 923 INTER-LIGAND FREE ENERGY PREDICTED BY IDOCK:   -6.11 KCAL/MOL
REMARK 924 INTRA-LIGAND FREE ENERGY PREDICTED BY IDOCK:   -0.85 KCAL/MOL
REMARK 927      BINDING AFFINITY PREDICTED BY RF-SCORE:    0.00 PKD
ROOT
HETATM    1  O   UNL     1      -9.258   6.608  65.333  1.00  0.00    -0.365 OA 
HETATM    2  H   UNL     1     -10.084   6.209  65.085  1.00  0.00     0.000 HD 
HETATM    3  C   UNL     1      -9.188   6.850  66.732  1.00  0.00    -0.152 C  
ENDROOT
BRANCH   3   4
HETATM    4  C   UNL     1      -7.853   7.495  67.131  1.00  0.00    -0.117 C  
HETATM    5  O   UNL     1      -8.006   8.903  67.371  1.00  0.00    -0.100 OA 
HETATM    6  C   UNL     1      -8.554   9.279  68.645  1.00  0.00    -0.127 C  
HETATM    7  C   UNL     1      -7.732   8.681  69.814  1.00  0.00    -0.088 C  
HETATM    8  H   UNL     1      -8.705   5.560  69.947  1.00  0.00     0.000 HD 
HETATM    9  H   UNL     1      -5.206   6.653  68.805  1.00  0.00     0.000 HD 
HETATM   10  O   UNL     1      -6.421   9.258  69.916  1.00  0.00    -0.040 OA 
HETATM   11  C   UNL     1      -7.583   7.157  69.666  1.00  0.00    -0.104 C  
HETATM   12  H   UNL     1      -5.917   8.891  70.633  1.00  0.00     0.000 HD 
HETATM   13  C   UNL     1      -7.080   6.775  68.261  1.00  0.00    -0.086 C  
HETATM   14  O   UNL     1      -5.681   7.096  68.112  1.00  0.00    -0.020 OA 
HETATM   15  O   UNL     1      -8.797   6.500  70.038  1.00  0.00    -0.141 OA 
BRANCH   6  16
HETATM   16  O   UNL     1      -9.917   8.863  68.768  1.00  0.00    -0.173 OA 
BRANCH  16  17
HETATM   17  C   UNL     1     -10.723   9.464  69.689  1.00  0.00    -0.235 A  
HETATM   18  O   UNL     1     -11.512   7.471  70.811  1.00  0.00    -0.281 OA 
HETATM   19  C   UNL     1     -12.333   9.559  71.503  1.00  0.00    -0.465 A  
HETATM   20  H   UNL     1     -12.033   7.038  71.477  1.00  0.00     0.000 HD 
HETATM   21  C   UNL     1     -12.434  10.936  71.323  1.00  0.00    -0.388 A  
HETATM   22  C   UNL     1     -11.489   8.828  70.667  1.00  0.00    -0.231 A  
HETATM   23  O   UNL     1     -13.343  11.635  72.142  1.00  0.00    -0.491 OA 
HETATM   24  C   UNL     1     -13.536  13.002  71.997  1.00  0.00    -0.492 C  
HETATM   25  O   UNL     1     -14.342  13.629  72.674  1.00  0.00    -0.703 OA 
HETATM   26  C   UNL     1     -12.718  13.689  70.980  1.00  0.00    -0.408 C  
HETATM   27  C   UNL     1     -11.845  13.036  70.203  1.00  0.00    -0.324 C  
HETATM   28  C   UNL     1     -11.693  11.599  70.348  1.00  0.00    -0.292 A  
HETATM   29  C   UNL     1     -10.837  10.853  69.533  1.00  0.00    -0.286 A  
ENDBRANCH  16  17
ENDBRANCH   6  16
ENDBRANCH   3   4
TORSDOF 3
ENDMDL
MODEL       96
REMARK 921   NORMALIZED FREE ENERGY PREDICTED BY IDOCK:   -5.09 KCAL/MOL
REMARK 922        TOTAL FREE ENERGY PREDICTED BY IDOCK:   -6.94 KCAL/MOL
REMARK 923 INTER-LIGAND FREE ENERGY PREDICTED BY IDOCK:   -6.42 KCAL/MOL
REMARK 924 INTRA-LIGAND FREE ENERGY PREDICTED BY IDOCK:   -0.52 KCAL/MOL
REMARK 927      BINDING AFFINITY PREDICTED BY RF-SCORE:    0.00 PKD
ROOT
HETATM    1  O   UNL     1      -7.233   6.249  66.891  1.00  0.00    -0.071 OA 
HETATM    2  H   UNL     1      -7.648   5.955  66.089  1.00  0.00     0.000 HD 
HETATM    3  C   UNL     1      -8.083   7.105  67.642  1.00  0.00    -0.114 C  
ENDROOT
BRANCH   3   4
HETATM    4  C   UNL     1      -7.412   7.580  68.939  1.00  0.00    -0.096 C  
HETATM    5  O   UNL     1      -7.549   9.000  69.106  1.00  0.00    -0.071 OA 
HETATM    6  C   UNL     1      -8.813   9.466  69.605  1.00  0.00    -0.172 C  
HETATM    7  C   UNL     1      -9.175   8.788  70.951  1.00  0.00    -0.212 C  
HETATM    8  H   UNL     1     -10.241   5.821  70.078  1.00  0.00     0.000 HD 
HETATM    9  H   UNL     1      -6.938   6.434  71.935  1.00  0.00     0.000 HD 
HETATM   10  O   UNL     1      -8.308   9.194  72.022  1.00  0.00    -0.321 OA 
HETATM   11  C   UNL     1      -9.119   7.255  70.834  1.00  0.00    -0.151 C  
HETATM   12  H   UNL     1      -8.530   8.778  72.846  1.00  0.00     0.000 HD 
HETATM   13  C   UNL     1      -7.790   6.786  70.211  1.00  0.00    -0.110 C  
HETATM   14  O   UNL     1      -6.706   6.922  71.154  1.00  0.00    -0.054 OA 
HETATM   15  O   UNL     1     -10.276   6.767  70.149  1.00  0.00    -0.190 OA 
BRANCH   6  16
HETATM   16  O   UNL     1      -9.862   9.231  68.664  1.00  0.00    -0.155 OA 
BRANCH  16  17
HETATM   17  C   UNL     1     -10.410  10.283  67.990  1.00  0.00    -0.181 A  
HETATM   18  O   UNL     1     -11.524  11.347  69.855  1.00  0.00    -0.312 OA 
HETATM   19  C   UNL     1     -11.762  12.280  67.715  1.00  0.00    -0.403 A  
HETATM   20  H   UNL     1     -12.062  12.038  70.223  1.00  0.00     0.000 HD 
HETATM   21  C   UNL     1     -11.557  12.212  66.339  1.00  0.00    -0.364 A  
HETATM   22  C   UNL     1     -11.200  11.299  68.531  1.00  0.00    -0.252 A  
HETATM   23  O   UNL     1     -12.191  13.182  65.537  1.00  0.00    -0.411 OA 
HETATM   24  C   UNL     1     -12.074  13.159  64.154  1.00  0.00    -0.430 C  
HETATM   25  O   UNL     1     -12.640  13.971  63.432  1.00  0.00    -0.845 OA 
HETATM   26  C   UNL     1     -11.226  12.102  63.572  1.00  0.00    -0.536 C  
HETATM   27  C   UNL     1     -10.612  11.181  64.325  1.00  0.00    -0.425 C  
HETATM   28  C   UNL     1     -10.784  11.205  65.766  1.00  0.00    -0.252 A  
HETATM   29  C   UNL     1     -10.212  10.241  66.602  1.00  0.00    -0.294 A  
ENDBRANCH  16  17
ENDBRANCH   6  16
ENDBRANCH   3   4
TORSDOF 3
ENDMDL
MODEL       97
REMARK 921   NORMALIZED FREE ENERGY PREDICTED BY IDOCK:   -5.00 KCAL/MOL
REMARK 922        TOTAL FREE ENERGY PREDICTED BY IDOCK:   -6.83 KCAL/MOL
REMARK 923 INTER-LIGAND FREE ENERGY PREDICTED BY IDOCK:   -6.42 KCAL/MOL
REMARK 924 INTRA-LIGAND FREE ENERGY PREDICTED BY IDOCK:   -0.41 KCAL/MOL
REMARK 927      BINDING AFFINITY PREDICTED BY RF-SCORE:    0.00 PKD
ROOT
HETATM    1  O   UNL     1      -8.462  16.346  65.791  1.00  0.00    -0.346 OA 
HETATM    2  H   UNL     1      -7.914  15.871  65.178  1.00  0.00     0.000 HD 
HETATM    3  C   UNL     1      -9.734  15.730  65.948  1.00  0.00    -0.354 C  
ENDROOT
BRANCH   3   4
HETATM    4  C   UNL     1     -10.620  16.497  66.940  1.00  0.00    -0.238 C  
HETATM    5  O   UNL     1     -11.539  15.616  67.607  1.00  0.00    -0.237 OA 
HETATM    6  C   UNL     1     -11.008  14.845  68.697  1.00  0.00    -0.257 C  
HETATM    7  C   UNL     1     -10.353  15.753  69.768  1.00  0.00    -0.306 C  
HETATM    8  H   UNL     1      -7.450  16.532  68.474  1.00  0.00     0.000 HD 
HETATM    9  H   UNL     1     -10.320  19.041  68.929  1.00  0.00     0.000 HD 
HETATM   10  O   UNL     1     -11.314  16.561  70.466  1.00  0.00    -0.516 OA 
HETATM   11  C   UNL     1      -9.301  16.683  69.140  1.00  0.00    -0.177 C  
HETATM   12  H   UNL     1     -10.912  17.118  71.122  1.00  0.00     0.000 HD 
HETATM   13  C   UNL     1      -9.868  17.431  67.917  1.00  0.00    -0.287 C  
HETATM   14  O   UNL     1     -10.783  18.467  68.329  1.00  0.00    -0.261 OA 
HETATM   15  O   UNL     1      -8.100  15.958  68.861  1.00  0.00    -0.183 OA 
BRANCH   6  16
HETATM   16  O   UNL     1     -10.047  13.891  68.239  1.00  0.00    -0.228 OA 
BRANCH  16  17
HETATM   17  C   UNL     1     -10.367  12.565  68.227  1.00  0.00    -0.236 A  
HETATM   18  O   UNL     1     -11.564  12.480  70.328  1.00  0.00    -0.530 OA 
HETATM   19  C   UNL     1     -11.282  10.496  69.106  1.00  0.00    -0.314 A  
HETATM   20  H   UNL     1     -12.053  12.008  70.993  1.00  0.00     0.000 HD 
HETATM   21  C   UNL     1     -10.716   9.808  68.036  1.00  0.00    -0.247 A  
HETATM   22  C   UNL     1     -11.085  11.872  69.204  1.00  0.00    -0.228 A  
HETATM   23  O   UNL     1     -10.880   8.408  68.001  1.00  0.00    -0.101 OA 
HETATM   24  C   UNL     1     -10.310   7.643  66.993  1.00  0.00    -0.330 C  
HETATM   25  O   UNL     1     -10.410   6.423  66.956  1.00  0.00    -0.188 OA 
HETATM   26  C   UNL     1      -9.565   8.365  65.944  1.00  0.00    -0.119 C  
HETATM   27  C   UNL     1      -9.411   9.695  65.963  1.00  0.00    -0.284 C  
HETATM   28  C   UNL     1      -9.984  10.467  67.052  1.00  0.00    -0.252 A  
HETATM   29  C   UNL     1      -9.814  11.850  67.155  1.00  0.00    -0.206 A  
ENDBRANCH  16  17
ENDBRANCH   6  16
ENDBRANCH   3   4
TORSDOF 3
ENDMDL
MODEL       98
REMARK 921   NORMALIZED FREE ENERGY PREDICTED BY IDOCK:   -5.00 KCAL/MOL
REMARK 922        TOTAL FREE ENERGY PREDICTED BY IDOCK:   -6.83 KCAL/MOL
REMARK 923 INTER-LIGAND FREE ENERGY PREDICTED BY IDOCK:   -6.50 KCAL/MOL
REMARK 924 INTRA-LIGAND FREE ENERGY PREDICTED BY IDOCK:   -0.33 KCAL/MOL
REMARK 927      BINDING AFFINITY PREDICTED BY RF-SCORE:    0.00 PKD
ROOT
HETATM    1  O   UNL     1     -11.869   7.171  72.837  1.00  0.00    -0.528 OA 
HETATM    2  H   UNL     1     -12.659   7.492  73.255  1.00  0.00     0.000 HD 
HETATM    3  C   UNL     1     -12.072   6.913  71.454  1.00  0.00    -0.364 C  
ENDROOT
BRANCH   3   4
HETATM    4  C   UNL     1     -10.795   6.393  70.778  1.00  0.00    -0.267 C  
HETATM    5  O   UNL     1     -10.705   6.844  69.417  1.00  0.00    -0.225 OA 
HETATM    6  C   UNL     1     -10.246   8.191  69.219  1.00  0.00    -0.214 C  
HETATM    7  C   UNL     1      -8.871   8.426  69.893  1.00  0.00    -0.137 C  
HETATM    8  H   UNL     1      -9.596   8.789  73.063  1.00  0.00     0.000 HD 
HETATM    9  H   UNL     1      -7.736   5.747  71.640  1.00  0.00     0.000 HD 
HETATM   10  O   UNL     1      -7.813   7.695  69.253  1.00  0.00    -0.115 OA 
HETATM   11  C   UNL     1      -8.905   8.030  71.379  1.00  0.00    -0.141 C  
HETATM   12  H   UNL     1      -6.970   7.838  69.666  1.00  0.00     0.000 HD 
HETATM   13  C   UNL     1      -9.486   6.615  71.572  1.00  0.00    -0.156 C  
HETATM   14  O   UNL     1      -8.540   5.611  71.153  1.00  0.00    -0.125 OA 
HETATM   15  O   UNL     1      -9.575   9.034  72.145  1.00  0.00    -0.312 OA 
BRANCH   6  16
HETATM   16  O   UNL     1     -11.186   9.141  69.727  1.00  0.00    -0.181 OA 
BRANCH  16  17
HETATM   17  C   UNL     1     -11.284  10.369  69.144  1.00  0.00    -0.246 A  
HETATM   18  O   UNL     1     -10.539   9.758  66.924  1.00  0.00    -0.227 OA 
HETATM   19  C   UNL     1     -11.056  12.004  67.364  1.00  0.00    -0.337 A  
HETATM   20  H   UNL     1     -10.334   9.975  66.022  1.00  0.00     0.000 HD 
HETATM   21  C   UNL     1     -11.396  13.011  68.265  1.00  0.00    -0.288 A  
HETATM   22  C   UNL     1     -10.984  10.688  67.818  1.00  0.00    -0.306 A  
HETATM   23  O   UNL     1     -11.398  14.337  67.790  1.00  0.00    -0.279 OA 
HETATM   24  C   UNL     1     -11.682  15.402  68.633  1.00  0.00    -0.354 C  
HETATM   25  O   UNL     1     -11.660  16.567  68.254  1.00  0.00    -0.205 OA 
HETATM   26  C   UNL     1     -12.020  15.077  70.032  1.00  0.00    -0.375 C  
HETATM   27  C   UNL     1     -12.029  13.820  70.491  1.00  0.00    -0.367 C  
HETATM   28  C   UNL     1     -11.689  12.728  69.597  1.00  0.00    -0.372 A  
HETATM   29  C   UNL     1     -11.630  11.400  70.029  1.00  0.00    -0.382 A  
ENDBRANCH  16  17
ENDBRANCH   6  16
ENDBRANCH   3   4
TORSDOF 3
ENDMDL
MODEL       99
REMARK 921   NORMALIZED FREE ENERGY PREDICTED BY IDOCK:   -4.94 KCAL/MOL
REMARK 922        TOTAL FREE ENERGY PREDICTED BY IDOCK:   -6.76 KCAL/MOL
REMARK 923 INTER-LIGAND FREE ENERGY PREDICTED BY IDOCK:   -5.70 KCAL/MOL
REMARK 924 INTRA-LIGAND FREE ENERGY PREDICTED BY IDOCK:   -1.07 KCAL/MOL
REMARK 927      BINDING AFFINITY PREDICTED BY RF-SCORE:    0.00 PKD
ROOT
HETATM    1  O   UNL     1      -6.880  10.931  69.035  1.00  0.00    -0.064 OA 
HETATM    2  H   UNL     1      -6.053  11.056  68.586  1.00  0.00     0.000 HD 
HETATM    3  C   UNL     1      -7.622   9.851  68.483  1.00  0.00    -0.080 C  
ENDROOT
BRANCH   3   4
HETATM    4  C   UNL     1      -8.960   9.650  69.209  1.00  0.00    -0.172 C  
HETATM    5  O   UNL     1      -9.525  10.906  69.618  1.00  0.00     0.063 OA 
HETATM    6  C   UNL     1     -10.204  11.663  68.603  1.00  0.00    -0.206 C  
HETATM    7  C   UNL     1     -11.324  10.831  67.930  1.00  0.00    -0.299 C  
HETATM    8  H   UNL     1      -9.719   8.872  65.859  1.00  0.00     0.000 HD 
HETATM    9  H   UNL     1     -11.487   7.625  69.031  1.00  0.00     0.000 HD 
HETATM   10  O   UNL     1     -12.416  10.556  68.823  1.00  0.00    -0.748 OA 
HETATM   11  C   UNL     1     -10.781   9.492  67.400  1.00  0.00    -0.227 C  
HETATM   12  H   UNL     1     -13.103  10.046  68.410  1.00  0.00     0.000 HD 
HETATM   13  C   UNL     1      -9.980   8.742  68.482  1.00  0.00    -0.182 C  
HETATM   14  O   UNL     1     -10.861   8.182  69.477  1.00  0.00    -0.213 OA 
HETATM   15  O   UNL     1     -10.053   9.698  66.187  1.00  0.00    -0.277 OA 
BRANCH   6  16
HETATM   16  O   UNL     1      -9.294  12.122  67.601  1.00  0.00    -0.177 OA 
BRANCH  16  17
HETATM   17  C   UNL     1      -8.939  13.438  67.566  1.00  0.00    -0.207 A  
HETATM   18  O   UNL     1      -6.628  13.156  66.907  1.00  0.00    -0.426 OA 
HETATM   19  C   UNL     1      -7.431  15.323  67.315  1.00  0.00    -0.236 A  
HETATM   20  H   UNL     1      -5.773  13.508  66.686  1.00  0.00     0.000 HD 
HETATM   21  C   UNL     1      -8.441  16.172  67.760  1.00  0.00    -0.158 A  
HETATM   22  C   UNL     1      -7.683  13.955  67.240  1.00  0.00    -0.084 A  
HETATM   23  O   UNL     1      -8.134  17.542  67.884  1.00  0.00    -0.219 OA 
HETATM   24  C   UNL     1      -9.071  18.448  68.362  1.00  0.00    -0.320 C  
HETATM   25  O   UNL     1      -8.820  19.638  68.510  1.00  0.00    -0.345 OA 
HETATM   26  C   UNL     1     -10.407  17.919  68.691  1.00  0.00    -0.342 C  
HETATM   27  C   UNL     1     -10.712  16.621  68.567  1.00  0.00    -0.351 C  
HETATM   28  C   UNL     1      -9.701  15.688  68.104  1.00  0.00    -0.204 A  
HETATM   29  C   UNL     1      -9.942  14.315  68.003  1.00  0.00    -0.220 A  
ENDBRANCH  16  17
ENDBRANCH   6  16
ENDBRANCH   3   4
TORSDOF 3
ENDMDL
MODEL      100
REMARK 921   NORMALIZED FREE ENERGY PREDICTED BY IDOCK:   -4.93 KCAL/MOL
REMARK 922        TOTAL FREE ENERGY PREDICTED BY IDOCK:   -6.75 KCAL/MOL
REMARK 923 INTER-LIGAND FREE ENERGY PREDICTED BY IDOCK:   -6.35 KCAL/MOL
REMARK 924 INTRA-LIGAND FREE ENERGY PREDICTED BY IDOCK:   -0.41 KCAL/MOL
REMARK 927      BINDING AFFINITY PREDICTED BY RF-SCORE:    0.00 PKD
ROOT
HETATM    1  O   UNL     1     -10.494  19.294  68.931  1.00  0.00    -0.491 OA 
HETATM    2  H   UNL     1     -11.304  19.702  68.651  1.00  0.00     0.000 HD 
HETATM    3  C   UNL     1      -9.375  19.798  68.214  1.00  0.00    -0.329 C  
ENDROOT
BRANCH   3   4
HETATM    4  C   UNL     1      -8.065  19.137  68.666  1.00  0.00    -0.370 C  
HETATM    5  O   UNL     1      -8.317  17.915  69.379  1.00  0.00     0.179 OA 
HETATM    6  C   UNL     1      -8.611  16.757  68.580  1.00  0.00    -0.263 C  
HETATM    7  C   UNL     1      -7.491  16.485  67.544  1.00  0.00    -0.147 C  
HETATM    8  H   UNL     1      -8.057  18.670  65.176  1.00  0.00     0.000 HD 
HETATM    9  H   UNL     1      -5.038  18.831  67.543  1.00  0.00     0.000 HD 
HETATM   10  O   UNL     1      -6.261  16.070  68.161  1.00  0.00    -0.107 OA 
HETATM   11  C   UNL     1      -7.209  17.732  66.689  1.00  0.00    -0.221 C  
HETATM   12  H   UNL     1      -5.575  15.903  67.526  1.00  0.00     0.000 HD 
HETATM   13  C   UNL     1      -6.987  18.979  67.568  1.00  0.00    -0.208 C  
HETATM   14  O   UNL     1      -5.700  18.927  68.217  1.00  0.00    -0.194 OA 
HETATM   15  O   UNL     1      -8.231  17.901  65.704  1.00  0.00    -0.476 OA 
BRANCH   6  16
HETATM   16  O   UNL     1      -9.858  16.900  67.896  1.00  0.00    -0.251 OA 
BRANCH  16  17
HETATM   17  C   UNL     1     -10.543  15.788  67.506  1.00  0.00    -0.309 A  
HETATM   18  O   UNL     1     -10.519  14.608  69.619  1.00  0.00    -0.394 OA 
HETATM   19  C   UNL     1     -11.511  13.576  67.759  1.00  0.00    -0.349 A  
HETATM   20  H   UNL     1     -10.741  13.860  70.161  1.00  0.00     0.000 HD 
HETATM   21  C   UNL     1     -11.789  13.558  66.395  1.00  0.00    -0.394 A  
HETATM   22  C   UNL     1     -10.869  14.688  68.302  1.00  0.00    -0.245 A  
HETATM   23  O   UNL     1     -12.381  12.393  65.866  1.00  0.00    -0.638 OA 
HETATM   24  C   UNL     1     -12.651  12.276  64.510  1.00  0.00    -0.327 C  
HETATM   25  O   UNL     1     -13.136  11.264  64.019  1.00  0.00     0.409 OA 
HETATM   26  C   UNL     1     -12.329  13.438  63.661  1.00  0.00    -0.422 C  
HETATM   27  C   UNL     1     -11.775  14.553  64.154  1.00  0.00    -0.222 C  
HETATM   28  C   UNL     1     -11.466  14.633  65.570  1.00  0.00    -0.341 A  
HETATM   29  C   UNL     1     -10.841  15.747  66.137  1.00  0.00    -0.240 A  
ENDBRANCH  16  17
ENDBRANCH   6  16
ENDBRANCH   3   4
TORSDOF 3
ENDMDL
MODEL      101
REMARK 921   NORMALIZED FREE ENERGY PREDICTED BY IDOCK:   -4.91 KCAL/MOL
REMARK 922        TOTAL FREE ENERGY PREDICTED BY IDOCK:   -6.73 KCAL/MOL
REMARK 923 INTER-LIGAND FREE ENERGY PREDICTED BY IDOCK:   -5.76 KCAL/MOL
REMARK 924 INTRA-LIGAND FREE ENERGY PREDICTED BY IDOCK:   -0.97 KCAL/MOL
REMARK 927      BINDING AFFINITY PREDICTED BY RF-SCORE:    0.00 PKD
ROOT
HETATM    1  O   UNL     1     -11.956  14.729  69.906  1.00  0.00    -0.292 OA 
HETATM    2  H   UNL     1     -12.876  14.505  69.977  1.00  0.00     0.000 HD 
HETATM    3  C   UNL     1     -11.712  15.614  68.820  1.00  0.00    -0.370 C  
ENDROOT
BRANCH   3   4
HETATM    4  C   UNL     1     -10.224  15.975  68.704  1.00  0.00    -0.231 C  
HETATM    5  O   UNL     1      -9.388  14.855  69.036  1.00  0.00    -0.197 OA 
HETATM    6  C   UNL     1      -9.214  13.862  68.012  1.00  0.00    -0.193 C  
HETATM    7  C   UNL     1      -8.676  14.489  66.701  1.00  0.00    -0.129 C  
HETATM    8  H   UNL     1     -11.310  15.888  65.356  1.00  0.00     0.000 HD 
HETATM    9  H   UNL     1      -8.370  17.866  66.833  1.00  0.00     0.000 HD 
HETATM   10  O   UNL     1      -7.327  14.965  66.833  1.00  0.00    -0.300 OA 
HETATM   11  C   UNL     1      -9.562  15.659  66.240  1.00  0.00    -0.308 C  
HETATM   12  H   UNL     1      -6.998  15.350  66.030  1.00  0.00     0.000 HD 
HETATM   13  C   UNL     1      -9.809  16.663  67.383  1.00  0.00    -0.254 C  
HETATM   14  O   UNL     1      -8.624  17.443  67.645  1.00  0.00    -0.213 OA 
HETATM   15  O   UNL     1     -10.763  15.166  65.641  1.00  0.00    -0.323 OA 
BRANCH   6  16
HETATM   16  O   UNL     1     -10.438  13.178  67.737  1.00  0.00    -0.222 OA 
BRANCH  16  17
HETATM   17  C   UNL     1     -10.415  11.844  67.455  1.00  0.00    -0.209 A  
HETATM   18  O   UNL     1     -10.448  11.999  65.041  1.00  0.00    -0.266 OA 
HETATM   19  C   UNL     1     -10.468   9.875  66.037  1.00  0.00    -0.112 A  
HETATM   20  H   UNL     1     -10.450  11.602  64.178  1.00  0.00     0.000 HD 
HETATM   21  C   UNL     1     -10.556   9.075  67.174  1.00  0.00    -0.220 A  
HETATM   22  C   UNL     1     -10.418  11.260  66.187  1.00  0.00    -0.254 A  
HETATM   23  O   UNL     1     -10.668   7.683  66.985  1.00  0.00    -0.348 OA 
HETATM   24  C   UNL     1     -10.803   6.821  68.064  1.00  0.00    -0.235 C  
HETATM   25  O   UNL     1     -10.935   5.610  67.927  1.00  0.00    -0.176 OA 
HETATM   26  C   UNL     1     -10.782   7.423  69.410  1.00  0.00    -0.220 C  
HETATM   27  C   UNL     1     -10.666   8.743  69.600  1.00  0.00    -0.212 C  
HETATM   28  C   UNL     1     -10.567   9.627  68.453  1.00  0.00    -0.264 A  
HETATM   29  C   UNL     1     -10.496  11.016  68.584  1.00  0.00    -0.214 A  
ENDBRANCH  16  17
ENDBRANCH   6  16
ENDBRANCH   3   4
TORSDOF 3
ENDMDL
MODEL      102
REMARK 921   NORMALIZED FREE ENERGY PREDICTED BY IDOCK:   -4.91 KCAL/MOL
REMARK 922        TOTAL FREE ENERGY PREDICTED BY IDOCK:   -6.73 KCAL/MOL
REMARK 923 INTER-LIGAND FREE ENERGY PREDICTED BY IDOCK:   -5.66 KCAL/MOL
REMARK 924 INTRA-LIGAND FREE ENERGY PREDICTED BY IDOCK:   -1.07 KCAL/MOL
REMARK 927      BINDING AFFINITY PREDICTED BY RF-SCORE:    0.00 PKD
ROOT
HETATM    1  O   UNL     1     -12.395   7.979  70.551  1.00  0.00    -0.484 OA 
HETATM    2  H   UNL     1     -12.652   8.403  71.361  1.00  0.00     0.000 HD 
HETATM    3  C   UNL     1     -11.305   7.088  70.745  1.00  0.00    -0.298 C  
ENDROOT
BRANCH   3   4
HETATM    4  C   UNL     1     -10.891   6.402  69.436  1.00  0.00    -0.321 C  
HETATM    5  O   UNL     1     -11.035   7.289  68.315  1.00  0.00    -0.106 OA 
HETATM    6  C   UNL     1      -9.989   8.256  68.126  1.00  0.00    -0.191 C  
HETATM    7  C   UNL     1      -8.600   7.575  68.022  1.00  0.00    -0.122 C  
HETATM    8  H   UNL     1      -7.835   6.865  71.123  1.00  0.00     0.000 HD 
HETATM    9  H   UNL     1      -8.695   4.214  68.483  1.00  0.00     0.000 HD 
HETATM   10  O   UNL     1      -8.457   6.800  66.821  1.00  0.00    -0.113 OA 
HETATM   11  C   UNL     1      -8.340   6.656  69.228  1.00  0.00    -0.124 C  
HETATM   12  H   UNL     1      -7.606   6.382  66.758  1.00  0.00     0.000 HD 
HETATM   13  C   UNL     1      -9.518   5.691  69.465  1.00  0.00    -0.136 C  
HETATM   14  O   UNL     1      -9.538   4.652  68.464  1.00  0.00    -0.145 OA 
HETATM   15  O   UNL     1      -7.996   7.433  70.378  1.00  0.00    -0.100 OA 
BRANCH   6  16
HETATM   16  O   UNL     1      -9.964   9.211  69.189  1.00  0.00    -0.177 OA 
BRANCH  16  17
HETATM   17  C   UNL     1     -10.256  10.517  68.928  1.00  0.00    -0.208 A  
HETATM   18  O   UNL     1     -12.643  10.422  69.313  1.00  0.00    -0.686 OA 
HETATM   19  C   UNL     1     -11.691  12.450  68.615  1.00  0.00    -0.372 A  
HETATM   20  H   UNL     1     -13.501  10.829  69.349  1.00  0.00     0.000 HD 
HETATM   21  C   UNL     1     -10.593  13.173  68.157  1.00  0.00    -0.245 A  
HETATM   22  C   UNL     1     -11.517  11.116  68.980  1.00  0.00    -0.296 A  
HETATM   23  O   UNL     1     -10.816  14.499  67.736  1.00  0.00    -0.256 OA 
HETATM   24  C   UNL     1      -9.783  15.274  67.225  1.00  0.00    -0.212 C  
HETATM   25  O   UNL     1      -9.955  16.419  66.823  1.00  0.00    -0.253 OA 
HETATM   26  C   UNL     1      -8.443  14.660  67.183  1.00  0.00    -0.244 C  
HETATM   27  C   UNL     1      -8.219  13.404  67.589  1.00  0.00    -0.177 C  
HETATM   28  C   UNL     1      -9.325  12.602  68.081  1.00  0.00    -0.210 A  
HETATM   29  C   UNL     1      -9.165  11.269  68.470  1.00  0.00    -0.181 A  
ENDBRANCH  16  17
ENDBRANCH   6  16
ENDBRANCH   3   4
TORSDOF 3
ENDMDL
MODEL      103
REMARK 921   NORMALIZED FREE ENERGY PREDICTED BY IDOCK:   -4.89 KCAL/MOL
REMARK 922        TOTAL FREE ENERGY PREDICTED BY IDOCK:   -6.71 KCAL/MOL
REMARK 923 INTER-LIGAND FREE ENERGY PREDICTED BY IDOCK:   -6.44 KCAL/MOL
REMARK 924 INTRA-LIGAND FREE ENERGY PREDICTED BY IDOCK:   -0.27 KCAL/MOL
REMARK 927      BINDING AFFINITY PREDICTED BY RF-SCORE:    0.00 PKD
ROOT
HETATM    1  O   UNL     1      -9.083  15.275  68.211  1.00  0.00    -0.175 OA 
HETATM    2  H   UNL     1      -8.647  15.010  69.012  1.00  0.00     0.000 HD 
HETATM    3  C   UNL     1      -8.855  14.349  67.156  1.00  0.00    -0.229 C  
ENDROOT
BRANCH   3   4
HETATM    4  C   UNL     1      -9.560  14.778  65.861  1.00  0.00    -0.285 C  
HETATM    5  O   UNL     1      -9.918  13.639  65.062  1.00  0.00    -0.278 OA 
HETATM    6  C   UNL     1     -11.102  12.927  65.456  1.00  0.00    -0.278 C  
HETATM    7  C   UNL     1     -12.331  13.869  65.526  1.00  0.00    -0.480 C  
HETATM    8  H   UNL     1     -11.947  15.461  68.358  1.00  0.00     0.000 HD 
HETATM    9  H   UNL     1     -11.590  17.124  64.917  1.00  0.00     0.000 HD 
HETATM   10  O   UNL     1     -12.733  14.344  64.232  1.00  0.00    -0.657 OA 
HETATM   11  C   UNL     1     -12.050  15.085  66.425  1.00  0.00     0.155 C  
HETATM   12  H   UNL     1     -13.487  14.922  64.275  1.00  0.00     0.000 HD 
HETATM   13  C   UNL     1     -10.728  15.776  66.040  1.00  0.00    -0.306 C  
HETATM   14  O   UNL     1     -10.873  16.510  64.807  1.00  0.00    -0.720 OA 
HETATM   15  O   UNL     1     -12.120  14.710  67.803  1.00  0.00    -0.314 OA 
BRANCH   6  16
HETATM   16  O   UNL     1     -10.927  12.289  66.723  1.00  0.00    -0.253 OA 
BRANCH  16  17
HETATM   17  C   UNL     1     -10.474  11.004  66.772  1.00  0.00    -0.251 A  
HETATM   18  O   UNL     1      -9.746  10.806  64.473  1.00  0.00    -0.242 OA 
HETATM   19  C   UNL     1      -9.554   8.940  65.885  1.00  0.00    -0.293 A  
HETATM   20  H   UNL     1      -9.362  10.312  63.758  1.00  0.00     0.000 HD 
HETATM   21  C   UNL     1      -9.806   8.319  67.105  1.00  0.00    -0.217 A  
HETATM   22  C   UNL     1      -9.910  10.278  65.721  1.00  0.00    -0.257 A  
HETATM   23  O   UNL     1      -9.492   6.950  67.217  1.00  0.00    -0.130 OA 
HETATM   24  C   UNL     1      -9.753   6.246  68.384  1.00  0.00    -0.124 C  
HETATM   25  O   UNL     1      -9.519   5.049  68.498  1.00  0.00    -0.123 OA 
HETATM   26  C   UNL     1     -10.331   7.005  69.509  1.00  0.00    -0.225 C  
HETATM   27  C   UNL     1     -10.624   8.308  69.416  1.00  0.00    -0.203 C  
HETATM   28  C   UNL     1     -10.379   9.011  68.170  1.00  0.00    -0.262 A  
HETATM   29  C   UNL     1     -10.711  10.357  67.994  1.00  0.00    -0.292 A  
ENDBRANCH  16  17
ENDBRANCH   6  16
ENDBRANCH   3   4
TORSDOF 3
ENDMDL
MODEL      104
REMARK 921   NORMALIZED FREE ENERGY PREDICTED BY IDOCK:   -4.87 KCAL/MOL
REMARK 922        TOTAL FREE ENERGY PREDICTED BY IDOCK:   -6.68 KCAL/MOL
REMARK 923 INTER-LIGAND FREE ENERGY PREDICTED BY IDOCK:   -5.74 KCAL/MOL
REMARK 924 INTRA-LIGAND FREE ENERGY PREDICTED BY IDOCK:   -0.94 KCAL/MOL
REMARK 927      BINDING AFFINITY PREDICTED BY RF-SCORE:    0.00 PKD
ROOT
HETATM    1  O   UNL     1      -9.724   7.046  70.424  1.00  0.00    -0.176 OA 
HETATM    2  H   UNL     1      -9.774   7.381  71.311  1.00  0.00     0.000 HD 
HETATM    3  C   UNL     1     -10.625   7.719  69.555  1.00  0.00    -0.221 C  
ENDROOT
BRANCH   3   4
HETATM    4  C   UNL     1     -10.545   7.177  68.121  1.00  0.00    -0.192 C  
HETATM    5  O   UNL     1     -10.834   8.204  67.158  1.00  0.00    -0.261 OA 
HETATM    6  C   UNL     1      -9.767   9.119  66.859  1.00  0.00    -0.194 C  
HETATM    7  C   UNL     1      -8.494   8.369  66.391  1.00  0.00    -0.123 C  
HETATM    8  H   UNL     1      -7.182   7.232  69.165  1.00  0.00     0.000 HD 
HETATM    9  H   UNL     1      -8.788   4.990  66.494  1.00  0.00     0.000 HD 
HETATM   10  O   UNL     1      -8.665   7.742  65.111  1.00  0.00    -0.350 OA 
HETATM   11  C   UNL     1      -8.076   7.293  67.408  1.00  0.00    -0.113 C  
HETATM   12  H   UNL     1      -7.884   7.282  64.824  1.00  0.00     0.000 HD 
HETATM   13  C   UNL     1      -9.262   6.382  67.782  1.00  0.00    -0.112 C  
HETATM   14  O   UNL     1      -9.575   5.479  66.702  1.00  0.00    -0.137 OA 
HETATM   15  O   UNL     1      -7.440   7.897  68.537  1.00  0.00    -0.091 OA 
BRANCH   6  16
HETATM   16  O   UNL     1      -9.444   9.930  67.991  1.00  0.00    -0.134 OA 
BRANCH  16  17
HETATM   17  C   UNL     1      -9.958  11.190  68.083  1.00  0.00    -0.178 A  
HETATM   18  O   UNL     1     -12.183  10.603  68.830  1.00  0.00    -0.790 OA 
HETATM   19  C   UNL     1     -11.675  12.864  68.458  1.00  0.00    -0.374 A  
HETATM   20  H   UNL     1     -13.064  10.839  69.098  1.00  0.00     0.000 HD 
HETATM   21  C   UNL     1     -10.800  13.845  67.999  1.00  0.00    -0.246 A  
HETATM   22  C   UNL     1     -11.251  11.536  68.478  1.00  0.00    -0.258 A  
HETATM   23  O   UNL     1     -11.280  15.168  67.932  1.00  0.00    -0.306 OA 
HETATM   24  C   UNL     1     -10.486  16.197  67.444  1.00  0.00    -0.310 C  
HETATM   25  O   UNL     1     -10.889  17.350  67.346  1.00  0.00    -0.290 OA 
HETATM   26  C   UNL     1      -9.111  15.848  67.042  1.00  0.00    -0.236 C  
HETATM   27  C   UNL     1      -8.642  14.596  67.110  1.00  0.00    -0.244 C  
HETATM   28  C   UNL     1      -9.507  13.532  67.586  1.00  0.00    -0.222 A  
HETATM   29  C   UNL     1      -9.093  12.198  67.632  1.00  0.00    -0.181 A  
ENDBRANCH  16  17
ENDBRANCH   6  16
ENDBRANCH   3   4
TORSDOF 3
ENDMDL
MODEL      105
REMARK 921   NORMALIZED FREE ENERGY PREDICTED BY IDOCK:   -4.86 KCAL/MOL
REMARK 922        TOTAL FREE ENERGY PREDICTED BY IDOCK:   -6.68 KCAL/MOL
REMARK 923 INTER-LIGAND FREE ENERGY PREDICTED BY IDOCK:   -5.85 KCAL/MOL
REMARK 924 INTRA-LIGAND FREE ENERGY PREDICTED BY IDOCK:   -0.83 KCAL/MOL
REMARK 927      BINDING AFFINITY PREDICTED BY RF-SCORE:    0.00 PKD
ROOT
HETATM    1  O   UNL     1      -8.439   8.036  65.539  1.00  0.00    -0.140 OA 
HETATM    2  H   UNL     1      -8.501   8.069  64.592  1.00  0.00     0.000 HD 
HETATM    3  C   UNL     1      -8.042   9.286  66.086  1.00  0.00    -0.110 C  
ENDROOT
BRANCH   3   4
HETATM    4  C   UNL     1      -7.941   9.232  67.617  1.00  0.00    -0.103 C  
HETATM    5  O   UNL     1      -8.316  10.487  68.208  1.00  0.00    -0.114 OA 
HETATM    6  C   UNL     1      -9.725  10.745  68.321  1.00  0.00    -0.164 C  
HETATM    7  C   UNL     1     -10.447   9.616  69.099  1.00  0.00    -0.214 C  
HETATM    8  H   UNL     1     -10.731   7.204  66.906  1.00  0.00     0.000 HD 
HETATM    9  H   UNL     1      -8.411   7.041  69.961  1.00  0.00     0.000 HD 
HETATM   10  O   UNL     1     -10.077   9.580  70.486  1.00  0.00    -0.251 OA 
HETATM   11  C   UNL     1     -10.150   8.238  68.481  1.00  0.00    -0.197 C  
HETATM   12  H   UNL     1     -10.519   8.888  70.963  1.00  0.00     0.000 HD 
HETATM   13  C   UNL     1      -8.636   8.023  68.286  1.00  0.00    -0.130 C  
HETATM   14  O   UNL     1      -7.985   7.784  69.550  1.00  0.00    -0.112 OA 
HETATM   15  O   UNL     1     -10.914   8.055  67.287  1.00  0.00    -0.175 OA 
BRANCH   6  16
HETATM   16  O   UNL     1     -10.333  10.892  67.035  1.00  0.00    -0.211 OA 
BRANCH  16  17
HETATM   17  C   UNL     1     -10.414  12.129  66.467  1.00  0.00    -0.225 A  
HETATM   18  O   UNL     1     -10.480  11.440  64.148  1.00  0.00    -0.306 OA 
HETATM   19  C   UNL     1     -10.490  13.733  64.647  1.00  0.00    -0.433 A  
HETATM   20  H   UNL     1     -10.529  11.635  63.220  1.00  0.00     0.000 HD 
HETATM   21  C   UNL     1     -10.382  14.767  65.574  1.00  0.00    -0.364 A  
HETATM   22  C   UNL     1     -10.485  12.416  65.102  1.00  0.00    -0.292 A  
HETATM   23  O   UNL     1     -10.325  16.085  65.076  1.00  0.00    -0.543 OA 
HETATM   24  C   UNL     1     -10.173  17.169  65.929  1.00  0.00    -0.276 C  
HETATM   25  O   UNL     1     -10.090  18.321  65.521  1.00  0.00    -0.465 OA 
HETATM   26  C   UNL     1     -10.116  16.881  67.374  1.00  0.00    -0.279 C  
HETATM   27  C   UNL     1     -10.178  15.634  67.858  1.00  0.00    -0.239 C  
HETATM   28  C   UNL     1     -10.296  14.515  66.941  1.00  0.00    -0.264 A  
HETATM   29  C   UNL     1     -10.314  13.188  67.380  1.00  0.00    -0.239 A  
ENDBRANCH  16  17
ENDBRANCH   6  16
ENDBRANCH   3   4
TORSDOF 3
ENDMDL
MODEL      106
REMARK 921   NORMALIZED FREE ENERGY PREDICTED BY IDOCK:   -4.86 KCAL/MOL
REMARK 922        TOTAL FREE ENERGY PREDICTED BY IDOCK:   -6.67 KCAL/MOL
REMARK 923 INTER-LIGAND FREE ENERGY PREDICTED BY IDOCK:   -6.38 KCAL/MOL
REMARK 924 INTRA-LIGAND FREE ENERGY PREDICTED BY IDOCK:   -0.30 KCAL/MOL
REMARK 927      BINDING AFFINITY PREDICTED BY RF-SCORE:    0.00 PKD
ROOT
HETATM    1  O   UNL     1      -9.032   7.636  70.235  1.00  0.00    -0.145 OA 
HETATM    2  H   UNL     1      -9.086   7.663  71.183  1.00  0.00     0.000 HD 
HETATM    3  C   UNL     1     -10.244   7.175  69.651  1.00  0.00    -0.208 C  
ENDROOT
BRANCH   3   4
HETATM    4  C   UNL     1     -10.157   7.131  68.119  1.00  0.00    -0.169 C  
HETATM    5  O   UNL     1     -10.943   8.176  67.522  1.00  0.00    -0.115 OA 
HETATM    6  C   UNL     1     -10.357   9.487  67.506  1.00  0.00    -0.248 C  
HETATM    7  C   UNL     1      -8.969   9.479  66.815  1.00  0.00    -0.138 C  
HETATM    8  H   UNL     1      -6.963   8.252  69.090  1.00  0.00     0.000 HD 
HETATM    9  H   UNL     1      -7.934   6.386  65.878  1.00  0.00     0.000 HD 
HETATM   10  O   UNL     1      -9.059   9.217  65.406  1.00  0.00    -0.207 OA 
HETATM   11  C   UNL     1      -8.040   8.428  67.447  1.00  0.00    -0.106 C  
HETATM   12  H   UNL     1      -8.208   9.211  64.983  1.00  0.00     0.000 HD 
HETATM   13  C   UNL     1      -8.726   7.051  67.537  1.00  0.00    -0.120 C  
HETATM   14  O   UNL     1      -8.813   6.436  66.235  1.00  0.00    -0.137 OA 
HETATM   15  O   UNL     1      -7.537   8.900  68.700  1.00  0.00    -0.093 OA 
BRANCH   6  16
HETATM   16  O   UNL     1     -10.219  10.013  68.828  1.00  0.00    -0.170 OA 
BRANCH  16  17
HETATM   17  C   UNL     1     -10.850  11.176  69.159  1.00  0.00    -0.238 A  
HETATM   18  O   UNL     1      -9.731  12.635  67.586  1.00  0.00    -0.189 OA 
HETATM   19  C   UNL     1     -11.297  13.560  69.069  1.00  0.00    -0.336 A  
HETATM   20  H   UNL     1      -9.586  13.489  67.196  1.00  0.00     0.000 HD 
HETATM   21  C   UNL     1     -12.148  13.427  70.164  1.00  0.00    -0.344 A  
HETATM   22  C   UNL     1     -10.637  12.431  68.586  1.00  0.00    -0.218 A  
HETATM   23  O   UNL     1     -12.750  14.598  70.666  1.00  0.00    -0.335 OA 
HETATM   24  C   UNL     1     -13.576  14.559  71.781  1.00  0.00    -0.391 C  
HETATM   25  O   UNL     1     -14.087  15.565  72.258  1.00  0.00    -0.529 OA 
HETATM   26  C   UNL     1     -13.824  13.236  72.384  1.00  0.00    -0.630 C  
HETATM   27  C   UNL     1     -13.264  12.117  71.909  1.00  0.00    -0.474 C  
HETATM   28  C   UNL     1     -12.372  12.192  70.766  1.00  0.00    -0.391 A  
HETATM   29  C   UNL     1     -11.717  11.068  70.255  1.00  0.00    -0.445 A  
ENDBRANCH  16  17
ENDBRANCH   6  16
ENDBRANCH   3   4
TORSDOF 3
ENDMDL
MODEL      107
REMARK 921   NORMALIZED FREE ENERGY PREDICTED BY IDOCK:   -4.85 KCAL/MOL
REMARK 922        TOTAL FREE ENERGY PREDICTED BY IDOCK:   -6.66 KCAL/MOL
REMARK 923 INTER-LIGAND FREE ENERGY PREDICTED BY IDOCK:   -5.63 KCAL/MOL
REMARK 924 INTRA-LIGAND FREE ENERGY PREDICTED BY IDOCK:   -1.03 KCAL/MOL
REMARK 927      BINDING AFFINITY PREDICTED BY RF-SCORE:    0.00 PKD
ROOT
HETATM    1  O   UNL     1     -12.234  11.047  68.830  1.00  0.00    -0.693 OA 
HETATM    2  H   UNL     1     -13.155  10.870  68.682  1.00  0.00     0.000 HD 
HETATM    3  C   UNL     1     -11.469  10.889  67.642  1.00  0.00    -0.200 C  
ENDROOT
BRANCH   3   4
HETATM    4  C   UNL     1      -9.979  11.175  67.882  1.00  0.00    -0.173 C  
HETATM    5  O   UNL     1      -9.539  10.628  69.135  1.00  0.00    -0.201 OA 
HETATM    6  C   UNL     1      -9.259   9.219  69.155  1.00  0.00    -0.149 C  
HETATM    7  C   UNL     1      -8.219   8.834  68.072  1.00  0.00    -0.118 C  
HETATM    8  H   UNL     1      -9.949   8.785  65.296  1.00  0.00     0.000 HD 
HETATM    9  H   UNL     1      -7.284  11.429  66.097  1.00  0.00     0.000 HD 
HETATM   10  O   UNL     1      -6.913   9.362  68.352  1.00  0.00    -0.066 OA 
HETATM   11  C   UNL     1      -8.655   9.326  66.682  1.00  0.00    -0.127 C  
HETATM   12  H   UNL     1      -6.276   9.126  67.689  1.00  0.00     0.000 HD 
HETATM   13  C   UNL     1      -9.038  10.819  66.708  1.00  0.00    -0.154 C  
HETATM   14  O   UNL     1      -7.862  11.648  66.818  1.00  0.00    -0.160 OA 
HETATM   15  O   UNL     1      -9.681   8.481  66.155  1.00  0.00    -0.241 OA 
BRANCH   6  16
HETATM   16  O   UNL     1     -10.447   8.449  68.959  1.00  0.00    -0.222 OA 
BRANCH  16  17
HETATM   17  C   UNL     1     -10.866   7.597  69.937  1.00  0.00    -0.235 A  
HETATM   18  O   UNL     1     -12.568   9.006  70.920  1.00  0.00    -0.487 OA 
HETATM   19  C   UNL     1     -12.149   6.905  71.877  1.00  0.00    -0.370 A  
HETATM   20  H   UNL     1     -13.251   9.169  71.561  1.00  0.00     0.000 HD 
HETATM   21  C   UNL     1     -11.386   5.742  71.950  1.00  0.00    -0.204 A  
HETATM   22  C   UNL     1     -11.868   7.836  70.879  1.00  0.00    -0.239 A  
HETATM   23  O   UNL     1     -11.655   4.852  73.009  1.00  0.00    -0.290 OA 
HETATM   24  C   UNL     1     -10.911   3.692  73.179  1.00  0.00    -0.154 C  
HETATM   25  O   UNL     1     -11.101   2.917  74.108  1.00  0.00    -0.152 OA 
HETATM   26  C   UNL     1      -9.861   3.418  72.179  1.00  0.00    -0.236 C  
HETATM   27  C   UNL     1      -9.605   4.252  71.164  1.00  0.00    -0.249 C  
HETATM   28  C   UNL     1     -10.371   5.478  71.034  1.00  0.00    -0.307 A  
HETATM   29  C   UNL     1     -10.117   6.414  70.027  1.00  0.00    -0.208 A  
ENDBRANCH  16  17
ENDBRANCH   6  16
ENDBRANCH   3   4
TORSDOF 3
ENDMDL
MODEL      108
REMARK 921   NORMALIZED FREE ENERGY PREDICTED BY IDOCK:   -4.83 KCAL/MOL
REMARK 922        TOTAL FREE ENERGY PREDICTED BY IDOCK:   -6.63 KCAL/MOL
REMARK 923 INTER-LIGAND FREE ENERGY PREDICTED BY IDOCK:   -5.98 KCAL/MOL
REMARK 924 INTRA-LIGAND FREE ENERGY PREDICTED BY IDOCK:   -0.65 KCAL/MOL
REMARK 927      BINDING AFFINITY PREDICTED BY RF-SCORE:    0.00 PKD
ROOT
HETATM    1  O   UNL     1      -9.724   4.828  68.736  1.00  0.00    -0.155 OA 
HETATM    2  H   UNL     1     -10.390   4.596  68.100  1.00  0.00     0.000 HD 
HETATM    3  C   UNL     1     -10.261   4.934  70.048  1.00  0.00    -0.243 C  
ENDROOT
BRANCH   3   4
HETATM    4  C   UNL     1      -9.184   5.309  71.076  1.00  0.00    -0.147 C  
HETATM    5  O   UNL     1      -8.636   6.610  70.806  1.00  0.00    -0.133 OA 
HETATM    6  C   UNL     1      -9.420   7.735  71.235  1.00  0.00    -0.153 C  
HETATM    7  C   UNL     1      -9.742   7.656  72.749  1.00  0.00    -0.205 C  
HETATM    8  H   UNL     1     -12.176   5.476  72.925  1.00  0.00     0.000 HD 
HETATM    9  H   UNL     1      -8.627   4.815  74.232  1.00  0.00     0.000 HD 
HETATM   10  O   UNL     1      -8.575   7.824  73.569  1.00  0.00    -0.175 OA 
HETATM   11  C   UNL     1     -10.399   6.312  73.108  1.00  0.00    -0.222 C  
HETATM   12  H   UNL     1      -8.773   7.776  74.497  1.00  0.00     0.000 HD 
HETATM   13  C   UNL     1      -9.587   5.123  72.557  1.00  0.00    -0.149 C  
HETATM   14  O   UNL     1      -8.379   4.929  73.322  1.00  0.00    -0.103 OA 
HETATM   15  O   UNL     1     -11.770   6.305  72.703  1.00  0.00    -0.228 OA 
BRANCH   6  16
HETATM   16  O   UNL     1     -10.642   7.829  70.500  1.00  0.00    -0.218 OA 
BRANCH  16  17
HETATM   17  C   UNL     1     -10.936   8.979  69.828  1.00  0.00    -0.166 A  
HETATM   18  O   UNL     1     -12.318  10.023  71.517  1.00  0.00    -0.369 OA 
HETATM   19  C   UNL     1     -12.011  11.124  69.467  1.00  0.00    -0.425 A  
HETATM   20  H   UNL     1     -12.856  10.741  71.829  1.00  0.00     0.000 HD 
HETATM   21  C   UNL     1     -11.527  11.132  68.161  1.00  0.00    -0.303 A  
HETATM   22  C   UNL     1     -11.727  10.033  70.287  1.00  0.00    -0.251 A  
HETATM   23  O   UNL     1     -11.885  12.219  67.340  1.00  0.00    -0.480 OA 
HETATM   24  C   UNL     1     -11.481  12.281  66.013  1.00  0.00    -0.381 C  
HETATM   25  O   UNL     1     -11.804  13.198  65.268  1.00  0.00    -0.330 OA 
HETATM   26  C   UNL     1     -10.629  11.183  65.521  1.00  0.00    -0.289 C  
HETATM   27  C   UNL     1     -10.275  10.150  66.296  1.00  0.00    -0.288 C  
HETATM   28  C   UNL     1     -10.745  10.090  67.668  1.00  0.00    -0.340 A  
HETATM   29  C   UNL     1     -10.454   9.014  68.511  1.00  0.00    -0.232 A  
ENDBRANCH  16  17
ENDBRANCH   6  16
ENDBRANCH   3   4
TORSDOF 3
ENDMDL
MODEL      109
REMARK 921   NORMALIZED FREE ENERGY PREDICTED BY IDOCK:   -4.80 KCAL/MOL
REMARK 922        TOTAL FREE ENERGY PREDICTED BY IDOCK:   -6.60 KCAL/MOL
REMARK 923 INTER-LIGAND FREE ENERGY PREDICTED BY IDOCK:   -6.06 KCAL/MOL
REMARK 924 INTRA-LIGAND FREE ENERGY PREDICTED BY IDOCK:   -0.54 KCAL/MOL
REMARK 927      BINDING AFFINITY PREDICTED BY RF-SCORE:    0.00 PKD
ROOT
HETATM    1  O   UNL     1     -12.333  10.845  69.353  1.00  0.00    -0.491 OA 
HETATM    2  H   UNL     1     -12.741   9.990  69.416  1.00  0.00     0.000 HD 
HETATM    3  C   UNL     1     -11.625  11.003  68.130  1.00  0.00    -0.272 C  
ENDROOT
BRANCH   3   4
HETATM    4  C   UNL     1     -10.965  12.385  68.029  1.00  0.00    -0.225 C  
HETATM    5  O   UNL     1      -9.670  12.300  67.411  1.00  0.00    -0.182 OA 
HETATM    6  C   UNL     1      -9.651  12.200  65.978  1.00  0.00    -0.231 C  
HETATM    7  C   UNL     1     -10.421  13.372  65.318  1.00  0.00    -0.324 C  
HETATM    8  H   UNL     1     -13.568  12.545  65.663  1.00  0.00     0.000 HD 
HETATM    9  H   UNL     1     -11.912  15.449  67.549  1.00  0.00     0.000 HD 
HETATM   10  O   UNL     1      -9.760  14.634  65.498  1.00  0.00    -0.465 OA 
HETATM   11  C   UNL     1     -11.849  13.486  65.879  1.00  0.00    -0.372 C  
HETATM   12  H   UNL     1     -10.232  15.353  65.094  1.00  0.00     0.000 HD 
HETATM   13  C   UNL     1     -11.848  13.500  67.421  1.00  0.00    -0.384 C  
HETATM   14  O   UNL     1     -11.369  14.765  67.922  1.00  0.00    -0.289 OA 
HETATM   15  O   UNL     1     -12.686  12.474  65.316  1.00  0.00    -0.654 OA 
BRANCH   6  16
HETATM   16  O   UNL     1     -10.213  10.962  65.535  1.00  0.00    -0.253 OA 
BRANCH  16  17
HETATM   17  C   UNL     1      -9.387   9.930  65.201  1.00  0.00    -0.258 A  
HETATM   18  O   UNL     1      -8.483  10.857  63.157  1.00  0.00    -0.323 OA 
HETATM   19  C   UNL     1      -7.814   8.706  63.815  1.00  0.00    -0.148 A  
HETATM   20  H   UNL     1      -7.919  10.806  62.395  1.00  0.00     0.000 HD 
HETATM   21  C   UNL     1      -7.940   7.610  64.665  1.00  0.00    -0.136 A  
HETATM   22  C   UNL     1      -8.557   9.855  64.081  1.00  0.00    -0.191 A  
HETATM   23  O   UNL     1      -7.225   6.442  64.333  1.00  0.00    -0.057 OA 
HETATM   24  C   UNL     1      -7.330   5.292  65.103  1.00  0.00    -0.068 C  
HETATM   25  O   UNL     1      -6.744   4.254  64.819  1.00  0.00    -0.043 OA 
HETATM   26  C   UNL     1      -8.188   5.363  66.300  1.00  0.00    -0.110 C  
HETATM   27  C   UNL     1      -8.865   6.470  66.630  1.00  0.00    -0.135 C  
HETATM   28  C   UNL     1      -8.769   7.647  65.784  1.00  0.00    -0.151 A  
HETATM   29  C   UNL     1      -9.490   8.815  66.046  1.00  0.00    -0.302 A  
ENDBRANCH  16  17
ENDBRANCH   6  16
ENDBRANCH   3   4
TORSDOF 3
ENDMDL
MODEL      110
REMARK 921   NORMALIZED FREE ENERGY PREDICTED BY IDOCK:   -4.80 KCAL/MOL
REMARK 922        TOTAL FREE ENERGY PREDICTED BY IDOCK:   -6.60 KCAL/MOL
REMARK 923 INTER-LIGAND FREE ENERGY PREDICTED BY IDOCK:   -6.19 KCAL/MOL
REMARK 924 INTRA-LIGAND FREE ENERGY PREDICTED BY IDOCK:   -0.41 KCAL/MOL
REMARK 927      BINDING AFFINITY PREDICTED BY RF-SCORE:    0.00 PKD
ROOT
HETATM    1  O   UNL     1      -6.959   9.603  71.156  1.00  0.00    -0.304 OA 
HETATM    2  H   UNL     1      -6.672   9.846  70.284  1.00  0.00     0.000 HD 
HETATM    3  C   UNL     1      -7.349   8.237  71.221  1.00  0.00    -0.078 C  
ENDROOT
BRANCH   3   4
HETATM    4  C   UNL     1      -7.814   7.845  72.631  1.00  0.00    -0.120 C  
HETATM    5  O   UNL     1      -8.934   8.642  73.051  1.00  0.00    -0.326 OA 
HETATM    6  C   UNL     1     -10.219   8.261  72.534  1.00  0.00    -0.316 C  
HETATM    7  C   UNL     1     -10.541   6.779  72.851  1.00  0.00    -0.250 C  
HETATM    8  H   UNL     1      -8.794   5.103  70.650  1.00  0.00     0.000 HD 
HETATM    9  H   UNL     1      -8.011   5.139  74.408  1.00  0.00     0.000 HD 
HETATM   10  O   UNL     1     -10.747   6.549  74.254  1.00  0.00    -0.420 OA 
HETATM   11  C   UNL     1      -9.415   5.849  72.367  1.00  0.00    -0.146 C  
HETATM   12  H   UNL     1     -10.944   5.641  74.448  1.00  0.00     0.000 HD 
HETATM   13  C   UNL     1      -8.036   6.331  72.859  1.00  0.00    -0.108 C  
HETATM   14  O   UNL     1      -7.875   6.069  74.268  1.00  0.00    -0.097 OA 
HETATM   15  O   UNL     1      -9.489   5.677  70.949  1.00  0.00    -0.160 OA 
BRANCH   6  16
HETATM   16  O   UNL     1     -10.293   8.465  71.121  1.00  0.00    -0.200 OA 
BRANCH  16  17
HETATM   17  C   UNL     1     -10.804   9.633  70.636  1.00  0.00    -0.320 A  
HETATM   18  O   UNL     1     -12.772   9.758  72.038  1.00  0.00    -0.388 OA 
HETATM   19  C   UNL     1     -12.429  11.423  70.420  1.00  0.00    -0.345 A  
HETATM   20  H   UNL     1     -13.570  10.189  72.322  1.00  0.00     0.000 HD 
HETATM   21  C   UNL     1     -11.715  11.921  69.333  1.00  0.00    -0.339 A  
HETATM   22  C   UNL     1     -11.977  10.266  71.053  1.00  0.00    -0.385 A  
HETATM   23  O   UNL     1     -12.234  13.054  68.676  1.00  0.00    -0.223 OA 
HETATM   24  C   UNL     1     -11.607  13.587  67.558  1.00  0.00    -0.350 C  
HETATM   25  O   UNL     1     -12.054  14.552  66.949  1.00  0.00    -0.399 OA 
HETATM   26  C   UNL     1     -10.358  12.938  67.119  1.00  0.00    -0.239 C  
HETATM   27  C   UNL     1      -9.851  11.867  67.741  1.00  0.00    -0.187 C  
HETATM   28  C   UNL     1     -10.549  11.306  68.884  1.00  0.00    -0.239 A  
HETATM   29  C   UNL     1     -10.099  10.158  69.543  1.00  0.00    -0.258 A  
ENDBRANCH  16  17
ENDBRANCH   6  16
ENDBRANCH   3   4
TORSDOF 3
ENDMDL
MODEL      111
REMARK 921   NORMALIZED FREE ENERGY PREDICTED BY IDOCK:   -4.79 KCAL/MOL
REMARK 922        TOTAL FREE ENERGY PREDICTED BY IDOCK:   -6.59 KCAL/MOL
REMARK 923 INTER-LIGAND FREE ENERGY PREDICTED BY IDOCK:   -5.84 KCAL/MOL
REMARK 924 INTRA-LIGAND FREE ENERGY PREDICTED BY IDOCK:   -0.75 KCAL/MOL
REMARK 927      BINDING AFFINITY PREDICTED BY RF-SCORE:    0.00 PKD
ROOT
HETATM    1  O   UNL     1      -7.047   9.290  66.655  1.00  0.00    -0.080 OA 
HETATM    2  H   UNL     1      -6.364   8.884  67.175  1.00  0.00     0.000 HD 
HETATM    3  C   UNL     1      -8.321   8.717  66.916  1.00  0.00    -0.108 C  
ENDROOT
BRANCH   3   4
HETATM    4  C   UNL     1      -9.424   9.374  66.075  1.00  0.00    -0.241 C  
HETATM    5  O   UNL     1     -10.712   9.220  66.693  1.00  0.00    -0.145 OA 
HETATM    6  C   UNL     1     -11.016  10.120  67.771  1.00  0.00    -0.277 C  
HETATM    7  C   UNL     1     -10.869  11.599  67.332  1.00  0.00    -0.250 C  
HETATM    8  H   UNL     1      -7.639  12.118  67.371  1.00  0.00     0.000 HD 
HETATM    9  H   UNL     1      -9.732  11.970  64.156  1.00  0.00     0.000 HD 
HETATM   10  O   UNL     1     -11.869  11.991  66.377  1.00  0.00    -0.578 OA 
HETATM   11  C   UNL     1      -9.483  11.863  66.719  1.00  0.00    -0.201 C  
HETATM   12  H   UNL     1     -11.778  12.897  66.108  1.00  0.00     0.000 HD 
HETATM   13  C   UNL     1      -9.143  10.828  65.629  1.00  0.00    -0.194 C  
HETATM   14  O   UNL     1      -9.905  11.077  64.430  1.00  0.00    -0.249 OA 
HETATM   15  O   UNL     1      -8.495  11.955  67.749  1.00  0.00    -0.139 OA 
BRANCH   6  16
HETATM   16  O   UNL     1     -10.174   9.881  68.901  1.00  0.00    -0.179 OA 
BRANCH  16  17
HETATM   17  C   UNL     1     -10.609   9.064  69.903  1.00  0.00    -0.228 A  
HETATM   18  O   UNL     1     -11.880  10.697  71.155  1.00  0.00    -0.328 OA 
HETATM   19  C   UNL     1     -11.730   8.506  71.982  1.00  0.00    -0.431 A  
HETATM   20  H   UNL     1     -12.431  10.943  71.889  1.00  0.00     0.000 HD 
HETATM   21  C   UNL     1     -11.190   7.224  71.913  1.00  0.00    -0.248 A  
HETATM   22  C   UNL     1     -11.418   9.425  70.982  1.00  0.00    -0.334 A  
HETATM   23  O   UNL     1     -11.475   6.339  72.972  1.00  0.00    -0.157 OA 
HETATM   24  C   UNL     1     -10.940   5.059  73.002  1.00  0.00    -0.295 C  
HETATM   25  O   UNL     1     -11.145   4.280  73.925  1.00  0.00    -0.248 OA 
HETATM   26  C   UNL     1     -10.099   4.658  71.858  1.00  0.00    -0.266 C  
HETATM   27  C   UNL     1      -9.831   5.487  70.842  1.00  0.00    -0.241 C  
HETATM   28  C   UNL     1     -10.370   6.835  70.857  1.00  0.00    -0.222 A  
HETATM   29  C   UNL     1     -10.084   7.764  69.852  1.00  0.00    -0.203 A  
ENDBRANCH  16  17
ENDBRANCH   6  16
ENDBRANCH   3   4
TORSDOF 3
ENDMDL
MODEL      112
REMARK 921   NORMALIZED FREE ENERGY PREDICTED BY IDOCK:   -4.77 KCAL/MOL
REMARK 922        TOTAL FREE ENERGY PREDICTED BY IDOCK:   -6.56 KCAL/MOL
REMARK 923 INTER-LIGAND FREE ENERGY PREDICTED BY IDOCK:   -6.01 KCAL/MOL
REMARK 924 INTRA-LIGAND FREE ENERGY PREDICTED BY IDOCK:   -0.55 KCAL/MOL
REMARK 927      BINDING AFFINITY PREDICTED BY RF-SCORE:    0.00 PKD
ROOT
HETATM    1  O   UNL     1     -11.589  11.188  69.155  1.00  0.00    -0.266 OA 
HETATM    2  H   UNL     1     -11.992  10.365  69.402  1.00  0.00     0.000 HD 
HETATM    3  C   UNL     1     -11.874  11.532  67.806  1.00  0.00    -0.154 C  
ENDROOT
BRANCH   3   4
HETATM    4  C   UNL     1     -11.221  12.863  67.408  1.00  0.00    -0.291 C  
HETATM    5  O   UNL     1      -9.951  12.650  66.769  1.00  0.00    -0.225 OA 
HETATM    6  C   UNL     1      -9.988  12.268  65.384  1.00  0.00    -0.244 C  
HETATM    7  C   UNL     1     -10.786  13.291  64.536  1.00  0.00    -0.411 C  
HETATM    8  H   UNL     1     -13.915  12.567  65.160  1.00  0.00     0.000 HD 
HETATM    9  H   UNL     1     -12.192  15.777  66.368  1.00  0.00     0.000 HD 
HETATM   10  O   UNL     1     -10.120  14.560  64.437  1.00  0.00    -0.560 OA 
HETATM   11  C   UNL     1     -12.190  13.523  65.119  1.00  0.00    -0.428 C  
HETATM   12  H   UNL     1     -10.609  15.187  63.918  1.00  0.00     0.000 HD 
HETATM   13  C   UNL     1     -12.129  13.841  66.626  1.00  0.00    -0.429 C  
HETATM   14  O   UNL     1     -11.634  15.177  66.848  1.00  0.00    -0.285 OA 
HETATM   15  O   UNL     1     -13.047  12.424  64.800  1.00  0.00    -0.806 OA 
BRANCH   6  16
HETATM   16  O   UNL     1     -10.564  10.971  65.218  1.00  0.00    -0.268 OA 
BRANCH  16  17
HETATM   17  C   UNL     1      -9.758   9.871  65.219  1.00  0.00    -0.313 A  
HETATM   18  O   UNL     1      -9.878   9.357  67.581  1.00  0.00    -0.160 OA 
HETATM   19  C   UNL     1      -8.518   8.030  66.203  1.00  0.00    -0.141 A  
HETATM   20  H   UNL     1      -9.646   8.825  68.333  1.00  0.00     0.000 HD 
HETATM   21  C   UNL     1      -7.930   7.784  64.965  1.00  0.00    -0.134 A  
HETATM   22  C   UNL     1      -9.417   9.089  66.325  1.00  0.00    -0.242 A  
HETATM   23  O   UNL     1      -6.979   6.747  64.891  1.00  0.00    -0.051 OA 
HETATM   24  C   UNL     1      -6.314   6.465  63.705  1.00  0.00    -0.029 C  
HETATM   25  O   UNL     1      -5.460   5.591  63.620  1.00  0.00    -0.013 OA 
HETATM   26  C   UNL     1      -6.679   7.271  62.525  1.00  0.00    -0.064 C  
HETATM   27  C   UNL     1      -7.587   8.253  62.583  1.00  0.00    -0.118 C  
HETATM   28  C   UNL     1      -8.239   8.553  63.846  1.00  0.00    -0.128 A  
HETATM   29  C   UNL     1      -9.157   9.598  63.982  1.00  0.00    -0.246 A  
ENDBRANCH  16  17
ENDBRANCH   6  16
ENDBRANCH   3   4
TORSDOF 3
ENDMDL
MODEL      113
REMARK 921   NORMALIZED FREE ENERGY PREDICTED BY IDOCK:   -4.76 KCAL/MOL
REMARK 922        TOTAL FREE ENERGY PREDICTED BY IDOCK:   -6.55 KCAL/MOL
REMARK 923 INTER-LIGAND FREE ENERGY PREDICTED BY IDOCK:   -5.94 KCAL/MOL
REMARK 924 INTRA-LIGAND FREE ENERGY PREDICTED BY IDOCK:   -0.61 KCAL/MOL
REMARK 927      BINDING AFFINITY PREDICTED BY RF-SCORE:    0.00 PKD
ROOT
HETATM    1  O   UNL     1      -9.437   9.122  69.988  1.00  0.00    -0.173 OA 
HETATM    2  H   UNL     1      -9.458   9.618  70.798  1.00  0.00     0.000 HD 
HETATM    3  C   UNL     1     -10.525   9.456  69.137  1.00  0.00    -0.217 C  
ENDROOT
BRANCH   3   4
HETATM    4  C   UNL     1     -10.491   8.655  67.828  1.00  0.00    -0.224 C  
HETATM    5  O   UNL     1     -10.865   9.473  66.707  1.00  0.00    -0.117 OA 
HETATM    6  C   UNL     1      -9.851  10.346  66.185  1.00  0.00    -0.222 C  
HETATM    7  C   UNL     1      -8.572   9.560  65.798  1.00  0.00    -0.138 C  
HETATM    8  H   UNL     1      -7.088   9.009  68.662  1.00  0.00     0.000 HD 
HETATM    9  H   UNL     1      -8.726   6.254  66.548  1.00  0.00     0.000 HD 
HETATM   10  O   UNL     1      -8.778   8.697  64.669  1.00  0.00    -0.350 OA 
HETATM   11  C   UNL     1      -8.065   8.709  66.975  1.00  0.00    -0.100 C  
HETATM   12  H   UNL     1      -7.994   8.215  64.433  1.00  0.00     0.000 HD 
HETATM   13  C   UNL     1      -9.195   7.850  67.576  1.00  0.00    -0.136 C  
HETATM   14  O   UNL     1      -9.522   6.750  66.702  1.00  0.00    -0.159 OA 
HETATM   15  O   UNL     1      -7.401   9.534  67.936  1.00  0.00    -0.082 OA 
BRANCH   6  16
HETATM   16  O   UNL     1      -9.508  11.366  67.125  1.00  0.00    -0.173 OA 
BRANCH  16  17
HETATM   17  C   UNL     1      -9.927  12.646  66.912  1.00  0.00    -0.230 A  
HETATM   18  O   UNL     1     -12.178  12.155  66.174  1.00  0.00    -0.611 OA 
HETATM   19  C   UNL     1     -11.463  14.390  66.212  1.00  0.00    -0.361 A  
HETATM   20  H   UNL     1     -13.036  12.428  65.868  1.00  0.00     0.000 HD 
HETATM   21  C   UNL     1     -10.450  15.331  66.380  1.00  0.00    -0.303 A  
HETATM   22  C   UNL     1     -11.186  13.047  66.462  1.00  0.00    -0.302 A  
HETATM   23  O   UNL     1     -10.745  16.671  66.059  1.00  0.00    -0.262 OA 
HETATM   24  C   UNL     1      -9.779  17.663  66.157  1.00  0.00    -0.213 C  
HETATM   25  O   UNL     1      -9.999  18.829  65.854  1.00  0.00    -0.508 OA 
HETATM   26  C   UNL     1      -8.450  17.256  66.650  1.00  0.00    -0.292 C  
HETATM   27  C   UNL     1      -8.162  15.987  66.966  1.00  0.00    -0.255 C  
HETATM   28  C   UNL     1      -9.180  14.963  66.816  1.00  0.00    -0.281 A  
HETATM   29  C   UNL     1      -8.926  13.614  67.080  1.00  0.00    -0.235 A  
ENDBRANCH  16  17
ENDBRANCH   6  16
ENDBRANCH   3   4
TORSDOF 3
ENDMDL
MODEL      114
REMARK 921   NORMALIZED FREE ENERGY PREDICTED BY IDOCK:   -4.75 KCAL/MOL
REMARK 922        TOTAL FREE ENERGY PREDICTED BY IDOCK:   -6.54 KCAL/MOL
REMARK 923 INTER-LIGAND FREE ENERGY PREDICTED BY IDOCK:   -6.76 KCAL/MOL
REMARK 924 INTRA-LIGAND FREE ENERGY PREDICTED BY IDOCK:    0.22 KCAL/MOL
REMARK 927      BINDING AFFINITY PREDICTED BY RF-SCORE:    0.00 PKD
ROOT
HETATM    1  O   UNL     1     -11.984  15.967  63.878  1.00  0.00    -1.267 OA 
HETATM    2  H   UNL     1     -11.717  15.910  62.969  1.00  0.00     0.000 HD 
HETATM    3  C   UNL     1     -11.220  15.100  64.707  1.00  0.00    -0.388 C  
ENDROOT
BRANCH   3   4
HETATM    4  C   UNL     1     -11.651  15.193  66.178  1.00  0.00    -0.080 C  
HETATM    5  O   UNL     1     -12.305  13.988  66.607  1.00  0.00    -0.451 OA 
HETATM    6  C   UNL     1     -11.451  12.881  66.940  1.00  0.00    -0.341 C  
HETATM    7  C   UNL     1     -10.412  13.273  68.020  1.00  0.00    -0.242 C  
HETATM    8  H   UNL     1      -8.143  14.950  66.364  1.00  0.00     0.000 HD 
HETATM    9  H   UNL     1     -10.537  16.546  68.906  1.00  0.00     0.000 HD 
HETATM   10  O   UNL     1     -11.017  13.527  69.298  1.00  0.00    -0.372 OA 
HETATM   11  C   UNL     1      -9.617  14.522  67.602  1.00  0.00    -0.214 C  
HETATM   12  H   UNL     1     -10.380  13.767  69.960  1.00  0.00     0.000 HD 
HETATM   13  C   UNL     1     -10.555  15.664  67.162  1.00  0.00    -0.308 C  
HETATM   14  O   UNL     1     -11.210  16.257  68.302  1.00  0.00    -0.352 OA 
HETATM   15  O   UNL     1      -8.634  14.179  66.622  1.00  0.00    -0.129 OA 
BRANCH   6  16
HETATM   16  O   UNL     1     -10.765  12.388  65.786  1.00  0.00    -0.255 OA 
BRANCH  16  17
HETATM   17  C   UNL     1     -10.330  11.095  65.763  1.00  0.00    -0.260 A  
HETATM   18  O   UNL     1     -11.612  10.266  67.641  1.00  0.00    -0.602 OA 
HETATM   19  C   UNL     1     -10.137   8.806  66.545  1.00  0.00    -0.349 A  
HETATM   20  H   UNL     1     -11.874   9.569  68.231  1.00  0.00     0.000 HD 
HETATM   21  C   UNL     1      -9.135   8.584  65.605  1.00  0.00    -0.132 A  
HETATM   22  C   UNL     1     -10.716  10.071  66.630  1.00  0.00    -0.058 A  
HETATM   23  O   UNL     1      -8.527   7.313  65.587  1.00  0.00    -0.139 OA 
HETATM   24  C   UNL     1      -7.490   7.024  64.711  1.00  0.00    -0.096 C  
HETATM   25  O   UNL     1      -6.923   5.938  64.696  1.00  0.00    -0.049 OA 
HETATM   26  C   UNL     1      -7.086   8.091  63.777  1.00  0.00    -0.078 C  
HETATM   27  C   UNL     1      -7.663   9.299  63.779  1.00  0.00    -0.117 C  
HETATM   28  C   UNL     1      -8.718   9.588  64.733  1.00  0.00    -0.225 A  
HETATM   29  C   UNL     1      -9.324  10.845  64.820  1.00  0.00    -0.259 A  
ENDBRANCH  16  17
ENDBRANCH   6  16
ENDBRANCH   3   4
TORSDOF 3
ENDMDL
MODEL      115
REMARK 921   NORMALIZED FREE ENERGY PREDICTED BY IDOCK:   -4.72 KCAL/MOL
REMARK 922        TOTAL FREE ENERGY PREDICTED BY IDOCK:   -6.51 KCAL/MOL
REMARK 923 INTER-LIGAND FREE ENERGY PREDICTED BY IDOCK:   -5.96 KCAL/MOL
REMARK 924 INTRA-LIGAND FREE ENERGY PREDICTED BY IDOCK:   -0.55 KCAL/MOL
REMARK 927      BINDING AFFINITY PREDICTED BY RF-SCORE:    0.00 PKD
ROOT
HETATM    1  O   UNL     1      -8.467   5.462  71.476  1.00  0.00    -0.123 OA 
HETATM    2  H   UNL     1      -7.979   6.073  72.014  1.00  0.00     0.000 HD 
HETATM    3  C   UNL     1      -9.187   6.124  70.446  1.00  0.00    -0.153 C  
ENDROOT
BRANCH   3   4
HETATM    4  C   UNL     1      -9.977   5.135  69.576  1.00  0.00    -0.231 C  
HETATM    5  O   UNL     1     -11.053   5.792  68.886  1.00  0.00    -0.265 OA 
HETATM    6  C   UNL     1     -10.699   6.530  67.705  1.00  0.00    -0.307 C  
HETATM    7  C   UNL     1      -9.949   5.637  66.683  1.00  0.00    -0.181 C  
HETATM    8  H   UNL     1      -6.909   5.453  67.877  1.00  0.00     0.000 HD 
HETATM    9  H   UNL     1      -9.350   2.491  67.806  1.00  0.00     0.000 HD 
HETATM   10  O   UNL     1     -10.794   4.625  66.114  1.00  0.00    -0.539 OA 
HETATM   11  C   UNL     1      -8.735   4.949  67.331  1.00  0.00    -0.103 C  
HETATM   12  H   UNL     1     -10.335   4.078  65.488  1.00  0.00     0.000 HD 
HETATM   13  C   UNL     1      -9.124   4.242  68.645  1.00  0.00    -0.129 C  
HETATM   14  O   UNL     1      -9.874   3.040  68.378  1.00  0.00    -0.001 OA 
HETATM   15  O   UNL     1      -7.658   5.878  67.478  1.00  0.00    -0.090 OA 
BRANCH   6  16
HETATM   16  O   UNL     1      -9.887   7.663  68.022  1.00  0.00    -0.151 OA 
BRANCH  16  17
HETATM   17  C   UNL     1     -10.314   8.913  67.683  1.00  0.00    -0.251 A  
HETATM   18  O   UNL     1      -9.732   8.852  65.335  1.00  0.00    -0.455 OA 
HETATM   19  C   UNL     1     -10.658  10.819  66.220  1.00  0.00    -0.257 A  
HETATM   20  H   UNL     1      -9.689   9.252  64.474  1.00  0.00     0.000 HD 
HETATM   21  C   UNL     1     -11.091  11.563  67.315  1.00  0.00    -0.293 A  
HETATM   22  C   UNL     1     -10.253   9.500  66.418  1.00  0.00    -0.232 A  
HETATM   23  O   UNL     1     -11.433  12.911  67.092  1.00  0.00    -0.298 OA 
HETATM   24  C   UNL     1     -11.832  13.733  68.137  1.00  0.00    -0.376 C  
HETATM   25  O   UNL     1     -12.105  14.917  67.976  1.00  0.00    -0.252 OA 
HETATM   26  C   UNL     1     -11.921  13.120  69.475  1.00  0.00    -0.354 C  
HETATM   27  C   UNL     1     -11.607  11.838  69.696  1.00  0.00    -0.393 C  
HETATM   28  C   UNL     1     -11.153  11.011  68.592  1.00  0.00    -0.294 A  
HETATM   29  C   UNL     1     -10.762   9.680  68.768  1.00  0.00    -0.234 A  
ENDBRANCH  16  17
ENDBRANCH   6  16
ENDBRANCH   3   4
TORSDOF 3
ENDMDL
MODEL      116
REMARK 921   NORMALIZED FREE ENERGY PREDICTED BY IDOCK:   -4.72 KCAL/MOL
REMARK 922        TOTAL FREE ENERGY PREDICTED BY IDOCK:   -6.51 KCAL/MOL
REMARK 923 INTER-LIGAND FREE ENERGY PREDICTED BY IDOCK:   -6.16 KCAL/MOL
REMARK 924 INTRA-LIGAND FREE ENERGY PREDICTED BY IDOCK:   -0.35 KCAL/MOL
REMARK 927      BINDING AFFINITY PREDICTED BY RF-SCORE:    0.00 PKD
ROOT
HETATM    1  O   UNL     1     -11.383  17.699  68.531  1.00  0.00     0.003 OA 
HETATM    2  H   UNL     1     -12.295  17.605  68.778  1.00  0.00     0.000 HD 
HETATM    3  C   UNL     1     -10.518  17.042  69.448  1.00  0.00    -0.250 C  
ENDROOT
BRANCH   3   4
HETATM    4  C   UNL     1      -9.043  17.194  69.049  1.00  0.00    -0.123 C  
HETATM    5  O   UNL     1      -8.440  15.916  68.789  1.00  0.00    -0.177 OA 
HETATM    6  C   UNL     1      -8.713  15.329  67.506  1.00  0.00    -0.178 C  
HETATM    7  C   UNL     1      -8.325  16.287  66.351  1.00  0.00    -0.330 C  
HETATM    8  H   UNL     1     -10.782  18.445  66.255  1.00  0.00     0.000 HD 
HETATM    9  H   UNL     1      -7.225  19.318  67.407  1.00  0.00     0.000 HD 
HETATM   10  O   UNL     1      -6.905  16.479  66.251  1.00  0.00    -0.133 OA 
HETATM   11  C   UNL     1      -8.992  17.663  66.521  1.00  0.00    -0.262 C  
HETATM   12  H   UNL     1      -6.667  17.066  65.543  1.00  0.00     0.000 HD 
HETATM   13  C   UNL     1      -8.760  18.229  67.936  1.00  0.00    -0.265 C  
HETATM   14  O   UNL     1      -7.399  18.682  68.090  1.00  0.00    -0.242 OA 
HETATM   15  O   UNL     1     -10.371  17.596  66.150  1.00  0.00    -0.367 OA 
BRANCH   6  16
HETATM   16  O   UNL     1     -10.093  14.976  67.379  1.00  0.00    -0.228 OA 
BRANCH  16  17
HETATM   17  C   UNL     1     -10.533  13.790  67.888  1.00  0.00    -0.246 A  
HETATM   18  O   UNL     1      -9.937  12.371  66.021  1.00  0.00    -0.246 OA 
HETATM   19  C   UNL     1     -11.027  11.413  67.866  1.00  0.00    -0.295 A  
HETATM   20  H   UNL     1      -9.894  11.521  65.597  1.00  0.00     0.000 HD 
HETATM   21  C   UNL     1     -11.685  11.553  69.085  1.00  0.00    -0.329 A  
HETATM   22  C   UNL     1     -10.471  12.542  67.265  1.00  0.00    -0.220 A  
HETATM   23  O   UNL     1     -12.291  10.406  69.634  1.00  0.00    -0.157 OA 
HETATM   24  C   UNL     1     -13.004  10.468  70.823  1.00  0.00    -0.330 C  
HETATM   25  O   UNL     1     -13.567   9.493  71.306  1.00  0.00    -0.360 OA 
HETATM   26  C   UNL     1     -13.061  11.777  71.501  1.00  0.00    -0.389 C  
HETATM   27  C   UNL     1     -12.481  12.872  70.993  1.00  0.00    -0.374 C  
HETATM   28  C   UNL     1     -11.776  12.786  69.727  1.00  0.00    -0.352 A  
HETATM   29  C   UNL     1     -11.195  13.903  69.119  1.00  0.00    -0.311 A  
ENDBRANCH  16  17
ENDBRANCH   6  16
ENDBRANCH   3   4
TORSDOF 3
ENDMDL
MODEL      117
REMARK 921   NORMALIZED FREE ENERGY PREDICTED BY IDOCK:   -4.70 KCAL/MOL
REMARK 922        TOTAL FREE ENERGY PREDICTED BY IDOCK:   -6.49 KCAL/MOL
REMARK 923 INTER-LIGAND FREE ENERGY PREDICTED BY IDOCK:   -5.41 KCAL/MOL
REMARK 924 INTRA-LIGAND FREE ENERGY PREDICTED BY IDOCK:   -1.07 KCAL/MOL
REMARK 927      BINDING AFFINITY PREDICTED BY RF-SCORE:    0.00 PKD
ROOT
HETATM    1  O   UNL     1      -9.610  15.948  68.022  1.00  0.00    -0.209 OA 
HETATM    2  H   UNL     1      -9.754  16.071  68.953  1.00  0.00     0.000 HD 
HETATM    3  C   UNL     1     -10.828  15.989  67.290  1.00  0.00    -0.255 C  
ENDROOT
BRANCH   3   4
HETATM    4  C   UNL     1     -10.595  15.790  65.786  1.00  0.00    -0.355 C  
HETATM    5  O   UNL     1      -9.688  14.703  65.538  1.00  0.00    -0.320 OA 
HETATM    6  C   UNL     1     -10.240  13.379  65.615  1.00  0.00    -0.292 C  
HETATM    7  C   UNL     1     -11.454  13.215  64.666  1.00  0.00    -0.333 C  
HETATM    8  H   UNL     1     -13.906  14.686  66.256  1.00  0.00     0.000 HD 
HETATM    9  H   UNL     1     -12.313  16.073  63.050  1.00  0.00     0.000 HD 
HETATM   10  O   UNL     1     -11.077  13.259  63.280  1.00  0.00    -0.426 OA 
HETATM   11  C   UNL     1     -12.508  14.307  64.917  1.00  0.00    -0.390 C  
HETATM   12  H   UNL     1     -11.821  13.159  62.698  1.00  0.00     0.000 HD 
HETATM   13  C   UNL     1     -11.875  15.712  64.921  1.00  0.00     0.041 C  
HETATM   14  O   UNL     1     -11.527  16.120  63.581  1.00  0.00    -0.625 OA 
HETATM   15  O   UNL     1     -13.255  14.013  66.101  1.00  0.00    -0.124 OA 
BRANCH   6  16
HETATM   16  O   UNL     1     -10.643  13.060  66.950  1.00  0.00    -0.252 OA 
BRANCH  16  17
HETATM   17  C   UNL     1      -9.876  12.217  67.700  1.00  0.00    -0.196 A  
HETATM   18  O   UNL     1      -7.842  13.526  67.721  1.00  0.00    -0.136 OA 
HETATM   19  C   UNL     1      -7.852  11.436  68.788  1.00  0.00    -0.128 A  
HETATM   20  H   UNL     1      -6.937  13.661  67.979  1.00  0.00     0.000 HD 
HETATM   21  C   UNL     1      -8.491  10.234  69.081  1.00  0.00    -0.162 A  
HETATM   22  C   UNL     1      -8.547  12.415  68.080  1.00  0.00    -0.180 A  
HETATM   23  O   UNL     1      -7.740   9.242  69.743  1.00  0.00    -0.079 OA 
HETATM   24  C   UNL     1      -8.288   8.000  70.033  1.00  0.00    -0.123 C  
HETATM   25  O   UNL     1      -7.649   7.109  70.579  1.00  0.00    -0.086 OA 
HETATM   26  C   UNL     1      -9.697   7.785  69.654  1.00  0.00    -0.172 C  
HETATM   27  C   UNL     1     -10.422   8.724  69.034  1.00  0.00    -0.220 C  
HETATM   28  C   UNL     1      -9.812  10.000  68.707  1.00  0.00    -0.173 A  
HETATM   29  C   UNL     1     -10.499  11.001  68.014  1.00  0.00    -0.219 A  
ENDBRANCH  16  17
ENDBRANCH   6  16
ENDBRANCH   3   4
TORSDOF 3
ENDMDL
MODEL      118
REMARK 921   NORMALIZED FREE ENERGY PREDICTED BY IDOCK:   -4.67 KCAL/MOL
REMARK 922        TOTAL FREE ENERGY PREDICTED BY IDOCK:   -6.45 KCAL/MOL
REMARK 923 INTER-LIGAND FREE ENERGY PREDICTED BY IDOCK:   -6.39 KCAL/MOL
REMARK 924 INTRA-LIGAND FREE ENERGY PREDICTED BY IDOCK:   -0.06 KCAL/MOL
REMARK 927      BINDING AFFINITY PREDICTED BY RF-SCORE:    0.00 PKD
ROOT
HETATM    1  O   UNL     1     -11.172  11.057  63.072  1.00  0.00    -0.762 OA 
HETATM    2  H   UNL     1     -10.470  10.767  62.501  1.00  0.00     0.000 HD 
HETATM    3  C   UNL     1     -10.929  12.359  63.586  1.00  0.00    -0.470 C  
ENDROOT
BRANCH   3   4
HETATM    4  C   UNL     1     -12.063  12.827  64.509  1.00  0.00    -0.414 C  
HETATM    5  O   UNL     1     -12.181  11.977  65.662  1.00  0.00    -0.503 OA 
HETATM    6  C   UNL     1     -11.240  12.205  66.723  1.00  0.00    -0.322 C  
HETATM    7  C   UNL     1     -11.278  13.676  67.208  1.00  0.00    -0.309 C  
HETATM    8  H   UNL     1      -9.595  15.304  64.923  1.00  0.00     0.000 HD 
HETATM    9  H   UNL     1     -13.386  15.645  65.420  1.00  0.00     0.000 HD 
HETATM   10  O   UNL     1     -12.507  14.003  67.876  1.00  0.00    -0.487 OA 
HETATM   11  C   UNL     1     -11.087  14.653  66.035  1.00  0.00    -0.332 C  
HETATM   12  H   UNL     1     -12.530  14.905  68.173  1.00  0.00     0.000 HD 
HETATM   13  C   UNL     1     -12.046  14.331  64.872  1.00  0.00    -0.435 C  
HETATM   14  O   UNL     1     -13.396  14.721  65.198  1.00  0.00    -0.160 OA 
HETATM   15  O   UNL     1      -9.712  14.701  65.647  1.00  0.00    -0.328 OA 
BRANCH   6  16
HETATM   16  O   UNL     1      -9.909  11.879  66.317  1.00  0.00    -0.214 OA 
BRANCH  16  17
HETATM   17  C   UNL     1      -9.439  10.612  66.504  1.00  0.00    -0.169 A  
HETATM   18  O   UNL     1     -11.229   9.783  67.905  1.00  0.00    -0.509 OA 
HETATM   19  C   UNL     1      -9.420   8.366  67.424  1.00  0.00    -0.185 A  
HETATM   20  H   UNL     1     -11.641   9.094  68.413  1.00  0.00     0.000 HD 
HETATM   21  C   UNL     1      -8.158   8.166  66.873  1.00  0.00    -0.104 A  
HETATM   22  C   UNL     1     -10.045   9.600  67.251  1.00  0.00    -0.211 A  
HETATM   23  O   UNL     1      -7.527   6.930  67.120  1.00  0.00    -0.090 OA 
HETATM   24  C   UNL     1      -6.250   6.667  66.643  1.00  0.00    -0.040 C  
HETATM   25  O   UNL     1      -5.667   5.614  66.870  1.00  0.00    -0.016 OA 
HETATM   26  C   UNL     1      -5.607   7.720  65.836  1.00  0.00    -0.033 C  
HETATM   27  C   UNL     1      -6.201   8.894  65.588  1.00  0.00    -0.052 C  
HETATM   28  C   UNL     1      -7.520   9.159  66.133  1.00  0.00    -0.095 A  
HETATM   29  C   UNL     1      -8.171  10.383  65.952  1.00  0.00    -0.150 A  
ENDBRANCH  16  17
ENDBRANCH   6  16
ENDBRANCH   3   4
TORSDOF 3
ENDMDL
MODEL      119
REMARK 921   NORMALIZED FREE ENERGY PREDICTED BY IDOCK:   -4.66 KCAL/MOL
REMARK 922        TOTAL FREE ENERGY PREDICTED BY IDOCK:   -6.44 KCAL/MOL
REMARK 923 INTER-LIGAND FREE ENERGY PREDICTED BY IDOCK:   -5.41 KCAL/MOL
REMARK 924 INTRA-LIGAND FREE ENERGY PREDICTED BY IDOCK:   -1.03 KCAL/MOL
REMARK 927      BINDING AFFINITY PREDICTED BY RF-SCORE:    0.00 PKD
ROOT
HETATM    1  O   UNL     1     -12.118  11.125  70.369  1.00  0.00    -0.326 OA 
HETATM    2  H   UNL     1     -12.911  10.666  70.621  1.00  0.00     0.000 HD 
HETATM    3  C   UNL     1     -12.224  11.685  69.067  1.00  0.00    -0.099 C  
ENDROOT
BRANCH   3   4
HETATM    4  C   UNL     1     -10.943  12.425  68.659  1.00  0.00    -0.247 C  
HETATM    5  O   UNL     1      -9.809  11.542  68.656  1.00  0.00    -0.199 OA 
HETATM    6  C   UNL     1      -9.666  10.689  67.509  1.00  0.00    -0.166 C  
HETATM    7  C   UNL     1      -9.638  11.509  66.194  1.00  0.00    -0.225 C  
HETATM    8  H   UNL     1     -12.779  12.253  65.659  1.00  0.00     0.000 HD 
HETATM    9  H   UNL     1     -10.119  14.836  66.653  1.00  0.00     0.000 HD 
HETATM   10  O   UNL     1      -8.452  12.310  66.071  1.00  0.00    -0.377 OA 
HETATM   11  C   UNL     1     -10.863  12.434  66.088  1.00  0.00    -0.273 C  
HETATM   12  H   UNL     1      -8.435  12.812  65.265  1.00  0.00     0.000 HD 
HETATM   13  C   UNL     1     -11.047  13.272  67.369  1.00  0.00    -0.278 C  
HETATM   14  O   UNL     1     -10.055  14.316  67.445  1.00  0.00    -0.243 OA 
HETATM   15  O   UNL     1     -12.023  11.682  65.725  1.00  0.00    -0.279 OA 
BRANCH   6  16
HETATM   16  O   UNL     1     -10.722   9.728  67.440  1.00  0.00    -0.268 OA 
BRANCH  16  17
HETATM   17  C   UNL     1     -10.519   8.469  67.923  1.00  0.00    -0.201 A  
HETATM   18  O   UNL     1     -10.312   9.027  70.268  1.00  0.00    -0.190 OA 
HETATM   19  C   UNL     1     -10.049   6.789  69.611  1.00  0.00    -0.197 A  
HETATM   20  H   UNL     1     -10.178   8.782  71.177  1.00  0.00     0.000 HD 
HETATM   21  C   UNL     1      -9.935   5.832  68.606  1.00  0.00    -0.155 A  
HETATM   22  C   UNL     1     -10.322   8.110  69.258  1.00  0.00    -0.217 A  
HETATM   23  O   UNL     1      -9.597   4.519  68.991  1.00  0.00    -0.153 OA 
HETATM   24  C   UNL     1      -9.421   3.516  68.049  1.00  0.00    -0.160 C  
HETATM   25  O   UNL     1      -9.095   2.375  68.353  1.00  0.00    -0.126 OA 
HETATM   26  C   UNL     1      -9.645   3.878  66.636  1.00  0.00    -0.215 C  
HETATM   27  C   UNL     1      -9.976   5.120  66.260  1.00  0.00    -0.232 C  
HETATM   28  C   UNL     1     -10.114   6.159  67.264  1.00  0.00    -0.202 A  
HETATM   29  C   UNL     1     -10.406   7.485  66.931  1.00  0.00    -0.379 A  
ENDBRANCH  16  17
ENDBRANCH   6  16
ENDBRANCH   3   4
TORSDOF 3
ENDMDL
MODEL      120
REMARK 921   NORMALIZED FREE ENERGY PREDICTED BY IDOCK:   -4.62 KCAL/MOL
REMARK 922        TOTAL FREE ENERGY PREDICTED BY IDOCK:   -6.39 KCAL/MOL
REMARK 923 INTER-LIGAND FREE ENERGY PREDICTED BY IDOCK:   -5.62 KCAL/MOL
REMARK 924 INTRA-LIGAND FREE ENERGY PREDICTED BY IDOCK:   -0.78 KCAL/MOL
REMARK 927      BINDING AFFINITY PREDICTED BY RF-SCORE:    0.00 PKD
ROOT
HETATM    1  O   UNL     1      -9.243  11.184  63.503  1.00  0.00    -0.300 OA 
HETATM    2  H   UNL     1      -9.998  11.415  62.976  1.00  0.00     0.000 HD 
HETATM    3  C   UNL     1      -9.342   9.861  64.014  1.00  0.00    -0.223 C  
ENDROOT
BRANCH   3   4
HETATM    4  C   UNL     1      -8.121   9.488  64.867  1.00  0.00    -0.131 C  
HETATM    5  O   UNL     1      -7.727  10.577  65.717  1.00  0.00    -0.143 OA 
HETATM    6  C   UNL     1      -8.494  10.763  66.917  1.00  0.00    -0.131 C  
HETATM    7  C   UNL     1      -8.522   9.472  67.775  1.00  0.00    -0.119 C  
HETATM    8  H   UNL     1     -10.720   7.572  66.272  1.00  0.00     0.000 HD 
HETATM    9  H   UNL     1      -6.953   6.837  66.324  1.00  0.00     0.000 HD 
HETATM   10  O   UNL     1      -7.238   9.156  68.334  1.00  0.00    -0.075 OA 
HETATM   11  C   UNL     1      -9.004   8.267  66.951  1.00  0.00    -0.146 C  
HETATM   12  H   UNL     1      -7.255   8.365  68.860  1.00  0.00     0.000 HD 
HETATM   13  C   UNL     1      -8.227   8.144  65.625  1.00  0.00    -0.133 C  
HETATM   14  O   UNL     1      -6.888   7.663  65.859  1.00  0.00    -0.055 OA 
HETATM   15  O   UNL     1     -10.423   8.317  66.780  1.00  0.00    -0.318 OA 
BRANCH   6  16
HETATM   16  O   UNL     1      -9.835  11.159  66.622  1.00  0.00    -0.191 OA 
BRANCH  16  17
HETATM   17  C   UNL     1     -10.260  12.407  66.971  1.00  0.00    -0.220 A  
HETATM   18  O   UNL     1     -12.364  11.783  67.991  1.00  0.00    -0.391 OA 
HETATM   19  C   UNL     1     -11.804  14.059  67.854  1.00  0.00    -0.411 A  
HETATM   20  H   UNL     1     -13.176  12.003  68.433  1.00  0.00     0.000 HD 
HETATM   21  C   UNL     1     -10.964  15.069  67.394  1.00  0.00    -0.315 A  
HETATM   22  C   UNL     1     -11.453  12.730  67.620  1.00  0.00    -0.334 A  
HETATM   23  O   UNL     1     -11.379  16.402  67.591  1.00  0.00    -0.145 OA 
HETATM   24  C   UNL     1     -10.621  17.467  67.124  1.00  0.00    -0.264 C  
HETATM   25  O   UNL     1     -10.974  18.633  67.253  1.00  0.00    -0.387 OA 
HETATM   26  C   UNL     1      -9.349  17.140  66.453  1.00  0.00    -0.286 C  
HETATM   27  C   UNL     1      -8.941  15.878  66.269  1.00  0.00    -0.381 C  
HETATM   28  C   UNL     1      -9.773  14.782  66.732  1.00  0.00    -0.264 A  
HETATM   29  C   UNL     1      -9.427  13.443  66.524  1.00  0.00    -0.252 A  
ENDBRANCH  16  17
ENDBRANCH   6  16
ENDBRANCH   3   4
TORSDOF 3
ENDMDL
MODEL      121
REMARK 921   NORMALIZED FREE ENERGY PREDICTED BY IDOCK:   -4.62 KCAL/MOL
REMARK 922        TOTAL FREE ENERGY PREDICTED BY IDOCK:   -6.39 KCAL/MOL
REMARK 923 INTER-LIGAND FREE ENERGY PREDICTED BY IDOCK:   -6.05 KCAL/MOL
REMARK 924 INTRA-LIGAND FREE ENERGY PREDICTED BY IDOCK:   -0.34 KCAL/MOL
REMARK 927      BINDING AFFINITY PREDICTED BY RF-SCORE:    0.00 PKD
ROOT
HETATM    1  O   UNL     1      -9.051  14.663  65.806  1.00  0.00    -0.486 OA 
HETATM    2  H   UNL     1      -8.375  14.233  65.297  1.00  0.00     0.000 HD 
HETATM    3  C   UNL     1     -10.262  13.919  65.811  1.00  0.00    -0.318 C  
ENDROOT
BRANCH   3   4
HETATM    4  C   UNL     1     -11.355  14.615  66.634  1.00  0.00    -0.356 C  
HETATM    5  O   UNL     1     -12.282  13.663  67.181  1.00  0.00    -0.372 OA 
HETATM    6  C   UNL     1     -11.857  12.962  68.361  1.00  0.00    -0.318 C  
HETATM    7  C   UNL     1     -11.459  13.945  69.490  1.00  0.00    -0.274 C  
HETATM    8  H   UNL     1      -8.475  14.973  68.628  1.00  0.00     0.000 HD 
HETATM    9  H   UNL     1     -11.596  17.208  68.567  1.00  0.00     0.000 HD 
HETATM   10  O   UNL     1     -12.585  14.670  70.010  1.00  0.00    -0.472 OA 
HETATM   11  C   UNL     1     -10.411  14.960  69.001  1.00  0.00    -0.247 C  
HETATM   12  H   UNL     1     -12.341  15.273  70.702  1.00  0.00     0.000 HD 
HETATM   13  C   UNL     1     -10.850  15.631  67.685  1.00  0.00    -0.307 C  
HETATM   14  O   UNL     1     -11.907  16.583  67.922  1.00  0.00     0.190 OA 
HETATM   15  O   UNL     1      -9.122  14.346  68.929  1.00  0.00    -0.161 OA 
BRANCH   6  16
HETATM   16  O   UNL     1     -10.755  12.095  68.083  1.00  0.00    -0.196 OA 
BRANCH  16  17
HETATM   17  C   UNL     1     -10.825  10.781  68.440  1.00  0.00    -0.232 A  
HETATM   18  O   UNL     1     -11.416  11.085  70.766  1.00  0.00    -0.398 OA 
HETATM   19  C   UNL     1     -11.102   8.905  69.955  1.00  0.00    -0.180 A  
HETATM   20  H   UNL     1     -11.627  10.742  71.626  1.00  0.00     0.000 HD 
HETATM   21  C   UNL     1     -10.712   8.042  68.935  1.00  0.00    -0.065 A  
HETATM   22  C   UNL     1     -11.137  10.276  69.703  1.00  0.00    -0.274 A  
HETATM   23  O   UNL     1     -10.626   6.669  69.240  1.00  0.00    -0.204 OA 
HETATM   24  C   UNL     1     -10.203   5.747  68.293  1.00  0.00    -0.187 C  
HETATM   25  O   UNL     1     -10.089   4.552  68.541  1.00  0.00    -0.082 OA 
HETATM   26  C   UNL     1      -9.890   6.265  66.948  1.00  0.00    -0.196 C  
HETATM   27  C   UNL     1      -9.977   7.566  66.645  1.00  0.00    -0.270 C  
HETATM   28  C   UNL     1     -10.383   8.514  67.666  1.00  0.00    -0.317 A  
HETATM   29  C   UNL     1     -10.443   9.890  67.427  1.00  0.00    -0.325 A  
ENDBRANCH  16  17
ENDBRANCH   6  16
ENDBRANCH   3   4
TORSDOF 3
ENDMDL
MODEL      122
REMARK 921   NORMALIZED FREE ENERGY PREDICTED BY IDOCK:   -4.61 KCAL/MOL
REMARK 922        TOTAL FREE ENERGY PREDICTED BY IDOCK:   -6.38 KCAL/MOL
REMARK 923 INTER-LIGAND FREE ENERGY PREDICTED BY IDOCK:   -5.78 KCAL/MOL
REMARK 924 INTRA-LIGAND FREE ENERGY PREDICTED BY IDOCK:   -0.60 KCAL/MOL
REMARK 927      BINDING AFFINITY PREDICTED BY RF-SCORE:    0.00 PKD
ROOT
HETATM    1  O   UNL     1     -10.676   5.307  65.651  1.00  0.00    -0.482 OA 
HETATM    2  H   UNL     1     -11.496   5.454  65.195  1.00  0.00     0.000 HD 
HETATM    3  C   UNL     1     -10.419   6.319  66.615  1.00  0.00    -0.186 C  
ENDROOT
BRANCH   3   4
HETATM    4  C   UNL     1      -9.094   6.081  67.352  1.00  0.00    -0.106 C  
HETATM    5  O   UNL     1      -8.556   7.309  67.868  1.00  0.00    -0.121 OA 
HETATM    6  C   UNL     1      -9.134   7.797  69.090  1.00  0.00    -0.145 C  
HETATM    7  C   UNL     1      -9.062   6.733  70.215  1.00  0.00    -0.153 C  
HETATM    8  H   UNL     1     -11.495   4.666  69.504  1.00  0.00     0.000 HD 
HETATM    9  H   UNL     1      -7.777   3.762  69.198  1.00  0.00     0.000 HD 
HETATM   10  O   UNL     1      -7.715   6.481  70.647  1.00  0.00    -0.100 OA 
HETATM   11  C   UNL     1      -9.684   5.401  69.762  1.00  0.00    -0.184 C  
HETATM   12  H   UNL     1      -7.671   5.829  71.336  1.00  0.00     0.000 HD 
HETATM   13  C   UNL     1      -9.114   4.947  68.404  1.00  0.00    -0.114 C  
HETATM   14  O   UNL     1      -7.765   4.459  68.552  1.00  0.00    -0.073 OA 
HETATM   15  O   UNL     1     -11.111   5.488  69.783  1.00  0.00    -0.256 OA 
BRANCH   6  16
HETATM   16  O   UNL     1     -10.496   8.189  68.902  1.00  0.00    -0.215 OA 
BRANCH  16  17
HETATM   17  C   UNL     1     -10.802   9.510  68.756  1.00  0.00    -0.142 A  
HETATM   18  O   UNL     1     -11.375   9.988  71.058  1.00  0.00    -0.347 OA 
HETATM   19  C   UNL     1     -11.575  11.699  69.464  1.00  0.00    -0.397 A  
HETATM   20  H   UNL     1     -11.660  10.582  71.742  1.00  0.00     0.000 HD 
HETATM   21  C   UNL     1     -11.545  12.123  68.138  1.00  0.00    -0.337 A  
HETATM   22  C   UNL     1     -11.221  10.384  69.761  1.00  0.00    -0.293 A  
HETATM   23  O   UNL     1     -11.970  13.438  67.865  1.00  0.00    -0.351 OA 
HETATM   24  C   UNL     1     -12.012  13.924  66.565  1.00  0.00    -0.439 C  
HETATM   25  O   UNL     1     -12.407  15.052  66.296  1.00  0.00     0.084 OA 
HETATM   26  C   UNL     1     -11.554  13.017  65.496  1.00  0.00    -0.382 C  
HETATM   27  C   UNL     1     -11.140  11.769  65.746  1.00  0.00    -0.351 C  
HETATM   28  C   UNL     1     -11.144  11.272  67.110  1.00  0.00    -0.364 A  
HETATM   29  C   UNL     1     -10.773   9.963  67.430  1.00  0.00    -0.323 A  
ENDBRANCH  16  17
ENDBRANCH   6  16
ENDBRANCH   3   4
TORSDOF 3
ENDMDL
MODEL      123
REMARK 921   NORMALIZED FREE ENERGY PREDICTED BY IDOCK:   -4.59 KCAL/MOL
REMARK 922        TOTAL FREE ENERGY PREDICTED BY IDOCK:   -6.35 KCAL/MOL
REMARK 923 INTER-LIGAND FREE ENERGY PREDICTED BY IDOCK:   -5.67 KCAL/MOL
REMARK 924 INTRA-LIGAND FREE ENERGY PREDICTED BY IDOCK:   -0.68 KCAL/MOL
REMARK 927      BINDING AFFINITY PREDICTED BY RF-SCORE:    0.00 PKD
ROOT
HETATM    1  O   UNL     1      -9.734   7.047  70.351  1.00  0.00    -0.176 OA 
HETATM    2  H   UNL     1      -9.699   7.549  71.156  1.00  0.00     0.000 HD 
HETATM    3  C   UNL     1     -10.598   7.643  69.393  1.00  0.00    -0.215 C  
ENDROOT
BRANCH   3   4
HETATM    4  C   UNL     1     -10.653   6.831  68.092  1.00  0.00    -0.230 C  
HETATM    5  O   UNL     1     -10.807   7.688  66.949  1.00  0.00    -0.328 OA 
HETATM    6  C   UNL     1      -9.619   8.343  66.475  1.00  0.00    -0.236 C  
HETATM    7  C   UNL     1      -8.497   7.321  66.160  1.00  0.00    -0.142 C  
HETATM    8  H   UNL     1      -7.292   6.538  69.099  1.00  0.00     0.000 HD 
HETATM    9  H   UNL     1      -9.322   4.117  66.918  1.00  0.00     0.000 HD 
HETATM   10  O   UNL     1      -8.809   6.496  65.026  1.00  0.00    -0.360 OA 
HETATM   11  C   UNL     1      -8.223   6.406  67.366  1.00  0.00    -0.116 C  
HETATM   12  H   UNL     1      -8.121   5.870  64.833  1.00  0.00     0.000 HD 
HETATM   13  C   UNL     1      -9.526   5.788  67.912  1.00  0.00    -0.110 C  
HETATM   14  O   UNL     1     -10.014   4.758  67.028  1.00  0.00    -0.188 OA 
HETATM   15  O   UNL     1      -7.462   7.103  68.355  1.00  0.00    -0.100 OA 
BRANCH   6  16
HETATM   16  O   UNL     1      -9.134   9.292  67.427  1.00  0.00    -0.126 OA 
BRANCH  16  17
HETATM   17  C   UNL     1      -9.596  10.575  67.393  1.00  0.00    -0.158 A  
HETATM   18  O   UNL     1      -8.340  11.344  65.473  1.00  0.00    -0.376 OA 
HETATM   19  C   UNL     1      -9.729  12.865  66.600  1.00  0.00    -0.254 A  
HETATM   20  H   UNL     1      -8.096  12.019  64.851  1.00  0.00     0.000 HD 
HETATM   21  C   UNL     1     -10.558  13.175  67.675  1.00  0.00    -0.228 A  
HETATM   22  C   UNL     1      -9.237  11.567  66.478  1.00  0.00    -0.194 A  
HETATM   23  O   UNL     1     -10.986  14.511  67.804  1.00  0.00    -0.263 OA 
HETATM   24  C   UNL     1     -11.778  14.912  68.871  1.00  0.00    -0.315 C  
HETATM   25  O   UNL     1     -12.138  16.073  69.024  1.00  0.00    -0.293 OA 
HETATM   26  C   UNL     1     -12.181  13.870  69.834  1.00  0.00    -0.393 C  
HETATM   27  C   UNL     1     -11.787  12.596  69.716  1.00  0.00    -0.379 C  
HETATM   28  C   UNL     1     -10.925  12.212  68.612  1.00  0.00    -0.284 A  
HETATM   29  C   UNL     1     -10.438  10.911  68.463  1.00  0.00    -0.209 A  
ENDBRANCH  16  17
ENDBRANCH   6  16
ENDBRANCH   3   4
TORSDOF 3
ENDMDL
MODEL      124
REMARK 921   NORMALIZED FREE ENERGY PREDICTED BY IDOCK:   -4.56 KCAL/MOL
REMARK 922        TOTAL FREE ENERGY PREDICTED BY IDOCK:   -6.32 KCAL/MOL
REMARK 923 INTER-LIGAND FREE ENERGY PREDICTED BY IDOCK:   -5.93 KCAL/MOL
REMARK 924 INTRA-LIGAND FREE ENERGY PREDICTED BY IDOCK:   -0.39 KCAL/MOL
REMARK 927      BINDING AFFINITY PREDICTED BY RF-SCORE:    0.00 PKD
ROOT
HETATM    1  O   UNL     1     -11.474  16.230  64.317  1.00  0.00    -0.995 OA 
HETATM    2  H   UNL     1     -11.290  15.729  63.532  1.00  0.00     0.000 HD 
HETATM    3  C   UNL     1     -10.289  16.532  65.041  1.00  0.00     0.128 C  
ENDROOT
BRANCH   3   4
HETATM    4  C   UNL     1     -10.588  17.341  66.311  1.00  0.00    -0.184 C  
HETATM    5  O   UNL     1     -11.580  16.690  67.122  1.00  0.00     0.430 OA 
HETATM    6  C   UNL     1     -11.124  15.600  67.939  1.00  0.00    -0.324 C  
HETATM    7  C   UNL     1      -9.960  16.034  68.864  1.00  0.00    -0.232 C  
HETATM    8  H   UNL     1      -7.353  16.075  66.888  1.00  0.00     0.000 HD 
HETATM    9  H   UNL     1      -8.950  19.236  68.371  1.00  0.00     0.000 HD 
HETATM   10  O   UNL     1     -10.380  16.960  69.879  1.00  0.00    -0.098 OA 
HETATM   11  C   UNL     1      -8.820  16.680  68.058  1.00  0.00    -0.206 C  
HETATM   12  H   UNL     1      -9.666  17.226  70.446  1.00  0.00     0.000 HD 
HETATM   13  C   UNL     1      -9.348  17.785  67.123  1.00  0.00    -0.264 C  
HETATM   14  O   UNL     1      -9.711  18.963  67.873  1.00  0.00    -0.305 OA 
HETATM   15  O   UNL     1      -8.056  15.676  67.385  1.00  0.00    -0.145 OA 
BRANCH   6  16
HETATM   16  O   UNL     1     -10.700  14.493  67.139  1.00  0.00    -0.278 OA 
BRANCH  16  17
HETATM   17  C   UNL     1     -10.552  13.265  67.715  1.00  0.00    -0.241 A  
HETATM   18  O   UNL     1      -9.171  12.248  66.008  1.00  0.00    -0.373 OA 
HETATM   19  C   UNL     1      -9.822  10.955  67.855  1.00  0.00    -0.189 A  
HETATM   20  H   UNL     1      -8.681  11.513  65.658  1.00  0.00     0.000 HD 
HETATM   21  C   UNL     1     -10.574  10.803  69.017  1.00  0.00    -0.219 A  
HETATM   22  C   UNL     1      -9.832  12.185  67.200  1.00  0.00    -0.197 A  
HETATM   23  O   UNL     1     -10.592   9.529  69.620  1.00  0.00    -0.209 OA 
HETATM   24  C   UNL     1     -11.351   9.282  70.755  1.00  0.00    -0.287 C  
HETATM   25  O   UNL     1     -11.410   8.177  71.281  1.00  0.00    -0.254 OA 
HETATM   26  C   UNL     1     -12.101  10.420  71.320  1.00  0.00    -0.461 C  
HETATM   27  C   UNL     1     -12.084  11.636  70.760  1.00  0.00    -0.383 C  
HETATM   28  C   UNL     1     -11.313  11.856  69.550  1.00  0.00    -0.306 A  
HETATM   29  C   UNL     1     -11.295  13.089  68.890  1.00  0.00    -0.333 A  
ENDBRANCH  16  17
ENDBRANCH   6  16
ENDBRANCH   3   4
TORSDOF 3
ENDMDL
MODEL      125
REMARK 921   NORMALIZED FREE ENERGY PREDICTED BY IDOCK:   -4.56 KCAL/MOL
REMARK 922        TOTAL FREE ENERGY PREDICTED BY IDOCK:   -6.32 KCAL/MOL
REMARK 923 INTER-LIGAND FREE ENERGY PREDICTED BY IDOCK:   -5.43 KCAL/MOL
REMARK 924 INTRA-LIGAND FREE ENERGY PREDICTED BY IDOCK:   -0.88 KCAL/MOL
REMARK 927      BINDING AFFINITY PREDICTED BY RF-SCORE:    0.00 PKD
ROOT
HETATM    1  O   UNL     1     -10.854  12.578  63.102  1.00  0.00    -0.643 OA 
HETATM    2  H   UNL     1     -10.759  11.876  62.470  1.00  0.00     0.000 HD 
HETATM    3  C   UNL     1     -12.080  12.483  63.815  1.00  0.00    -0.529 C  
ENDROOT
BRANCH   3   4
HETATM    4  C   UNL     1     -12.233  13.619  64.837  1.00  0.00    -0.414 C  
HETATM    5  O   UNL     1     -12.659  13.116  66.115  1.00  0.00    -0.398 OA 
HETATM    6  C   UNL     1     -11.642  12.527  66.941  1.00  0.00    -0.370 C  
HETATM    7  C   UNL     1     -10.467  13.509  67.180  1.00  0.00    -0.256 C  
HETATM    8  H   UNL     1      -8.748  13.376  64.399  1.00  0.00     0.000 HD 
HETATM    9  H   UNL     1     -10.780  16.441  65.500  1.00  0.00     0.000 HD 
HETATM   10  O   UNL     1     -10.845  14.631  67.994  1.00  0.00    -0.248 OA 
HETATM   11  C   UNL     1      -9.907  14.041  65.849  1.00  0.00    -0.281 C  
HETATM   12  H   UNL     1     -10.125  15.233  68.140  1.00  0.00     0.000 HD 
HETATM   13  C   UNL     1     -11.030  14.584  64.943  1.00  0.00    -0.410 C  
HETATM   14  O   UNL     1     -11.520  15.848  65.436  1.00  0.00    -0.046 OA 
HETATM   15  O   UNL     1      -9.094  13.048  65.220  1.00  0.00     0.519 OA 
BRANCH   6  16
HETATM   16  O   UNL     1     -11.135  11.322  66.363  1.00  0.00    -0.276 OA 
BRANCH  16  17
HETATM   17  C   UNL     1     -10.294  10.530  67.087  1.00  0.00    -0.235 A  
HETATM   18  O   UNL     1      -8.492  10.377  65.480  1.00  0.00    -0.155 OA 
HETATM   19  C   UNL     1      -8.307   9.199  67.502  1.00  0.00    -0.116 A  
HETATM   20  H   UNL     1      -7.636  10.063  65.211  1.00  0.00     0.000 HD 
HETATM   21  C   UNL     1      -8.867   8.761  68.699  1.00  0.00    -0.138 A  
HETATM   22  C   UNL     1      -9.037  10.068  66.692  1.00  0.00    -0.147 A  
HETATM   23  O   UNL     1      -8.130   7.834  69.463  1.00  0.00    -0.121 OA 
HETATM   24  C   UNL     1      -8.636   7.315  70.646  1.00  0.00    -0.142 C  
HETATM   25  O   UNL     1      -8.030   6.484  71.313  1.00  0.00    -0.105 OA 
HETATM   26  C   UNL     1      -9.955   7.809  71.085  1.00  0.00    -0.194 C  
HETATM   27  C   UNL     1     -10.659   8.696  70.371  1.00  0.00    -0.244 C  
HETATM   28  C   UNL     1     -10.124   9.193  69.116  1.00  0.00    -0.199 A  
HETATM   29  C   UNL     1     -10.833  10.080  68.301  1.00  0.00    -0.286 A  
ENDBRANCH  16  17
ENDBRANCH   6  16
ENDBRANCH   3   4
TORSDOF 3
ENDMDL
MODEL      126
REMARK 921   NORMALIZED FREE ENERGY PREDICTED BY IDOCK:   -4.54 KCAL/MOL
REMARK 922        TOTAL FREE ENERGY PREDICTED BY IDOCK:   -6.30 KCAL/MOL
REMARK 923 INTER-LIGAND FREE ENERGY PREDICTED BY IDOCK:   -5.52 KCAL/MOL
REMARK 924 INTRA-LIGAND FREE ENERGY PREDICTED BY IDOCK:   -0.78 KCAL/MOL
REMARK 927      BINDING AFFINITY PREDICTED BY RF-SCORE:    0.00 PKD
ROOT
HETATM    1  O   UNL     1     -12.803  14.146  66.169  1.00  0.00    -0.502 OA 
HETATM    2  H   UNL     1     -13.471  13.508  65.949  1.00  0.00     0.000 HD 
HETATM    3  C   UNL     1     -12.371  14.014  67.516  1.00  0.00    -0.077 C  
ENDROOT
BRANCH   3   4
HETATM    4  C   UNL     1     -11.290  15.046  67.871  1.00  0.00    -0.333 C  
HETATM    5  O   UNL     1     -10.270  14.467  68.702  1.00  0.00    -0.232 OA 
HETATM    6  C   UNL     1      -9.276  13.673  68.035  1.00  0.00    -0.197 C  
HETATM    7  C   UNL     1      -8.577  14.472  66.906  1.00  0.00    -0.179 C  
HETATM    8  H   UNL     1     -10.738  14.422  64.449  1.00  0.00     0.000 HD 
HETATM    9  H   UNL     1      -9.856  17.581  66.445  1.00  0.00     0.000 HD 
HETATM   10  O   UNL     1      -7.760  15.539  67.412  1.00  0.00    -0.157 OA 
HETATM   11  C   UNL     1      -9.604  15.068  65.928  1.00  0.00    -0.321 C  
HETATM   12  H   UNL     1      -7.332  16.028  66.720  1.00  0.00     0.000 HD 
HETATM   13  C   UNL     1     -10.711  15.838  66.675  1.00  0.00    -0.287 C  
HETATM   14  O   UNL     1     -10.211  17.094  67.179  1.00  0.00    -0.301 OA 
HETATM   15  O   UNL     1     -10.104  14.054  65.053  1.00  0.00    -0.369 OA 
BRANCH   6  16
HETATM   16  O   UNL     1      -9.844  12.482  67.485  1.00  0.00    -0.194 OA 
BRANCH  16  17
HETATM   17  C   UNL     1      -9.754  11.311  68.178  1.00  0.00    -0.185 A  
HETATM   18  O   UNL     1     -12.115  10.798  68.300  1.00  0.00    -0.805 OA 
HETATM   19  C   UNL     1     -10.589   9.356  69.348  1.00  0.00    -0.235 A  
HETATM   20  H   UNL     1     -12.837  10.242  68.570  1.00  0.00     0.000 HD 
HETATM   21  C   UNL     1      -9.290   9.062  69.755  1.00  0.00    -0.171 A  
HETATM   22  C   UNL     1     -10.814  10.494  68.576  1.00  0.00    -0.234 A  
HETATM   23  O   UNL     1      -9.106   7.939  70.587  1.00  0.00    -0.150 OA 
HETATM   24  C   UNL     1      -7.850   7.603  71.072  1.00  0.00    -0.090 C  
HETATM   25  O   UNL     1      -7.667   6.651  71.822  1.00  0.00    -0.095 OA 
HETATM   26  C   UNL     1      -6.719   8.446  70.643  1.00  0.00    -0.038 C  
HETATM   27  C   UNL     1      -6.882   9.509  69.845  1.00  0.00    -0.067 C  
HETATM   28  C   UNL     1      -8.213   9.862  69.385  1.00  0.00    -0.147 A  
HETATM   29  C   UNL     1      -8.454  10.989  68.594  1.00  0.00    -0.157 A  
ENDBRANCH  16  17
ENDBRANCH   6  16
ENDBRANCH   3   4
TORSDOF 3
ENDMDL
MODEL      127
REMARK 921   NORMALIZED FREE ENERGY PREDICTED BY IDOCK:   -4.53 KCAL/MOL
REMARK 922        TOTAL FREE ENERGY PREDICTED BY IDOCK:   -6.29 KCAL/MOL
REMARK 923 INTER-LIGAND FREE ENERGY PREDICTED BY IDOCK:   -5.60 KCAL/MOL
REMARK 924 INTRA-LIGAND FREE ENERGY PREDICTED BY IDOCK:   -0.68 KCAL/MOL
REMARK 927      BINDING AFFINITY PREDICTED BY RF-SCORE:    0.00 PKD
ROOT
HETATM    1  O   UNL     1      -9.930   8.154  70.473  1.00  0.00    -0.185 OA 
HETATM    2  H   UNL     1      -9.878   8.682  71.261  1.00  0.00     0.000 HD 
HETATM    3  C   UNL     1     -10.821   8.718  69.519  1.00  0.00    -0.142 C  
ENDROOT
BRANCH   3   4
HETATM    4  C   UNL     1     -10.905   7.865  68.245  1.00  0.00     0.079 C  
HETATM    5  O   UNL     1     -10.843   8.683  67.066  1.00  0.00    -0.197 OA 
HETATM    6  C   UNL     1      -9.537   9.130  66.666  1.00  0.00    -0.203 C  
HETATM    7  C   UNL     1      -8.565   7.938  66.474  1.00  0.00    -0.142 C  
HETATM    8  H   UNL     1      -7.711   7.116  69.523  1.00  0.00     0.000 HD 
HETATM    9  H   UNL     1      -9.923   4.932  67.271  1.00  0.00     0.000 HD 
HETATM   10  O   UNL     1      -8.916   7.119  65.347  1.00  0.00    -0.374 OA 
HETATM   11  C   UNL     1      -8.523   7.047  67.728  1.00  0.00    -0.120 C  
HETATM   12  H   UNL     1      -8.320   6.388  65.230  1.00  0.00     0.000 HD 
HETATM   13  C   UNL     1      -9.940   6.658  68.189  1.00  0.00    -0.147 C  
HETATM   14  O   UNL     1     -10.516   5.674  67.305  1.00  0.00    -0.217 OA 
HETATM   15  O   UNL     1      -7.737   7.666  68.750  1.00  0.00    -0.112 OA 
BRANCH   6  16
HETATM   16  O   UNL     1      -8.982  10.038  67.620  1.00  0.00    -0.131 OA 
BRANCH  16  17
HETATM   17  C   UNL     1      -9.019  11.379  67.374  1.00  0.00    -0.154 A  
HETATM   18  O   UNL     1      -7.748  12.119  69.295  1.00  0.00    -0.333 OA 
HETATM   19  C   UNL     1      -8.618  13.729  67.825  1.00  0.00    -0.184 A  
HETATM   20  H   UNL     1      -7.355  12.804  69.823  1.00  0.00     0.000 HD 
HETATM   21  C   UNL     1      -9.413  14.061  66.732  1.00  0.00    -0.282 A  
HETATM   22  C   UNL     1      -8.442  12.385  68.150  1.00  0.00    -0.180 A  
HETATM   23  O   UNL     1      -9.621  15.429  66.468  1.00  0.00    -0.242 OA 
HETATM   24  C   UNL     1     -10.436  15.844  65.424  1.00  0.00    -0.405 C  
HETATM   25  O   UNL     1     -10.660  17.027  65.193  1.00  0.00    -0.688 OA 
HETATM   26  C   UNL     1     -11.036  14.791  64.584  1.00  0.00    -0.337 C  
HETATM   27  C   UNL     1     -10.837  13.488  64.820  1.00  0.00    -0.392 C  
HETATM   28  C   UNL     1     -10.013  13.082  65.943  1.00  0.00    -0.270 A  
HETATM   29  C   UNL     1      -9.809  11.738  66.273  1.00  0.00    -0.245 A  
ENDBRANCH  16  17
ENDBRANCH   6  16
ENDBRANCH   3   4
TORSDOF 3
ENDMDL
MODEL      128
REMARK 921   NORMALIZED FREE ENERGY PREDICTED BY IDOCK:   -4.53 KCAL/MOL
REMARK 922        TOTAL FREE ENERGY PREDICTED BY IDOCK:   -6.28 KCAL/MOL
REMARK 923 INTER-LIGAND FREE ENERGY PREDICTED BY IDOCK:   -5.20 KCAL/MOL
REMARK 924 INTRA-LIGAND FREE ENERGY PREDICTED BY IDOCK:   -1.09 KCAL/MOL
REMARK 927      BINDING AFFINITY PREDICTED BY RF-SCORE:    0.00 PKD
ROOT
HETATM    1  O   UNL     1     -10.383  10.792  62.892  1.00  0.00    -0.727 OA 
HETATM    2  H   UNL     1     -11.248  10.503  62.629  1.00  0.00     0.000 HD 
HETATM    3  C   UNL     1      -9.376   9.867  62.505  1.00  0.00    -0.232 C  
ENDROOT
BRANCH   3   4
HETATM    4  C   UNL     1      -7.977  10.335  62.930  1.00  0.00    -0.149 C  
HETATM    5  O   UNL     1      -8.007  10.953  64.227  1.00  0.00     0.125 OA 
HETATM    6  C   UNL     1      -8.041  10.067  65.358  1.00  0.00    -0.143 C  
HETATM    7  C   UNL     1      -6.856   9.069  65.330  1.00  0.00    -0.073 C  
HETATM    8  H   UNL     1      -7.762   6.826  63.127  1.00  0.00     0.000 HD 
HETATM    9  H   UNL     1      -4.914   9.337  62.560  1.00  0.00     0.000 HD 
HETATM   10  O   UNL     1      -5.590   9.713  65.544  1.00  0.00    -0.050 OA 
HETATM   11  C   UNL     1      -6.796   8.312  63.992  1.00  0.00    -0.074 C  
HETATM   12  H   UNL     1      -4.863   9.102  65.526  1.00  0.00     0.000 HD 
HETATM   13  C   UNL     1      -6.854   9.281  62.795  1.00  0.00    -0.092 C  
HETATM   14  O   UNL     1      -5.604   9.985  62.644  1.00  0.00    -0.093 OA 
HETATM   15  O   UNL     1      -7.799   7.293  63.953  1.00  0.00    -0.122 OA 
BRANCH   6  16
HETATM   16  O   UNL     1      -9.268   9.336  65.409  1.00  0.00    -0.213 OA 
BRANCH  16  17
HETATM   17  C   UNL     1      -9.694   8.818  66.597  1.00  0.00    -0.242 A  
HETATM   18  O   UNL     1      -9.711   6.481  65.970  1.00  0.00    -0.393 OA 
HETATM   19  C   UNL     1     -10.421   7.079  68.126  1.00  0.00    -0.242 A  
HETATM   20  H   UNL     1      -9.859   5.564  66.169  1.00  0.00     0.000 HD 
HETATM   21  C   UNL     1     -10.751   8.058  69.060  1.00  0.00    -0.088 A  
HETATM   22  C   UNL     1      -9.911   7.470  66.889  1.00  0.00    -0.248 A  
HETATM   23  O   UNL     1     -11.322   7.632  70.276  1.00  0.00    -0.262 OA 
HETATM   24  C   UNL     1     -11.719   8.546  71.242  1.00  0.00    -0.284 C  
HETATM   25  O   UNL     1     -12.248   8.205  72.293  1.00  0.00    -0.336 OA 
HETATM   26  C   UNL     1     -11.478   9.972  70.954  1.00  0.00    -0.452 C  
HETATM   27  C   UNL     1     -10.927  10.386  69.806  1.00  0.00    -0.345 C  
HETATM   28  C   UNL     1     -10.558   9.411  68.796  1.00  0.00    -0.234 A  
HETATM   29  C   UNL     1     -10.027   9.784  67.557  1.00  0.00    -0.230 A  
ENDBRANCH  16  17
ENDBRANCH   6  16
ENDBRANCH   3   4
TORSDOF 3
ENDMDL
MODEL      129
REMARK 921   NORMALIZED FREE ENERGY PREDICTED BY IDOCK:   -4.52 KCAL/MOL
REMARK 922        TOTAL FREE ENERGY PREDICTED BY IDOCK:   -6.27 KCAL/MOL
REMARK 923 INTER-LIGAND FREE ENERGY PREDICTED BY IDOCK:   -5.37 KCAL/MOL
REMARK 924 INTRA-LIGAND FREE ENERGY PREDICTED BY IDOCK:   -0.90 KCAL/MOL
REMARK 927      BINDING AFFINITY PREDICTED BY RF-SCORE:    0.00 PKD
ROOT
HETATM    1  O   UNL     1      -9.878  11.273  69.816  1.00  0.00    -0.207 OA 
HETATM    2  H   UNL     1      -9.343  11.567  70.543  1.00  0.00     0.000 HD 
HETATM    3  C   UNL     1      -9.258  10.214  69.099  1.00  0.00    -0.197 C  
ENDROOT
BRANCH   3   4
HETATM    4  C   UNL     1     -10.123   9.739  67.923  1.00  0.00    -0.173 C  
HETATM    5  O   UNL     1     -10.578  10.848  67.131  1.00  0.00    -0.227 OA 
HETATM    6  C   UNL     1      -9.634  11.399  66.198  1.00  0.00    -0.218 C  
HETATM    7  C   UNL     1      -9.091  10.313  65.235  1.00  0.00    -0.191 C  
HETATM    8  H   UNL     1      -6.880   8.700  67.027  1.00  0.00     0.000 HD 
HETATM    9  H   UNL     1     -10.231   7.191  65.920  1.00  0.00     0.000 HD 
HETATM   10  O   UNL     1     -10.096   9.828  64.330  1.00  0.00    -0.408 OA 
HETATM   11  C   UNL     1      -8.519   9.115  66.012  1.00  0.00    -0.131 C  
HETATM   12  H   UNL     1      -9.764   9.163  63.740  1.00  0.00     0.000 HD 
HETATM   13  C   UNL     1      -9.516   8.602  67.069  1.00  0.00    -0.171 C  
HETATM   14  O   UNL     1     -10.604   7.890  66.444  1.00  0.00    -0.028 OA 
HETATM   15  O   UNL     1      -7.233   9.440  66.548  1.00  0.00    -0.087 OA 
BRANCH   6  16
HETATM   16  O   UNL     1      -8.537  12.018  66.873  1.00  0.00    -0.182 OA 
BRANCH  16  17
HETATM   17  C   UNL     1      -8.641  13.316  67.276  1.00  0.00    -0.210 A  
HETATM   18  O   UNL     1      -7.567  13.097  69.433  1.00  0.00    -0.302 OA 
HETATM   19  C   UNL     1      -8.426  15.189  68.806  1.00  0.00    -0.180 A  
HETATM   20  H   UNL     1      -7.260  13.462  70.255  1.00  0.00     0.000 HD 
HETATM   21  C   UNL     1      -9.158  15.977  67.921  1.00  0.00    -0.187 A  
HETATM   22  C   UNL     1      -8.190  13.853  68.484  1.00  0.00    -0.131 A  
HETATM   23  O   UNL     1      -9.433  17.305  68.306  1.00  0.00    -0.264 OA 
HETATM   24  C   UNL     1     -10.193  18.143  67.502  1.00  0.00    -0.371 C  
HETATM   25  O   UNL     1     -10.474  19.290  67.826  1.00  0.00    -0.404 OA 
HETATM   26  C   UNL     1     -10.659  17.594  66.215  1.00  0.00    -0.215 C  
HETATM   27  C   UNL     1     -10.395  16.337  65.835  1.00  0.00    -0.381 C  
HETATM   28  C   UNL     1      -9.632  15.469  66.714  1.00  0.00    -0.251 A  
HETATM   29  C   UNL     1      -9.368  14.133  66.399  1.00  0.00    -0.254 A  
ENDBRANCH  16  17
ENDBRANCH   6  16
ENDBRANCH   3   4
TORSDOF 3
ENDMDL
MODEL      130
REMARK 921   NORMALIZED FREE ENERGY PREDICTED BY IDOCK:   -4.47 KCAL/MOL
REMARK 922        TOTAL FREE ENERGY PREDICTED BY IDOCK:   -6.22 KCAL/MOL
REMARK 923 INTER-LIGAND FREE ENERGY PREDICTED BY IDOCK:   -5.65 KCAL/MOL
REMARK 924 INTRA-LIGAND FREE ENERGY PREDICTED BY IDOCK:   -0.56 KCAL/MOL
REMARK 927      BINDING AFFINITY PREDICTED BY RF-SCORE:    0.00 PKD
ROOT
HETATM    1  O   UNL     1      -7.088  11.682  67.158  1.00  0.00    -0.123 OA 
HETATM    2  H   UNL     1      -6.934  12.164  66.355  1.00  0.00     0.000 HD 
HETATM    3  C   UNL     1      -7.702  10.424  66.910  1.00  0.00    -0.111 C  
ENDROOT
BRANCH   3   4
HETATM    4  C   UNL     1      -7.950   9.645  68.209  1.00  0.00    -0.096 C  
HETATM    5  O   UNL     1      -8.449  10.506  69.246  1.00  0.00    -0.157 OA 
HETATM    6  C   UNL     1      -9.848  10.832  69.189  1.00  0.00    -0.175 C  
HETATM    7  C   UNL     1     -10.726   9.556  69.163  1.00  0.00    -0.210 C  
HETATM    8  H   UNL     1     -10.507   8.508  66.071  1.00  0.00     0.000 HD 
HETATM    9  H   UNL     1      -8.937   6.674  69.056  1.00  0.00     0.000 HD 
HETATM   10  O   UNL     1     -10.679   8.831  70.402  1.00  0.00    -0.213 OA 
HETATM   11  C   UNL     1     -10.297   8.608  68.029  1.00  0.00    -0.223 C  
HETATM   12  H   UNL     1     -11.217   8.049  70.386  1.00  0.00     0.000 HD 
HETATM   13  C   UNL     1      -8.778   8.348  68.058  1.00  0.00    -0.139 C  
HETATM   14  O   UNL     1      -8.429   7.472  69.149  1.00  0.00    -0.133 OA 
HETATM   15  O   UNL     1     -10.771   9.093  66.771  1.00  0.00    -0.177 OA 
BRANCH   6  16
HETATM   16  O   UNL     1     -10.149  11.632  68.043  1.00  0.00    -0.179 OA 
BRANCH  16  17
HETATM   17  C   UNL     1     -10.406  12.962  68.200  1.00  0.00    -0.240 A  
HETATM   18  O   UNL     1     -12.142  12.784  69.876  1.00  0.00    -0.308 OA 
HETATM   19  C   UNL     1     -11.561  14.911  69.071  1.00  0.00    -0.330 A  
HETATM   20  H   UNL     1     -12.780  13.173  70.462  1.00  0.00     0.000 HD 
HETATM   21  C   UNL     1     -10.855  15.712  68.178  1.00  0.00    -0.301 A  
HETATM   22  C   UNL     1     -11.344  13.534  69.061  1.00  0.00    -0.288 A  
HETATM   23  O   UNL     1     -11.144  17.091  68.170  1.00  0.00    -0.334 OA 
HETATM   24  C   UNL     1     -10.516  17.952  67.280  1.00  0.00    -0.366 C  
HETATM   25  O   UNL     1     -10.771  19.149  67.230  1.00  0.00    -0.460 OA 
HETATM   26  C   UNL     1      -9.509  17.364  66.378  1.00  0.00    -0.279 C  
HETATM   27  C   UNL     1      -9.220  16.056  66.383  1.00  0.00    -0.339 C  
HETATM   28  C   UNL     1      -9.921  15.172  67.297  1.00  0.00    -0.230 A  
HETATM   29  C   UNL     1      -9.702  13.791  67.315  1.00  0.00    -0.242 A  
ENDBRANCH  16  17
ENDBRANCH   6  16
ENDBRANCH   3   4
TORSDOF 3
ENDMDL
MODEL      131
REMARK 921   NORMALIZED FREE ENERGY PREDICTED BY IDOCK:   -4.44 KCAL/MOL
REMARK 922        TOTAL FREE ENERGY PREDICTED BY IDOCK:   -6.18 KCAL/MOL
REMARK 923 INTER-LIGAND FREE ENERGY PREDICTED BY IDOCK:   -5.67 KCAL/MOL
REMARK 924 INTRA-LIGAND FREE ENERGY PREDICTED BY IDOCK:   -0.51 KCAL/MOL
REMARK 927      BINDING AFFINITY PREDICTED BY RF-SCORE:    0.00 PKD
ROOT
HETATM    1  O   UNL     1      -6.012  11.894  66.378  1.00  0.00    -0.476 OA 
HETATM    2  H   UNL     1      -5.829  12.605  66.980  1.00  0.00     0.000 HD 
HETATM    3  C   UNL     1      -5.873  10.625  67.002  1.00  0.00    -0.054 C  
ENDROOT
BRANCH   3   4
HETATM    4  C   UNL     1      -6.169   9.476  66.028  1.00  0.00    -0.064 C  
HETATM    5  O   UNL     1      -6.637   8.309  66.725  1.00  0.00    -0.055 OA 
HETATM    6  C   UNL     1      -8.017   8.312  67.122  1.00  0.00    -0.105 C  
HETATM    7  C   UNL     1      -8.954   8.554  65.911  1.00  0.00    -0.189 C  
HETATM    8  H   UNL     1      -8.756  11.778  65.391  1.00  0.00     0.000 HD 
HETATM    9  H   UNL     1      -7.301   9.144  63.007  1.00  0.00     0.000 HD 
HETATM   10  O   UNL     1      -8.952   7.455  64.987  1.00  0.00    -0.347 OA 
HETATM   11  C   UNL     1      -8.560   9.831  65.149  1.00  0.00    -0.158 C  
HETATM   12  H   UNL     1      -9.526   7.603  64.245  1.00  0.00     0.000 HD 
HETATM   13  C   UNL     1      -7.055   9.845  64.815  1.00  0.00    -0.133 C  
HETATM   14  O   UNL     1      -6.757   8.916  63.752  1.00  0.00    -0.088 OA 
HETATM   15  O   UNL     1      -8.999  10.990  65.861  1.00  0.00    -0.186 OA 
BRANCH   6  16
HETATM   16  O   UNL     1      -8.271   9.307  68.117  1.00  0.00    -0.117 OA 
BRANCH  16  17
HETATM   17  C   UNL     1      -9.150   9.042  69.125  1.00  0.00    -0.140 A  
HETATM   18  O   UNL     1      -8.401   6.804  69.657  1.00  0.00    -0.129 OA 
HETATM   19  C   UNL     1     -10.230   7.692  70.829  1.00  0.00    -0.201 A  
HETATM   20  H   UNL     1      -8.457   6.002  70.165  1.00  0.00     0.000 HD 
HETATM   21  C   UNL     1     -11.175   8.699  71.007  1.00  0.00    -0.271 A  
HETATM   22  C   UNL     1      -9.232   7.865  69.871  1.00  0.00    -0.153 A  
HETATM   23  O   UNL     1     -12.207   8.467  71.938  1.00  0.00    -0.309 OA 
HETATM   24  C   UNL     1     -13.213   9.401  72.144  1.00  0.00    -0.460 C  
HETATM   25  O   UNL     1     -14.139   9.211  72.923  1.00  0.00    -0.478 OA 
HETATM   26  C   UNL     1     -13.127  10.658  71.376  1.00  0.00    -0.499 C  
HETATM   27  C   UNL     1     -12.146  10.892  70.496  1.00  0.00    -0.464 C  
HETATM   28  C   UNL     1     -11.129   9.881  70.271  1.00  0.00    -0.368 A  
HETATM   29  C   UNL     1     -10.109  10.044  69.329  1.00  0.00    -0.226 A  
ENDBRANCH  16  17
ENDBRANCH   6  16
ENDBRANCH   3   4
TORSDOF 3
ENDMDL
MODEL      132
REMARK 921   NORMALIZED FREE ENERGY PREDICTED BY IDOCK:   -4.41 KCAL/MOL
REMARK 922        TOTAL FREE ENERGY PREDICTED BY IDOCK:   -6.15 KCAL/MOL
REMARK 923 INTER-LIGAND FREE ENERGY PREDICTED BY IDOCK:   -5.80 KCAL/MOL
REMARK 924 INTRA-LIGAND FREE ENERGY PREDICTED BY IDOCK:   -0.35 KCAL/MOL
REMARK 927      BINDING AFFINITY PREDICTED BY RF-SCORE:    0.00 PKD
ROOT
HETATM    1  O   UNL     1     -11.030  19.220  67.222  1.00  0.00    -0.483 OA 
HETATM    2  H   UNL     1     -11.722  19.075  66.588  1.00  0.00     0.000 HD 
HETATM    3  C   UNL     1      -9.811  19.598  66.595  1.00  0.00    -0.410 C  
ENDROOT
BRANCH   3   4
HETATM    4  C   UNL     1      -8.692  19.832  67.620  1.00  0.00    -0.326 C  
HETATM    5  O   UNL     1      -8.587  18.730  68.537  1.00  0.00    -0.329 OA 
HETATM    6  C   UNL     1      -7.891  17.567  68.060  1.00  0.00    -0.225 C  
HETATM    7  C   UNL     1      -6.463  17.922  67.572  1.00  0.00    -0.168 C  
HETATM    8  H   UNL     1      -6.945  19.247  64.620  1.00  0.00     0.000 HD 
HETATM    9  H   UNL     1      -5.773  21.242  67.683  1.00  0.00     0.000 HD 
HETATM   10  O   UNL     1      -5.598  18.320  68.647  1.00  0.00    -0.176 OA 
HETATM   11  C   UNL     1      -6.497  19.053  66.530  1.00  0.00    -0.190 C  
HETATM   12  H   UNL     1      -4.723  18.538  68.348  1.00  0.00     0.000 HD 
HETATM   13  C   UNL     1      -7.327  20.253  67.029  1.00  0.00    -0.284 C  
HETATM   14  O   UNL     1      -6.611  20.983  68.046  1.00  0.00    -0.310 OA 
HETATM   15  O   UNL     1      -6.925  18.549  65.263  1.00  0.00    -0.527 OA 
BRANCH   6  16
HETATM   16  O   UNL     1      -8.606  16.931  66.998  1.00  0.00    -0.190 OA 
BRANCH  16  17
HETATM   17  C   UNL     1      -8.667  15.570  66.948  1.00  0.00    -0.250 A  
HETATM   18  O   UNL     1     -10.889  15.357  66.016  1.00  0.00    -0.318 OA 
HETATM   19  C   UNL     1      -9.700  13.408  66.560  1.00  0.00    -0.284 A  
HETATM   20  H   UNL     1     -11.617  14.833  65.703  1.00  0.00     0.000 HD 
HETATM   21  C   UNL     1      -8.593  12.791  67.137  1.00  0.00    -0.197 A  
HETATM   22  C   UNL     1      -9.736  14.800  66.487  1.00  0.00    -0.278 A  
HETATM   23  O   UNL     1      -8.616  11.387  67.252  1.00  0.00    -0.139 OA 
HETATM   24  C   UNL     1      -7.572  10.698  67.855  1.00  0.00    -0.091 C  
HETATM   25  O   UNL     1      -7.581   9.481  67.997  1.00  0.00    -0.086 OA 
HETATM   26  C   UNL     1      -6.427  11.498  68.329  1.00  0.00    -0.054 C  
HETATM   27  C   UNL     1      -6.392  12.832  68.216  1.00  0.00    -0.078 C  
HETATM   28  C   UNL     1      -7.515  13.530  67.618  1.00  0.00    -0.187 A  
HETATM   29  C   UNL     1      -7.560  14.924  67.518  1.00  0.00    -0.218 A  
ENDBRANCH  16  17
ENDBRANCH   6  16
ENDBRANCH   3   4
TORSDOF 3
ENDMDL
MODEL      133
REMARK 921   NORMALIZED FREE ENERGY PREDICTED BY IDOCK:   -4.40 KCAL/MOL
REMARK 922        TOTAL FREE ENERGY PREDICTED BY IDOCK:   -6.13 KCAL/MOL
REMARK 923 INTER-LIGAND FREE ENERGY PREDICTED BY IDOCK:   -5.78 KCAL/MOL
REMARK 924 INTRA-LIGAND FREE ENERGY PREDICTED BY IDOCK:   -0.36 KCAL/MOL
REMARK 927      BINDING AFFINITY PREDICTED BY RF-SCORE:    0.00 PKD
ROOT
HETATM    1  O   UNL     1     -12.453  14.073  66.611  1.00  0.00    -0.496 OA 
HETATM    2  H   UNL     1     -13.028  13.376  66.322  1.00  0.00     0.000 HD 
HETATM    3  C   UNL     1     -12.033  13.887  67.957  1.00  0.00    -0.355 C  
ENDROOT
BRANCH   3   4
HETATM    4  C   UNL     1     -11.102  15.015  68.424  1.00  0.00    -0.278 C  
HETATM    5  O   UNL     1      -9.762  14.537  68.621  1.00  0.00    -0.215 OA 
HETATM    6  C   UNL     1      -8.959  14.380  67.440  1.00  0.00    -0.199 C  
HETATM    7  C   UNL     1      -8.882  15.698  66.628  1.00  0.00    -0.292 C  
HETATM    8  H   UNL     1     -11.750  15.827  65.059  1.00  0.00     0.000 HD 
HETATM    9  H   UNL     1     -10.777  18.201  67.915  1.00  0.00     0.000 HD 
HETATM   10  O   UNL     1      -8.141  16.721  67.311  1.00  0.00    -0.166 OA 
HETATM   11  C   UNL     1     -10.287  16.241  66.315  1.00  0.00    -0.326 C  
HETATM   12  H   UNL     1      -8.095  17.529  66.814  1.00  0.00     0.000 HD 
HETATM   13  C   UNL     1     -11.158  16.313  67.584  1.00  0.00    -0.184 C  
HETATM   14  O   UNL     1     -10.742  17.404  68.431  1.00  0.00    -0.358 OA 
HETATM   15  O   UNL     1     -10.883  15.492  65.253  1.00  0.00    -0.366 OA 
BRANCH   6  16
HETATM   16  O   UNL     1      -9.466  13.340  66.600  1.00  0.00    -0.252 OA 
BRANCH  16  17
HETATM   17  C   UNL     1      -8.981  12.073  66.729  1.00  0.00    -0.198 A  
HETATM   18  O   UNL     1      -6.622  12.587  66.564  1.00  0.00    -0.344 OA 
HETATM   19  C   UNL     1      -7.277  10.344  66.784  1.00  0.00    -0.109 A  
HETATM   20  H   UNL     1      -5.709  12.326  66.555  1.00  0.00     0.000 HD 
HETATM   21  C   UNL     1      -8.279   9.378  66.826  1.00  0.00    -0.112 A  
HETATM   22  C   UNL     1      -7.638  11.689  66.716  1.00  0.00    -0.104 A  
HETATM   23  O   UNL     1      -7.881   8.026  66.830  1.00  0.00    -0.100 OA 
HETATM   24  C   UNL     1      -8.817   7.002  66.827  1.00  0.00    -0.126 C  
HETATM   25  O   UNL     1      -8.499   5.819  66.799  1.00  0.00    -0.112 OA 
HETATM   26  C   UNL     1     -10.239   7.393  66.860  1.00  0.00    -0.346 C  
HETATM   27  C   UNL     1     -10.628   8.674  66.866  1.00  0.00    -0.270 C  
HETATM   28  C   UNL     1      -9.628   9.726  66.828  1.00  0.00    -0.228 A  
HETATM   29  C   UNL     1      -9.970  11.081  66.780  1.00  0.00    -0.240 A  
ENDBRANCH  16  17
ENDBRANCH   6  16
ENDBRANCH   3   4
TORSDOF 3
ENDMDL
MODEL      134
REMARK 921   NORMALIZED FREE ENERGY PREDICTED BY IDOCK:   -4.39 KCAL/MOL
REMARK 922        TOTAL FREE ENERGY PREDICTED BY IDOCK:   -6.12 KCAL/MOL
REMARK 923 INTER-LIGAND FREE ENERGY PREDICTED BY IDOCK:   -5.51 KCAL/MOL
REMARK 924 INTRA-LIGAND FREE ENERGY PREDICTED BY IDOCK:   -0.62 KCAL/MOL
REMARK 927      BINDING AFFINITY PREDICTED BY RF-SCORE:    0.00 PKD
ROOT
HETATM    1  O   UNL     1      -6.844   7.335  67.625  1.00  0.00    -0.068 OA 
HETATM    2  H   UNL     1      -6.859   7.340  66.676  1.00  0.00     0.000 HD 
HETATM    3  C   UNL     1      -7.373   8.537  68.168  1.00  0.00    -0.092 C  
ENDROOT
BRANCH   3   4
HETATM    4  C   UNL     1      -7.349   8.528  69.703  1.00  0.00    -0.060 C  
HETATM    5  O   UNL     1      -7.832   9.771  70.239  1.00  0.00    -0.166 OA 
HETATM    6  C   UNL     1      -9.259   9.940  70.275  1.00  0.00    -0.068 C  
HETATM    7  C   UNL     1      -9.946   8.785  71.047  1.00  0.00    -0.234 C  
HETATM    8  H   UNL     1      -9.963   6.307  68.912  1.00  0.00     0.000 HD 
HETATM    9  H   UNL     1      -7.798   6.370  72.081  1.00  0.00     0.000 HD 
HETATM   10  O   UNL     1      -9.647   8.809  72.452  1.00  0.00    -0.279 OA 
HETATM   11  C   UNL     1      -9.531   7.415  70.485  1.00  0.00    -0.161 C  
HETATM   12  H   UNL     1     -10.068   8.101  72.925  1.00  0.00     0.000 HD 
HETATM   13  C   UNL     1      -7.999   7.294  70.370  1.00  0.00    -0.104 C  
HETATM   14  O   UNL     1      -7.399   7.129  71.672  1.00  0.00    -0.082 OA 
HETATM   15  O   UNL     1     -10.219   7.153  69.259  1.00  0.00    -0.179 OA 
BRANCH   6  16
HETATM   16  O   UNL     1      -9.807  10.015  68.957  1.00  0.00    -0.179 OA 
BRANCH  16  17
HETATM   17  C   UNL     1     -10.243  11.214  68.477  1.00  0.00    -0.198 A  
HETATM   18  O   UNL     1     -12.622  10.828  68.688  1.00  0.00    -0.669 OA 
HETATM   19  C   UNL     1     -11.883  12.854  67.762  1.00  0.00    -0.391 A  
HETATM   20  H   UNL     1     -13.525  11.107  68.594  1.00  0.00     0.000 HD 
HETATM   21  C   UNL     1     -10.851  13.658  67.285  1.00  0.00    -0.284 A  
HETATM   22  C   UNL     1     -11.570  11.625  68.339  1.00  0.00    -0.312 A  
HETATM   23  O   UNL     1     -11.205  14.865  66.650  1.00  0.00    -0.341 OA 
HETATM   24  C   UNL     1     -10.240  15.702  66.108  1.00  0.00    -0.311 C  
HETATM   25  O   UNL     1     -10.522  16.741  65.523  1.00  0.00    -0.538 OA 
HETATM   26  C   UNL     1      -8.832  15.290  66.263  1.00  0.00    -0.262 C  
HETATM   27  C   UNL     1      -8.485  14.149  66.873  1.00  0.00    -0.117 C  
HETATM   28  C   UNL     1      -9.517  13.273  67.395  1.00  0.00    -0.218 A  
HETATM   29  C   UNL     1      -9.221  12.045  67.995  1.00  0.00    -0.192 A  
ENDBRANCH  16  17
ENDBRANCH   6  16
ENDBRANCH   3   4
TORSDOF 3
ENDMDL
MODEL      135
REMARK 921   NORMALIZED FREE ENERGY PREDICTED BY IDOCK:   -4.38 KCAL/MOL
REMARK 922        TOTAL FREE ENERGY PREDICTED BY IDOCK:   -6.11 KCAL/MOL
REMARK 923 INTER-LIGAND FREE ENERGY PREDICTED BY IDOCK:   -5.85 KCAL/MOL
REMARK 924 INTRA-LIGAND FREE ENERGY PREDICTED BY IDOCK:   -0.26 KCAL/MOL
REMARK 927      BINDING AFFINITY PREDICTED BY RF-SCORE:    0.00 PKD
ROOT
HETATM    1  O   UNL     1      -7.552   8.410  70.309  1.00  0.00    -0.064 OA 
HETATM    2  H   UNL     1      -6.860   8.215  69.688  1.00  0.00     0.000 HD 
HETATM    3  C   UNL     1      -8.074   7.230  70.905  1.00  0.00    -0.106 C  
ENDROOT
BRANCH   3   4
HETATM    4  C   UNL     1      -9.192   7.546  71.908  1.00  0.00    -0.132 C  
HETATM    5  O   UNL     1     -10.019   8.626  71.444  1.00  0.00    -0.207 OA 
HETATM    6  C   UNL     1     -11.011   8.294  70.460  1.00  0.00    -0.242 C  
HETATM    7  C   UNL     1     -11.942   7.159  70.955  1.00  0.00    -0.334 C  
HETATM    8  H   UNL     1     -10.161   4.445  70.551  1.00  0.00     0.000 HD 
HETATM    9  H   UNL     1     -11.066   5.904  73.984  1.00  0.00     0.000 HD 
HETATM   10  O   UNL     1     -12.784   7.573  72.043  1.00  0.00    -0.407 OA 
HETATM   11  C   UNL     1     -11.131   5.932  71.407  1.00  0.00    -0.248 C  
HETATM   12  H   UNL     1     -13.354   6.877  72.347  1.00  0.00     0.000 HD 
HETATM   13  C   UNL     1     -10.014   6.328  72.392  1.00  0.00    -0.172 C  
HETATM   14  O   UNL     1     -10.562   6.652  73.686  1.00  0.00    -0.295 OA 
HETATM   15  O   UNL     1     -10.661   5.202  70.272  1.00  0.00    -0.262 OA 
BRANCH   6  16
HETATM   16  O   UNL     1     -10.409   7.902  69.224  1.00  0.00    -0.213 OA 
BRANCH  16  17
HETATM   17  C   UNL     1     -10.341   8.794  68.195  1.00  0.00    -0.216 A  
HETATM   18  O   UNL     1     -12.156  10.243  68.874  1.00  0.00    -0.657 OA 
HETATM   19  C   UNL     1     -11.030  10.705  66.866  1.00  0.00    -0.228 A  
HETATM   20  H   UNL     1     -12.711  11.004  68.745  1.00  0.00     0.000 HD 
HETATM   21  C   UNL     1     -10.102  10.345  65.893  1.00  0.00    -0.261 A  
HETATM   22  C   UNL     1     -11.156   9.911  68.006  1.00  0.00    -0.158 A  
HETATM   23  O   UNL     1     -10.044  11.131  64.725  1.00  0.00    -0.253 OA 
HETATM   24  C   UNL     1      -9.178  10.815  63.688  1.00  0.00    -0.248 C  
HETATM   25  O   UNL     1      -9.129  11.463  62.649  1.00  0.00    -0.344 OA 
HETATM   26  C   UNL     1      -8.297   9.648  63.884  1.00  0.00    -0.172 C  
HETATM   27  C   UNL     1      -8.338   8.900  64.993  1.00  0.00    -0.174 C  
HETATM   28  C   UNL     1      -9.282   9.229  66.045  1.00  0.00    -0.262 A  
HETATM   29  C   UNL     1      -9.409   8.457  67.204  1.00  0.00    -0.192 A  
ENDBRANCH  16  17
ENDBRANCH   6  16
ENDBRANCH   3   4
TORSDOF 3
ENDMDL
MODEL      136
REMARK 921   NORMALIZED FREE ENERGY PREDICTED BY IDOCK:   -4.36 KCAL/MOL
REMARK 922        TOTAL FREE ENERGY PREDICTED BY IDOCK:   -6.08 KCAL/MOL
REMARK 923 INTER-LIGAND FREE ENERGY PREDICTED BY IDOCK:   -5.75 KCAL/MOL
REMARK 924 INTRA-LIGAND FREE ENERGY PREDICTED BY IDOCK:   -0.33 KCAL/MOL
REMARK 927      BINDING AFFINITY PREDICTED BY RF-SCORE:    0.00 PKD
ROOT
HETATM    1  O   UNL     1     -12.413  13.761  63.728  1.00  0.00    -0.713 OA 
HETATM    2  H   UNL     1     -12.587  13.301  62.915  1.00  0.00     0.000 HD 
HETATM    3  C   UNL     1     -12.673  12.945  64.862  1.00  0.00    -0.403 C  
ENDROOT
BRANCH   3   4
HETATM    4  C   UNL     1     -12.392  13.689  66.175  1.00  0.00    -0.426 C  
HETATM    5  O   UNL     1     -12.491  12.806  67.305  1.00  0.00    -0.217 OA 
HETATM    6  C   UNL     1     -11.358  11.960  67.556  1.00  0.00    -0.314 C  
HETATM    7  C   UNL     1     -10.055  12.786  67.707  1.00  0.00    -0.224 C  
HETATM    8  H   UNL     1      -9.232  13.531  64.630  1.00  0.00     0.000 HD 
HETATM    9  H   UNL     1     -10.485  16.111  67.181  1.00  0.00     0.000 HD 
HETATM   10  O   UNL     1     -10.049  13.589  68.898  1.00  0.00    -0.400 OA 
HETATM   11  C   UNL     1      -9.840  13.711  66.497  1.00  0.00    -0.293 C  
HETATM   12  H   UNL     1      -9.251  14.096  68.991  1.00  0.00     0.000 HD 
HETATM   13  C   UNL     1     -11.102  14.542  66.192  1.00  0.00    -0.334 C  
HETATM   14  O   UNL     1     -11.277  15.586  67.171  1.00  0.00    -0.299 OA 
HETATM   15  O   UNL     1      -9.365  12.960  65.377  1.00  0.00     0.114 OA 
BRANCH   6  16
HETATM   16  O   UNL     1     -11.185  10.998  66.513  1.00  0.00    -0.197 OA 
BRANCH  16  17
HETATM   17  C   UNL     1     -10.501   9.846  66.766  1.00  0.00    -0.191 A  
HETATM   18  O   UNL     1     -11.409   9.379  68.959  1.00  0.00    -0.451 OA 
HETATM   19  C   UNL     1      -9.776   7.940  68.082  1.00  0.00    -0.177 A  
HETATM   20  H   UNL     1     -11.469   8.844  69.742  1.00  0.00     0.000 HD 
HETATM   21  C   UNL     1      -8.840   7.634  67.098  1.00  0.00    -0.125 A  
HETATM   22  C   UNL     1     -10.589   9.060  67.916  1.00  0.00    -0.196 A  
HETATM   23  O   UNL     1      -7.991   6.533  67.326  1.00  0.00    -0.110 OA 
HETATM   24  C   UNL     1      -7.002   6.187  66.415  1.00  0.00    -0.067 C  
HETATM   25  O   UNL     1      -6.230   5.255  66.603  1.00  0.00    -0.033 OA 
HETATM   26  C   UNL     1      -6.910   6.998  65.186  1.00  0.00    -0.051 C  
HETATM   27  C   UNL     1      -7.718   8.040  64.956  1.00  0.00    -0.112 C  
HETATM   28  C   UNL     1      -8.718   8.404  65.944  1.00  0.00    -0.197 A  
HETATM   29  C   UNL     1      -9.555   9.512  65.786  1.00  0.00    -0.337 A  
ENDBRANCH  16  17
ENDBRANCH   6  16
ENDBRANCH   3   4
TORSDOF 3
ENDMDL
MODEL      137
REMARK 921   NORMALIZED FREE ENERGY PREDICTED BY IDOCK:   -4.31 KCAL/MOL
REMARK 922        TOTAL FREE ENERGY PREDICTED BY IDOCK:   -6.03 KCAL/MOL
REMARK 923 INTER-LIGAND FREE ENERGY PREDICTED BY IDOCK:   -5.48 KCAL/MOL
REMARK 924 INTRA-LIGAND FREE ENERGY PREDICTED BY IDOCK:   -0.55 KCAL/MOL
REMARK 927      BINDING AFFINITY PREDICTED BY RF-SCORE:    0.00 PKD
ROOT
HETATM    1  O   UNL     1      -6.905  13.209  66.998  1.00  0.00    -0.424 OA 
HETATM    2  H   UNL     1      -7.005  13.903  67.639  1.00  0.00     0.000 HD 
HETATM    3  C   UNL     1      -7.773  12.116  67.266  1.00  0.00    -0.168 C  
ENDROOT
BRANCH   3   4
HETATM    4  C   UNL     1      -7.611  10.993  66.231  1.00  0.00    -0.111 C  
HETATM    5  O   UNL     1      -7.422   9.720  66.868  1.00  0.00    -0.091 OA 
HETATM    6  C   UNL     1      -8.603   9.072  67.367  1.00  0.00    -0.115 C  
HETATM    7  C   UNL     1      -9.665   8.896  66.253  1.00  0.00    -0.275 C  
HETATM    8  H   UNL     1     -11.013  11.863  65.971  1.00  0.00     0.000 HD 
HETATM    9  H   UNL     1      -8.771  10.280  63.287  1.00  0.00     0.000 HD 
HETATM   10  O   UNL     1      -9.257   7.953  65.249  1.00  0.00    -0.379 OA 
HETATM   11  C   UNL     1      -9.977  10.236  65.565  1.00  0.00    -0.296 C  
HETATM   12  H   UNL     1      -9.909   7.846  64.566  1.00  0.00     0.000 HD 
HETATM   13  C   UNL     1      -8.687  10.954  65.121  1.00  0.00    -0.122 C  
HETATM   14  O   UNL     1      -8.110  10.304  63.969  1.00  0.00    -0.156 OA 
HETATM   15  O   UNL     1     -10.821  11.037  66.396  1.00  0.00    -0.257 OA 
BRANCH   6  16
HETATM   16  O   UNL     1      -9.178   9.803  68.453  1.00  0.00    -0.129 OA 
BRANCH  16  17
HETATM   17  C   UNL     1      -9.279   9.218  69.680  1.00  0.00    -0.175 A  
HETATM   18  O   UNL     1      -7.293  10.170  70.682  1.00  0.00    -0.388 OA 
HETATM   19  C   UNL     1      -8.577   8.657  71.935  1.00  0.00    -0.231 A  
HETATM   20  H   UNL     1      -6.694  10.277  71.412  1.00  0.00     0.000 HD 
HETATM   21  C   UNL     1      -9.626   7.746  72.020  1.00  0.00    -0.168 A  
HETATM   22  C   UNL     1      -8.399   9.375  70.753  1.00  0.00    -0.131 A  
HETATM   23  O   UNL     1      -9.740   6.991  73.205  1.00  0.00    -0.166 OA 
HETATM   24  C   UNL     1     -10.730   6.031  73.353  1.00  0.00    -0.262 C  
HETATM   25  O   UNL     1     -10.832   5.339  74.359  1.00  0.00    -0.294 OA 
HETATM   26  C   UNL     1     -11.678   5.868  72.234  1.00  0.00    -0.309 C  
HETATM   27  C   UNL     1     -11.584   6.586  71.108  1.00  0.00    -0.390 C  
HETATM   28  C   UNL     1     -10.514   7.556  70.964  1.00  0.00    -0.222 A  
HETATM   29  C   UNL     1     -10.332   8.299  69.794  1.00  0.00    -0.216 A  
ENDBRANCH  16  17
ENDBRANCH   6  16
ENDBRANCH   3   4
TORSDOF 3
ENDMDL
MODEL      138
REMARK 921   NORMALIZED FREE ENERGY PREDICTED BY IDOCK:   -4.27 KCAL/MOL
REMARK 922        TOTAL FREE ENERGY PREDICTED BY IDOCK:   -5.98 KCAL/MOL
REMARK 923 INTER-LIGAND FREE ENERGY PREDICTED BY IDOCK:   -5.48 KCAL/MOL
REMARK 924 INTRA-LIGAND FREE ENERGY PREDICTED BY IDOCK:   -0.50 KCAL/MOL
REMARK 927      BINDING AFFINITY PREDICTED BY RF-SCORE:    0.00 PKD
ROOT
HETATM    1  O   UNL     1      -8.580  11.945  65.520  1.00  0.00    -0.359 OA 
HETATM    2  H   UNL     1      -9.238  12.462  65.969  1.00  0.00     0.000 HD 
HETATM    3  C   UNL     1      -8.108  10.876  66.330  1.00  0.00    -0.165 C  
ENDROOT
BRANCH   3   4
HETATM    4  C   UNL     1      -7.045  10.039  65.604  1.00  0.00    -0.119 C  
HETATM    5  O   UNL     1      -7.047   8.679  66.066  1.00  0.00    -0.081 OA 
HETATM    6  C   UNL     1      -8.069   7.823  65.531  1.00  0.00    -0.128 C  
HETATM    7  C   UNL     1      -8.035   7.801  63.981  1.00  0.00    -0.104 C  
HETATM    8  H   UNL     1      -9.475  10.610  63.121  1.00  0.00     0.000 HD 
HETATM    9  H   UNL     1      -5.732   9.903  62.641  1.00  0.00     0.000 HD 
HETATM   10  O   UNL     1      -6.859   7.156  63.466  1.00  0.00    -0.050 OA 
HETATM   11  C   UNL     1      -8.100   9.226  63.404  1.00  0.00    -0.161 C  
HETATM   12  H   UNL     1      -6.838   7.143  62.517  1.00  0.00     0.000 HD 
HETATM   13  C   UNL     1      -7.054  10.148  64.061  1.00  0.00    -0.103 C  
HETATM   14  O   UNL     1      -5.727   9.836  63.589  1.00  0.00    -0.092 OA 
HETATM   15  O   UNL     1      -9.435   9.731  63.477  1.00  0.00    -0.212 OA 
BRANCH   6  16
HETATM   16  O   UNL     1      -9.369   8.229  65.966  1.00  0.00    -0.199 OA 
BRANCH  16  17
HETATM   17  C   UNL     1      -9.847   7.784  67.163  1.00  0.00    -0.206 A  
HETATM   18  O   UNL     1     -11.229   5.979  66.334  1.00  0.00    -0.742 OA 
HETATM   19  C   UNL     1     -11.200   6.415  68.640  1.00  0.00    -0.338 A  
HETATM   20  H   UNL     1     -11.829   5.255  66.472  1.00  0.00     0.000 HD 
HETATM   21  C   UNL     1     -10.810   7.212  69.713  1.00  0.00    -0.240 A  
HETATM   22  C   UNL     1     -10.729   6.721  67.365  1.00  0.00    -0.335 A  
HETATM   23  O   UNL     1     -11.355   6.914  70.978  1.00  0.00    -0.268 OA 
HETATM   24  C   UNL     1     -11.052   7.686  72.091  1.00  0.00    -0.267 C  
HETATM   25  O   UNL     1     -11.536   7.469  73.196  1.00  0.00    -0.282 OA 
HETATM   26  C   UNL     1     -10.107   8.801  71.895  1.00  0.00    -0.409 C  
HETATM   27  C   UNL     1      -9.576   9.087  70.699  1.00  0.00    -0.289 C  
HETATM   28  C   UNL     1      -9.942   8.287  69.544  1.00  0.00    -0.187 A  
HETATM   29  C   UNL     1      -9.463   8.567  68.261  1.00  0.00    -0.143 A  
ENDBRANCH  16  17
ENDBRANCH   6  16
ENDBRANCH   3   4
TORSDOF 3
ENDMDL
MODEL      139
REMARK 921   NORMALIZED FREE ENERGY PREDICTED BY IDOCK:   -4.20 KCAL/MOL
REMARK 922        TOTAL FREE ENERGY PREDICTED BY IDOCK:   -5.90 KCAL/MOL
REMARK 923 INTER-LIGAND FREE ENERGY PREDICTED BY IDOCK:   -5.49 KCAL/MOL
REMARK 924 INTRA-LIGAND FREE ENERGY PREDICTED BY IDOCK:   -0.41 KCAL/MOL
REMARK 927      BINDING AFFINITY PREDICTED BY RF-SCORE:    0.00 PKD
ROOT
HETATM    1  O   UNL     1      -8.325   9.553  69.929  1.00  0.00    -0.133 OA 
HETATM    2  H   UNL     1      -7.407   9.337  70.037  1.00  0.00     0.000 HD 
HETATM    3  C   UNL     1      -9.167   8.639  70.621  1.00  0.00    -0.174 C  
ENDROOT
BRANCH   3   4
HETATM    4  C   UNL     1     -10.651   8.988  70.446  1.00  0.00    -0.218 C  
HETATM    5  O   UNL     1     -11.312   8.043  69.589  1.00  0.00    -0.006 OA 
HETATM    6  C   UNL     1     -11.689   6.792  70.187  1.00  0.00    -0.313 C  
HETATM    7  C   UNL     1     -12.579   7.008  71.438  1.00  0.00    -0.386 C  
HETATM    8  H   UNL     1     -10.459   7.865  73.778  1.00  0.00     0.000 HD 
HETATM    9  H   UNL     1     -13.025  10.274  72.244  1.00  0.00     0.000 HD 
HETATM   10  O   UNL     1     -13.872   7.537  71.106  1.00  0.00    -0.605 OA 
HETATM   11  C   UNL     1     -11.906   7.960  72.442  1.00  0.00    -0.348 C  
HETATM   12  H   UNL     1     -14.418   7.670  71.873  1.00  0.00     0.000 HD 
HETATM   13  C   UNL     1     -11.429   9.255  71.756  1.00  0.00    -0.378 C  
HETATM   14  O   UNL     1     -12.547  10.109  71.439  1.00  0.00    -0.352 OA 
HETATM   15  O   UNL     1     -10.874   7.277  73.158  1.00  0.00    -0.315 OA 
BRANCH   6  16
HETATM   16  O   UNL     1     -10.541   6.024  70.556  1.00  0.00    -0.230 OA 
BRANCH  16  17
HETATM   17  C   UNL     1     -10.101   5.032  69.730  1.00  0.00    -0.267 A  
HETATM   18  O   UNL     1      -9.134   3.585  71.411  1.00  0.00    -0.099 OA 
HETATM   19  C   UNL     1      -8.969   2.964  69.153  1.00  0.00    -0.175 A  
HETATM   20  H   UNL     1      -8.679   2.792  71.669  1.00  0.00     0.000 HD 
HETATM   21  C   UNL     1      -9.146   3.260  67.804  1.00  0.00    -0.173 A  
HETATM   22  C   UNL     1      -9.432   3.867  70.109  1.00  0.00    -0.191 A  
HETATM   23  O   UNL     1      -8.610   2.358  66.864  1.00  0.00    -0.098 OA 
HETATM   24  C   UNL     1      -8.705   2.600  65.500  1.00  0.00    -0.121 C  
HETATM   25  O   UNL     1      -8.220   1.850  64.662  1.00  0.00    -0.076 OA 
HETATM   26  C   UNL     1      -9.426   3.819  65.086  1.00  0.00    -0.167 C  
HETATM   27  C   UNL     1      -9.947   4.677  65.971  1.00  0.00    -0.262 C  
HETATM   28  C   UNL     1      -9.798   4.419  67.392  1.00  0.00    -0.193 A  
HETATM   29  C   UNL     1     -10.274   5.303  68.365  1.00  0.00    -0.206 A  
ENDBRANCH  16  17
ENDBRANCH   6  16
ENDBRANCH   3   4
TORSDOF 3
ENDMDL
MODEL      140
REMARK 921   NORMALIZED FREE ENERGY PREDICTED BY IDOCK:   -4.18 KCAL/MOL
REMARK 922        TOTAL FREE ENERGY PREDICTED BY IDOCK:   -5.87 KCAL/MOL
REMARK 923 INTER-LIGAND FREE ENERGY PREDICTED BY IDOCK:   -5.44 KCAL/MOL
REMARK 924 INTRA-LIGAND FREE ENERGY PREDICTED BY IDOCK:   -0.44 KCAL/MOL
REMARK 927      BINDING AFFINITY PREDICTED BY RF-SCORE:    0.00 PKD
ROOT
HETATM    1  O   UNL     1      -7.546  12.576  68.686  1.00  0.00    -0.133 OA 
HETATM    2  H   UNL     1      -7.975  13.293  68.234  1.00  0.00     0.000 HD 
HETATM    3  C   UNL     1      -7.912  11.315  68.140  1.00  0.00    -0.131 C  
ENDROOT
BRANCH   3   4
HETATM    4  C   UNL     1      -7.219  10.156  68.871  1.00  0.00    -0.079 C  
HETATM    5  O   UNL     1      -7.901   9.828  70.092  1.00  0.00    -0.159 OA 
HETATM    6  C   UNL     1      -9.086   9.026  69.968  1.00  0.00    -0.176 C  
HETATM    7  C   UNL     1      -8.798   7.704  69.211  1.00  0.00    -0.136 C  
HETATM    8  H   UNL     1      -8.679   8.603  66.068  1.00  0.00     0.000 HD 
HETATM    9  H   UNL     1      -5.612   7.456  68.070  1.00  0.00     0.000 HD 
HETATM   10  O   UNL     1      -7.958   6.813  69.962  1.00  0.00    -0.112 OA 
HETATM   11  C   UNL     1      -8.127   7.975  67.854  1.00  0.00    -0.129 C  
HETATM   12  H   UNL     1      -7.781   6.003  69.499  1.00  0.00     0.000 HD 
HETATM   13  C   UNL     1      -6.913   8.913  68.003  1.00  0.00    -0.078 C  
HETATM   14  O   UNL     1      -5.800   8.219  68.604  1.00  0.00    -0.038 OA 
HETATM   15  O   UNL     1      -9.093   8.436  66.906  1.00  0.00    -0.137 OA 
BRANCH   6  16
HETATM   16  O   UNL     1     -10.127   9.735  69.292  1.00  0.00    -0.177 OA 
BRANCH  16  17
HETATM   17  C   UNL     1     -10.967  10.538  70.006  1.00  0.00    -0.286 A  
HETATM   18  O   UNL     1     -12.164   8.809  71.203  1.00  0.00    -0.311 OA 
HETATM   19  C   UNL     1     -12.788  11.048  71.528  1.00  0.00    -0.555 A  
HETATM   20  H   UNL     1     -12.826   8.527  71.823  1.00  0.00     0.000 HD 
HETATM   21  C   UNL     1     -12.678  12.393  71.186  1.00  0.00    -0.240 A  
HETATM   22  C   UNL     1     -11.940  10.125  70.918  1.00  0.00    -0.365 A  
HETATM   23  O   UNL     1     -13.591  13.292  71.774  1.00  0.00    -0.375 OA 
HETATM   24  C   UNL     1     -13.578  14.642  71.453  1.00  0.00    -0.404 C  
HETATM   25  O   UNL     1     -14.380  15.439  71.924  1.00  0.00    -0.526 OA 
HETATM   26  C   UNL     1     -12.542  15.095  70.506  1.00  0.00    -0.429 C  
HETATM   27  C   UNL     1     -11.664  14.251  69.949  1.00  0.00    -0.373 C  
HETATM   28  C   UNL     1     -11.726  12.837  70.272  1.00  0.00    -0.188 A  
HETATM   29  C   UNL     1     -10.872  11.899  69.685  1.00  0.00     0.099 A  
ENDBRANCH  16  17
ENDBRANCH   6  16
ENDBRANCH   3   4
TORSDOF 3
ENDMDL
MODEL      141
REMARK 921   NORMALIZED FREE ENERGY PREDICTED BY IDOCK:   -4.16 KCAL/MOL
REMARK 922        TOTAL FREE ENERGY PREDICTED BY IDOCK:   -5.85 KCAL/MOL
REMARK 923 INTER-LIGAND FREE ENERGY PREDICTED BY IDOCK:   -5.59 KCAL/MOL
REMARK 924 INTRA-LIGAND FREE ENERGY PREDICTED BY IDOCK:   -0.26 KCAL/MOL
REMARK 927      BINDING AFFINITY PREDICTED BY RF-SCORE:    0.00 PKD
ROOT
HETATM    1  O   UNL     1      -7.074  10.320  66.169  1.00  0.00    -0.106 OA 
HETATM    2  H   UNL     1      -6.987  10.516  65.244  1.00  0.00     0.000 HD 
HETATM    3  C   UNL     1      -7.512   8.985  66.386  1.00  0.00    -0.092 C  
ENDROOT
BRANCH   3   4
HETATM    4  C   UNL     1      -7.653   8.669  67.882  1.00  0.00    -0.098 C  
HETATM    5  O   UNL     1      -8.041   9.835  68.627  1.00  0.00    -0.100 OA 
HETATM    6  C   UNL     1      -9.433  10.188  68.583  1.00  0.00    -0.164 C  
HETATM    7  C   UNL     1     -10.330   9.009  69.038  1.00  0.00    -0.219 C  
HETATM    8  H   UNL     1     -10.412   7.029  66.435  1.00  0.00     0.000 HD 
HETATM    9  H   UNL     1      -8.605   6.165  69.710  1.00  0.00     0.000 HD 
HETATM   10  O   UNL     1     -10.181   8.712  70.436  1.00  0.00    -0.185 OA 
HETATM   11  C   UNL     1     -10.022   7.733  68.235  1.00  0.00    -0.178 C  
HETATM   12  H   UNL     1     -10.731   7.989  70.714  1.00  0.00     0.000 HD 
HETATM   13  C   UNL     1      -8.512   7.428  68.221  1.00  0.00    -0.125 C  
HETATM   14  O   UNL     1      -8.078   6.928  69.502  1.00  0.00    -0.125 OA 
HETATM   15  O   UNL     1     -10.602   7.816  66.930  1.00  0.00    -0.343 OA 
BRANCH   6  16
HETATM   16  O   UNL     1      -9.825  10.597  67.271  1.00  0.00    -0.169 OA 
BRANCH  16  17
HETATM   17  C   UNL     1      -9.814  11.922  66.948  1.00  0.00    -0.202 A  
HETATM   18  O   UNL     1      -8.444  12.713  68.778  1.00  0.00    -0.349 OA 
HETATM   19  C   UNL     1      -9.298  14.274  67.248  1.00  0.00    -0.215 A  
HETATM   20  H   UNL     1      -8.004  13.409  69.252  1.00  0.00     0.000 HD 
HETATM   21  C   UNL     1     -10.118  14.578  66.164  1.00  0.00    -0.305 A  
HETATM   22  C   UNL     1      -9.168  12.944  67.644  1.00  0.00    -0.193 A  
HETATM   23  O   UNL     1     -10.278  15.937  65.829  1.00  0.00    -0.318 OA 
HETATM   24  C   UNL     1     -11.112  16.328  64.790  1.00  0.00    -0.281 C  
HETATM   25  O   UNL     1     -11.294  17.503  64.498  1.00  0.00    -0.850 OA 
HETATM   26  C   UNL     1     -11.787  15.256  64.034  1.00  0.00     0.005 C  
HETATM   27  C   UNL     1     -11.634  13.961  64.339  1.00  0.00    -0.401 C  
HETATM   28  C   UNL     1     -10.787  13.583  65.455  1.00  0.00    -0.293 A  
HETATM   29  C   UNL     1     -10.629  12.253  65.855  1.00  0.00    -0.290 A  
ENDBRANCH  16  17
ENDBRANCH   6  16
ENDBRANCH   3   4
TORSDOF 3
ENDMDL
MODEL      142
REMARK 921   NORMALIZED FREE ENERGY PREDICTED BY IDOCK:   -4.15 KCAL/MOL
REMARK 922        TOTAL FREE ENERGY PREDICTED BY IDOCK:   -5.84 KCAL/MOL
REMARK 923 INTER-LIGAND FREE ENERGY PREDICTED BY IDOCK:   -5.69 KCAL/MOL
REMARK 924 INTRA-LIGAND FREE ENERGY PREDICTED BY IDOCK:   -0.14 KCAL/MOL
REMARK 927      BINDING AFFINITY PREDICTED BY RF-SCORE:    0.00 PKD
ROOT
HETATM    1  O   UNL     1      -9.783   9.656  64.167  1.00  0.00    -0.409 OA 
HETATM    2  H   UNL     1     -10.251   8.917  63.798  1.00  0.00     0.000 HD 
HETATM    3  C   UNL     1      -9.738   9.597  65.587  1.00  0.00    -0.293 C  
ENDROOT
BRANCH   3   4
HETATM    4  C   UNL     1      -8.982  10.792  66.183  1.00  0.00    -0.177 C  
HETATM    5  O   UNL     1      -9.743  11.422  67.226  1.00  0.00    -0.183 OA 
HETATM    6  C   UNL     1      -9.720  10.782  68.512  1.00  0.00    -0.182 C  
HETATM    7  C   UNL     1      -8.269  10.594  69.025  1.00  0.00    -0.151 C  
HETATM    8  H   UNL     1      -7.168   8.008  67.350  1.00  0.00     0.000 HD 
HETATM    9  H   UNL     1      -5.901  11.591  66.808  1.00  0.00     0.000 HD 
HETATM   10  O   UNL     1      -7.634  11.841  69.345  1.00  0.00    -0.344 OA 
HETATM   11  C   UNL     1      -7.403   9.859  67.987  1.00  0.00    -0.084 C  
HETATM   12  H   UNL     1      -6.745  11.726  69.659  1.00  0.00     0.000 HD 
HETATM   13  C   UNL     1      -7.517  10.512  66.595  1.00  0.00    -0.120 C  
HETATM   14  O   UNL     1      -6.801  11.763  66.556  1.00  0.00    -0.043 OA 
HETATM   15  O   UNL     1      -7.703   8.461  67.990  1.00  0.00    -0.100 OA 
BRANCH   6  16
HETATM   16  O   UNL     1     -10.371   9.510  68.471  1.00  0.00    -0.193 OA 
BRANCH  16  17
HETATM   17  C   UNL     1     -10.702   8.886  69.638  1.00  0.00    -0.217 A  
HETATM   18  O   UNL     1     -11.527  10.815  70.842  1.00  0.00    -0.350 OA 
HETATM   19  C   UNL     1     -11.473   8.739  71.934  1.00  0.00    -0.428 A  
HETATM   20  H   UNL     1     -11.901  11.220  71.616  1.00  0.00     0.000 HD 
HETATM   21  C   UNL     1     -11.102   7.397  71.958  1.00  0.00    -0.242 A  
HETATM   22  C   UNL     1     -11.251   9.481  70.775  1.00  0.00    -0.317 A  
HETATM   23  O   UNL     1     -11.283   6.692  73.165  1.00  0.00    -0.208 OA 
HETATM   24  C   UNL     1     -10.899   5.364  73.286  1.00  0.00    -0.298 C  
HETATM   25  O   UNL     1     -11.015   4.737  74.333  1.00  0.00    -0.321 OA 
HETATM   26  C   UNL     1     -10.335   4.718  72.086  1.00  0.00    -0.256 C  
HETATM   27  C   UNL     1     -10.168   5.376  70.932  1.00  0.00    -0.303 C  
HETATM   28  C   UNL     1     -10.541   6.776  70.845  1.00  0.00    -0.252 A  
HETATM   29  C   UNL     1     -10.344   7.531  69.685  1.00  0.00    -0.225 A  
ENDBRANCH  16  17
ENDBRANCH   6  16
ENDBRANCH   3   4
TORSDOF 3
ENDMDL
MODEL      143
REMARK 921   NORMALIZED FREE ENERGY PREDICTED BY IDOCK:   -4.15 KCAL/MOL
REMARK 922        TOTAL FREE ENERGY PREDICTED BY IDOCK:   -5.83 KCAL/MOL
REMARK 923 INTER-LIGAND FREE ENERGY PREDICTED BY IDOCK:   -5.15 KCAL/MOL
REMARK 924 INTRA-LIGAND FREE ENERGY PREDICTED BY IDOCK:   -0.68 KCAL/MOL
REMARK 927      BINDING AFFINITY PREDICTED BY RF-SCORE:    0.00 PKD
ROOT
HETATM    1  O   UNL     1      -9.711   8.336  66.554  1.00  0.00    -0.225 OA 
HETATM    2  H   UNL     1     -10.543   8.544  66.146  1.00  0.00     0.000 HD 
HETATM    3  C   UNL     1      -9.323   6.991  66.306  1.00  0.00    -0.098 C  
ENDROOT
BRANCH   3   4
HETATM    4  C   UNL     1      -7.979   6.656  66.966  1.00  0.00    -0.109 C  
HETATM    5  O   UNL     1      -7.863   7.275  68.258  1.00  0.00    -0.117 OA 
HETATM    6  C   UNL     1      -8.545   6.625  69.342  1.00  0.00    -0.135 C  
HETATM    7  C   UNL     1      -8.106   5.145  69.480  1.00  0.00    -0.083 C  
HETATM    8  H   UNL     1      -9.740   3.610  67.098  1.00  0.00     0.000 HD 
HETATM    9  H   UNL     1      -5.938   4.138  67.072  1.00  0.00     0.000 HD 
HETATM   10  O   UNL     1      -6.743   5.015  69.915  1.00  0.00    -0.038 OA 
HETATM   11  C   UNL     1      -8.266   4.390  68.149  1.00  0.00    -0.090 C  
HETATM   12  H   UNL     1      -6.473   4.108  69.999  1.00  0.00     0.000 HD 
HETATM   13  C   UNL     1      -7.605   5.155  66.986  1.00  0.00    -0.088 C  
HETATM   14  O   UNL     1      -6.168   5.059  67.060  1.00  0.00    -0.030 OA 
HETATM   15  O   UNL     1      -9.641   4.076  67.920  1.00  0.00    -0.174 OA 
BRANCH   6  16
HETATM   16  O   UNL     1      -9.963   6.679  69.173  1.00  0.00    -0.153 OA 
BRANCH  16  17
HETATM   17  C   UNL     1     -10.701   7.529  69.943  1.00  0.00    -0.246 A  
HETATM   18  O   UNL     1     -11.781   5.878  71.344  1.00  0.00    -0.164 OA 
HETATM   19  C   UNL     1     -12.324   8.142  71.641  1.00  0.00    -0.347 A  
HETATM   20  H   UNL     1     -12.372   5.637  72.048  1.00  0.00     0.000 HD 
HETATM   21  C   UNL     1     -12.231   9.469  71.230  1.00  0.00    -0.348 A  
HETATM   22  C   UNL     1     -11.569   7.175  70.978  1.00  0.00    -0.309 A  
HETATM   23  O   UNL     1     -13.054  10.411  71.879  1.00  0.00    -0.441 OA 
HETATM   24  C   UNL     1     -13.054  11.747  71.501  1.00  0.00    -0.287 C  
HETATM   25  O   UNL     1     -13.782  12.580  72.026  1.00  0.00    -0.361 OA 
HETATM   26  C   UNL     1     -12.127  12.137  70.422  1.00  0.00    -0.395 C  
HETATM   27  C   UNL     1     -11.334  11.252  69.805  1.00  0.00    -0.348 C  
HETATM   28  C   UNL     1     -11.384   9.854  70.194  1.00  0.00    -0.335 A  
HETATM   29  C   UNL     1     -10.620   8.874  69.554  1.00  0.00    -0.233 A  
ENDBRANCH  16  17
ENDBRANCH   6  16
ENDBRANCH   3   4
TORSDOF 3
ENDMDL
MODEL      144
REMARK 921   NORMALIZED FREE ENERGY PREDICTED BY IDOCK:   -4.13 KCAL/MOL
REMARK 922        TOTAL FREE ENERGY PREDICTED BY IDOCK:   -5.82 KCAL/MOL
REMARK 923 INTER-LIGAND FREE ENERGY PREDICTED BY IDOCK:   -5.26 KCAL/MOL
REMARK 924 INTRA-LIGAND FREE ENERGY PREDICTED BY IDOCK:   -0.56 KCAL/MOL
REMARK 927      BINDING AFFINITY PREDICTED BY RF-SCORE:    0.00 PKD
ROOT
HETATM    1  O   UNL     1     -10.192  15.663  69.008  1.00  0.00    -0.204 OA 
HETATM    2  H   UNL     1     -10.701  15.926  69.765  1.00  0.00     0.000 HD 
HETATM    3  C   UNL     1     -10.637  14.420  68.481  1.00  0.00    -0.255 C  
ENDROOT
BRANCH   3   4
HETATM    4  C   UNL     1      -9.813  13.993  67.257  1.00  0.00    -0.242 C  
HETATM    5  O   UNL     1      -8.968  12.872  67.563  1.00  0.00    -0.174 OA 
HETATM    6  C   UNL     1      -9.598  11.581  67.574  1.00  0.00    -0.172 C  
HETATM    7  C   UNL     1     -10.313  11.289  66.230  1.00  0.00    -0.247 C  
HETATM    8  H   UNL     1     -13.090  13.009  66.424  1.00  0.00     0.000 HD 
HETATM    9  H   UNL     1     -10.208  13.879  64.041  1.00  0.00     0.000 HD 
HETATM   10  O   UNL     1      -9.391  11.119  65.142  1.00  0.00    -0.217 OA 
HETATM   11  C   UNL     1     -11.293  12.417  65.865  1.00  0.00    -0.356 C  
HETATM   12  H   UNL     1      -9.830  10.940  64.319  1.00  0.00     0.000 HD 
HETATM   13  C   UNL     1     -10.617  13.799  65.951  1.00  0.00    -0.289 C  
HETATM   14  O   UNL     1      -9.714  13.998  64.843  1.00  0.00    -0.092 OA 
HETATM   15  O   UNL     1     -12.484  12.313  66.649  1.00  0.00    -0.300 OA 
BRANCH   6  16
HETATM   16  O   UNL     1     -10.542  11.471  68.642  1.00  0.00    -0.194 OA 
BRANCH  16  17
HETATM   17  C   UNL     1     -10.524  10.369  69.445  1.00  0.00    -0.238 A  
HETATM   18  O   UNL     1     -12.899  10.220  69.881  1.00  0.00    -0.559 OA 
HETATM   19  C   UNL     1     -11.461   8.675  70.908  1.00  0.00    -0.315 A  
HETATM   20  H   UNL     1     -13.649   9.803  70.289  1.00  0.00     0.000 HD 
HETATM   21  C   UNL     1     -10.173   8.234  71.200  1.00  0.00    -0.198 A  
HETATM   22  C   UNL     1     -11.626   9.757  70.045  1.00  0.00    -0.130 A  
HETATM   23  O   UNL     1     -10.039   7.180  72.125  1.00  0.00    -0.179 OA 
HETATM   24  C   UNL     1      -8.788   6.710  72.503  1.00  0.00    -0.127 C  
HETATM   25  O   UNL     1      -8.642   5.817  73.329  1.00  0.00    -0.119 OA 
HETATM   26  C   UNL     1      -7.617   7.336  71.863  1.00  0.00    -0.085 C  
HETATM   27  C   UNL     1      -7.733   8.332  70.976  1.00  0.00    -0.090 C  
HETATM   28  C   UNL     1      -9.052   8.831  70.628  1.00  0.00    -0.221 A  
HETATM   29  C   UNL     1      -9.237   9.902  69.749  1.00  0.00    -0.252 A  
ENDBRANCH  16  17
ENDBRANCH   6  16
ENDBRANCH   3   4
TORSDOF 3
ENDMDL
MODEL      145
REMARK 921   NORMALIZED FREE ENERGY PREDICTED BY IDOCK:   -4.13 KCAL/MOL
REMARK 922        TOTAL FREE ENERGY PREDICTED BY IDOCK:   -5.81 KCAL/MOL
REMARK 923 INTER-LIGAND FREE ENERGY PREDICTED BY IDOCK:   -5.74 KCAL/MOL
REMARK 924 INTRA-LIGAND FREE ENERGY PREDICTED BY IDOCK:   -0.07 KCAL/MOL
REMARK 927      BINDING AFFINITY PREDICTED BY RF-SCORE:    0.00 PKD
ROOT
HETATM    1  O   UNL     1      -6.001  11.178  65.184  1.00  0.00    -0.406 OA 
HETATM    2  H   UNL     1      -5.561  11.966  64.886  1.00  0.00     0.000 HD 
HETATM    3  C   UNL     1      -6.734  11.404  66.381  1.00  0.00    -0.014 C  
ENDROOT
BRANCH   3   4
HETATM    4  C   UNL     1      -7.444  10.130  66.862  1.00  0.00    -0.096 C  
HETATM    5  O   UNL     1      -8.629  10.446  67.612  1.00  0.00    -0.118 OA 
HETATM    6  C   UNL     1      -9.795  10.795  66.849  1.00  0.00    -0.187 C  
HETATM    7  C   UNL     1     -10.157   9.686  65.829  1.00  0.00    -0.204 C  
HETATM    8  H   UNL     1      -8.024  10.131  63.388  1.00  0.00     0.000 HD 
HETATM    9  H   UNL     1      -7.938   7.118  65.766  1.00  0.00     0.000 HD 
HETATM   10  O   UNL     1     -10.613   8.481  66.466  1.00  0.00    -0.292 OA 
HETATM   11  C   UNL     1      -8.953   9.338  64.936  1.00  0.00    -0.180 C  
HETATM   12  H   UNL     1     -10.834   7.801  65.840  1.00  0.00     0.000 HD 
HETATM   13  C   UNL     1      -7.691   9.057  65.776  1.00  0.00    -0.091 C  
HETATM   14  O   UNL     1      -7.787   7.777  66.434  1.00  0.00    -0.090 OA 
HETATM   15  O   UNL     1      -8.766  10.346  63.940  1.00  0.00    -0.178 OA 
BRANCH   6  16
HETATM   16  O   UNL     1      -9.612  12.030  66.153  1.00  0.00    -0.232 OA 
BRANCH  16  17
HETATM   17  C   UNL     1      -9.709  13.207  66.835  1.00  0.00    -0.243 A  
HETATM   18  O   UNL     1      -9.950  12.297  69.064  1.00  0.00    -0.421 OA 
HETATM   19  C   UNL     1     -10.032  14.625  68.778  1.00  0.00    -0.235 A  
HETATM   20  H   UNL     1     -10.060  12.402  70.002  1.00  0.00     0.000 HD 
HETATM   21  C   UNL     1     -10.072  15.738  67.942  1.00  0.00    -0.230 A  
HETATM   22  C   UNL     1      -9.870  13.361  68.214  1.00  0.00    -0.235 A  
HETATM   23  O   UNL     1     -10.300  16.994  68.539  1.00  0.00    -0.313 OA 
HETATM   24  C   UNL     1     -10.398  18.147  67.773  1.00  0.00    -0.399 C  
HETATM   25  O   UNL     1     -10.627  19.246  68.262  1.00  0.00    -0.347 OA 
HETATM   26  C   UNL     1     -10.211  18.001  66.317  1.00  0.00    -0.381 C  
HETATM   27  C   UNL     1      -9.984  16.813  65.741  1.00  0.00    -0.242 C  
HETATM   28  C   UNL     1      -9.927  15.618  66.562  1.00  0.00    -0.287 A  
HETATM   29  C   UNL     1      -9.746  14.344  66.016  1.00  0.00    -0.320 A  
ENDBRANCH  16  17
ENDBRANCH   6  16
ENDBRANCH   3   4
TORSDOF 3
ENDMDL
MODEL      146
REMARK 921   NORMALIZED FREE ENERGY PREDICTED BY IDOCK:   -4.10 KCAL/MOL
REMARK 922        TOTAL FREE ENERGY PREDICTED BY IDOCK:   -5.78 KCAL/MOL
REMARK 923 INTER-LIGAND FREE ENERGY PREDICTED BY IDOCK:   -5.28 KCAL/MOL
REMARK 924 INTRA-LIGAND FREE ENERGY PREDICTED BY IDOCK:   -0.49 KCAL/MOL
REMARK 927      BINDING AFFINITY PREDICTED BY RF-SCORE:    0.00 PKD
ROOT
HETATM    1  O   UNL     1      -7.754  10.211  63.414  1.00  0.00    -0.152 OA 
HETATM    2  H   UNL     1      -6.846   9.976  63.561  1.00  0.00     0.000 HD 
HETATM    3  C   UNL     1      -8.262  11.030  64.459  1.00  0.00     0.325 C  
ENDROOT
BRANCH   3   4
HETATM    4  C   UNL     1      -9.731  11.410  64.222  1.00  0.00    -0.230 C  
HETATM    5  O   UNL     1     -10.611  10.617  65.035  1.00  0.00    -0.255 OA 
HETATM    6  C   UNL     1     -10.743  11.014  66.410  1.00  0.00    -0.227 C  
HETATM    7  C   UNL     1     -11.183  12.495  66.532  1.00  0.00    -0.307 C  
HETATM    8  H   UNL     1      -8.437  14.183  65.965  1.00  0.00     0.000 HD 
HETATM    9  H   UNL     1     -11.419  14.095  63.549  1.00  0.00     0.000 HD 
HETATM   10  O   UNL     1     -12.526  12.710  66.070  1.00  0.00    -0.555 OA 
HETATM   11  C   UNL     1     -10.243  13.421  65.741  1.00  0.00    -0.295 C  
HETATM   12  H   UNL     1     -12.795  13.618  66.144  1.00  0.00     0.000 HD 
HETATM   13  C   UNL     1     -10.046  12.922  64.296  1.00  0.00    -0.226 C  
HETATM   14  O   UNL     1     -11.226  13.166  63.504  1.00  0.00    -0.302 OA 
HETATM   15  O   UNL     1      -9.018  13.611  66.453  1.00  0.00    -0.122 OA 
BRANCH   6  16
HETATM   16  O   UNL     1      -9.520  10.828  67.125  1.00  0.00    -0.158 OA 
BRANCH  16  17
HETATM   17  C   UNL     1      -9.483   9.967  68.183  1.00  0.00    -0.138 A  
HETATM   18  O   UNL     1      -7.710   8.523  67.393  1.00  0.00    -0.096 OA 
HETATM   19  C   UNL     1      -8.751   8.021  69.435  1.00  0.00    -0.137 A  
HETATM   20  H   UNL     1      -7.133   7.775  67.496  1.00  0.00     0.000 HD 
HETATM   21  C   UNL     1      -9.755   8.263  70.369  1.00  0.00    -0.168 A  
HETATM   22  C   UNL     1      -8.635   8.868  68.334  1.00  0.00    -0.134 A  
HETATM   23  O   UNL     1      -9.885   7.352  71.437  1.00  0.00    -0.184 OA 
HETATM   24  C   UNL     1     -10.888   7.495  72.386  1.00  0.00    -0.276 C  
HETATM   25  O   UNL     1     -11.043   6.700  73.305  1.00  0.00    -0.234 OA 
HETATM   26  C   UNL     1     -11.778   8.663  72.248  1.00  0.00    -0.428 C  
HETATM   27  C   UNL     1     -11.657   9.540  71.243  1.00  0.00    -0.445 C  
HETATM   28  C   UNL     1     -10.625   9.343  70.242  1.00  0.00    -0.297 A  
HETATM   29  C   UNL     1     -10.481  10.193  69.141  1.00  0.00    -0.242 A  
ENDBRANCH  16  17
ENDBRANCH   6  16
ENDBRANCH   3   4
TORSDOF 3
ENDMDL
MODEL      147
REMARK 921   NORMALIZED FREE ENERGY PREDICTED BY IDOCK:   -4.09 KCAL/MOL
REMARK 922        TOTAL FREE ENERGY PREDICTED BY IDOCK:   -5.77 KCAL/MOL
REMARK 923 INTER-LIGAND FREE ENERGY PREDICTED BY IDOCK:   -5.17 KCAL/MOL
REMARK 924 INTRA-LIGAND FREE ENERGY PREDICTED BY IDOCK:   -0.60 KCAL/MOL
REMARK 927      BINDING AFFINITY PREDICTED BY RF-SCORE:    0.00 PKD
ROOT
HETATM    1  O   UNL     1     -12.234  11.091  68.974  1.00  0.00    -0.585 OA 
HETATM    2  H   UNL     1     -13.032  10.581  69.040  1.00  0.00     0.000 HD 
HETATM    3  C   UNL     1     -11.909  11.389  67.623  1.00  0.00    -0.078 C  
ENDROOT
BRANCH   3   4
HETATM    4  C   UNL     1     -10.619  12.214  67.517  1.00  0.00    -0.214 C  
HETATM    5  O   UNL     1      -9.607  11.716  68.408  1.00  0.00    -0.189 OA 
HETATM    6  C   UNL     1      -8.885  10.554  67.970  1.00  0.00    -0.131 C  
HETATM    7  C   UNL     1      -8.232  10.782  66.584  1.00  0.00    -0.140 C  
HETATM    8  H   UNL     1     -10.711  10.441  64.476  1.00  0.00     0.000 HD 
HETATM    9  H   UNL     1      -8.981  13.790  65.204  1.00  0.00     0.000 HD 
HETATM   10  O   UNL     1      -7.168  11.746  66.630  1.00  0.00    -0.320 OA 
HETATM   11  C   UNL     1      -9.269  11.252  65.550  1.00  0.00    -0.202 C  
HETATM   12  H   UNL     1      -6.767  11.885  65.780  1.00  0.00     0.000 HD 
HETATM   13  C   UNL     1     -10.093  12.442  66.080  1.00  0.00    -0.248 C  
HETATM   14  O   UNL     1      -9.303  13.649  66.086  1.00  0.00    -0.195 OA 
HETATM   15  O   UNL     1     -10.070  10.151  65.115  1.00  0.00    -0.326 OA 
BRANCH   6  16
HETATM   16  O   UNL     1      -9.736   9.407  67.905  1.00  0.00    -0.146 OA 
BRANCH  16  17
HETATM   17  C   UNL     1      -9.675   8.466  68.890  1.00  0.00    -0.167 A  
HETATM   18  O   UNL     1      -7.448   7.636  68.436  1.00  0.00    -0.099 OA 
HETATM   19  C   UNL     1      -8.696   6.641  70.157  1.00  0.00    -0.141 A  
HETATM   20  H   UNL     1      -6.718   7.056  68.622  1.00  0.00     0.000 HD 
HETATM   21  C   UNL     1      -9.894   6.501  70.853  1.00  0.00    -0.183 A  
HETATM   22  C   UNL     1      -8.602   7.615  69.163  1.00  0.00    -0.139 A  
HETATM   23  O   UNL     1      -9.976   5.467  71.806  1.00  0.00    -0.172 OA 
HETATM   24  C   UNL     1     -11.149   5.231  72.512  1.00  0.00    -0.229 C  
HETATM   25  O   UNL     1     -11.257   4.320  73.323  1.00  0.00    -0.257 OA 
HETATM   26  C   UNL     1     -12.283   6.136  72.247  1.00  0.00    -0.175 C  
HETATM   27  C   UNL     1     -12.212   7.127  71.349  1.00  0.00    -0.399 C  
HETATM   28  C   UNL     1     -10.987   7.326  70.597  1.00  0.00    -0.278 A  
HETATM   29  C   UNL     1     -10.867   8.309  69.610  1.00  0.00    -0.154 A  
ENDBRANCH  16  17
ENDBRANCH   6  16
ENDBRANCH   3   4
TORSDOF 3
ENDMDL
MODEL      148
REMARK 921   NORMALIZED FREE ENERGY PREDICTED BY IDOCK:   -4.08 KCAL/MOL
REMARK 922        TOTAL FREE ENERGY PREDICTED BY IDOCK:   -5.76 KCAL/MOL
REMARK 923 INTER-LIGAND FREE ENERGY PREDICTED BY IDOCK:   -4.96 KCAL/MOL
REMARK 924 INTRA-LIGAND FREE ENERGY PREDICTED BY IDOCK:   -0.79 KCAL/MOL
REMARK 927      BINDING AFFINITY PREDICTED BY RF-SCORE:    0.00 PKD
ROOT
HETATM    1  O   UNL     1      -7.955  12.009  66.290  1.00  0.00    -0.379 OA 
HETATM    2  H   UNL     1      -8.171  12.787  66.788  1.00  0.00     0.000 HD 
HETATM    3  C   UNL     1      -7.364  11.006  67.106  1.00  0.00    -0.116 C  
ENDROOT
BRANCH   3   4
HETATM    4  C   UNL     1      -7.015   9.747  66.300  1.00  0.00    -0.094 C  
HETATM    5  O   UNL     1      -7.319   8.554  67.040  1.00  0.00    -0.082 OA 
HETATM    6  C   UNL     1      -8.696   8.145  67.058  1.00  0.00    -0.131 C  
HETATM    7  C   UNL     1      -9.255   7.973  65.623  1.00  0.00     0.075 C  
HETATM    8  H   UNL     1      -9.834  11.036  64.629  1.00  0.00     0.000 HD 
HETATM    9  H   UNL     1      -7.045   8.824  63.191  1.00  0.00     0.000 HD 
HETATM   10  O   UNL     1      -8.663   6.861  64.932  1.00  0.00    -0.354 OA 
HETATM   11  C   UNL     1      -9.030   9.242  64.783  1.00  0.00    -0.168 C  
HETATM   12  H   UNL     1      -9.005   6.756  64.052  1.00  0.00     0.000 HD 
HETATM   13  C   UNL     1      -7.563   9.712  64.854  1.00  0.00    -0.117 C  
HETATM   14  O   UNL     1      -6.709   8.845  64.080  1.00  0.00    -0.086 OA 
HETATM   15  O   UNL     1      -9.973  10.253  65.147  1.00  0.00    -0.299 OA 
BRANCH   6  16
HETATM   16  O   UNL     1      -9.508   9.083  67.768  1.00  0.00    -0.139 OA 
BRANCH  16  17
HETATM   17  C   UNL     1      -9.914   8.796  69.038  1.00  0.00    -0.191 A  
HETATM   18  O   UNL     1     -10.451  11.047  69.747  1.00  0.00    -0.444 OA 
HETATM   19  C   UNL     1     -10.681   9.291  71.287  1.00  0.00    -0.422 A  
HETATM   20  H   UNL     1     -10.758  11.667  70.398  1.00  0.00     0.000 HD 
HETATM   21  C   UNL     1     -10.502   7.953  71.627  1.00  0.00    -0.209 A  
HETATM   22  C   UNL     1     -10.365   9.708  69.995  1.00  0.00    -0.257 A  
HETATM   23  O   UNL     1     -10.770   7.577  72.959  1.00  0.00    -0.317 OA 
HETATM   24  C   UNL     1     -10.576   6.272  73.390  1.00  0.00    -0.273 C  
HETATM   25  O   UNL     1     -10.771   5.926  74.549  1.00  0.00    -0.143 OA 
HETATM   26  C   UNL     1     -10.118   5.296  72.385  1.00  0.00    -0.227 C  
HETATM   27  C   UNL     1      -9.869   5.640  71.115  1.00  0.00    -0.229 C  
HETATM   28  C   UNL     1     -10.042   7.020  70.700  1.00  0.00    -0.201 A  
HETATM   29  C   UNL     1      -9.749   7.453  69.403  1.00  0.00    -0.159 A  
ENDBRANCH  16  17
ENDBRANCH   6  16
ENDBRANCH   3   4
TORSDOF 3
ENDMDL
MODEL      149
REMARK 921   NORMALIZED FREE ENERGY PREDICTED BY IDOCK:   -4.07 KCAL/MOL
REMARK 922        TOTAL FREE ENERGY PREDICTED BY IDOCK:   -5.74 KCAL/MOL
REMARK 923 INTER-LIGAND FREE ENERGY PREDICTED BY IDOCK:   -4.98 KCAL/MOL
REMARK 924 INTRA-LIGAND FREE ENERGY PREDICTED BY IDOCK:   -0.76 KCAL/MOL
REMARK 927      BINDING AFFINITY PREDICTED BY RF-SCORE:    0.00 PKD
ROOT
HETATM    1  O   UNL     1      -6.745   8.249  65.024  1.00  0.00    -0.062 OA 
HETATM    2  H   UNL     1      -6.887   8.912  64.359  1.00  0.00     0.000 HD 
HETATM    3  C   UNL     1      -6.686   8.814  66.327  1.00  0.00    -0.073 C  
ENDROOT
BRANCH   3   4
HETATM    4  C   UNL     1      -6.455   7.743  67.402  1.00  0.00    -0.056 C  
HETATM    5  O   UNL     1      -7.031   8.134  68.659  1.00  0.00    -0.065 OA 
HETATM    6  C   UNL     1      -8.449   7.950  68.798  1.00  0.00    -0.128 C  
HETATM    7  C   UNL     1      -8.859   6.482  68.520  1.00  0.00    -0.121 C  
HETATM    8  H   UNL     1      -8.817   6.255  65.256  1.00  0.00     0.000 HD 
HETATM    9  H   UNL     1      -6.277   4.508  67.544  1.00  0.00     0.000 HD 
HETATM   10  O   UNL     1      -8.380   5.577  69.527  1.00  0.00    -0.099 OA 
HETATM   11  C   UNL     1      -8.336   6.008  67.153  1.00  0.00    -0.105 C  
HETATM   12  H   UNL     1      -8.631   4.677  69.356  1.00  0.00     0.000 HD 
HETATM   13  C   UNL     1      -6.831   6.300  66.993  1.00  0.00    -0.062 C  
HETATM   14  O   UNL     1      -6.046   5.395  67.796  1.00  0.00    -0.024 OA 
HETATM   15  O   UNL     1      -9.139   6.548  66.100  1.00  0.00    -0.157 OA 
BRANCH   6  16
HETATM   16  O   UNL     1      -9.174   8.814  67.920  1.00  0.00    -0.138 OA 
BRANCH  16  17
HETATM   17  C   UNL     1      -9.963   9.796  68.443  1.00  0.00    -0.156 A  
HETATM   18  O   UNL     1      -9.181  11.633  67.076  1.00  0.00    -0.175 OA 
HETATM   19  C   UNL     1     -10.791  12.059  68.730  1.00  0.00    -0.267 A  
HETATM   20  H   UNL     1      -9.197  12.547  66.816  1.00  0.00     0.000 HD 
HETATM   21  C   UNL     1     -11.548  11.629  69.817  1.00  0.00    -0.315 A  
HETATM   22  C   UNL     1      -9.986  11.138  68.061  1.00  0.00    -0.176 A  
HETATM   23  O   UNL     1     -12.302  12.597  70.510  1.00  0.00    -0.337 OA 
HETATM   24  C   UNL     1     -13.048  12.260  71.630  1.00  0.00    -0.306 C  
HETATM   25  O   UNL     1     -13.687  13.087  72.270  1.00  0.00    -0.552 OA 
HETATM   26  C   UNL     1     -13.048  10.841  72.033  1.00  0.00    -0.476 C  
HETATM   27  C   UNL     1     -12.343   9.912  71.376  1.00  0.00    -0.498 C  
HETATM   28  C   UNL     1     -11.538  10.300  70.231  1.00  0.00    -0.396 A  
HETATM   29  C   UNL     1     -10.740   9.386  69.536  1.00  0.00    -0.238 A  
ENDBRANCH  16  17
ENDBRANCH   6  16
ENDBRANCH   3   4
TORSDOF 3
ENDMDL
MODEL      150
REMARK 921   NORMALIZED FREE ENERGY PREDICTED BY IDOCK:   -4.01 KCAL/MOL
REMARK 922        TOTAL FREE ENERGY PREDICTED BY IDOCK:   -5.67 KCAL/MOL
REMARK 923 INTER-LIGAND FREE ENERGY PREDICTED BY IDOCK:   -4.99 KCAL/MOL
REMARK 924 INTRA-LIGAND FREE ENERGY PREDICTED BY IDOCK:   -0.68 KCAL/MOL
REMARK 927      BINDING AFFINITY PREDICTED BY RF-SCORE:    0.00 PKD
ROOT
HETATM    1  O   UNL     1      -6.839   7.787  70.087  1.00  0.00    -0.048 OA 
HETATM    2  H   UNL     1      -6.144   7.938  69.458  1.00  0.00     0.000 HD 
HETATM    3  C   UNL     1      -7.189   6.412  70.168  1.00  0.00    -0.084 C  
ENDROOT
BRANCH   3   4
HETATM    4  C   UNL     1      -8.313   6.169  71.185  1.00  0.00    -0.124 C  
HETATM    5  O   UNL     1      -9.228   7.276  71.225  1.00  0.00    -0.150 OA 
HETATM    6  C   UNL     1     -10.207   7.335  70.176  1.00  0.00    -0.203 C  
HETATM    7  C   UNL     1     -11.039   6.029  70.104  1.00  0.00    -0.361 C  
HETATM    8  H   UNL     1      -9.058   3.913  68.586  1.00  0.00     0.000 HD 
HETATM    9  H   UNL     1     -10.020   3.644  72.293  1.00  0.00     0.000 HD 
HETATM   10  O   UNL     1     -11.893   5.857  71.247  1.00  0.00    -0.067 OA 
HETATM   11  C   UNL     1     -10.128   4.795  69.989  1.00  0.00    -0.238 C  
HETATM   12  H   UNL     1     -12.402   5.057  71.203  1.00  0.00     0.000 HD 
HETATM   13  C   UNL     1      -9.029   4.803  71.070  1.00  0.00    -0.126 C  
HETATM   14  O   UNL     1      -9.581   4.484  72.364  1.00  0.00    -0.138 OA 
HETATM   15  O   UNL     1      -9.620   4.675  68.658  1.00  0.00    -0.146 OA 
BRANCH   6  16
HETATM   16  O   UNL     1      -9.596   7.571  68.906  1.00  0.00    -0.149 OA 
BRANCH  16  17
HETATM   17  C   UNL     1      -9.587   8.833  68.388  1.00  0.00    -0.147 A  
HETATM   18  O   UNL     1      -9.201  10.049  70.443  1.00  0.00    -0.364 OA 
HETATM   19  C   UNL     1      -9.491  11.257  68.453  1.00  0.00    -0.192 A  
HETATM   20  H   UNL     1      -9.075  10.858  70.924  1.00  0.00     0.000 HD 
HETATM   21  C   UNL     1      -9.808  11.292  67.097  1.00  0.00    -0.190 A  
HETATM   22  C   UNL     1      -9.402  10.023  69.094  1.00  0.00    -0.193 A  
HETATM   23  O   UNL     1      -9.951  12.557  66.494  1.00  0.00    -0.233 OA 
HETATM   24  C   UNL     1     -10.309  12.680  65.158  1.00  0.00    -0.292 C  
HETATM   25  O   UNL     1     -10.472  13.767  64.617  1.00  0.00    -0.416 OA 
HETATM   26  C   UNL     1     -10.489  11.431  64.396  1.00  0.00    -0.388 C  
HETATM   27  C   UNL     1     -10.345  10.224  64.957  1.00  0.00    -0.174 C  
HETATM   28  C   UNL     1     -10.010  10.124  66.366  1.00  0.00    -0.295 A  
HETATM   29  C   UNL     1      -9.898   8.895  67.022  1.00  0.00    -0.277 A  
ENDBRANCH  16  17
ENDBRANCH   6  16
ENDBRANCH   3   4
TORSDOF 3
ENDMDL
MODEL      151
REMARK 921   NORMALIZED FREE ENERGY PREDICTED BY IDOCK:   -3.99 KCAL/MOL
REMARK 922        TOTAL FREE ENERGY PREDICTED BY IDOCK:   -5.65 KCAL/MOL
REMARK 923 INTER-LIGAND FREE ENERGY PREDICTED BY IDOCK:   -5.17 KCAL/MOL
REMARK 924 INTRA-LIGAND FREE ENERGY PREDICTED BY IDOCK:   -0.48 KCAL/MOL
REMARK 927      BINDING AFFINITY PREDICTED BY RF-SCORE:    0.00 PKD
ROOT
HETATM    1  O   UNL     1     -12.765  10.945  70.968  1.00  0.00    -0.363 OA 
HETATM    2  H   UNL     1     -13.522  10.382  71.072  1.00  0.00     0.000 HD 
HETATM    3  C   UNL     1     -12.243  10.888  69.648  1.00  0.00    -0.283 C  
ENDROOT
BRANCH   3   4
HETATM    4  C   UNL     1     -11.018  11.798  69.480  1.00  0.00    -0.064 C  
HETATM    5  O   UNL     1      -9.840  11.035  69.173  1.00  0.00    -0.183 OA 
HETATM    6  C   UNL     1      -9.692  10.607  67.810  1.00  0.00    -0.161 C  
HETATM    7  C   UNL     1      -9.755  11.805  66.829  1.00  0.00    -0.197 C  
HETATM    8  H   UNL     1     -12.948  12.486  66.616  1.00  0.00     0.000 HD 
HETATM    9  H   UNL     1     -10.396  14.772  68.347  1.00  0.00     0.000 HD 
HETATM   10  O   UNL     1      -8.618  12.675  66.952  1.00  0.00    -0.254 OA 
HETATM   11  C   UNL     1     -11.030  12.637  67.049  1.00  0.00    -0.265 C  
HETATM   12  H   UNL     1      -8.657  13.410  66.352  1.00  0.00     0.000 HD 
HETATM   13  C   UNL     1     -11.213  13.007  68.534  1.00  0.00    -0.274 C  
HETATM   14  O   UNL     1     -10.275  14.030  68.927  1.00  0.00    -0.223 OA 
HETATM   15  O   UNL     1     -12.161  11.972  66.481  1.00  0.00    -0.617 OA 
BRANCH   6  16
HETATM   16  O   UNL     1     -10.698   9.655  67.452  1.00  0.00    -0.275 OA 
BRANCH  16  17
HETATM   17  C   UNL     1     -10.329   8.402  67.062  1.00  0.00    -0.315 A  
HETATM   18  O   UNL     1     -11.478   7.151  68.785  1.00  0.00    -0.424 OA 
HETATM   19  C   UNL     1     -10.177   5.984  67.219  1.00  0.00    -0.239 A  
HETATM   20  H   UNL     1     -11.721   6.333  69.203  1.00  0.00     0.000 HD 
HETATM   21  C   UNL     1      -9.273   5.986  66.160  1.00  0.00    -0.138 A  
HETATM   22  C   UNL     1     -10.685   7.199  67.676  1.00  0.00    -0.244 A  
HETATM   23  O   UNL     1      -8.731   4.747  65.764  1.00  0.00    -0.121 OA 
HETATM   24  C   UNL     1      -7.790   4.668  64.746  1.00  0.00    -0.087 C  
HETATM   25  O   UNL     1      -7.279   3.608  64.403  1.00  0.00    -0.056 OA 
HETATM   26  C   UNL     1      -7.419   5.928  64.076  1.00  0.00    -0.078 C  
HETATM   27  C   UNL     1      -7.936   7.109  64.439  1.00  0.00    -0.101 C  
HETATM   28  C   UNL     1      -8.888   7.169  65.533  1.00  0.00     0.017 A  
HETATM   29  C   UNL     1      -9.422   8.376  65.992  1.00  0.00    -0.224 A  
ENDBRANCH  16  17
ENDBRANCH   6  16
ENDBRANCH   3   4
TORSDOF 3
ENDMDL
MODEL      152
REMARK 921   NORMALIZED FREE ENERGY PREDICTED BY IDOCK:   -3.98 KCAL/MOL
REMARK 922        TOTAL FREE ENERGY PREDICTED BY IDOCK:   -5.64 KCAL/MOL
REMARK 923 INTER-LIGAND FREE ENERGY PREDICTED BY IDOCK:   -5.08 KCAL/MOL
REMARK 924 INTRA-LIGAND FREE ENERGY PREDICTED BY IDOCK:   -0.56 KCAL/MOL
REMARK 927      BINDING AFFINITY PREDICTED BY RF-SCORE:    0.00 PKD
ROOT
HETATM    1  O   UNL     1      -7.801  12.987  69.169  1.00  0.00    -0.322 OA 
HETATM    2  H   UNL     1      -7.693  12.763  70.086  1.00  0.00     0.000 HD 
HETATM    3  C   UNL     1      -8.461  11.955  68.448  1.00  0.00    -0.155 C  
ENDROOT
BRANCH   3   4
HETATM    4  C   UNL     1      -8.634  12.316  66.966  1.00  0.00    -0.191 C  
HETATM    5  O   UNL     1      -8.258  11.221  66.115  1.00  0.00    -0.160 OA 
HETATM    6  C   UNL     1      -9.226  10.171  65.959  1.00  0.00    -0.158 C  
HETATM    7  C   UNL     1     -10.585  10.723  65.457  1.00  0.00    -0.135 C  
HETATM    8  H   UNL     1     -11.944  12.029  68.132  1.00  0.00     0.000 HD 
HETATM    9  H   UNL     1     -10.657  14.104  65.169  1.00  0.00     0.000 HD 
HETATM   10  O   UNL     1     -10.514  11.213  64.109  1.00  0.00    -0.333 OA 
HETATM   11  C   UNL     1     -11.091  11.860  66.361  1.00  0.00    -0.309 C  
HETATM   12  H   UNL     1     -11.346  11.552  63.801  1.00  0.00     0.000 HD 
HETATM   13  C   UNL     1     -10.003  12.928  66.587  1.00  0.00    -0.251 C  
HETATM   14  O   UNL     1      -9.816  13.728  65.402  1.00  0.00    -0.246 OA 
HETATM   15  O   UNL     1     -11.631  11.327  67.573  1.00  0.00    -0.508 OA 
BRANCH   6  16
HETATM   16  O   UNL     1      -9.431   9.466  67.186  1.00  0.00    -0.138 OA 
BRANCH  16  17
HETATM   17  C   UNL     1      -9.688   8.127  67.157  1.00  0.00    -0.199 A  
HETATM   18  O   UNL     1     -10.963   7.975  69.208  1.00  0.00    -0.413 OA 
HETATM   19  C   UNL     1     -10.537   6.012  67.993  1.00  0.00    -0.330 A  
HETATM   20  H   UNL     1     -11.455   7.477  69.851  1.00  0.00     0.000 HD 
HETATM   21  C   UNL     1      -9.896   5.357  66.945  1.00  0.00    -0.166 A  
HETATM   22  C   UNL     1     -10.410   7.396  68.102  1.00  0.00    -0.192 A  
HETATM   23  O   UNL     1      -9.991   3.951  66.900  1.00  0.00    -0.153 OA 
HETATM   24  C   UNL     1      -9.346   3.219  65.913  1.00  0.00    -0.119 C  
HETATM   25  O   UNL     1      -9.386   1.995  65.869  1.00  0.00    -0.030 OA 
HETATM   26  C   UNL     1      -8.594   3.980  64.898  1.00  0.00    -0.115 C  
HETATM   27  C   UNL     1      -8.505   5.316  64.926  1.00  0.00    -0.150 C  
HETATM   28  C   UNL     1      -9.157   6.054  65.993  1.00  0.00    -0.143 A  
HETATM   29  C   UNL     1      -9.058   7.444  66.107  1.00  0.00    -0.167 A  
ENDBRANCH  16  17
ENDBRANCH   6  16
ENDBRANCH   3   4
TORSDOF 3
ENDMDL
MODEL      153
REMARK 921   NORMALIZED FREE ENERGY PREDICTED BY IDOCK:   -3.98 KCAL/MOL
REMARK 922        TOTAL FREE ENERGY PREDICTED BY IDOCK:   -5.64 KCAL/MOL
REMARK 923 INTER-LIGAND FREE ENERGY PREDICTED BY IDOCK:   -4.71 KCAL/MOL
REMARK 924 INTRA-LIGAND FREE ENERGY PREDICTED BY IDOCK:   -0.92 KCAL/MOL
REMARK 927      BINDING AFFINITY PREDICTED BY RF-SCORE:    0.00 PKD
ROOT
HETATM    1  O   UNL     1     -11.174   5.370  74.012  1.00  0.00    -0.415 OA 
HETATM    2  H   UNL     1     -11.779   4.639  74.041  1.00  0.00     0.000 HD 
HETATM    3  C   UNL     1      -9.988   5.045  73.299  1.00  0.00    -0.159 C  
ENDROOT
BRANCH   3   4
HETATM    4  C   UNL     1      -9.009   6.227  73.252  1.00  0.00    -0.128 C  
HETATM    5  O   UNL     1      -8.254   6.230  72.029  1.00  0.00    -0.109 OA 
HETATM    6  C   UNL     1      -8.920   6.751  70.868  1.00  0.00    -0.150 C  
HETATM    7  C   UNL     1      -9.442   8.190  71.112  1.00  0.00    -0.157 C  
HETATM    8  H   UNL     1     -12.160   7.755  72.881  1.00  0.00     0.000 HD 
HETATM    9  H   UNL     1      -8.936   9.303  74.278  1.00  0.00     0.000 HD 
HETATM   10  O   UNL     1      -8.378   9.145  71.251  1.00  0.00    -0.288 OA 
HETATM   11  C   UNL     1     -10.322   8.256  72.372  1.00  0.00    -0.332 C  
HETATM   12  H   UNL     1      -8.698  10.026  71.401  1.00  0.00     0.000 HD 
HETATM   13  C   UNL     1      -9.621   7.609  73.583  1.00  0.00    -0.275 C  
HETATM   14  O   UNL     1      -8.561   8.454  74.074  1.00  0.00    -0.225 OA 
HETATM   15  O   UNL     1     -11.617   7.714  72.103  1.00  0.00    -0.281 OA 
BRANCH   6  16
HETATM   16  O   UNL     1     -10.012   5.916  70.476  1.00  0.00    -0.176 OA 
BRANCH  16  17
HETATM   17  C   UNL     1      -9.825   4.974  69.508  1.00  0.00    -0.211 A  
HETATM   18  O   UNL     1      -8.698   3.312  70.858  1.00  0.00    -0.069 OA 
HETATM   19  C   UNL     1      -9.012   2.888  68.571  1.00  0.00    -0.192 A  
HETATM   20  H   UNL     1      -8.276   2.467  70.963  1.00  0.00     0.000 HD 
HETATM   21  C   UNL     1      -9.409   3.318  67.307  1.00  0.00    -0.192 A  
HETATM   22  C   UNL     1      -9.206   3.732  69.663  1.00  0.00    -0.152 A  
HETATM   23  O   UNL     1      -9.141   2.468  66.216  1.00  0.00    -0.144 OA 
HETATM   24  C   UNL     1      -9.466   2.840  64.918  1.00  0.00    -0.108 C  
HETATM   25  O   UNL     1      -9.215   2.134  63.948  1.00  0.00    -0.101 OA 
HETATM   26  C   UNL     1     -10.138   4.141  64.743  1.00  0.00    -0.204 C  
HETATM   27  C   UNL     1     -10.406   4.952  65.775  1.00  0.00    -0.219 C  
HETATM   28  C   UNL     1     -10.019   4.555  67.117  1.00  0.00    -0.201 A  
HETATM   29  C   UNL     1     -10.224   5.380  68.227  1.00  0.00    -0.224 A  
ENDBRANCH  16  17
ENDBRANCH   6  16
ENDBRANCH   3   4
TORSDOF 3
ENDMDL
MODEL      154
REMARK 921   NORMALIZED FREE ENERGY PREDICTED BY IDOCK:   -3.96 KCAL/MOL
REMARK 922        TOTAL FREE ENERGY PREDICTED BY IDOCK:   -5.61 KCAL/MOL
REMARK 923 INTER-LIGAND FREE ENERGY PREDICTED BY IDOCK:   -5.24 KCAL/MOL
REMARK 924 INTRA-LIGAND FREE ENERGY PREDICTED BY IDOCK:   -0.38 KCAL/MOL
REMARK 927      BINDING AFFINITY PREDICTED BY RF-SCORE:    0.00 PKD
ROOT
HETATM    1  O   UNL     1      -9.399  15.322  69.933  1.00  0.00    -0.440 OA 
HETATM    2  H   UNL     1      -9.271  15.046  70.833  1.00  0.00     0.000 HD 
HETATM    3  C   UNL     1      -8.176  15.705  69.320  1.00  0.00    -0.253 C  
ENDROOT
BRANCH   3   4
HETATM    4  C   UNL     1      -8.383  16.151  67.865  1.00  0.00    -0.161 C  
HETATM    5  O   UNL     1      -8.100  15.082  66.947  1.00  0.00    -0.209 OA 
HETATM    6  C   UNL     1      -9.130  14.095  66.778  1.00  0.00    -0.247 C  
HETATM    7  C   UNL     1     -10.473  14.744  66.358  1.00  0.00    -0.293 C  
HETATM    8  H   UNL     1     -11.659  15.980  69.146  1.00  0.00     0.000 HD 
HETATM    9  H   UNL     1     -10.370  18.134  66.241  1.00  0.00     0.000 HD 
HETATM   10  O   UNL     1     -10.425  15.298  65.034  1.00  0.00    -0.399 OA 
HETATM   11  C   UNL     1     -10.883  15.858  67.337  1.00  0.00    -0.291 C  
HETATM   12  H   UNL     1     -11.248  15.696  64.777  1.00  0.00     0.000 HD 
HETATM   13  C   UNL     1      -9.729  16.853  67.572  1.00  0.00    -0.249 C  
HETATM   14  O   UNL     1      -9.543  17.702  66.421  1.00  0.00    -0.277 OA 
HETATM   15  O   UNL     1     -11.406  15.292  68.542  1.00  0.00    -0.293 OA 
BRANCH   6  16
HETATM   16  O   UNL     1      -9.328  13.339  67.976  1.00  0.00    -0.204 OA 
BRANCH  16  17
HETATM   17  C   UNL     1      -9.455  11.984  67.902  1.00  0.00    -0.196 A  
HETATM   18  O   UNL     1     -11.279  11.721  69.470  1.00  0.00    -0.348 OA 
HETATM   19  C   UNL     1     -10.345   9.804  68.490  1.00  0.00    -0.228 A  
HETATM   20  H   UNL     1     -11.902  11.183  69.945  1.00  0.00     0.000 HD 
HETATM   21  C   UNL     1      -9.364   9.206  67.703  1.00  0.00    -0.135 A  
HETATM   22  C   UNL     1     -10.370  11.193  68.600  1.00  0.00    -0.203 A  
HETATM   23  O   UNL     1      -9.328   7.798  67.665  1.00  0.00    -0.141 OA 
HETATM   24  C   UNL     1      -8.355   7.124  66.940  1.00  0.00    -0.118 C  
HETATM   25  O   UNL     1      -8.281   5.901  66.914  1.00  0.00    -0.105 OA 
HETATM   26  C   UNL     1      -7.393   7.947  66.183  1.00  0.00    -0.074 C  
HETATM   27  C   UNL     1      -7.425   9.286  66.205  1.00  0.00    -0.096 C  
HETATM   28  C   UNL     1      -8.429   9.965  67.005  1.00  0.00    -0.121 A  
HETATM   29  C   UNL     1      -8.481  11.358  67.110  1.00  0.00    -0.153 A  
ENDBRANCH  16  17
ENDBRANCH   6  16
ENDBRANCH   3   4
TORSDOF 3
ENDMDL
MODEL      155
REMARK 921   NORMALIZED FREE ENERGY PREDICTED BY IDOCK:   -3.91 KCAL/MOL
REMARK 922        TOTAL FREE ENERGY PREDICTED BY IDOCK:   -5.55 KCAL/MOL
REMARK 923 INTER-LIGAND FREE ENERGY PREDICTED BY IDOCK:   -5.00 KCAL/MOL
REMARK 924 INTRA-LIGAND FREE ENERGY PREDICTED BY IDOCK:   -0.56 KCAL/MOL
REMARK 927      BINDING AFFINITY PREDICTED BY RF-SCORE:    0.00 PKD
ROOT
HETATM    1  O   UNL     1      -7.166  11.767  68.598  1.00  0.00    -0.098 OA 
HETATM    2  H   UNL     1      -7.296  12.328  69.352  1.00  0.00     0.000 HD 
HETATM    3  C   UNL     1      -8.123  10.717  68.550  1.00  0.00    -0.125 C  
ENDROOT
BRANCH   3   4
HETATM    4  C   UNL     1      -7.912   9.809  67.330  1.00  0.00    -0.106 C  
HETATM    5  O   UNL     1      -7.847   8.426  67.714  1.00  0.00    -0.104 OA 
HETATM    6  C   UNL     1      -9.102   7.774  67.966  1.00  0.00    -0.128 C  
HETATM    7  C   UNL     1     -10.055   7.889  66.750  1.00  0.00    -0.281 C  
HETATM    8  H   UNL     1     -11.225  10.938  66.949  1.00  0.00     0.000 HD 
HETATM    9  H   UNL     1      -8.803   9.762  64.212  1.00  0.00     0.000 HD 
HETATM   10  O   UNL     1      -9.594   7.135  65.617  1.00  0.00    -0.302 OA 
HETATM   11  C   UNL     1     -10.232   9.355  66.318  1.00  0.00    -0.214 C  
HETATM   12  H   UNL     1     -10.178   7.206  64.871  1.00  0.00     0.000 HD 
HETATM   13  C   UNL     1      -8.872  10.058  66.143  1.00  0.00    -0.148 C  
HETATM   14  O   UNL     1      -8.214   9.608  64.941  1.00  0.00    -0.128 OA 
HETATM   15  O   UNL     1     -11.116  10.033  67.215  1.00  0.00    -0.229 OA 
BRANCH   6  16
HETATM   16  O   UNL     1      -9.748   8.316  69.121  1.00  0.00    -0.166 OA 
BRANCH  16  17
HETATM   17  C   UNL     1     -10.279   7.474  70.052  1.00  0.00    -0.215 A  
HETATM   18  O   UNL     1     -12.186   8.821  70.689  1.00  0.00    -0.488 OA 
HETATM   19  C   UNL     1     -11.829   6.777  71.786  1.00  0.00    -0.371 A  
HETATM   20  H   UNL     1     -12.971   8.967  71.203  1.00  0.00     0.000 HD 
HETATM   21  C   UNL     1     -11.033   5.661  72.028  1.00  0.00    -0.243 A  
HETATM   22  C   UNL     1     -11.433   7.689  70.809  1.00  0.00    -0.277 A  
HETATM   23  O   UNL     1     -11.428   4.792  73.066  1.00  0.00    -0.270 OA 
HETATM   24  C   UNL     1     -10.667   3.681  73.401  1.00  0.00    -0.209 C  
HETATM   25  O   UNL     1     -10.970   2.927  74.318  1.00  0.00    -0.150 OA 
HETATM   26  C   UNL     1      -9.456   3.431  72.597  1.00  0.00    -0.165 C  
HETATM   27  C   UNL     1      -9.077   4.245  71.603  1.00  0.00    -0.169 C  
HETATM   28  C   UNL     1      -9.870   5.423  71.300  1.00  0.00    -0.235 A  
HETATM   29  C   UNL     1      -9.499   6.338  70.311  1.00  0.00    -0.173 A  
ENDBRANCH  16  17
ENDBRANCH   6  16
ENDBRANCH   3   4
TORSDOF 3
ENDMDL
MODEL      156
REMARK 921   NORMALIZED FREE ENERGY PREDICTED BY IDOCK:   -3.90 KCAL/MOL
REMARK 922        TOTAL FREE ENERGY PREDICTED BY IDOCK:   -5.54 KCAL/MOL
REMARK 923 INTER-LIGAND FREE ENERGY PREDICTED BY IDOCK:   -5.06 KCAL/MOL
REMARK 924 INTRA-LIGAND FREE ENERGY PREDICTED BY IDOCK:   -0.48 KCAL/MOL
REMARK 927      BINDING AFFINITY PREDICTED BY RF-SCORE:    0.00 PKD
ROOT
HETATM    1  O   UNL     1     -10.844  15.144  64.236  1.00  0.00    -0.583 OA 
HETATM    2  H   UNL     1     -10.587  14.816  63.383  1.00  0.00     0.000 HD 
HETATM    3  C   UNL     1     -10.744  14.141  65.239  1.00  0.00    -0.364 C  
ENDROOT
BRANCH   3   4
HETATM    4  C   UNL     1     -11.159  14.671  66.618  1.00  0.00    -0.334 C  
HETATM    5  O   UNL     1     -10.959  13.680  67.639  1.00  0.00    -0.259 OA 
HETATM    6  C   UNL     1      -9.615  13.518  68.119  1.00  0.00    -0.215 C  
HETATM    7  C   UNL     1      -9.032  14.859  68.634  1.00  0.00    -0.184 C  
HETATM    8  H   UNL     1      -8.214  16.464  65.903  1.00  0.00     0.000 HD 
HETATM    9  H   UNL     1     -11.112  17.504  68.196  1.00  0.00     0.000 HD 
HETATM   10  O   UNL     1      -9.682  15.317  69.830  1.00  0.00    -0.434 OA 
HETATM   11  C   UNL     1      -9.146  15.961  67.566  1.00  0.00    -0.199 C  
HETATM   12  H   UNL     1      -9.325  16.139  70.145  1.00  0.00     0.000 HD 
HETATM   13  C   UNL     1     -10.577  16.052  67.002  1.00  0.00    -0.302 C  
HETATM   14  O   UNL     1     -11.469  16.656  67.961  1.00  0.00    -0.167 OA 
HETATM   15  O   UNL     1      -8.144  15.784  66.562  1.00  0.00    -0.265 OA 
BRANCH   6  16
HETATM   16  O   UNL     1      -8.758  12.994  67.102  1.00  0.00    -0.196 OA 
BRANCH  16  17
HETATM   17  C   UNL     1      -8.426  11.672  67.118  1.00  0.00    -0.162 A  
HETATM   18  O   UNL     1      -7.451  11.586  69.331  1.00  0.00    -0.321 OA 
HETATM   19  C   UNL     1      -7.452   9.640  68.020  1.00  0.00    -0.082 A  
HETATM   20  H   UNL     1      -7.030  11.116  70.040  1.00  0.00     0.000 HD 
HETATM   21  C   UNL     1      -7.688   9.004  66.804  1.00  0.00    -0.093 A  
HETATM   22  C   UNL     1      -7.806  10.981  68.161  1.00  0.00    -0.116 A  
HETATM   23  O   UNL     1      -7.261   7.667  66.674  1.00  0.00    -0.082 OA 
HETATM   24  C   UNL     1      -7.419   6.975  65.481  1.00  0.00    -0.086 C  
HETATM   25  O   UNL     1      -7.028   5.824  65.330  1.00  0.00    -0.060 OA 
HETATM   26  C   UNL     1      -8.089   7.688  64.377  1.00  0.00    -0.084 C  
HETATM   27  C   UNL     1      -8.508   8.954  64.493  1.00  0.00    -0.178 C  
HETATM   28  C   UNL     1      -8.293   9.668  65.739  1.00  0.00    -0.132 A  
HETATM   29  C   UNL     1      -8.660  11.006  65.906  1.00  0.00    -0.165 A  
ENDBRANCH  16  17
ENDBRANCH   6  16
ENDBRANCH   3   4
TORSDOF 3
ENDMDL
MODEL      157
REMARK 921   NORMALIZED FREE ENERGY PREDICTED BY IDOCK:   -3.87 KCAL/MOL
REMARK 922        TOTAL FREE ENERGY PREDICTED BY IDOCK:   -5.51 KCAL/MOL
REMARK 923 INTER-LIGAND FREE ENERGY PREDICTED BY IDOCK:   -4.69 KCAL/MOL
REMARK 924 INTRA-LIGAND FREE ENERGY PREDICTED BY IDOCK:   -0.82 KCAL/MOL
REMARK 927      BINDING AFFINITY PREDICTED BY RF-SCORE:    0.00 PKD
ROOT
HETATM    1  O   UNL     1     -10.030   9.602  65.013  1.00  0.00    -0.425 OA 
HETATM    2  H   UNL     1     -10.361   8.981  64.376  1.00  0.00     0.000 HD 
HETATM    3  C   UNL     1     -10.366   9.225  66.341  1.00  0.00    -0.168 C  
ENDROOT
BRANCH   3   4
HETATM    4  C   UNL     1      -9.832  10.230  67.371  1.00  0.00    -0.179 C  
HETATM    5  O   UNL     1     -10.415  10.009  68.666  1.00  0.00    -0.187 OA 
HETATM    6  C   UNL     1      -9.860   8.936  69.443  1.00  0.00    -0.183 C  
HETATM    7  C   UNL     1      -8.331   9.104  69.630  1.00  0.00    -0.130 C  
HETATM    8  H   UNL     1      -7.074   8.124  66.773  1.00  0.00     0.000 HD 
HETATM    9  H   UNL     1      -7.042  11.770  67.973  1.00  0.00     0.000 HD 
HETATM   10  O   UNL     1      -7.999  10.226  70.463  1.00  0.00    -0.412 OA 
HETATM   11  C   UNL     1      -7.621   9.277  68.276  1.00  0.00    -0.083 C  
HETATM   12  H   UNL     1      -7.062  10.329  70.577  1.00  0.00     0.000 HD 
HETATM   13  C   UNL     1      -8.293  10.371  67.424  1.00  0.00    -0.121 C  
HETATM   14  O   UNL     1      -7.988  11.683  67.942  1.00  0.00    -0.119 OA 
HETATM   15  O   UNL     1      -7.512   8.017  67.608  1.00  0.00    -0.093 OA 
BRANCH   6  16
HETATM   16  O   UNL     1     -10.122   7.667  68.840  1.00  0.00    -0.186 OA 
BRANCH  16  17
HETATM   17  C   UNL     1      -9.958   6.527  69.571  1.00  0.00    -0.159 A  
HETATM   18  O   UNL     1      -8.683   5.259  67.953  1.00  0.00    -0.104 OA 
HETATM   19  C   UNL     1      -9.250   4.244  69.992  1.00  0.00    -0.207 A  
HETATM   20  H   UNL     1      -8.222   4.473  67.683  1.00  0.00     0.000 HD 
HETATM   21  C   UNL     1      -9.941   4.268  71.201  1.00  0.00    -0.156 A  
HETATM   22  C   UNL     1      -9.281   5.373  69.174  1.00  0.00    -0.116 A  
HETATM   23  O   UNL     1      -9.942   3.090  71.974  1.00  0.00    -0.165 OA 
HETATM   24  C   UNL     1     -10.643   3.016  73.170  1.00  0.00    -0.167 C  
HETATM   25  O   UNL     1     -10.687   1.995  73.846  1.00  0.00    -0.122 OA 
HETATM   26  C   UNL     1     -11.347   4.235  73.610  1.00  0.00    -0.278 C  
HETATM   27  C   UNL     1     -11.345   5.362  72.887  1.00  0.00    -0.365 C  
HETATM   28  C   UNL     1     -10.637   5.399  71.620  1.00  0.00    -0.284 A  
HETATM   29  C   UNL     1     -10.640   6.528  70.796  1.00  0.00    -0.278 A  
ENDBRANCH  16  17
ENDBRANCH   6  16
ENDBRANCH   3   4
TORSDOF 3
ENDMDL
MODEL      158
REMARK 921   NORMALIZED FREE ENERGY PREDICTED BY IDOCK:   -3.84 KCAL/MOL
REMARK 922        TOTAL FREE ENERGY PREDICTED BY IDOCK:   -5.48 KCAL/MOL
REMARK 923 INTER-LIGAND FREE ENERGY PREDICTED BY IDOCK:   -4.46 KCAL/MOL
REMARK 924 INTRA-LIGAND FREE ENERGY PREDICTED BY IDOCK:   -1.01 KCAL/MOL
REMARK 927      BINDING AFFINITY PREDICTED BY RF-SCORE:    0.00 PKD
ROOT
HETATM    1  O   UNL     1     -12.263  11.073  68.992  1.00  0.00    -0.585 OA 
HETATM    2  H   UNL     1     -13.030  10.522  69.090  1.00  0.00     0.000 HD 
HETATM    3  C   UNL     1     -11.990  11.358  67.627  1.00  0.00     0.083 C  
ENDROOT
BRANCH   3   4
HETATM    4  C   UNL     1     -10.750  12.249  67.468  1.00  0.00    -0.225 C  
HETATM    5  O   UNL     1      -9.681  11.811  68.323  1.00  0.00    -0.189 OA 
HETATM    6  C   UNL     1      -8.916  10.685  67.864  1.00  0.00    -0.138 C  
HETATM    7  C   UNL     1      -8.327  10.937  66.453  1.00  0.00    -0.162 C  
HETATM    8  H   UNL     1     -10.862  10.452  64.442  1.00  0.00     0.000 HD 
HETATM    9  H   UNL     1      -9.284  13.892  65.087  1.00  0.00     0.000 HD 
HETATM   10  O   UNL     1      -7.314  11.955  66.454  1.00  0.00    -0.371 OA 
HETATM   11  C   UNL     1      -9.426  11.345  65.457  1.00  0.00    -0.227 C  
HETATM   12  H   UNL     1      -6.954  12.110  65.589  1.00  0.00     0.000 HD 
HETATM   13  C   UNL     1     -10.290  12.494  66.011  1.00  0.00    -0.256 C  
HETATM   14  O   UNL     1      -9.566  13.741  65.981  1.00  0.00    -0.258 OA 
HETATM   15  O   UNL     1     -10.184  10.200  65.057  1.00  0.00    -0.309 OA 
BRANCH   6  16
HETATM   16  O   UNL     1      -9.707   9.495  67.836  1.00  0.00    -0.142 OA 
BRANCH  16  17
HETATM   17  C   UNL     1      -9.481   8.514  68.757  1.00  0.00    -0.143 A  
HETATM   18  O   UNL     1     -11.634   8.571  69.859  1.00  0.00    -0.452 OA 
HETATM   19  C   UNL     1      -9.993   7.097  70.660  1.00  0.00    -0.195 A  
HETATM   20  H   UNL     1     -12.244   8.261  70.519  1.00  0.00     0.000 HD 
HETATM   21  C   UNL     1      -8.684   6.622  70.640  1.00  0.00    -0.143 A  
HETATM   22  C   UNL     1     -10.377   8.058  69.726  1.00  0.00    -0.219 A  
HETATM   23  O   UNL     1      -8.311   5.698  71.637  1.00  0.00    -0.121 OA 
HETATM   24  C   UNL     1      -7.014   5.210  71.714  1.00  0.00    -0.065 C  
HETATM   25  O   UNL     1      -6.655   4.431  72.589  1.00  0.00    -0.041 OA 
HETATM   26  C   UNL     1      -6.063   5.669  70.685  1.00  0.00    -0.030 C  
HETATM   27  C   UNL     1      -6.409   6.539  69.728  1.00  0.00    -0.042 C  
HETATM   28  C   UNL     1      -7.762   7.065  69.695  1.00  0.00    -0.110 A  
HETATM   29  C   UNL     1      -8.171   8.015  68.754  1.00  0.00    -0.126 A  
ENDBRANCH  16  17
ENDBRANCH   6  16
ENDBRANCH   3   4
TORSDOF 3
ENDMDL
MODEL      159
REMARK 921   NORMALIZED FREE ENERGY PREDICTED BY IDOCK:   -3.83 KCAL/MOL
REMARK 922        TOTAL FREE ENERGY PREDICTED BY IDOCK:   -5.47 KCAL/MOL
REMARK 923 INTER-LIGAND FREE ENERGY PREDICTED BY IDOCK:   -5.17 KCAL/MOL
REMARK 924 INTRA-LIGAND FREE ENERGY PREDICTED BY IDOCK:   -0.29 KCAL/MOL
REMARK 927      BINDING AFFINITY PREDICTED BY RF-SCORE:    0.00 PKD
ROOT
HETATM    1  O   UNL     1     -12.780  10.432  70.000  1.00  0.00    -0.551 OA 
HETATM    2  H   UNL     1     -13.349   9.674  69.931  1.00  0.00     0.000 HD 
HETATM    3  C   UNL     1     -12.002  10.615  68.825  1.00  0.00     0.001 C  
ENDROOT
BRANCH   3   4
HETATM    4  C   UNL     1     -11.083  11.840  68.937  1.00  0.00    -0.243 C  
HETATM    5  O   UNL     1      -9.724  11.503  68.612  1.00  0.00    -0.197 OA 
HETATM    6  C   UNL     1      -9.406  11.408  67.214  1.00  0.00    -0.167 C  
HETATM    7  C   UNL     1      -9.770  12.712  66.460  1.00  0.00    -0.256 C  
HETATM    8  H   UNL     1     -13.013  12.522  66.072  1.00  0.00     0.000 HD 
HETATM    9  H   UNL     1     -11.293  15.033  68.411  1.00  0.00     0.000 HD 
HETATM   10  O   UNL     1      -8.936  13.817  66.840  1.00  0.00    -0.237 OA 
HETATM   11  C   UNL     1     -11.237  13.104  66.702  1.00  0.00    -0.304 C  
HETATM   12  H   UNL     1      -9.159  14.617  66.379  1.00  0.00     0.000 HD 
HETATM   13  C   UNL     1     -11.577  13.110  68.206  1.00  0.00    -0.335 C  
HETATM   14  O   UNL     1     -10.988  14.253  68.860  1.00  0.00    -0.242 OA 
HETATM   15  O   UNL     1     -12.107  12.280  65.922  1.00  0.00    -0.609 OA 
BRANCH   6  16
HETATM   16  O   UNL     1     -10.082  10.307  66.601  1.00  0.00    -0.206 OA 
BRANCH  16  17
HETATM   17  C   UNL     1      -9.548   9.056  66.690  1.00  0.00    -0.213 A  
HETATM   18  O   UNL     1      -7.754   9.330  65.090  1.00  0.00    -0.103 OA 
HETATM   19  C   UNL     1      -8.045   7.239  66.114  1.00  0.00    -0.121 A  
HETATM   20  H   UNL     1      -7.004   8.998  64.610  1.00  0.00     0.000 HD 
HETATM   21  C   UNL     1      -8.786   6.386  66.928  1.00  0.00    -0.119 A  
HETATM   22  C   UNL     1      -8.446   8.568  65.985  1.00  0.00    -0.140 A  
HETATM   23  O   UNL     1      -8.392   5.035  66.987  1.00  0.00    -0.107 OA 
HETATM   24  C   UNL     1      -9.103   4.111  67.740  1.00  0.00    -0.136 C  
HETATM   25  O   UNL     1      -8.802   2.924  67.783  1.00  0.00    -0.107 OA 
HETATM   26  C   UNL     1     -10.259   4.617  68.504  1.00  0.00     0.002 C  
HETATM   27  C   UNL     1     -10.636   5.901  68.463  1.00  0.00    -0.317 C  
HETATM   28  C   UNL     1      -9.898   6.838  67.635  1.00  0.00    -0.155 A  
HETATM   29  C   UNL     1     -10.273   8.179  67.509  1.00  0.00    -0.309 A  
ENDBRANCH  16  17
ENDBRANCH   6  16
ENDBRANCH   3   4
TORSDOF 3
ENDMDL
MODEL      160
REMARK 921   NORMALIZED FREE ENERGY PREDICTED BY IDOCK:   -3.83 KCAL/MOL
REMARK 922        TOTAL FREE ENERGY PREDICTED BY IDOCK:   -5.46 KCAL/MOL
REMARK 923 INTER-LIGAND FREE ENERGY PREDICTED BY IDOCK:   -4.67 KCAL/MOL
REMARK 924 INTRA-LIGAND FREE ENERGY PREDICTED BY IDOCK:   -0.79 KCAL/MOL
REMARK 927      BINDING AFFINITY PREDICTED BY RF-SCORE:    0.00 PKD
ROOT
HETATM    1  O   UNL     1     -12.366   8.574  70.734  1.00  0.00    -0.496 OA 
HETATM    2  H   UNL     1     -12.598   9.494  70.714  1.00  0.00     0.000 HD 
HETATM    3  C   UNL     1     -11.955   8.162  72.030  1.00  0.00    -0.340 C  
ENDROOT
BRANCH   3   4
HETATM    4  C   UNL     1     -11.579   6.673  72.062  1.00  0.00    -0.301 C  
HETATM    5  O   UNL     1     -10.938   6.271  70.840  1.00  0.00    -0.256 OA 
HETATM    6  C   UNL     1      -9.548   6.607  70.708  1.00  0.00    -0.175 C  
HETATM    7  C   UNL     1      -8.715   6.050  71.890  1.00  0.00    -0.137 C  
HETATM    8  H   UNL     1      -9.324   8.137  74.336  1.00  0.00     0.000 HD 
HETATM    9  H   UNL     1     -10.587   4.512  74.267  1.00  0.00     0.000 HD 
HETATM   10  O   UNL     1      -8.639   4.616  71.881  1.00  0.00    -0.117 OA 
HETATM   11  C   UNL     1      -9.301   6.497  73.241  1.00  0.00    -0.131 C  
HETATM   12  H   UNL     1      -8.129   4.274  72.606  1.00  0.00     0.000 HD 
HETATM   13  C   UNL     1     -10.813   6.209  73.322  1.00  0.00    -0.244 C  
HETATM   14  O   UNL     1     -11.057   4.797  73.492  1.00  0.00    -0.300 OA 
HETATM   15  O   UNL     1      -8.963   7.861  73.502  1.00  0.00    -0.238 OA 
BRANCH   6  16
HETATM   16  O   UNL     1      -9.359   8.021  70.626  1.00  0.00    -0.156 OA 
BRANCH  16  17
HETATM   17  C   UNL     1      -8.673   8.549  69.572  1.00  0.00    -0.136 A  
HETATM   18  O   UNL     1      -7.531  10.324  70.757  1.00  0.00    -0.399 OA 
HETATM   19  C   UNL     1      -7.218  10.127  68.439  1.00  0.00    -0.076 A  
HETATM   20  H   UNL     1      -6.938  11.065  70.780  1.00  0.00     0.000 HD 
HETATM   21  C   UNL     1      -7.549   9.536  67.222  1.00  0.00    -0.091 A  
HETATM   22  C   UNL     1      -7.801   9.639  69.607  1.00  0.00    -0.129 A  
HETATM   23  O   UNL     1      -6.991  10.094  66.054  1.00  0.00    -0.102 OA 
HETATM   24  C   UNL     1      -7.304   9.592  64.798  1.00  0.00    -0.119 C  
HETATM   25  O   UNL     1      -6.859  10.078  63.765  1.00  0.00    -0.123 OA 
HETATM   26  C   UNL     1      -8.209   8.429  64.749  1.00  0.00    -0.162 C  
HETATM   27  C   UNL     1      -8.737   7.886  65.853  1.00  0.00    -0.180 C  
HETATM   28  C   UNL     1      -8.424   8.456  67.151  1.00  0.00    -0.123 A  
HETATM   29  C   UNL     1      -8.984   7.967  68.335  1.00  0.00    -0.133 A  
ENDBRANCH  16  17
ENDBRANCH   6  16
ENDBRANCH   3   4
TORSDOF 3
ENDMDL
MODEL      161
REMARK 921   NORMALIZED FREE ENERGY PREDICTED BY IDOCK:   -3.82 KCAL/MOL
REMARK 922        TOTAL FREE ENERGY PREDICTED BY IDOCK:   -5.45 KCAL/MOL
REMARK 923 INTER-LIGAND FREE ENERGY PREDICTED BY IDOCK:   -5.10 KCAL/MOL
REMARK 924 INTRA-LIGAND FREE ENERGY PREDICTED BY IDOCK:   -0.34 KCAL/MOL
REMARK 927      BINDING AFFINITY PREDICTED BY RF-SCORE:    0.00 PKD
ROOT
HETATM    1  O   UNL     1      -7.412  16.553  67.380  1.00  0.00    -0.130 OA 
HETATM    2  H   UNL     1      -6.511  16.405  67.119  1.00  0.00     0.000 HD 
HETATM    3  C   UNL     1      -8.329  16.020  66.435  1.00  0.00    -0.309 C  
ENDROOT
BRANCH   3   4
HETATM    4  C   UNL     1      -9.786  16.259  66.858  1.00  0.00    -0.238 C  
HETATM    5  O   UNL     1     -10.669  15.304  66.247  1.00  0.00    -0.305 OA 
HETATM    6  C   UNL     1     -10.721  14.002  66.852  1.00  0.00    -0.285 C  
HETATM    7  C   UNL     1     -11.079  14.091  68.358  1.00  0.00    -0.253 C  
HETATM    8  H   UNL     1      -8.279  15.005  69.783  1.00  0.00     0.000 HD 
HETATM    9  H   UNL     1     -11.364  17.273  69.503  1.00  0.00     0.000 HD 
HETATM   10  O   UNL     1     -12.428  14.533  68.576  1.00  0.00    -0.589 OA 
HETATM   11  C   UNL     1     -10.129  15.047  69.100  1.00  0.00    -0.245 C  
HETATM   12  H   UNL     1     -12.647  14.587  69.499  1.00  0.00     0.000 HD 
HETATM   13  C   UNL     1     -10.020  16.405  68.379  1.00  0.00    -0.238 C  
HETATM   14  O   UNL     1     -11.221  17.183  68.568  1.00  0.00    -0.202 OA 
HETATM   15  O   UNL     1      -8.865  14.416  69.324  1.00  0.00     0.021 OA 
BRANCH   6  16
HETATM   16  O   UNL     1      -9.478  13.311  66.706  1.00  0.00    -0.243 OA 
BRANCH  16  17
HETATM   17  C   UNL     1      -9.343  12.368  65.730  1.00  0.00    -0.011 A  
HETATM   18  O   UNL     1     -11.043  13.190  64.217  1.00  0.00    -0.362 OA 
HETATM   19  C   UNL     1      -9.887  11.225  63.659  1.00  0.00    -0.377 A  
HETATM   20  H   UNL     1     -11.539  13.136  63.409  1.00  0.00     0.000 HD 
HETATM   21  C   UNL     1      -8.989  10.216  63.996  1.00  0.00    -0.238 A  
HETATM   22  C   UNL     1     -10.072  12.288  64.542  1.00  0.00    -0.254 A  
HETATM   23  O   UNL     1      -8.873   9.125  63.112  1.00  0.00    -0.196 OA 
HETATM   24  C   UNL     1      -8.034   8.056  63.396  1.00  0.00    -0.133 C  
HETATM   25  O   UNL     1      -7.937   7.081  62.661  1.00  0.00    -0.125 OA 
HETATM   26  C   UNL     1      -7.244   8.137  64.639  1.00  0.00    -0.083 C  
HETATM   27  C   UNL     1      -7.340   9.173  65.481  1.00  0.00    -0.089 C  
HETATM   28  C   UNL     1      -8.256  10.259  65.180  1.00  0.00    -0.161 A  
HETATM   29  C   UNL     1      -8.440  11.342  66.044  1.00  0.00    -0.058 A  
ENDBRANCH  16  17
ENDBRANCH   6  16
ENDBRANCH   3   4
TORSDOF 3
ENDMDL
MODEL      162
REMARK 921   NORMALIZED FREE ENERGY PREDICTED BY IDOCK:   -3.80 KCAL/MOL
REMARK 922        TOTAL FREE ENERGY PREDICTED BY IDOCK:   -5.43 KCAL/MOL
REMARK 923 INTER-LIGAND FREE ENERGY PREDICTED BY IDOCK:   -5.07 KCAL/MOL
REMARK 924 INTRA-LIGAND FREE ENERGY PREDICTED BY IDOCK:   -0.37 KCAL/MOL
REMARK 927      BINDING AFFINITY PREDICTED BY RF-SCORE:    0.00 PKD
ROOT
HETATM    1  O   UNL     1      -7.266  15.495  68.874  1.00  0.00    -0.124 OA 
HETATM    2  H   UNL     1      -6.625  15.235  69.524  1.00  0.00     0.000 HD 
HETATM    3  C   UNL     1      -8.564  15.629  69.438  1.00  0.00    -0.248 C  
ENDROOT
BRANCH   3   4
HETATM    4  C   UNL     1      -9.601  16.050  68.388  1.00  0.00    -0.206 C  
HETATM    5  O   UNL     1      -9.547  15.198  67.232  1.00  0.00    -0.206 OA 
HETATM    6  C   UNL     1     -10.198  13.923  67.346  1.00  0.00    -0.252 C  
HETATM    7  C   UNL     1     -11.685  14.081  67.754  1.00  0.00    -0.368 C  
HETATM    8  H   UNL     1     -11.562  14.675  70.969  1.00  0.00     0.000 HD 
HETATM    9  H   UNL     1     -12.596  17.294  68.359  1.00  0.00     0.000 HD 
HETATM   10  O   UNL     1     -12.478  14.686  66.720  1.00  0.00    -0.444 OA 
HETATM   11  C   UNL     1     -11.824  14.928  69.031  1.00  0.00    -0.301 C  
HETATM   12  H   UNL     1     -13.388  14.784  66.971  1.00  0.00     0.000 HD 
HETATM   13  C   UNL     1     -11.040  16.250  68.918  1.00  0.00    -0.345 C  
HETATM   14  O   UNL     1     -11.712  17.170  68.033  1.00  0.00     0.387 OA 
HETATM   15  O   UNL     1     -11.476  14.153  70.181  1.00  0.00    -0.242 OA 
BRANCH   6  16
HETATM   16  O   UNL     1      -9.538  13.084  68.296  1.00  0.00    -0.219 OA 
BRANCH  16  17
HETATM   17  C   UNL     1      -9.631  11.729  68.177  1.00  0.00    -0.193 A  
HETATM   18  O   UNL     1      -9.376  11.574  65.776  1.00  0.00    -0.226 OA 
HETATM   19  C   UNL     1      -9.744   9.608  67.003  1.00  0.00    -0.232 A  
HETATM   20  H   UNL     1      -9.326  11.071  64.971  1.00  0.00     0.000 HD 
HETATM   21  C   UNL     1     -10.045   8.974  68.205  1.00  0.00    -0.192 A  
HETATM   22  C   UNL     1      -9.557  10.989  66.995  1.00  0.00    -0.177 A  
HETATM   23  O   UNL     1     -10.290   7.587  68.168  1.00  0.00    -0.190 OA 
HETATM   24  C   UNL     1     -10.640   6.887  69.314  1.00  0.00    -0.226 C  
HETATM   25  O   UNL     1     -10.888   5.688  69.304  1.00  0.00    -0.303 OA 
HETATM   26  C   UNL     1     -10.702   7.653  70.573  1.00  0.00    -0.241 C  
HETATM   27  C   UNL     1     -10.463   8.970  70.621  1.00  0.00    -0.285 C  
HETATM   28  C   UNL     1     -10.138   9.684  69.400  1.00  0.00    -0.213 A  
HETATM   29  C   UNL     1      -9.929  11.066  69.376  1.00  0.00    -0.019 A  
ENDBRANCH  16  17
ENDBRANCH   6  16
ENDBRANCH   3   4
TORSDOF 3
ENDMDL
MODEL      163
REMARK 921   NORMALIZED FREE ENERGY PREDICTED BY IDOCK:   -3.76 KCAL/MOL
REMARK 922        TOTAL FREE ENERGY PREDICTED BY IDOCK:   -5.38 KCAL/MOL
REMARK 923 INTER-LIGAND FREE ENERGY PREDICTED BY IDOCK:   -5.41 KCAL/MOL
REMARK 924 INTRA-LIGAND FREE ENERGY PREDICTED BY IDOCK:    0.03 KCAL/MOL
REMARK 927      BINDING AFFINITY PREDICTED BY RF-SCORE:    0.00 PKD
ROOT
HETATM    1  O   UNL     1      -8.015   8.732  69.461  1.00  0.00    -0.092 OA 
HETATM    2  H   UNL     1      -7.144   8.355  69.428  1.00  0.00     0.000 HD 
HETATM    3  C   UNL     1      -8.834   8.084  70.424  1.00  0.00    -0.141 C  
ENDROOT
BRANCH   3   4
HETATM    4  C   UNL     1     -10.242   8.694  70.477  1.00  0.00    -0.197 C  
HETATM    5  O   UNL     1     -11.093   8.130  69.466  1.00  0.00    -0.112 OA 
HETATM    6  C   UNL     1     -11.655   6.839  69.750  1.00  0.00    -0.227 C  
HETATM    7  C   UNL     1     -12.440   6.844  71.086  1.00  0.00    -0.349 C  
HETATM    8  H   UNL     1     -10.105   6.696  73.373  1.00  0.00     0.000 HD 
HETATM    9  H   UNL     1     -12.277   9.799  72.748  1.00  0.00     0.000 HD 
HETATM   10  O   UNL     1     -13.635   7.639  71.018  1.00  0.00    -0.597 OA 
HETATM   11  C   UNL     1     -11.570   7.373  72.240  1.00  0.00    -0.292 C  
HETATM   12  H   UNL     1     -14.115   7.642  71.838  1.00  0.00     0.000 HD 
HETATM   13  C   UNL     1     -10.905   8.714  71.875  1.00  0.00    -0.348 C  
HETATM   14  O   UNL     1     -11.871   9.786  71.889  1.00  0.00    -0.342 OA 
HETATM   15  O   UNL     1     -10.642   6.370  72.661  1.00  0.00    -0.207 OA 
BRANCH   6  16
HETATM   16  O   UNL     1     -10.643   5.831  69.805  1.00  0.00    -0.260 OA 
BRANCH  16  17
HETATM   17  C   UNL     1     -10.163   5.296  68.646  1.00  0.00    -0.153 A  
HETATM   18  O   UNL     1     -11.550   6.530  67.094  1.00  0.00    -0.743 OA 
HETATM   19  C   UNL     1     -10.052   4.933  66.248  1.00  0.00    -0.285 A  
HETATM   20  H   UNL     1     -11.830   6.744  66.212  1.00  0.00     0.000 HD 
HETATM   21  C   UNL     1      -9.137   3.905  66.460  1.00  0.00    -0.149 A  
HETATM   22  C   UNL     1     -10.575   5.610  67.349  1.00  0.00    -0.237 A  
HETATM   23  O   UNL     1      -8.677   3.199  65.331  1.00  0.00    -0.110 OA 
HETATM   24  C   UNL     1      -7.798   2.132  65.460  1.00  0.00    -0.073 C  
HETATM   25  O   UNL     1      -7.407   1.481  64.498  1.00  0.00    -0.050 OA 
HETATM   26  C   UNL     1      -7.340   1.803  66.822  1.00  0.00    -0.056 C  
HETATM   27  C   UNL     1      -7.764   2.473  67.901  1.00  0.00    -0.059 C  
HETATM   28  C   UNL     1      -8.715   3.558  67.741  1.00  0.00    -0.129 A  
HETATM   29  C   UNL     1      -9.234   4.262  68.832  1.00  0.00    -0.205 A  
ENDBRANCH  16  17
ENDBRANCH   6  16
ENDBRANCH   3   4
TORSDOF 3
ENDMDL
MODEL      164
REMARK 921   NORMALIZED FREE ENERGY PREDICTED BY IDOCK:   -3.76 KCAL/MOL
REMARK 922        TOTAL FREE ENERGY PREDICTED BY IDOCK:   -5.38 KCAL/MOL
REMARK 923 INTER-LIGAND FREE ENERGY PREDICTED BY IDOCK:   -4.64 KCAL/MOL
REMARK 924 INTRA-LIGAND FREE ENERGY PREDICTED BY IDOCK:   -0.74 KCAL/MOL
REMARK 927      BINDING AFFINITY PREDICTED BY RF-SCORE:    0.00 PKD
ROOT
HETATM    1  O   UNL     1      -8.457   6.672  73.481  1.00  0.00    -0.120 OA 
HETATM    2  H   UNL     1      -7.604   6.849  73.859  1.00  0.00     0.000 HD 
HETATM    3  C   UNL     1      -9.220   7.860  73.324  1.00  0.00    -0.282 C  
ENDROOT
BRANCH   3   4
HETATM    4  C   UNL     1     -10.600   7.574  72.713  1.00  0.00    -0.313 C  
HETATM    5  O   UNL     1     -10.889   8.476  71.633  1.00  0.00    -0.245 OA 
HETATM    6  C   UNL     1     -10.280   8.174  70.367  1.00  0.00    -0.201 C  
HETATM    7  C   UNL     1     -10.629   6.739  69.899  1.00  0.00    -0.222 C  
HETATM    8  H   UNL     1      -8.658   4.826  71.676  1.00  0.00     0.000 HD 
HETATM    9  H   UNL     1     -12.464   4.982  72.148  1.00  0.00     0.000 HD 
HETATM   10  O   UNL     1     -12.017   6.594  69.560  1.00  0.00    -0.642 OA 
HETATM   11  C   UNL     1     -10.282   5.701  70.980  1.00  0.00    -0.220 C  
HETATM   12  H   UNL     1     -12.232   5.714  69.273  1.00  0.00     0.000 HD 
HETATM   13  C   UNL     1     -10.871   6.096  72.349  1.00  0.00    -0.243 C  
HETATM   14  O   UNL     1     -12.298   5.890  72.371  1.00  0.00    -0.198 OA 
HETATM   15  O   UNL     1      -8.872   5.467  71.009  1.00  0.00    -0.134 OA 
BRANCH   6  16
HETATM   16  O   UNL     1      -8.858   8.315  70.427  1.00  0.00    -0.136 OA 
BRANCH  16  17
HETATM   17  C   UNL     1      -8.268   9.419  69.885  1.00  0.00    -0.149 A  
HETATM   18  O   UNL     1      -6.176   9.323  71.097  1.00  0.00    -0.064 OA 
HETATM   19  C   UNL     1      -6.542  11.103  69.613  1.00  0.00    -0.139 A  
HETATM   20  H   UNL     1      -5.313   9.662  71.302  1.00  0.00     0.000 HD 
HETATM   21  C   UNL     1      -7.387  11.811  68.762  1.00  0.00    -0.114 A  
HETATM   22  C   UNL     1      -6.999   9.917  70.185  1.00  0.00    -0.138 A  
HETATM   23  O   UNL     1      -6.918  13.038  68.250  1.00  0.00    -0.081 OA 
HETATM   24  C   UNL     1      -7.714  13.826  67.431  1.00  0.00    -0.143 C  
HETATM   25  O   UNL     1      -7.344  14.910  66.998  1.00  0.00    -0.111 OA 
HETATM   26  C   UNL     1      -9.050  13.302  67.090  1.00  0.00    -0.231 C  
HETATM   27  C   UNL     1      -9.502  12.133  67.564  1.00  0.00    -0.180 C  
HETATM   28  C   UNL     1      -8.663  11.348  68.452  1.00  0.00    -0.157 A  
HETATM   29  C   UNL     1      -9.097  10.147  69.020  1.00  0.00    -0.176 A  
ENDBRANCH  16  17
ENDBRANCH   6  16
ENDBRANCH   3   4
TORSDOF 3
ENDMDL
MODEL      165
REMARK 921   NORMALIZED FREE ENERGY PREDICTED BY IDOCK:   -3.74 KCAL/MOL
REMARK 922        TOTAL FREE ENERGY PREDICTED BY IDOCK:   -5.36 KCAL/MOL
REMARK 923 INTER-LIGAND FREE ENERGY PREDICTED BY IDOCK:   -5.17 KCAL/MOL
REMARK 924 INTRA-LIGAND FREE ENERGY PREDICTED BY IDOCK:   -0.18 KCAL/MOL
REMARK 927      BINDING AFFINITY PREDICTED BY RF-SCORE:    0.00 PKD
ROOT
HETATM    1  O   UNL     1     -12.092  12.280  70.326  1.00  0.00    -0.341 OA 
HETATM    2  H   UNL     1     -12.725  11.689  70.716  1.00  0.00     0.000 HD 
HETATM    3  C   UNL     1     -12.589  12.872  69.133  1.00  0.00     0.588 C  
ENDROOT
BRANCH   3   4
HETATM    4  C   UNL     1     -11.565  13.827  68.502  1.00  0.00    -0.338 C  
HETATM    5  O   UNL     1     -10.226  13.328  68.653  1.00  0.00    -0.232 OA 
HETATM    6  C   UNL     1      -9.818  12.303  67.733  1.00  0.00    -0.201 C  
HETATM    7  C   UNL     1      -9.997  12.758  66.262  1.00  0.00    -0.264 C  
HETATM    8  H   UNL     1     -13.207  12.429  65.718  1.00  0.00     0.000 HD 
HETATM    9  H   UNL     1     -11.424  15.821  65.949  1.00  0.00     0.000 HD 
HETATM   10  O   UNL     1      -9.089  13.809  65.898  1.00  0.00    -0.472 OA 
HETATM   11  C   UNL     1     -11.433  13.244  66.001  1.00  0.00    -0.330 C  
HETATM   12  H   UNL     1      -9.199  14.088  64.997  1.00  0.00     0.000 HD 
HETATM   13  C   UNL     1     -11.879  14.275  67.056  1.00  0.00    -0.428 C  
HETATM   14  O   UNL     1     -11.230  15.545  66.837  1.00  0.00    -0.276 OA 
HETATM   15  O   UNL     1     -12.320  12.129  65.880  1.00  0.00    -0.561 OA 
BRANCH   6  16
HETATM   16  O   UNL     1     -10.552  11.094  67.942  1.00  0.00    -0.180 OA 
BRANCH  16  17
HETATM   17  C   UNL     1      -9.930  10.019  68.505  1.00  0.00    -0.162 A  
HETATM   18  O   UNL     1      -7.847  11.095  69.100  1.00  0.00    -0.248 OA 
HETATM   19  C   UNL     1      -8.101   8.804  69.540  1.00  0.00    -0.105 A  
HETATM   20  H   UNL     1      -6.975  11.078  69.478  1.00  0.00     0.000 HD 
HETATM   21  C   UNL     1      -8.834   7.626  69.420  1.00  0.00    -0.139 A  
HETATM   22  C   UNL     1      -8.650   9.993  69.061  1.00  0.00    -0.153 A  
HETATM   23  O   UNL     1      -8.225   6.433  69.856  1.00  0.00    -0.121 OA 
HETATM   24  C   UNL     1      -8.870   5.210  69.731  1.00  0.00    -0.106 C  
HETATM   25  O   UNL     1      -8.351   4.154  70.072  1.00  0.00    -0.061 OA 
HETATM   26  C   UNL     1     -10.231   5.226  69.163  1.00  0.00    -0.281 C  
HETATM   27  C   UNL     1     -10.823   6.355  68.755  1.00  0.00    -0.378 C  
HETATM   28  C   UNL     1     -10.109   7.615  68.860  1.00  0.00    -0.202 A  
HETATM   29  C   UNL     1     -10.651   8.820  68.403  1.00  0.00    -0.185 A  
ENDBRANCH  16  17
ENDBRANCH   6  16
ENDBRANCH   3   4
TORSDOF 3
ENDMDL
MODEL      166
REMARK 921   NORMALIZED FREE ENERGY PREDICTED BY IDOCK:   -3.71 KCAL/MOL
REMARK 922        TOTAL FREE ENERGY PREDICTED BY IDOCK:   -5.32 KCAL/MOL
REMARK 923 INTER-LIGAND FREE ENERGY PREDICTED BY IDOCK:   -5.15 KCAL/MOL
REMARK 924 INTRA-LIGAND FREE ENERGY PREDICTED BY IDOCK:   -0.17 KCAL/MOL
REMARK 927      BINDING AFFINITY PREDICTED BY RF-SCORE:    0.00 PKD
ROOT
HETATM    1  O   UNL     1     -11.980  15.679  68.128  1.00  0.00    -0.413 OA 
HETATM    2  H   UNL     1     -12.697  15.104  68.368  1.00  0.00     0.000 HD 
HETATM    3  C   UNL     1     -11.219  16.074  69.262  1.00  0.00    -0.346 C  
ENDROOT
BRANCH   3   4
HETATM    4  C   UNL     1     -10.061  17.003  68.874  1.00  0.00    -0.307 C  
HETATM    5  O   UNL     1      -8.879  16.255  68.547  1.00  0.00    -0.200 OA 
HETATM    6  C   UNL     1      -8.834  15.672  67.234  1.00  0.00    -0.198 C  
HETATM    7  C   UNL     1      -9.044  16.742  66.133  1.00  0.00    -0.253 C  
HETATM    8  H   UNL     1     -12.272  17.269  66.147  1.00  0.00     0.000 HD 
HETATM    9  H   UNL     1      -9.690  19.842  67.351  1.00  0.00     0.000 HD 
HETATM   10  O   UNL     1      -7.945  17.663  66.045  1.00  0.00    -0.474 OA 
HETATM   11  C   UNL     1     -10.333  17.545  66.375  1.00  0.00    -0.334 C  
HETATM   12  H   UNL     1      -8.073  18.318  65.370  1.00  0.00     0.000 HD 
HETATM   13  C   UNL     1     -10.399  18.081  67.818  1.00  0.00    -0.393 C  
HETATM   14  O   UNL     1      -9.482  19.180  67.999  1.00  0.00    -0.307 OA 
HETATM   15  O   UNL     1     -11.477  16.773  65.998  1.00  0.00     0.555 OA 
BRANCH   6  16
HETATM   16  O   UNL     1      -9.820  14.647  67.086  1.00  0.00    -0.231 OA 
BRANCH  16  17
HETATM   17  C   UNL     1      -9.426  13.346  66.971  1.00  0.00    -0.247 A  
HETATM   18  O   UNL     1      -8.228  13.161  69.065  1.00  0.00    -0.339 OA 
HETATM   19  C   UNL     1      -8.271  11.312  67.619  1.00  0.00    -0.120 A  
HETATM   20  H   UNL     1      -7.715  12.666  69.693  1.00  0.00     0.000 HD 
HETATM   21  C   UNL     1      -8.600  10.750  66.389  1.00  0.00    -0.158 A  
HETATM   22  C   UNL     1      -8.672  12.619  67.894  1.00  0.00    -0.181 A  
HETATM   23  O   UNL     1      -8.126   9.451  66.119  1.00  0.00    -0.109 OA 
HETATM   24  C   UNL     1      -8.373   8.835  64.899  1.00  0.00    -0.170 C  
HETATM   25  O   UNL     1      -7.946   7.720  64.626  1.00  0.00    -0.130 OA 
HETATM   26  C   UNL     1      -9.184   9.585  63.922  1.00  0.00    -0.094 C  
HETATM   27  C   UNL     1      -9.647  10.816  64.173  1.00  0.00    -0.333 C  
HETATM   28  C   UNL     1      -9.341  11.453  65.441  1.00  0.00    -0.206 A  
HETATM   29  C   UNL     1      -9.751  12.755  65.742  1.00  0.00    -0.167 A  
ENDBRANCH  16  17
ENDBRANCH   6  16
ENDBRANCH   3   4
TORSDOF 3
ENDMDL
MODEL      167
REMARK 921   NORMALIZED FREE ENERGY PREDICTED BY IDOCK:   -3.70 KCAL/MOL
REMARK 922        TOTAL FREE ENERGY PREDICTED BY IDOCK:   -5.31 KCAL/MOL
REMARK 923 INTER-LIGAND FREE ENERGY PREDICTED BY IDOCK:   -5.89 KCAL/MOL
REMARK 924 INTRA-LIGAND FREE ENERGY PREDICTED BY IDOCK:    0.58 KCAL/MOL
REMARK 927      BINDING AFFINITY PREDICTED BY RF-SCORE:    0.00 PKD
ROOT
HETATM    1  O   UNL     1      -7.851  11.256  67.008  1.00  0.00    -0.135 OA 
HETATM    2  H   UNL     1      -7.683  11.187  66.076  1.00  0.00     0.000 HD 
HETATM    3  C   UNL     1      -7.962   9.979  67.621  1.00  0.00    -0.105 C  
ENDROOT
BRANCH   3   4
HETATM    4  C   UNL     1      -8.234  10.091  69.128  1.00  0.00    -0.137 C  
HETATM    5  O   UNL     1      -9.457  10.799  69.385  1.00  0.00    -0.140 OA 
HETATM    6  C   UNL     1     -10.674  10.050  69.234  1.00  0.00    -0.224 C  
HETATM    7  C   UNL     1     -10.666   8.774  70.113  1.00  0.00    -0.224 C  
HETATM    8  H   UNL     1      -8.782   6.680  68.448  1.00  0.00     0.000 HD 
HETATM    9  H   UNL     1      -7.749   8.287  71.778  1.00  0.00     0.000 HD 
HETATM   10  O   UNL     1     -10.718   9.073  71.517  1.00  0.00    -0.297 OA 
HETATM   11  C   UNL     1      -9.414   7.921  69.844  1.00  0.00    -0.160 C  
HETATM   12  H   UNL     1     -10.713   8.291  72.055  1.00  0.00     0.000 HD 
HETATM   13  C   UNL     1      -8.128   8.768  69.922  1.00  0.00    -0.109 C  
HETATM   14  O   UNL     1      -7.815   9.099  71.291  1.00  0.00    -0.276 OA 
HETATM   15  O   UNL     1      -9.554   7.206  68.614  1.00  0.00    -0.140 OA 
BRANCH   6  16
HETATM   16  O   UNL     1     -10.890   9.679  67.870  1.00  0.00    -0.259 OA 
BRANCH  16  17
HETATM   17  C   UNL     1     -10.930  10.644  66.908  1.00  0.00    -0.161 A  
HETATM   18  O   UNL     1      -9.956   9.369  65.097  1.00  0.00    -0.417 OA 
HETATM   19  C   UNL     1     -10.522  11.616  64.722  1.00  0.00    -0.346 A  
HETATM   20  H   UNL     1      -9.659   9.287  64.198  1.00  0.00     0.000 HD 
HETATM   21  C   UNL     1     -10.956  12.848  65.204  1.00  0.00    -0.289 A  
HETATM   22  C   UNL     1     -10.494  10.523  65.587  1.00  0.00    -0.143 A  
HETATM   23  O   UNL     1     -10.912  13.945  64.320  1.00  0.00    -0.347 OA 
HETATM   24  C   UNL     1     -11.285  15.216  64.735  1.00  0.00    -0.388 C  
HETATM   25  O   UNL     1     -11.227  16.193  63.997  1.00  0.00    -0.609 OA 
HETATM   26  C   UNL     1     -11.766  15.354  66.122  1.00  0.00     0.222 C  
HETATM   27  C   UNL     1     -11.820  14.316  66.966  1.00  0.00    -0.455 C  
HETATM   28  C   UNL     1     -11.386  13.005  66.519  1.00  0.00    -0.359 A  
HETATM   29  C   UNL     1     -11.369  11.894  67.367  1.00  0.00    -0.389 A  
ENDBRANCH  16  17
ENDBRANCH   6  16
ENDBRANCH   3   4
TORSDOF 3
ENDMDL
MODEL      168
REMARK 921   NORMALIZED FREE ENERGY PREDICTED BY IDOCK:   -3.69 KCAL/MOL
REMARK 922        TOTAL FREE ENERGY PREDICTED BY IDOCK:   -5.30 KCAL/MOL
REMARK 923 INTER-LIGAND FREE ENERGY PREDICTED BY IDOCK:   -4.74 KCAL/MOL
REMARK 924 INTRA-LIGAND FREE ENERGY PREDICTED BY IDOCK:   -0.56 KCAL/MOL
REMARK 927      BINDING AFFINITY PREDICTED BY RF-SCORE:    0.00 PKD
ROOT
HETATM    1  O   UNL     1      -6.448  10.743  70.401  1.00  0.00    -0.215 OA 
HETATM    2  H   UNL     1      -5.860  11.280  69.883  1.00  0.00     0.000 HD 
HETATM    3  C   UNL     1      -6.789   9.537  69.730  1.00  0.00    -0.064 C  
ENDROOT
BRANCH   3   4
HETATM    4  C   UNL     1      -7.741   8.670  70.566  1.00  0.00    -0.086 C  
HETATM    5  O   UNL     1      -8.964   9.369  70.855  1.00  0.00    -0.229 OA 
HETATM    6  C   UNL     1      -9.942   9.407  69.804  1.00  0.00    -0.200 C  
HETATM    7  C   UNL     1     -10.309   7.982  69.319  1.00  0.00    -0.220 C  
HETATM    8  H   UNL     1      -7.799   7.131  67.399  1.00  0.00     0.000 HD 
HETATM    9  H   UNL     1      -8.505   5.528  70.816  1.00  0.00     0.000 HD 
HETATM   10  O   UNL     1     -11.024   7.231  70.312  1.00  0.00    -0.250 OA 
HETATM   11  C   UNL     1      -9.051   7.189  68.922  1.00  0.00    -0.131 C  
HETATM   12  H   UNL     1     -11.249   6.357  70.014  1.00  0.00     0.000 HD 
HETATM   13  C   UNL     1      -7.981   7.240  70.029  1.00  0.00    -0.117 C  
HETATM   14  O   UNL     1      -8.358   6.407  71.145  1.00  0.00    -0.121 OA 
HETATM   15  O   UNL     1      -8.575   7.621  67.645  1.00  0.00    -0.116 OA 
BRANCH   6  16
HETATM   16  O   UNL     1      -9.480  10.177  68.691  1.00  0.00    -0.152 OA 
BRANCH  16  17
HETATM   17  C   UNL     1      -9.842  11.488  68.583  1.00  0.00    -0.177 A  
HETATM   18  O   UNL     1     -12.214  11.164  68.231  1.00  0.00    -0.709 OA 
HETATM   19  C   UNL     1     -11.355  13.347  68.200  1.00  0.00    -0.321 A  
HETATM   20  H   UNL     1     -13.091  11.500  68.083  1.00  0.00     0.000 HD 
HETATM   21  C   UNL     1     -10.267  14.216  68.214  1.00  0.00    -0.243 A  
HETATM   22  C   UNL     1     -11.130  11.981  68.366  1.00  0.00    -0.245 A  
HETATM   23  O   UNL     1     -10.521  15.583  67.981  1.00  0.00    -0.249 OA 
HETATM   24  C   UNL     1      -9.488  16.508  67.935  1.00  0.00    -0.220 C  
HETATM   25  O   UNL     1      -9.677  17.696  67.703  1.00  0.00    -0.266 OA 
HETATM   26  C   UNL     1      -8.125  16.003  68.183  1.00  0.00    -0.147 C  
HETATM   27  C   UNL     1      -7.873  14.708  68.415  1.00  0.00    -0.131 C  
HETATM   28  C   UNL     1      -8.968  13.755  68.417  1.00  0.00    -0.166 A  
HETATM   29  C   UNL     1      -8.765  12.385  68.601  1.00  0.00     0.034 A  
ENDBRANCH  16  17
ENDBRANCH   6  16
ENDBRANCH   3   4
TORSDOF 3
ENDMDL
MODEL      169
REMARK 921   NORMALIZED FREE ENERGY PREDICTED BY IDOCK:   -3.69 KCAL/MOL
REMARK 922        TOTAL FREE ENERGY PREDICTED BY IDOCK:   -5.30 KCAL/MOL
REMARK 923 INTER-LIGAND FREE ENERGY PREDICTED BY IDOCK:   -4.53 KCAL/MOL
REMARK 924 INTRA-LIGAND FREE ENERGY PREDICTED BY IDOCK:   -0.77 KCAL/MOL
REMARK 927      BINDING AFFINITY PREDICTED BY RF-SCORE:    0.00 PKD
ROOT
HETATM    1  O   UNL     1      -7.185  16.204  68.058  1.00  0.00    -0.123 OA 
HETATM    2  H   UNL     1      -6.258  15.997  68.068  1.00  0.00     0.000 HD 
HETATM    3  C   UNL     1      -7.795  15.830  66.829  1.00  0.00    -0.213 C  
ENDROOT
BRANCH   3   4
HETATM    4  C   UNL     1      -9.293  16.164  66.814  1.00  0.00    -0.234 C  
HETATM    5  O   UNL     1     -10.059  15.096  66.233  1.00  0.00    -0.257 OA 
HETATM    6  C   UNL     1     -10.332  13.970  67.083  1.00  0.00    -0.265 C  
HETATM    7  C   UNL     1     -11.035  14.406  68.393  1.00  0.00    -0.248 C  
HETATM    8  H   UNL     1      -8.611  15.620  70.225  1.00  0.00     0.000 HD 
HETATM    9  H   UNL     1     -11.398  17.767  68.689  1.00  0.00     0.000 HD 
HETATM   10  O   UNL     1     -12.369  14.889  68.167  1.00  0.00    -0.578 OA 
HETATM   11  C   UNL     1     -10.236  15.506  69.114  1.00  0.00    -0.240 C  
HETATM   12  H   UNL     1     -12.799  15.156  68.970  1.00  0.00     0.000 HD 
HETATM   13  C   UNL     1      -9.877  16.660  68.157  1.00  0.00    -0.250 C  
HETATM   14  O   UNL     1     -11.040  17.462  67.864  1.00  0.00    -0.256 OA 
HETATM   15  O   UNL     1      -9.104  14.941  69.780  1.00  0.00     0.013 OA 
BRANCH   6  16
HETATM   16  O   UNL     1      -9.133  13.261  67.408  1.00  0.00    -0.196 OA 
BRANCH  16  17
HETATM   17  C   UNL     1      -9.020  11.943  67.075  1.00  0.00    -0.190 A  
HETATM   18  O   UNL     1      -8.595  11.062  69.288  1.00  0.00    -0.360 OA 
HETATM   19  C   UNL     1      -8.599   9.585  67.464  1.00  0.00    -0.126 A  
HETATM   20  H   UNL     1      -8.422  10.340  69.880  1.00  0.00     0.000 HD 
HETATM   21  C   UNL     1      -8.649   9.364  66.090  1.00  0.00    -0.136 A  
HETATM   22  C   UNL     1      -8.766  10.882  67.946  1.00  0.00    -0.131 A  
HETATM   23  O   UNL     1      -8.414   8.052  65.632  1.00  0.00    -0.137 OA 
HETATM   24  C   UNL     1      -8.403   7.755  64.276  1.00  0.00     0.063 C  
HETATM   25  O   UNL     1      -8.170   6.631  63.849  1.00  0.00    -0.056 OA 
HETATM   26  C   UNL     1      -8.689   8.863  63.346  1.00  0.00    -0.042 C  
HETATM   27  C   UNL     1      -8.923  10.111  63.771  1.00  0.00    -0.270 C  
HETATM   28  C   UNL     1      -8.889  10.402  65.193  1.00  0.00    -0.207 A  
HETATM   29  C   UNL     1      -9.074  11.693  65.696  1.00  0.00    -0.088 A  
ENDBRANCH  16  17
ENDBRANCH   6  16
ENDBRANCH   3   4
TORSDOF 3
ENDMDL
MODEL      170
REMARK 921   NORMALIZED FREE ENERGY PREDICTED BY IDOCK:   -3.68 KCAL/MOL
REMARK 922        TOTAL FREE ENERGY PREDICTED BY IDOCK:   -5.28 KCAL/MOL
REMARK 923 INTER-LIGAND FREE ENERGY PREDICTED BY IDOCK:   -4.26 KCAL/MOL
REMARK 924 INTRA-LIGAND FREE ENERGY PREDICTED BY IDOCK:   -1.02 KCAL/MOL
REMARK 927      BINDING AFFINITY PREDICTED BY RF-SCORE:    0.00 PKD
ROOT
HETATM    1  O   UNL     1     -10.083  11.576  67.824  1.00  0.00    -0.177 OA 
HETATM    2  H   UNL     1     -11.023  11.712  67.803  1.00  0.00     0.000 HD 
HETATM    3  C   UNL     1      -9.571  11.234  66.543  1.00  0.00    -0.191 C  
ENDROOT
BRANCH   3   4
HETATM    4  C   UNL     1      -8.052  11.014  66.578  1.00  0.00    -0.161 C  
HETATM    5  O   UNL     1      -7.602  10.690  67.904  1.00  0.00    -0.090 OA 
HETATM    6  C   UNL     1      -7.797   9.332  68.331  1.00  0.00    -0.094 C  
HETATM    7  C   UNL     1      -7.143   8.330  67.346  1.00  0.00    -0.080 C  
HETATM    8  H   UNL     1      -9.249   8.192  64.846  1.00  0.00     0.000 HD 
HETATM    9  H   UNL     1      -5.773   9.804  64.614  1.00  0.00     0.000 HD 
HETATM   10  O   UNL     1      -5.709   8.403  67.359  1.00  0.00    -0.038 OA 
HETATM   11  C   UNL     1      -7.630   8.568  65.906  1.00  0.00    -0.085 C  
HETATM   12  H   UNL     1      -5.308   7.789  66.755  1.00  0.00     0.000 HD 
HETATM   13  C   UNL     1      -7.496  10.050  65.504  1.00  0.00    -0.137 C  
HETATM   14  O   UNL     1      -6.114  10.396  65.274  1.00  0.00    -0.117 OA 
HETATM   15  O   UNL     1      -8.949   8.045  65.735  1.00  0.00    -0.165 OA 
BRANCH   6  16
HETATM   16  O   UNL     1      -9.186   9.022  68.463  1.00  0.00    -0.136 OA 
BRANCH  16  17
HETATM   17  C   UNL     1      -9.573   8.004  69.284  1.00  0.00    -0.157 A  
HETATM   18  O   UNL     1     -10.615   6.592  67.619  1.00  0.00    -0.198 OA 
HETATM   19  C   UNL     1     -10.655   5.910  69.864  1.00  0.00    -0.370 A  
HETATM   20  H   UNL     1     -11.077   5.802  67.364  1.00  0.00     0.000 HD 
HETATM   21  C   UNL     1     -10.409   6.172  71.210  1.00  0.00    -0.217 A  
HETATM   22  C   UNL     1     -10.251   6.842  68.910  1.00  0.00    -0.177 A  
HETATM   23  O   UNL     1     -10.887   5.240  72.153  1.00  0.00    -0.225 OA 
HETATM   24  C   UNL     1     -10.722   5.448  73.515  1.00  0.00    -0.287 C  
HETATM   25  O   UNL     1     -11.155   4.671  74.357  1.00  0.00    -0.252 OA 
HETATM   26  C   UNL     1      -9.990   6.662  73.924  1.00  0.00    -0.317 C  
HETATM   27  C   UNL     1      -9.524   7.549  73.035  1.00  0.00    -0.255 C  
HETATM   28  C   UNL     1      -9.746   7.327  71.618  1.00  0.00    -0.166 A  
HETATM   29  C   UNL     1      -9.330   8.240  70.645  1.00  0.00    -0.172 A  
ENDBRANCH  16  17
ENDBRANCH   6  16
ENDBRANCH   3   4
TORSDOF 3
ENDMDL
MODEL      171
REMARK 921   NORMALIZED FREE ENERGY PREDICTED BY IDOCK:   -3.58 KCAL/MOL
REMARK 922        TOTAL FREE ENERGY PREDICTED BY IDOCK:   -5.17 KCAL/MOL
REMARK 923 INTER-LIGAND FREE ENERGY PREDICTED BY IDOCK:   -4.88 KCAL/MOL
REMARK 924 INTRA-LIGAND FREE ENERGY PREDICTED BY IDOCK:   -0.28 KCAL/MOL
REMARK 927      BINDING AFFINITY PREDICTED BY RF-SCORE:    0.00 PKD
ROOT
HETATM    1  O   UNL     1     -11.123   6.645  66.499  1.00  0.00    -0.549 OA 
HETATM    2  H   UNL     1     -11.454   6.786  65.620  1.00  0.00     0.000 HD 
HETATM    3  C   UNL     1     -10.547   7.826  67.041  1.00  0.00    -0.326 C  
ENDROOT
BRANCH   3   4
HETATM    4  C   UNL     1     -10.012   7.599  68.462  1.00  0.00    -0.180 C  
HETATM    5  O   UNL     1      -8.679   8.116  68.605  1.00  0.00    -0.133 OA 
HETATM    6  C   UNL     1      -8.560   9.534  68.801  1.00  0.00    -0.123 C  
HETATM    7  C   UNL     1      -9.392  10.009  70.020  1.00  0.00    -0.119 C  
HETATM    8  H   UNL     1     -12.464  10.088  68.898  1.00  0.00     0.000 HD 
HETATM    9  H   UNL     1     -11.205   7.538  71.476  1.00  0.00     0.000 HD 
HETATM   10  O   UNL     1      -8.862   9.530  71.266  1.00  0.00    -0.312 OA 
HETATM   11  C   UNL     1     -10.856   9.552  69.906  1.00  0.00    -0.246 C  
HETATM   12  H   UNL     1      -9.372   9.821  72.013  1.00  0.00     0.000 HD 
HETATM   13  C   UNL     1     -10.954   8.044  69.605  1.00  0.00    -0.101 C  
HETATM   14  O   UNL     1     -10.626   7.266  70.774  1.00  0.00    -0.218 OA 
HETATM   15  O   UNL     1     -11.560  10.370  68.968  1.00  0.00    -0.228 OA 
BRANCH   6  16
HETATM   16  O   UNL     1      -8.977  10.256  67.639  1.00  0.00    -0.134 OA 
BRANCH  16  17
HETATM   17  C   UNL     1      -8.581  11.551  67.475  1.00  0.00    -0.143 A  
HETATM   18  O   UNL     1      -6.216  11.246  67.883  1.00  0.00    -0.049 OA 
HETATM   19  C   UNL     1      -7.021  13.410  67.465  1.00  0.00    -0.153 A  
HETATM   20  H   UNL     1      -5.331  11.583  67.958  1.00  0.00     0.000 HD 
HETATM   21  C   UNL     1      -8.087  14.286  67.273  1.00  0.00    -0.178 A  
HETATM   22  C   UNL     1      -7.280  12.046  67.584  1.00  0.00    -0.117 A  
HETATM   23  O   UNL     1      -7.797  15.664  67.219  1.00  0.00    -0.161 OA 
HETATM   24  C   UNL     1      -8.807  16.605  67.074  1.00  0.00    -0.199 C  
HETATM   25  O   UNL     1      -8.586  17.810  67.057  1.00  0.00    -0.224 OA 
HETATM   26  C   UNL     1     -10.184  16.094  66.938  1.00  0.00    -0.283 C  
HETATM   27  C   UNL     1     -10.469  14.787  66.978  1.00  0.00    -0.270 C  
HETATM   28  C   UNL     1      -9.398  13.826  67.171  1.00  0.00    -0.240 A  
HETATM   29  C   UNL     1      -9.636  12.452  67.273  1.00  0.00    -0.199 A  
ENDBRANCH  16  17
ENDBRANCH   6  16
ENDBRANCH   3   4
TORSDOF 3
ENDMDL
MODEL      172
REMARK 921   NORMALIZED FREE ENERGY PREDICTED BY IDOCK:   -3.56 KCAL/MOL
REMARK 922        TOTAL FREE ENERGY PREDICTED BY IDOCK:   -5.14 KCAL/MOL
REMARK 923 INTER-LIGAND FREE ENERGY PREDICTED BY IDOCK:   -4.60 KCAL/MOL
REMARK 924 INTRA-LIGAND FREE ENERGY PREDICTED BY IDOCK:   -0.54 KCAL/MOL
REMARK 927      BINDING AFFINITY PREDICTED BY RF-SCORE:    0.00 PKD
ROOT
HETATM    1  O   UNL     1      -9.912  11.139  65.137  1.00  0.00    -0.240 OA 
HETATM    2  H   UNL     1     -10.140  10.447  64.529  1.00  0.00     0.000 HD 
HETATM    3  C   UNL     1      -8.961  10.704  66.099  1.00  0.00    -0.168 C  
ENDROOT
BRANCH   3   4
HETATM    4  C   UNL     1      -8.592  11.825  67.082  1.00  0.00    -0.168 C  
HETATM    5  O   UNL     1      -9.155  11.583  68.382  1.00  0.00    -0.178 OA 
HETATM    6  C   UNL     1      -8.460  10.640  69.215  1.00  0.00    -0.091 C  
HETATM    7  C   UNL     1      -6.974  11.039  69.403  1.00  0.00    -0.126 C  
HETATM    8  H   UNL     1      -5.549  10.119  66.605  1.00  0.00     0.000 HD 
HETATM    9  H   UNL     1      -6.066  13.783  67.626  1.00  0.00     0.000 HD 
HETATM   10  O   UNL     1      -6.821  12.236  70.182  1.00  0.00    -0.370 OA 
HETATM   11  C   UNL     1      -6.279  11.249  68.047  1.00  0.00    -0.049 C  
HETATM   12  H   UNL     1      -5.911  12.480  70.297  1.00  0.00     0.000 HD 
HETATM   13  C   UNL     1      -7.091  12.192  67.138  1.00  0.00    -0.120 C  
HETATM   14  O   UNL     1      -6.988  13.557  67.592  1.00  0.00    -0.147 OA 
HETATM   15  O   UNL     1      -5.979   9.989  67.442  1.00  0.00    -0.053 OA 
BRANCH   6  16
HETATM   16  O   UNL     1      -8.526   9.319  68.672  1.00  0.00    -0.120 OA 
BRANCH  16  17
HETATM   17  C   UNL     1      -9.199   8.346  69.351  1.00  0.00    -0.154 A  
HETATM   18  O   UNL     1     -10.857   7.832  67.665  1.00  0.00    -0.468 OA 
HETATM   19  C   UNL     1     -10.949   6.706  69.722  1.00  0.00    -0.367 A  
HETATM   20  H   UNL     1     -11.610   7.342  67.356  1.00  0.00     0.000 HD 
HETATM   21  C   UNL     1     -10.497   6.540  71.029  1.00  0.00    -0.222 A  
HETATM   22  C   UNL     1     -10.306   7.626  68.896  1.00  0.00    -0.212 A  
HETATM   23  O   UNL     1     -11.209   5.649  71.856  1.00  0.00    -0.249 OA 
HETATM   24  C   UNL     1     -10.851   5.460  73.184  1.00  0.00    -0.285 C  
HETATM   25  O   UNL     1     -11.471   4.716  73.934  1.00  0.00    -0.204 OA 
HETATM   26  C   UNL     1      -9.671   6.200  73.671  1.00  0.00    -0.173 C  
HETATM   27  C   UNL     1      -8.983   7.042  72.890  1.00  0.00    -0.148 C  
HETATM   28  C   UNL     1      -9.404   7.252  71.517  1.00  0.00    -0.155 A  
HETATM   29  C   UNL     1      -8.759   8.155  70.668  1.00  0.00    -0.136 A  
ENDBRANCH  16  17
ENDBRANCH   6  16
ENDBRANCH   3   4
TORSDOF 3
ENDMDL
MODEL      173
REMARK 921   NORMALIZED FREE ENERGY PREDICTED BY IDOCK:   -3.52 KCAL/MOL
REMARK 922        TOTAL FREE ENERGY PREDICTED BY IDOCK:   -5.10 KCAL/MOL
REMARK 923 INTER-LIGAND FREE ENERGY PREDICTED BY IDOCK:   -4.28 KCAL/MOL
REMARK 924 INTRA-LIGAND FREE ENERGY PREDICTED BY IDOCK:   -0.82 KCAL/MOL
REMARK 927      BINDING AFFINITY PREDICTED BY RF-SCORE:    0.00 PKD
ROOT
HETATM    1  O   UNL     1      -5.822   8.698  64.651  1.00  0.00    -0.061 OA 
HETATM    2  H   UNL     1      -5.536   9.353  64.027  1.00  0.00     0.000 HD 
HETATM    3  C   UNL     1      -5.801   9.193  65.983  1.00  0.00    -0.050 C  
ENDROOT
BRANCH   3   4
HETATM    4  C   UNL     1      -6.262   8.133  66.993  1.00  0.00    -0.055 C  
HETATM    5  O   UNL     1      -6.971   8.731  68.090  1.00  0.00    -0.072 OA 
HETATM    6  C   UNL     1      -8.343   9.083  67.850  1.00  0.00    -0.117 C  
HETATM    7  C   UNL     1      -9.163   7.862  67.360  1.00  0.00    -0.140 C  
HETATM    8  H   UNL     1      -8.341   7.573  64.206  1.00  0.00     0.000 HD 
HETATM    9  H   UNL     1      -7.299   5.061  66.916  1.00  0.00     0.000 HD 
HETATM   10  O   UNL     1      -9.325   6.864  68.380  1.00  0.00    -0.131 OA 
HETATM   11  C   UNL     1      -8.502   7.203  66.137  1.00  0.00    -0.142 C  
HETATM   12  H   UNL     1      -9.827   6.116  68.080  1.00  0.00     0.000 HD 
HETATM   13  C   UNL     1      -7.008   6.920  66.388  1.00  0.00    -0.069 C  
HETATM   14  O   UNL     1      -6.842   5.806  67.288  1.00  0.00    -0.060 OA 
HETATM   15  O   UNL     1      -8.749   7.980  64.961  1.00  0.00    -0.073 OA 
BRANCH   6  16
HETATM   16  O   UNL     1      -8.450  10.135  66.889  1.00  0.00    -0.125 OA 
BRANCH  16  17
HETATM   17  C   UNL     1      -8.723  11.404  67.308  1.00  0.00    -0.148 A  
HETATM   18  O   UNL     1      -6.622  12.432  66.688  1.00  0.00    -0.438 OA 
HETATM   19  C   UNL     1      -8.249  13.741  67.761  1.00  0.00    -0.174 A  
HETATM   20  H   UNL     1      -6.045  13.185  66.631  1.00  0.00     0.000 HD 
HETATM   21  C   UNL     1      -9.470  13.846  68.421  1.00  0.00    -0.211 A  
HETATM   22  C   UNL     1      -7.875  12.510  67.224  1.00  0.00    -0.160 A  
HETATM   23  O   UNL     1      -9.790  15.088  69.006  1.00  0.00    -0.223 OA 
HETATM   24  C   UNL     1     -10.967  15.264  69.719  1.00  0.00    -0.284 C  
HETATM   25  O   UNL     1     -11.255  16.323  70.265  1.00  0.00    -0.367 OA 
HETATM   26  C   UNL     1     -11.881  14.109  69.799  1.00  0.00    -0.381 C  
HETATM   27  C   UNL     1     -11.591  12.928  69.239  1.00  0.00    -0.368 C  
HETATM   28  C   UNL     1     -10.334  12.760  68.533  1.00  0.00    -0.231 A  
HETATM   29  C   UNL     1      -9.951  11.538  67.971  1.00  0.00    -0.197 A  
ENDBRANCH  16  17
ENDBRANCH   6  16
ENDBRANCH   3   4
TORSDOF 3
ENDMDL
MODEL      174
REMARK 921   NORMALIZED FREE ENERGY PREDICTED BY IDOCK:   -3.50 KCAL/MOL
REMARK 922        TOTAL FREE ENERGY PREDICTED BY IDOCK:   -5.07 KCAL/MOL
REMARK 923 INTER-LIGAND FREE ENERGY PREDICTED BY IDOCK:   -4.37 KCAL/MOL
REMARK 924 INTRA-LIGAND FREE ENERGY PREDICTED BY IDOCK:   -0.69 KCAL/MOL
REMARK 927      BINDING AFFINITY PREDICTED BY RF-SCORE:    0.00 PKD
ROOT
HETATM    1  O   UNL     1     -11.041  13.701  64.993  1.00  0.00    -0.308 OA 
HETATM    2  H   UNL     1     -11.445  13.061  64.419  1.00  0.00     0.000 HD 
HETATM    3  C   UNL     1     -11.760  13.845  66.211  1.00  0.00    -0.383 C  
ENDROOT
BRANCH   3   4
HETATM    4  C   UNL     1     -11.107  14.879  67.139  1.00  0.00    -0.332 C  
HETATM    5  O   UNL     1     -11.479  14.658  68.509  1.00  0.00    -0.273 OA 
HETATM    6  C   UNL     1     -10.777  13.612  69.201  1.00  0.00    -0.104 C  
HETATM    7  C   UNL     1      -9.243  13.829  69.150  1.00  0.00     0.408 C  
HETATM    8  H   UNL     1      -8.406  12.851  66.143  1.00  0.00     0.000 HD 
HETATM    9  H   UNL     1      -8.310  16.512  67.294  1.00  0.00     0.000 HD 
HETATM   10  O   UNL     1      -8.825  14.972  69.913  1.00  0.00    -0.448 OA 
HETATM   11  C   UNL     1      -8.754  14.006  67.702  1.00  0.00    -0.189 C  
HETATM   12  H   UNL     1      -7.885  15.105  69.882  1.00  0.00     0.000 HD 
HETATM   13  C   UNL     1      -9.583  15.069  66.954  1.00  0.00    -0.239 C  
HETATM   14  O   UNL     1      -9.245  16.395  67.408  1.00  0.00    -0.206 OA 
HETATM   15  O   UNL     1      -8.708  12.742  67.036  1.00  0.00    -0.202 OA 
BRANCH   6  16
HETATM   16  O   UNL     1     -11.087  12.328  68.655  1.00  0.00    -0.220 OA 
BRANCH  16  17
HETATM   17  C   UNL     1     -11.259  11.265  69.492  1.00  0.00    -0.272 A  
HETATM   18  O   UNL     1     -13.525  11.739  70.194  1.00  0.00     1.062 OA 
HETATM   19  C   UNL     1     -12.423   9.882  71.112  1.00  0.00    -0.464 A  
HETATM   20  H   UNL     1     -14.305  11.534  70.697  1.00  0.00     0.000 HD 
HETATM   21  C   UNL     1     -11.267   9.124  71.275  1.00  0.00    -0.337 A  
HETATM   22  C   UNL     1     -12.404  10.963  70.232  1.00  0.00    -0.330 A  
HETATM   23  O   UNL     1     -11.301   8.077  72.218  1.00  0.00    -0.299 OA 
HETATM   24  C   UNL     1     -10.178   7.302  72.473  1.00  0.00    -0.200 C  
HETATM   25  O   UNL     1     -10.171   6.407  73.309  1.00  0.00    -0.185 OA 
HETATM   26  C   UNL     1      -8.968   7.598  71.684  1.00  0.00    -0.148 C  
HETATM   27  C   UNL     1      -8.927   8.584  70.779  1.00  0.00    -0.193 C  
HETATM   28  C   UNL     1     -10.104   9.405  70.561  1.00  0.00    -0.335 A  
HETATM   29  C   UNL     1     -10.110  10.481  69.669  1.00  0.00    -0.177 A  
ENDBRANCH  16  17
ENDBRANCH   6  16
ENDBRANCH   3   4
TORSDOF 3
ENDMDL
MODEL      175
REMARK 921   NORMALIZED FREE ENERGY PREDICTED BY IDOCK:   -3.46 KCAL/MOL
REMARK 922        TOTAL FREE ENERGY PREDICTED BY IDOCK:   -5.02 KCAL/MOL
REMARK 923 INTER-LIGAND FREE ENERGY PREDICTED BY IDOCK:   -4.60 KCAL/MOL
REMARK 924 INTRA-LIGAND FREE ENERGY PREDICTED BY IDOCK:   -0.43 KCAL/MOL
REMARK 927      BINDING AFFINITY PREDICTED BY RF-SCORE:    0.00 PKD
ROOT
HETATM    1  O   UNL     1      -5.546   9.473  67.851  1.00  0.00    -0.040 OA 
HETATM    2  H   UNL     1      -5.144   9.724  68.674  1.00  0.00     0.000 HD 
HETATM    3  C   UNL     1      -6.005   8.128  67.877  1.00  0.00    -0.043 C  
ENDROOT
BRANCH   3   4
HETATM    4  C   UNL     1      -6.654   7.722  66.546  1.00  0.00    -0.054 C  
HETATM    5  O   UNL     1      -8.088   7.752  66.636  1.00  0.00    -0.107 OA 
HETATM    6  C   UNL     1      -8.708   9.044  66.531  1.00  0.00    -0.129 C  
HETATM    7  C   UNL     1      -8.295   9.766  65.223  1.00  0.00    -0.142 C  
HETATM    8  H   UNL     1      -5.292  10.896  65.860  1.00  0.00     0.000 HD 
HETATM    9  H   UNL     1      -6.016   8.052  63.384  1.00  0.00     0.000 HD 
HETATM   10  O   UNL     1      -8.827   9.127  64.052  1.00  0.00    -0.360 OA 
HETATM   11  C   UNL     1      -6.765   9.837  65.087  1.00  0.00    -0.101 C  
HETATM   12  H   UNL     1      -8.573   9.569  63.250  1.00  0.00     0.000 HD 
HETATM   13  C   UNL     1      -6.116   8.454  65.294  1.00  0.00    -0.045 C  
HETATM   14  O   UNL     1      -6.347   7.603  64.153  1.00  0.00    -0.048 OA 
HETATM   15  O   UNL     1      -6.236  10.851  65.944  1.00  0.00    -0.132 OA 
BRANCH   6  16
HETATM   16  O   UNL     1      -8.378   9.872  67.648  1.00  0.00    -0.114 OA 
BRANCH  16  17
HETATM   17  C   UNL     1      -9.214  10.889  68.002  1.00  0.00    -0.156 A  
HETATM   18  O   UNL     1      -8.265  12.620  66.603  1.00  0.00    -0.402 OA 
HETATM   19  C   UNL     1     -10.052  13.168  68.023  1.00  0.00    -0.232 A  
HETATM   20  H   UNL     1      -8.244  13.512  66.276  1.00  0.00     0.000 HD 
HETATM   21  C   UNL     1     -10.932  12.820  69.045  1.00  0.00    -0.193 A  
HETATM   22  C   UNL     1      -9.183  12.200  67.522  1.00  0.00    -0.182 A  
HETATM   23  O   UNL     1     -11.752  13.837  69.572  1.00  0.00    -0.284 OA 
HETATM   24  C   UNL     1     -12.625  13.583  70.621  1.00  0.00    -0.275 C  
HETATM   25  O   UNL     1     -13.327  14.456  71.120  1.00  0.00    -0.355 OA 
HETATM   26  C   UNL     1     -12.683  12.199  71.125  1.00  0.00    -0.351 C  
HETATM   27  C   UNL     1     -11.914  11.223  70.625  1.00  0.00    -0.435 C  
HETATM   28  C   UNL     1     -10.981  11.525  69.555  1.00  0.00    -0.186 A  
HETATM   29  C   UNL     1     -10.115  10.563  69.026  1.00  0.00    -0.230 A  
ENDBRANCH  16  17
ENDBRANCH   6  16
ENDBRANCH   3   4
TORSDOF 3
ENDMDL
MODEL      176
REMARK 921   NORMALIZED FREE ENERGY PREDICTED BY IDOCK:   -3.35 KCAL/MOL
REMARK 922        TOTAL FREE ENERGY PREDICTED BY IDOCK:   -4.90 KCAL/MOL
REMARK 923 INTER-LIGAND FREE ENERGY PREDICTED BY IDOCK:   -4.45 KCAL/MOL
REMARK 924 INTRA-LIGAND FREE ENERGY PREDICTED BY IDOCK:   -0.45 KCAL/MOL
REMARK 927      BINDING AFFINITY PREDICTED BY RF-SCORE:    0.00 PKD
ROOT
HETATM    1  O   UNL     1     -11.539   5.049  65.273  1.00  0.00    -0.787 OA 
HETATM    2  H   UNL     1     -12.265   5.323  64.726  1.00  0.00     0.000 HD 
HETATM    3  C   UNL     1     -11.431   5.848  66.444  1.00  0.00     0.880 C  
ENDROOT
BRANCH   3   4
HETATM    4  C   UNL     1     -10.257   5.406  67.329  1.00  0.00    -0.214 C  
HETATM    5  O   UNL     1      -9.300   6.465  67.494  1.00  0.00    -0.119 OA 
HETATM    6  C   UNL     1      -9.628   7.479  68.457  1.00  0.00    -0.150 C  
HETATM    7  C   UNL     1      -9.908   6.865  69.853  1.00  0.00    -0.165 C  
HETATM    8  H   UNL     1     -12.940   5.664  69.595  1.00  0.00     0.000 HD 
HETATM    9  H   UNL     1      -9.802   3.474  69.893  1.00  0.00     0.000 HD 
HETATM   10  O   UNL     1      -8.728   6.308  70.454  1.00  0.00    -0.142 OA 
HETATM   11  C   UNL     1     -10.979   5.764  69.771  1.00  0.00    -0.327 C  
HETATM   12  H   UNL     1      -8.899   5.931  71.309  1.00  0.00     0.000 HD 
HETATM   13  C   UNL     1     -10.650   4.739  68.668  1.00  0.00     0.432 C  
HETATM   14  O   UNL     1      -9.560   3.884  69.071  1.00  0.00    -0.175 OA 
HETATM   15  O   UNL     1     -12.279   6.344  69.645  1.00  0.00     0.183 OA 
BRANCH   6  16
HETATM   16  O   UNL     1     -10.765   8.241  68.044  1.00  0.00    -0.162 OA 
BRANCH  16  17
HETATM   17  C   UNL     1     -10.589   9.333  67.246  1.00  0.00    -0.233 A  
HETATM   18  O   UNL     1      -9.416   8.248  65.430  1.00  0.00    -0.402 OA 
HETATM   19  C   UNL     1      -9.775  10.564  65.320  1.00  0.00    -0.328 A  
HETATM   20  H   UNL     1      -8.983   8.268  64.584  1.00  0.00     0.000 HD 
HETATM   21  C   UNL     1     -10.204  11.749  65.913  1.00  0.00    -0.237 A  
HETATM   22  C   UNL     1      -9.954   9.363  66.003  1.00  0.00    -0.281 A  
HETATM   23  O   UNL     1      -9.951  12.952  65.224  1.00  0.00    -0.258 OA 
HETATM   24  C   UNL     1     -10.308  14.179  65.766  1.00  0.00    -0.325 C  
HETATM   25  O   UNL     1     -10.071  15.241  65.204  1.00  0.00    -0.345 OA 
HETATM   26  C   UNL     1     -10.997  14.160  67.070  1.00  0.00    -0.303 C  
HETATM   27  C   UNL     1     -11.250  13.022  67.728  1.00  0.00    -0.313 C  
HETATM   28  C   UNL     1     -10.831  11.755  67.157  1.00  0.00    -0.303 A  
HETATM   29  C   UNL     1     -11.020  10.538  67.818  1.00  0.00    -0.372 A  
ENDBRANCH  16  17
ENDBRANCH   6  16
ENDBRANCH   3   4
TORSDOF 3
ENDMDL
MODEL      177
REMARK 921   NORMALIZED FREE ENERGY PREDICTED BY IDOCK:   -3.34 KCAL/MOL
REMARK 922        TOTAL FREE ENERGY PREDICTED BY IDOCK:   -4.88 KCAL/MOL
REMARK 923 INTER-LIGAND FREE ENERGY PREDICTED BY IDOCK:   -4.72 KCAL/MOL
REMARK 924 INTRA-LIGAND FREE ENERGY PREDICTED BY IDOCK:   -0.16 KCAL/MOL
REMARK 927      BINDING AFFINITY PREDICTED BY RF-SCORE:    0.00 PKD
ROOT
HETATM    1  O   UNL     1      -9.649   6.272  65.671  1.00  0.00    -0.374 OA 
HETATM    2  H   UNL     1     -10.501   5.858  65.611  1.00  0.00     0.000 HD 
HETATM    3  C   UNL     1      -9.731   7.563  66.261  1.00  0.00    -0.029 C  
ENDROOT
BRANCH   3   4
HETATM    4  C   UNL     1      -8.353   8.233  66.358  1.00  0.00    -0.117 C  
HETATM    5  O   UNL     1      -8.050   8.610  67.711  1.00  0.00    -0.106 OA 
HETATM    6  C   UNL     1      -7.588   7.562  68.578  1.00  0.00    -0.114 C  
HETATM    7  C   UNL     1      -6.344   6.848  67.990  1.00  0.00    -0.042 C  
HETATM    8  H   UNL     1      -7.580   4.861  65.704  1.00  0.00     0.000 HD 
HETATM    9  H   UNL     1      -5.465   7.964  64.908  1.00  0.00     0.000 HD 
HETATM   10  O   UNL     1      -5.185   7.696  67.966  1.00  0.00    -0.027 OA 
HETATM   11  C   UNL     1      -6.612   6.351  66.559  1.00  0.00    -0.048 C  
HETATM   12  H   UNL     1      -4.422   7.259  67.605  1.00  0.00     0.000 HD 
HETATM   13  C   UNL     1      -7.194   7.471  65.674  1.00  0.00    -0.066 C  
HETATM   14  O   UNL     1      -6.176   8.432  65.329  1.00  0.00    -0.048 OA 
HETATM   15  O   UNL     1      -7.415   5.168  66.587  1.00  0.00    -0.085 OA 
BRANCH   6  16
HETATM   16  O   UNL     1      -8.613   6.595  68.819  1.00  0.00    -0.122 OA 
BRANCH  16  17
HETATM   17  C   UNL     1      -9.568   6.846  69.759  1.00  0.00    -0.154 A  
HETATM   18  O   UNL     1      -9.683   4.635  70.736  1.00  0.00    -0.169 OA 
HETATM   19  C   UNL     1     -11.123   6.304  71.543  1.00  0.00    -0.333 A  
HETATM   20  H   UNL     1     -10.039   4.016  71.362  1.00  0.00     0.000 HD 
HETATM   21  C   UNL     1     -11.656   7.587  71.449  1.00  0.00    -0.275 A  
HETATM   22  C   UNL     1     -10.092   5.936  70.680  1.00  0.00    -0.197 A  
HETATM   23  O   UNL     1     -12.739   7.906  72.292  1.00  0.00    -0.256 OA 
HETATM   24  C   UNL     1     -13.355   9.148  72.231  1.00  0.00    -0.477 C  
HETATM   25  O   UNL     1     -14.318   9.441  72.930  1.00  0.00    -0.369 OA 
HETATM   26  C   UNL     1     -12.799  10.126  71.277  1.00  0.00    -0.508 C  
HETATM   27  C   UNL     1     -11.765   9.836  70.478  1.00  0.00    -0.343 C  
HETATM   28  C   UNL     1     -11.164   8.515  70.534  1.00  0.00    -0.262 A  
HETATM   29  C   UNL     1     -10.116   8.135  69.690  1.00  0.00    -0.199 A  
ENDBRANCH  16  17
ENDBRANCH   6  16
ENDBRANCH   3   4
TORSDOF 3
ENDMDL
MODEL      178
REMARK 921   NORMALIZED FREE ENERGY PREDICTED BY IDOCK:   -3.32 KCAL/MOL
REMARK 922        TOTAL FREE ENERGY PREDICTED BY IDOCK:   -4.87 KCAL/MOL
REMARK 923 INTER-LIGAND FREE ENERGY PREDICTED BY IDOCK:   -4.28 KCAL/MOL
REMARK 924 INTRA-LIGAND FREE ENERGY PREDICTED BY IDOCK:   -0.58 KCAL/MOL
REMARK 927      BINDING AFFINITY PREDICTED BY RF-SCORE:    0.00 PKD
ROOT
HETATM    1  O   UNL     1     -13.187  12.992  71.651  1.00  0.00    -0.386 OA 
HETATM    2  H   UNL     1     -12.702  13.806  71.590  1.00  0.00     0.000 HD 
HETATM    3  C   UNL     1     -12.367  11.867  71.364  1.00  0.00    -0.015 C  
ENDROOT
BRANCH   3   4
HETATM    4  C   UNL     1     -13.152  10.551  71.463  1.00  0.00    -0.430 C  
HETATM    5  O   UNL     1     -13.258   9.910  70.181  1.00  0.00     0.140 OA 
HETATM    6  C   UNL     1     -12.106   9.176  69.736  1.00  0.00     0.787 C  
HETATM    7  C   UNL     1     -11.682   8.105  70.772  1.00  0.00    -0.201 C  
HETATM    8  H   UNL     1     -10.110   9.814  73.076  1.00  0.00     0.000 HD 
HETATM    9  H   UNL     1     -13.530   8.157  73.618  1.00  0.00     0.000 HD 
HETATM   10  O   UNL     1     -12.640   7.041  70.886  1.00  0.00    -0.518 OA 
HETATM   11  C   UNL     1     -11.479   8.727  72.164  1.00  0.00    -0.351 C  
HETATM   12  H   UNL     1     -12.380   6.384  71.522  1.00  0.00     0.000 HD 
HETATM   13  C   UNL     1     -12.691   9.585  72.579  1.00  0.00    -0.136 C  
HETATM   14  O   UNL     1     -13.813   8.750  72.932  1.00  0.00    -0.295 OA 
HETATM   15  O   UNL     1     -10.235   9.430  72.217  1.00  0.00     0.237 OA 
BRANCH   6  16
HETATM   16  O   UNL     1     -11.001  10.046  69.481  1.00  0.00    -0.232 OA 
BRANCH  16  17
HETATM   17  C   UNL     1     -10.402  10.031  68.256  1.00  0.00    -0.193 A  
HETATM   18  O   UNL     1      -8.437   8.749  68.848  1.00  0.00    -0.128 OA 
HETATM   19  C   UNL     1      -8.647   9.548  66.651  1.00  0.00    -0.141 A  
HETATM   20  H   UNL     1      -7.611   8.336  68.625  1.00  0.00     0.000 HD 
HETATM   21  C   UNL     1      -9.316  10.322  65.707  1.00  0.00    -0.186 A  
HETATM   22  C   UNL     1      -9.187   9.424  67.930  1.00  0.00    -0.129 A  
HETATM   23  O   UNL     1      -8.711  10.478  64.444  1.00  0.00    -0.183 OA 
HETATM   24  C   UNL     1      -9.291  11.269  63.462  1.00  0.00    -0.204 C  
HETATM   25  O   UNL     1      -8.771  11.447  62.367  1.00  0.00    -0.300 OA 
HETATM   26  C   UNL     1     -10.583  11.901  63.787  1.00  0.00    -0.475 C  
HETATM   27  C   UNL     1     -11.172  11.751  64.981  1.00  0.00    -0.318 C  
HETATM   28  C   UNL     1     -10.523  10.951  66.004  1.00  0.00    -0.287 A  
HETATM   29  C   UNL     1     -11.060  10.800  67.286  1.00  0.00    -0.339 A  
ENDBRANCH  16  17
ENDBRANCH   6  16
ENDBRANCH   3   4
TORSDOF 3
ENDMDL
MODEL      179
REMARK 921   NORMALIZED FREE ENERGY PREDICTED BY IDOCK:   -3.32 KCAL/MOL
REMARK 922        TOTAL FREE ENERGY PREDICTED BY IDOCK:   -4.86 KCAL/MOL
REMARK 923 INTER-LIGAND FREE ENERGY PREDICTED BY IDOCK:   -4.41 KCAL/MOL
REMARK 924 INTRA-LIGAND FREE ENERGY PREDICTED BY IDOCK:   -0.46 KCAL/MOL
REMARK 927      BINDING AFFINITY PREDICTED BY RF-SCORE:    0.00 PKD
ROOT
HETATM    1  O   UNL     1     -10.179   4.941  69.291  1.00  0.00    -0.207 OA 
HETATM    2  H   UNL     1     -10.691   4.844  68.497  1.00  0.00     0.000 HD 
HETATM    3  C   UNL     1      -9.008   5.717  69.072  1.00  0.00    -0.112 C  
ENDROOT
BRANCH   3   4
HETATM    4  C   UNL     1      -8.181   5.873  70.356  1.00  0.00    -0.111 C  
HETATM    5  O   UNL     1      -7.583   7.177  70.435  1.00  0.00    -0.086 OA 
HETATM    6  C   UNL     1      -8.438   8.247  70.871  1.00  0.00    -0.132 C  
HETATM    7  C   UNL     1      -9.084   7.933  72.244  1.00  0.00    -0.161 C  
HETATM    8  H   UNL     1     -11.505   5.853  71.520  1.00  0.00     0.000 HD 
HETATM    9  H   UNL     1      -8.330   4.843  73.428  1.00  0.00     0.000 HD 
HETATM   10  O   UNL     1      -8.124   7.916  73.312  1.00  0.00    -0.137 OA 
HETATM   11  C   UNL     1      -9.808   6.575  72.220  1.00  0.00    -0.156 C  
HETATM   12  H   UNL     1      -8.520   7.723  74.153  1.00  0.00     0.000 HD 
HETATM   13  C   UNL     1      -8.899   5.462  71.663  1.00  0.00    -0.135 C  
HETATM   14  O   UNL     1      -7.889   5.096  72.625  1.00  0.00    -0.096 OA 
HETATM   15  O   UNL     1     -11.058   6.691  71.534  1.00  0.00    -0.239 OA 
BRANCH   6  16
HETATM   16  O   UNL     1      -9.469   8.510  69.916  1.00  0.00    -0.161 OA 
BRANCH  16  17
HETATM   17  C   UNL     1      -9.292   9.495  68.989  1.00  0.00    -0.155 A  
HETATM   18  O   UNL     1      -6.889   9.329  68.762  1.00  0.00    -0.059 OA 
HETATM   19  C   UNL     1      -8.029  10.976  67.540  1.00  0.00    -0.116 A  
HETATM   20  H   UNL     1      -6.065   9.606  68.379  1.00  0.00     0.000 HD 
HETATM   21  C   UNL     1      -9.202  11.670  67.250  1.00  0.00    -0.170 A  
HETATM   22  C   UNL     1      -8.081   9.902  68.426  1.00  0.00    -0.101 A  
HETATM   23  O   UNL     1      -9.104  12.789  66.400  1.00  0.00    -0.192 OA 
HETATM   24  C   UNL     1     -10.217  13.561  66.097  1.00  0.00    -0.302 C  
HETATM   25  O   UNL     1     -10.154  14.557  65.387  1.00  0.00    -0.345 OA 
HETATM   26  C   UNL     1     -11.506  13.130  66.670  1.00  0.00    -0.389 C  
HETATM   27  C   UNL     1     -11.612  12.063  67.471  1.00  0.00    -0.401 C  
HETATM   28  C   UNL     1     -10.424  11.297  67.804  1.00  0.00    -0.218 A  
HETATM   29  C   UNL     1     -10.460  10.205  68.676  1.00  0.00    -0.225 A  
ENDBRANCH  16  17
ENDBRANCH   6  16
ENDBRANCH   3   4
TORSDOF 3
ENDMDL
MODEL      180
REMARK 921   NORMALIZED FREE ENERGY PREDICTED BY IDOCK:   -3.31 KCAL/MOL
REMARK 922        TOTAL FREE ENERGY PREDICTED BY IDOCK:   -4.85 KCAL/MOL
REMARK 923 INTER-LIGAND FREE ENERGY PREDICTED BY IDOCK:   -3.88 KCAL/MOL
REMARK 924 INTRA-LIGAND FREE ENERGY PREDICTED BY IDOCK:   -0.97 KCAL/MOL
REMARK 927      BINDING AFFINITY PREDICTED BY RF-SCORE:    0.00 PKD
ROOT
HETATM    1  O   UNL     1     -11.177   9.736  71.529  1.00  0.00    -0.360 OA 
HETATM    2  H   UNL     1     -11.441  10.493  71.021  1.00  0.00     0.000 HD 
HETATM    3  C   UNL     1     -11.925   8.579  71.179  1.00  0.00    -0.272 C  
ENDROOT
BRANCH   3   4
HETATM    4  C   UNL     1     -11.499   7.355  72.001  1.00  0.00    -0.273 C  
HETATM    5  O   UNL     1     -11.118   6.262  71.149  1.00  0.00    -0.273 OA 
HETATM    6  C   UNL     1      -9.801   6.324  70.579  1.00  0.00    -0.177 C  
HETATM    7  C   UNL     1      -8.716   6.476  71.676  1.00  0.00    -0.132 C  
HETATM    8  H   UNL     1      -8.865   9.638  72.503  1.00  0.00     0.000 HD 
HETATM    9  H   UNL     1      -9.983   6.780  74.810  1.00  0.00     0.000 HD 
HETATM   10  O   UNL     1      -8.592   5.300  72.492  1.00  0.00    -0.120 OA 
HETATM   11  C   UNL     1      -9.016   7.674  72.593  1.00  0.00    -0.154 C  
HETATM   12  H   UNL     1      -7.927   5.393  73.164  1.00  0.00     0.000 HD 
HETATM   13  C   UNL     1     -10.465   7.632  73.118  1.00  0.00    -0.374 C  
HETATM   14  O   UNL     1     -10.617   6.609  74.124  1.00  0.00    -0.310 OA 
HETATM   15  O   UNL     1      -8.680   8.898  71.937  1.00  0.00    -0.343 OA 
BRANCH   6  16
HETATM   16  O   UNL     1      -9.684   7.406  69.653  1.00  0.00    -0.163 OA 
BRANCH  16  17
HETATM   17  C   UNL     1      -8.794   7.319  68.624  1.00  0.00    -0.129 A  
HETATM   18  O   UNL     1      -7.097   8.800  69.508  1.00  0.00    -0.053 OA 
HETATM   19  C   UNL     1      -6.775   7.851  67.386  1.00  0.00    -0.069 A  
HETATM   20  H   UNL     1      -6.258   9.242  69.444  1.00  0.00     0.000 HD 
HETATM   21  C   UNL     1      -7.254   7.105  66.312  1.00  0.00    -0.075 A  
HETATM   22  C   UNL     1      -7.561   7.968  68.531  1.00  0.00    -0.104 A  
HETATM   23  O   UNL     1      -6.463   7.059  65.146  1.00  0.00    -0.042 OA 
HETATM   24  C   UNL     1      -6.889   6.375  64.016  1.00  0.00    -0.041 C  
HETATM   25  O   UNL     1      -6.236   6.345  62.980  1.00  0.00    -0.029 OA 
HETATM   26  C   UNL     1      -8.180   5.668  64.108  1.00  0.00    -0.111 C  
HETATM   27  C   UNL     1      -8.934   5.698  65.213  1.00  0.00    -0.039 C  
HETATM   28  C   UNL     1      -8.484   6.455  66.367  1.00  0.00    -0.123 A  
HETATM   29  C   UNL     1      -9.250   6.567  67.532  1.00  0.00    -0.113 A  
ENDBRANCH  16  17
ENDBRANCH   6  16
ENDBRANCH   3   4
TORSDOF 3
ENDMDL
MODEL      181
REMARK 921   NORMALIZED FREE ENERGY PREDICTED BY IDOCK:   -3.24 KCAL/MOL
REMARK 922        TOTAL FREE ENERGY PREDICTED BY IDOCK:   -4.77 KCAL/MOL
REMARK 923 INTER-LIGAND FREE ENERGY PREDICTED BY IDOCK:   -4.21 KCAL/MOL
REMARK 924 INTRA-LIGAND FREE ENERGY PREDICTED BY IDOCK:   -0.56 KCAL/MOL
REMARK 927      BINDING AFFINITY PREDICTED BY RF-SCORE:    0.00 PKD
ROOT
HETATM    1  O   UNL     1     -13.183  13.001  71.650  1.00  0.00    -0.386 OA 
HETATM    2  H   UNL     1     -12.734  13.838  71.663  1.00  0.00     0.000 HD 
HETATM    3  C   UNL     1     -12.307  11.938  71.302  1.00  0.00    -0.107 C  
ENDROOT
BRANCH   3   4
HETATM    4  C   UNL     1     -13.033  10.585  71.282  1.00  0.00    -0.433 C  
HETATM    5  O   UNL     1     -13.095  10.047  69.951  1.00  0.00     0.218 OA 
HETATM    6  C   UNL     1     -11.906   9.402  69.466  1.00  0.00     0.549 C  
HETATM    7  C   UNL     1     -11.448   8.270  70.419  1.00  0.00    -0.122 C  
HETATM    8  H   UNL     1      -9.981   9.853  72.878  1.00  0.00     0.000 HD 
HETATM    9  H   UNL     1     -13.331   8.010  73.230  1.00  0.00     0.000 HD 
HETATM   10  O   UNL     1     -12.359   7.159  70.431  1.00  0.00    -0.589 OA 
HETATM   11  C   UNL     1     -11.290   8.785  71.860  1.00  0.00    -0.361 C  
HETATM   12  H   UNL     1     -12.078   6.465  71.016  1.00  0.00     0.000 HD 
HETATM   13  C   UNL     1     -12.543   9.552  72.324  1.00  0.00    -0.270 C  
HETATM   14  O   UNL     1     -13.631   8.644  72.589  1.00  0.00    -0.329 OA 
HETATM   15  O   UNL     1     -10.079   9.535  71.989  1.00  0.00     0.119 OA 
BRANCH   6  16
HETATM   16  O   UNL     1     -10.838  10.337  69.300  1.00  0.00    -0.211 OA 
BRANCH  16  17
HETATM   17  C   UNL     1     -10.244  10.470  68.079  1.00  0.00    -0.166 A  
HETATM   18  O   UNL     1     -11.903  11.892  67.040  1.00  0.00    -0.585 OA 
HETATM   19  C   UNL     1     -10.056  11.195  65.770  1.00  0.00    -0.299 A  
HETATM   20  H   UNL     1     -12.232  12.390  66.301  1.00  0.00     0.000 HD 
HETATM   21  C   UNL     1      -8.912  10.414  65.633  1.00  0.00    -0.176 A  
HETATM   22  C   UNL     1     -10.727  11.201  66.992  1.00  0.00    -0.268 A  
HETATM   23  O   UNL     1      -8.294  10.380  64.367  1.00  0.00    -0.165 OA 
HETATM   24  C   UNL     1      -7.175   9.593  64.134  1.00  0.00    -0.122 C  
HETATM   25  O   UNL     1      -6.637   9.520  63.036  1.00  0.00    -0.098 OA 
HETATM   26  C   UNL     1      -6.643   8.830  65.279  1.00  0.00    -0.067 C  
HETATM   27  C   UNL     1      -7.217   8.862  66.488  1.00  0.00    -0.085 C  
HETATM   28  C   UNL     1      -8.410   9.663  66.694  1.00  0.00    -0.123 A  
HETATM   29  C   UNL     1      -9.085   9.698  67.917  1.00  0.00    -0.130 A  
ENDBRANCH  16  17
ENDBRANCH   6  16
ENDBRANCH   3   4
TORSDOF 3
ENDMDL
MODEL      182
REMARK 921   NORMALIZED FREE ENERGY PREDICTED BY IDOCK:   -3.22 KCAL/MOL
REMARK 922        TOTAL FREE ENERGY PREDICTED BY IDOCK:   -4.74 KCAL/MOL
REMARK 923 INTER-LIGAND FREE ENERGY PREDICTED BY IDOCK:   -4.07 KCAL/MOL
REMARK 924 INTRA-LIGAND FREE ENERGY PREDICTED BY IDOCK:   -0.67 KCAL/MOL
REMARK 927      BINDING AFFINITY PREDICTED BY RF-SCORE:    0.00 PKD
ROOT
HETATM    1  O   UNL     1      -7.065   7.911  64.262  1.00  0.00    -0.069 OA 
HETATM    2  H   UNL     1      -6.481   7.162  64.269  1.00  0.00     0.000 HD 
HETATM    3  C   UNL     1      -8.213   7.693  65.071  1.00  0.00    -0.113 C  
ENDROOT
BRANCH   3   4
HETATM    4  C   UNL     1      -9.157   8.903  65.059  1.00  0.00    -0.050 C  
HETATM    5  O   UNL     1     -10.051   8.879  66.184  1.00  0.00    -0.291 OA 
HETATM    6  C   UNL     1      -9.512   9.328  67.438  1.00  0.00    -0.132 C  
HETATM    7  C   UNL     1      -8.925  10.758  67.323  1.00  0.00    -0.140 C  
HETATM    8  H   UNL     1      -6.031  10.310  65.864  1.00  0.00     0.000 HD 
HETATM    9  H   UNL     1      -9.025  12.020  64.174  1.00  0.00     0.000 HD 
HETATM   10  O   UNL     1      -9.940  11.751  67.105  1.00  0.00    -0.200 OA 
HETATM   11  C   UNL     1      -7.902  10.849  66.178  1.00  0.00    -0.144 C  
HETATM   12  H   UNL     1      -9.580  12.628  67.034  1.00  0.00     0.000 HD 
HETATM   13  C   UNL     1      -8.473  10.277  64.865  1.00  0.00    -0.177 C  
HETATM   14  O   UNL     1      -9.445  11.177  64.294  1.00  0.00    -0.226 OA 
HETATM   15  O   UNL     1      -6.663  10.254  66.570  1.00  0.00    -0.080 OA 
BRANCH   6  16
HETATM   16  O   UNL     1      -8.496   8.442  67.915  1.00  0.00    -0.129 OA 
BRANCH  16  17
HETATM   17  C   UNL     1      -8.693   7.757  69.078  1.00  0.00    -0.135 A  
HETATM   18  O   UNL     1      -6.446   6.908  69.364  1.00  0.00    -0.041 OA 
HETATM   19  C   UNL     1      -8.090   6.304  70.926  1.00  0.00    -0.124 A  
HETATM   20  H   UNL     1      -5.796   6.408  69.845  1.00  0.00     0.000 HD 
HETATM   21  C   UNL     1      -9.421   6.294  71.334  1.00  0.00    -0.156 A  
HETATM   22  C   UNL     1      -7.739   7.023  69.784  1.00  0.00    -0.109 A  
HETATM   23  O   UNL     1      -9.753   5.507  72.455  1.00  0.00    -0.152 OA 
HETATM   24  C   UNL     1     -11.064   5.408  72.900  1.00  0.00    -0.305 C  
HETATM   25  O   UNL     1     -11.386   4.706  73.852  1.00  0.00    -0.242 OA 
HETATM   26  C   UNL     1     -12.079   6.194  72.174  1.00  0.00    -0.263 C  
HETATM   27  C   UNL     1     -11.773   6.952  71.114  1.00  0.00    -0.381 C  
HETATM   28  C   UNL     1     -10.400   7.006  70.645  1.00  0.00    -0.223 A  
HETATM   29  C   UNL     1     -10.026   7.737  69.514  1.00  0.00    -0.187 A  
ENDBRANCH  16  17
ENDBRANCH   6  16
ENDBRANCH   3   4
TORSDOF 3
ENDMDL
MODEL      183
REMARK 921   NORMALIZED FREE ENERGY PREDICTED BY IDOCK:   -3.21 KCAL/MOL
REMARK 922        TOTAL FREE ENERGY PREDICTED BY IDOCK:   -4.73 KCAL/MOL
REMARK 923 INTER-LIGAND FREE ENERGY PREDICTED BY IDOCK:   -4.18 KCAL/MOL
REMARK 924 INTRA-LIGAND FREE ENERGY PREDICTED BY IDOCK:   -0.55 KCAL/MOL
REMARK 927      BINDING AFFINITY PREDICTED BY RF-SCORE:    0.00 PKD
ROOT
HETATM    1  O   UNL     1      -8.175   9.326  63.348  1.00  0.00    -0.155 OA 
HETATM    2  H   UNL     1      -7.273   9.132  63.123  1.00  0.00     0.000 HD 
HETATM    3  C   UNL     1      -8.270  10.069  64.556  1.00  0.00    -0.164 C  
ENDROOT
BRANCH   3   4
HETATM    4  C   UNL     1      -9.728  10.381  64.919  1.00  0.00    -0.309 C  
HETATM    5  O   UNL     1     -10.293   9.347  65.742  1.00  0.00    -0.139 OA 
HETATM    6  C   UNL     1      -9.951   9.382  67.137  1.00  0.00    -0.204 C  
HETATM    7  C   UNL     1     -10.308  10.749  67.774  1.00  0.00    -0.193 C  
HETATM    8  H   UNL     1      -7.895  12.730  66.796  1.00  0.00     0.000 HD 
HETATM    9  H   UNL     1     -11.516  13.012  65.552  1.00  0.00     0.000 HD 
HETATM   10  O   UNL     1     -11.726  10.967  67.849  1.00  0.00    -0.582 OA 
HETATM   11  C   UNL     1      -9.679  11.911  66.986  1.00  0.00    -0.194 C  
HETATM   12  H   UNL     1     -11.945  11.805  68.239  1.00  0.00     0.000 HD 
HETATM   13  C   UNL     1      -9.984  11.800  65.479  1.00  0.00    -0.242 C  
HETATM   14  O   UNL     1     -11.360  12.140  65.209  1.00  0.00    -0.324 OA 
HETATM   15  O   UNL     1      -8.284  12.013  67.282  1.00  0.00    -0.157 OA 
BRANCH   6  16
HETATM   16  O   UNL     1      -8.560   9.120  67.338  1.00  0.00    -0.115 OA 
BRANCH  16  17
HETATM   17  C   UNL     1      -8.176   7.964  67.951  1.00  0.00    -0.129 A  
HETATM   18  O   UNL     1      -5.993   7.740  66.930  1.00  0.00    -0.044 OA 
HETATM   19  C   UNL     1      -6.726   6.072  68.409  1.00  0.00    -0.064 A  
HETATM   20  H   UNL     1      -5.170   7.282  66.811  1.00  0.00     0.000 HD 
HETATM   21  C   UNL     1      -7.730   5.510  69.193  1.00  0.00    -0.087 A  
HETATM   22  C   UNL     1      -6.965   7.290  67.775  1.00  0.00    -0.076 A  
HETATM   23  O   UNL     1      -7.479   4.248  69.768  1.00  0.00    -0.049 OA 
HETATM   24  C   UNL     1      -8.443   3.600  70.527  1.00  0.00    -0.068 C  
HETATM   25  O   UNL     1      -8.263   2.489  71.012  1.00  0.00    -0.052 OA 
HETATM   26  C   UNL     1      -9.719   4.309  70.737  1.00  0.00    -0.274 C  
HETATM   27  C   UNL     1      -9.964   5.512  70.203  1.00  0.00    -0.287 C  
HETATM   28  C   UNL     1      -8.953   6.150  69.379  1.00  0.00    -0.128 A  
HETATM   29  C   UNL     1      -9.168   7.381  68.752  1.00  0.00    -0.144 A  
ENDBRANCH  16  17
ENDBRANCH   6  16
ENDBRANCH   3   4
TORSDOF 3
ENDMDL
MODEL      184
REMARK 921   NORMALIZED FREE ENERGY PREDICTED BY IDOCK:   -3.19 KCAL/MOL
REMARK 922        TOTAL FREE ENERGY PREDICTED BY IDOCK:   -4.71 KCAL/MOL
REMARK 923 INTER-LIGAND FREE ENERGY PREDICTED BY IDOCK:   -4.34 KCAL/MOL
REMARK 924 INTRA-LIGAND FREE ENERGY PREDICTED BY IDOCK:   -0.38 KCAL/MOL
REMARK 927      BINDING AFFINITY PREDICTED BY RF-SCORE:    0.00 PKD
ROOT
HETATM    1  O   UNL     1     -11.364  10.881  70.817  1.00  0.00    -0.395 OA 
HETATM    2  H   UNL     1     -11.543  11.654  70.294  1.00  0.00     0.000 HD 
HETATM    3  C   UNL     1     -12.360   9.883  70.641  1.00  0.00    -0.214 C  
ENDROOT
BRANCH   3   4
HETATM    4  C   UNL     1     -12.071   8.635  71.486  1.00  0.00    -0.316 C  
HETATM    5  O   UNL     1     -12.204   7.435  70.706  1.00  0.00    -0.266 OA 
HETATM    6  C   UNL     1     -11.097   7.100  69.854  1.00  0.00    -0.235 C  
HETATM    7  C   UNL     1      -9.774   7.005  70.656  1.00  0.00    -0.172 C  
HETATM    8  H   UNL     1      -8.903  10.125  71.114  1.00  0.00     0.000 HD 
HETATM    9  H   UNL     1     -10.108   7.816  73.934  1.00  0.00     0.000 HD 
HETATM   10  O   UNL     1      -9.756   5.886  71.556  1.00  0.00    -0.159 OA 
HETATM   11  C   UNL     1      -9.523   8.287  71.468  1.00  0.00    -0.186 C  
HETATM   12  H   UNL     1      -8.946   5.828  72.048  1.00  0.00     0.000 HD 
HETATM   13  C   UNL     1     -10.759   8.675  72.304  1.00  0.00    -0.313 C  
HETATM   14  O   UNL     1     -10.914   7.790  73.432  1.00  0.00    -0.327 OA 
HETATM   15  O   UNL     1      -9.058   9.334  70.613  1.00  0.00    -0.226 OA 
BRANCH   6  16
HETATM   16  O   UNL     1     -10.941   8.057  68.803  1.00  0.00    -0.009 OA 
BRANCH  16  17
HETATM   17  C   UNL     1     -10.219   7.726  67.695  1.00  0.00    -0.219 A  
HETATM   18  O   UNL     1     -10.918   5.418  67.501  1.00  0.00    -0.201 OA 
HETATM   19  C   UNL     1      -9.348   6.256  65.971  1.00  0.00    -0.068 A  
HETATM   20  H   UNL     1     -10.899   4.573  67.068  1.00  0.00     0.000 HD 
HETATM   21  C   UNL     1      -8.500   7.276  65.549  1.00  0.00    -0.111 A  
HETATM   22  C   UNL     1     -10.190   6.484  67.058  1.00  0.00    -0.215 A  
HETATM   23  O   UNL     1      -7.616   6.993  64.488  1.00  0.00    -0.092 OA 
HETATM   24  C   UNL     1      -6.708   7.940  64.036  1.00  0.00    -0.062 C  
HETATM   25  O   UNL     1      -5.908   7.710  63.138  1.00  0.00    -0.049 OA 
HETATM   26  C   UNL     1      -6.741   9.263  64.688  1.00  0.00    -0.081 C  
HETATM   27  C   UNL     1      -7.583   9.546  65.690  1.00  0.00    -0.101 C  
HETATM   28  C   UNL     1      -8.495   8.523  66.170  1.00  0.00    -0.139 A  
HETATM   29  C   UNL     1      -9.361   8.740  67.245  1.00  0.00    -0.181 A  
ENDBRANCH  16  17
ENDBRANCH   6  16
ENDBRANCH   3   4
TORSDOF 3
ENDMDL
MODEL      185
REMARK 921   NORMALIZED FREE ENERGY PREDICTED BY IDOCK:   -3.17 KCAL/MOL
REMARK 922        TOTAL FREE ENERGY PREDICTED BY IDOCK:   -4.68 KCAL/MOL
REMARK 923 INTER-LIGAND FREE ENERGY PREDICTED BY IDOCK:   -3.93 KCAL/MOL
REMARK 924 INTRA-LIGAND FREE ENERGY PREDICTED BY IDOCK:   -0.76 KCAL/MOL
REMARK 927      BINDING AFFINITY PREDICTED BY RF-SCORE:    0.00 PKD
ROOT
HETATM    1  O   UNL     1      -6.223  11.872  66.099  1.00  0.00    -0.452 OA 
HETATM    2  H   UNL     1      -6.201  12.489  66.821  1.00  0.00     0.000 HD 
HETATM    3  C   UNL     1      -5.999  10.539  66.538  1.00  0.00    -0.077 C  
ENDROOT
BRANCH   3   4
HETATM    4  C   UNL     1      -6.034   9.542  65.372  1.00  0.00    -0.064 C  
HETATM    5  O   UNL     1      -6.419   8.231  65.818  1.00  0.00    -0.051 OA 
HETATM    6  C   UNL     1      -7.824   8.015  66.029  1.00  0.00    -0.094 C  
HETATM    7  C   UNL     1      -8.645   8.348  64.758  1.00  0.00    -0.049 C  
HETATM    8  H   UNL     1      -8.813  11.616  64.761  1.00  0.00     0.000 HD 
HETATM    9  H   UNL     1      -6.774   9.592  62.215  1.00  0.00     0.000 HD 
HETATM   10  O   UNL     1      -8.399   7.425  63.686  1.00  0.00    -0.361 OA 
HETATM   11  C   UNL     1      -8.340   9.770  64.255  1.00  0.00    -0.167 C  
HETATM   12  H   UNL     1      -8.902   7.630  62.907  1.00  0.00     0.000 HD 
HETATM   13  C   UNL     1      -6.822  10.006  64.125  1.00  0.00    -0.126 C  
HETATM   14  O   UNL     1      -6.291   9.306  62.981  1.00  0.00    -0.090 OA 
HETATM   15  O   UNL     1      -9.002  10.739  65.072  1.00  0.00    -0.195 OA 
BRANCH   6  16
HETATM   16  O   UNL     1      -8.312   8.796  67.122  1.00  0.00    -0.103 OA 
BRANCH  16  17
HETATM   17  C   UNL     1      -8.779   8.171  68.241  1.00  0.00    -0.133 A  
HETATM   18  O   UNL     1      -8.853  10.095  69.706  1.00  0.00    -0.288 OA 
HETATM   19  C   UNL     1      -9.449   7.994  70.567  1.00  0.00    -0.166 A  
HETATM   20  H   UNL     1      -9.034  10.497  70.548  1.00  0.00     0.000 HD 
HETATM   21  C   UNL     1      -9.549   6.613  70.418  1.00  0.00    -0.165 A  
HETATM   22  C   UNL     1      -9.044   8.763  69.477  1.00  0.00    -0.146 A  
HETATM   23  O   UNL     1      -9.899   5.858  71.555  1.00  0.00    -0.163 OA 
HETATM   24  C   UNL     1      -9.978   4.474  71.503  1.00  0.00    -0.189 C  
HETATM   25  O   UNL     1     -10.249   3.792  72.484  1.00  0.00    -0.165 OA 
HETATM   26  C   UNL     1      -9.719   3.837  70.198  1.00  0.00    -0.217 C  
HETATM   27  C   UNL     1      -9.394   4.545  69.109  1.00  0.00    -0.214 C  
HETATM   28  C   UNL     1      -9.280   5.990  69.202  1.00  0.00    -0.131 A  
HETATM   29  C   UNL     1      -8.894   6.779  68.115  1.00  0.00    -0.120 A  
ENDBRANCH  16  17
ENDBRANCH   6  16
ENDBRANCH   3   4
TORSDOF 3
ENDMDL
MODEL      186
REMARK 921   NORMALIZED FREE ENERGY PREDICTED BY IDOCK:   -3.16 KCAL/MOL
REMARK 922        TOTAL FREE ENERGY PREDICTED BY IDOCK:   -4.67 KCAL/MOL
REMARK 923 INTER-LIGAND FREE ENERGY PREDICTED BY IDOCK:   -4.30 KCAL/MOL
REMARK 924 INTRA-LIGAND FREE ENERGY PREDICTED BY IDOCK:   -0.37 KCAL/MOL
REMARK 927      BINDING AFFINITY PREDICTED BY RF-SCORE:    0.00 PKD
ROOT
HETATM    1  O   UNL     1      -5.539   8.849  63.837  1.00  0.00    -0.068 OA 
HETATM    2  H   UNL     1      -5.016   9.607  63.604  1.00  0.00     0.000 HD 
HETATM    3  C   UNL     1      -5.131   8.287  65.077  1.00  0.00    -0.035 C  
ENDROOT
BRANCH   3   4
HETATM    4  C   UNL     1      -5.976   7.062  65.453  1.00  0.00    -0.036 C  
HETATM    5  O   UNL     1      -6.807   7.332  66.594  1.00  0.00    -0.061 OA 
HETATM    6  C   UNL     1      -8.013   8.073  66.346  1.00  0.00    -0.102 C  
HETATM    7  C   UNL     1      -8.889   7.385  65.268  1.00  0.00     0.181 C  
HETATM    8  H   UNL     1      -7.434   8.173  62.446  1.00  0.00     0.000 HD 
HETATM    9  H   UNL     1      -7.458   4.624  63.910  1.00  0.00     0.000 HD 
HETATM   10  O   UNL     1      -9.439   6.138  65.722  1.00  0.00    -0.367 OA 
HETATM   11  C   UNL     1      -8.086   7.123  63.983  1.00  0.00    -0.018 C  
HETATM   12  H   UNL     1      -9.976   5.716  65.062  1.00  0.00     0.000 HD 
HETATM   13  C   UNL     1      -6.754   6.409  64.286  1.00  0.00    -0.038 C  
HETATM   14  O   UNL     1      -6.981   5.026  64.627  1.00  0.00    -0.048 OA 
HETATM   15  O   UNL     1      -7.929   8.335  63.240  1.00  0.00    -0.150 OA 
BRANCH   6  16
HETATM   16  O   UNL     1      -7.726   9.411  65.932  1.00  0.00    -0.098 OA 
BRANCH  16  17
HETATM   17  C   UNL     1      -8.635  10.399  66.173  1.00  0.00    -0.144 A  
HETATM   18  O   UNL     1      -8.182  10.720  68.528  1.00  0.00    -0.121 OA 
HETATM   19  C   UNL     1      -9.885  11.983  67.521  1.00  0.00    -0.190 A  
HETATM   20  H   UNL     1      -8.343  11.154  69.358  1.00  0.00     0.000 HD 
HETATM   21  C   UNL     1     -10.693  12.260  66.421  1.00  0.00    -0.251 A  
HETATM   22  C   UNL     1      -8.870  11.036  67.393  1.00  0.00    -0.138 A  
HETATM   23  O   UNL     1     -11.749  13.176  66.602  1.00  0.00    -0.338 OA 
HETATM   24  C   UNL     1     -12.626  13.474  65.569  1.00  0.00    -0.481 C  
HETATM   25  O   UNL     1     -13.571  14.241  65.708  1.00  0.00    -0.228 OA 
HETATM   26  C   UNL     1     -12.377  12.822  64.269  1.00  0.00    -0.493 C  
HETATM   27  C   UNL     1     -11.371  11.958  64.084  1.00  0.00    -0.455 C  
HETATM   28  C   UNL     1     -10.492  11.634  65.194  1.00  0.00    -0.329 A  
HETATM   29  C   UNL     1      -9.457  10.702  65.078  1.00  0.00    -0.293 A  
ENDBRANCH  16  17
ENDBRANCH   6  16
ENDBRANCH   3   4
TORSDOF 3
ENDMDL
MODEL      187
REMARK 921   NORMALIZED FREE ENERGY PREDICTED BY IDOCK:   -3.07 KCAL/MOL
REMARK 922        TOTAL FREE ENERGY PREDICTED BY IDOCK:   -4.57 KCAL/MOL
REMARK 923 INTER-LIGAND FREE ENERGY PREDICTED BY IDOCK:   -4.48 KCAL/MOL
REMARK 924 INTRA-LIGAND FREE ENERGY PREDICTED BY IDOCK:   -0.09 KCAL/MOL
REMARK 927      BINDING AFFINITY PREDICTED BY RF-SCORE:    0.00 PKD
ROOT
HETATM    1  O   UNL     1      -7.294  14.362  67.950  1.00  0.00    -0.121 OA 
HETATM    2  H   UNL     1      -6.442  14.079  68.258  1.00  0.00     0.000 HD 
HETATM    3  C   UNL     1      -8.235  13.297  67.947  1.00  0.00    -0.163 C  
ENDROOT
BRANCH   3   4
HETATM    4  C   UNL     1      -9.613  13.755  67.449  1.00  0.00    -0.229 C  
HETATM    5  O   UNL     1      -9.654  13.819  66.014  1.00  0.00    -0.258 OA 
HETATM    6  C   UNL     1      -9.832  12.573  65.323  1.00  0.00    -0.139 C  
HETATM    7  C   UNL     1     -11.107  11.836  65.806  1.00  0.00    -0.297 C  
HETATM    8  H   UNL     1     -10.219  10.505  68.659  1.00  0.00     0.000 HD 
HETATM    9  H   UNL     1     -12.709  13.410  68.350  1.00  0.00     0.000 HD 
HETATM   10  O   UNL     1     -12.313  12.518  65.426  1.00  0.00    -0.579 OA 
HETATM   11  C   UNL     1     -11.106  11.665  67.335  1.00  0.00    -0.281 C  
HETATM   12  H   UNL     1     -13.095  12.066  65.722  1.00  0.00     0.000 HD 
HETATM   13  C   UNL     1     -10.821  13.000  68.050  1.00  0.00    -0.242 C  
HETATM   14  O   UNL     1     -11.967  13.874  67.980  1.00  0.00    -0.361 OA 
HETATM   15  O   UNL     1     -10.219  10.610  67.716  1.00  0.00    -0.169 OA 
BRANCH   6  16
HETATM   16  O   UNL     1      -8.701  11.715  65.496  1.00  0.00     0.002 OA 
BRANCH  16  17
HETATM   17  C   UNL     1      -8.585  10.592  64.731  1.00  0.00    -0.130 A  
HETATM   18  O   UNL     1      -9.413  11.506  62.648  1.00  0.00    -0.489 OA 
HETATM   19  C   UNL     1      -8.818   9.237  62.731  1.00  0.00    -0.198 A  
HETATM   20  H   UNL     1      -9.637  11.420  61.729  1.00  0.00     0.000 HD 
HETATM   21  C   UNL     1      -8.424   8.118  63.461  1.00  0.00     0.111 A  
HETATM   22  C   UNL     1      -8.915  10.467  63.380  1.00  0.00    -0.229 A  
HETATM   23  O   UNL     1      -8.398   6.879  62.790  1.00  0.00    -0.039 OA 
HETATM   24  C   UNL     1      -8.059   5.709  63.456  1.00  0.00    -0.112 C  
HETATM   25  O   UNL     1      -8.058   4.614  62.905  1.00  0.00    -0.075 OA 
HETATM   26  C   UNL     1      -7.690   5.831  64.878  1.00  0.00    -0.095 C  
HETATM   27  C   UNL     1      -7.703   7.004  65.522  1.00  0.00    -0.105 C  
HETATM   28  C   UNL     1      -8.100   8.207  64.812  1.00  0.00    -0.152 A  
HETATM   29  C   UNL     1      -8.184   9.452  65.441  1.00  0.00    -0.126 A  
ENDBRANCH  16  17
ENDBRANCH   6  16
ENDBRANCH   3   4
TORSDOF 3
ENDMDL
MODEL      188
REMARK 921   NORMALIZED FREE ENERGY PREDICTED BY IDOCK:   -3.03 KCAL/MOL
REMARK 922        TOTAL FREE ENERGY PREDICTED BY IDOCK:   -4.52 KCAL/MOL
REMARK 923 INTER-LIGAND FREE ENERGY PREDICTED BY IDOCK:   -4.40 KCAL/MOL
REMARK 924 INTRA-LIGAND FREE ENERGY PREDICTED BY IDOCK:   -0.12 KCAL/MOL
REMARK 927      BINDING AFFINITY PREDICTED BY RF-SCORE:    0.00 PKD
ROOT
HETATM    1  O   UNL     1     -11.424  11.779  66.055  1.00  0.00    -0.322 OA 
HETATM    2  H   UNL     1     -11.763  11.620  65.182  1.00  0.00     0.000 HD 
HETATM    3  C   UNL     1     -10.072  12.217  66.025  1.00  0.00    -0.235 C  
ENDROOT
BRANCH   3   4
HETATM    4  C   UNL     1      -9.525  12.474  67.436  1.00  0.00    -0.184 C  
HETATM    5  O   UNL     1     -10.317  11.806  68.431  1.00  0.00    -0.201 OA 
HETATM    6  C   UNL     1     -10.073  10.401  68.606  1.00  0.00    -0.176 C  
HETATM    7  C   UNL     1      -8.581  10.119  68.914  1.00  0.00    -0.141 C  
HETATM    8  H   UNL     1      -7.116  10.346  65.998  1.00  0.00     0.000 HD 
HETATM    9  H   UNL     1      -6.627  12.892  68.829  1.00  0.00     0.000 HD 
HETATM   10  O   UNL     1      -8.183  10.614  70.203  1.00  0.00    -0.321 OA 
HETATM   11  C   UNL     1      -7.665  10.746  67.849  1.00  0.00    -0.100 C  
HETATM   12  H   UNL     1      -7.268  10.442  70.391  1.00  0.00     0.000 HD 
HETATM   13  C   UNL     1      -8.008  12.230  67.614  1.00  0.00    -0.161 C  
HETATM   14  O   UNL     1      -7.558  13.041  68.720  1.00  0.00    -0.108 OA 
HETATM   15  O   UNL     1      -7.681   9.959  66.655  1.00  0.00    -0.104 OA 
BRANCH   6  16
HETATM   16  O   UNL     1     -10.462   9.657  67.449  1.00  0.00    -0.228 OA 
BRANCH  16  17
HETATM   17  C   UNL     1     -10.462   8.294  67.493  1.00  0.00    -0.255 A  
HETATM   18  O   UNL     1     -11.618   8.017  69.601  1.00  0.00    -0.374 OA 
HETATM   19  C   UNL     1     -10.870   6.106  68.461  1.00  0.00    -0.389 A  
HETATM   20  H   UNL     1     -11.986   7.472  70.286  1.00  0.00     0.000 HD 
HETATM   21  C   UNL     1     -10.152   5.527  67.419  1.00  0.00    -0.179 A  
HETATM   22  C   UNL     1     -11.003   7.494  68.501  1.00  0.00     0.113 A  
HETATM   23  O   UNL     1      -9.982   4.128  67.443  1.00  0.00    -0.151 OA 
HETATM   24  C   UNL     1      -9.243   3.477  66.465  1.00  0.00    -0.173 C  
HETATM   25  O   UNL     1      -9.054   2.266  66.480  1.00  0.00    -0.127 OA 
HETATM   26  C   UNL     1      -8.682   4.309  65.385  1.00  0.00    -0.123 C  
HETATM   27  C   UNL     1      -8.845   5.637  65.347  1.00  0.00    -0.112 C  
HETATM   28  C   UNL     1      -9.589   6.298  66.405  1.00  0.00    -0.159 A  
HETATM   29  C   UNL     1      -9.750   7.686  66.450  1.00  0.00    -0.197 A  
ENDBRANCH  16  17
ENDBRANCH   6  16
ENDBRANCH   3   4
TORSDOF 3
ENDMDL
MODEL      189
REMARK 921   NORMALIZED FREE ENERGY PREDICTED BY IDOCK:   -3.00 KCAL/MOL
REMARK 922        TOTAL FREE ENERGY PREDICTED BY IDOCK:   -4.49 KCAL/MOL
REMARK 923 INTER-LIGAND FREE ENERGY PREDICTED BY IDOCK:   -4.33 KCAL/MOL
REMARK 924 INTRA-LIGAND FREE ENERGY PREDICTED BY IDOCK:   -0.15 KCAL/MOL
REMARK 927      BINDING AFFINITY PREDICTED BY RF-SCORE:    0.00 PKD
ROOT
HETATM    1  O   UNL     1      -5.469   9.476  67.879  1.00  0.00    -0.040 OA 
HETATM    2  H   UNL     1      -5.108   9.828  68.683  1.00  0.00     0.000 HD 
HETATM    3  C   UNL     1      -5.730   8.082  67.984  1.00  0.00    -0.034 C  
ENDROOT
BRANCH   3   4
HETATM    4  C   UNL     1      -6.314   7.512  66.684  1.00  0.00    -0.045 C  
HETATM    5  O   UNL     1      -7.741   7.364  66.774  1.00  0.00    -0.104 OA 
HETATM    6  C   UNL     1      -8.521   8.555  66.588  1.00  0.00    -0.113 C  
HETATM    7  C   UNL     1      -8.196   9.240  65.236  1.00  0.00    -0.134 C  
HETATM    8  H   UNL     1      -5.366  10.784  65.792  1.00  0.00     0.000 HD 
HETATM    9  H   UNL     1      -5.705   7.719  63.505  1.00  0.00     0.000 HD 
HETATM   10  O   UNL     1      -8.634   8.464  64.109  1.00  0.00    -0.384 OA 
HETATM   11  C   UNL     1      -6.687   9.498  65.092  1.00  0.00    -0.088 C  
HETATM   12  H   UNL     1      -8.435   8.883  63.280  1.00  0.00     0.000 HD 
HETATM   13  C   UNL     1      -5.867   8.226  65.386  1.00  0.00    -0.044 C  
HETATM   14  O   UNL     1      -5.980   7.281  64.302  1.00  0.00    -0.036 OA 
HETATM   15  O   UNL     1      -6.298  10.625  65.881  1.00  0.00    -0.118 OA 
BRANCH   6  16
HETATM   16  O   UNL     1      -8.307   9.489  67.649  1.00  0.00    -0.123 OA 
BRANCH  16  17
HETATM   17  C   UNL     1      -9.243  10.448  67.902  1.00  0.00    -0.139 A  
HETATM   18  O   UNL     1     -11.215   9.054  67.749  1.00  0.00    -0.460 OA 
HETATM   19  C   UNL     1     -11.482  11.351  68.149  1.00  0.00    -0.375 A  
HETATM   20  H   UNL     1     -12.157   8.932  67.785  1.00  0.00     0.000 HD 
HETATM   21  C   UNL     1     -10.940  12.630  68.251  1.00  0.00    -0.248 A  
HETATM   22  C   UNL     1     -10.627  10.268  67.955  1.00  0.00    -0.239 A  
HETATM   23  O   UNL     1     -11.836  13.709  68.384  1.00  0.00    -0.339 OA 
HETATM   24  C   UNL     1     -11.380  15.018  68.447  1.00  0.00    -0.309 C  
HETATM   25  O   UNL     1     -12.138  15.977  68.530  1.00  0.00    -0.162 OA 
HETATM   26  C   UNL     1      -9.919  15.221  68.411  1.00  0.00    -0.220 C  
HETATM   27  C   UNL     1      -9.059  14.201  68.295  1.00  0.00    -0.190 C  
HETATM   28  C   UNL     1      -9.565  12.845  68.190  1.00  0.00    -0.223 A  
HETATM   29  C   UNL     1      -8.722  11.744  68.014  1.00  0.00    -0.167 A  
ENDBRANCH  16  17
ENDBRANCH   6  16
ENDBRANCH   3   4
TORSDOF 3
ENDMDL
MODEL      190
REMARK 921   NORMALIZED FREE ENERGY PREDICTED BY IDOCK:   -2.84 KCAL/MOL
REMARK 922        TOTAL FREE ENERGY PREDICTED BY IDOCK:   -4.30 KCAL/MOL
REMARK 923 INTER-LIGAND FREE ENERGY PREDICTED BY IDOCK:   -3.79 KCAL/MOL
REMARK 924 INTRA-LIGAND FREE ENERGY PREDICTED BY IDOCK:   -0.52 KCAL/MOL
REMARK 927      BINDING AFFINITY PREDICTED BY RF-SCORE:    0.00 PKD
ROOT
HETATM    1  O   UNL     1     -11.461   6.673  68.355  1.00  0.00    -0.571 OA 
HETATM    2  H   UNL     1     -11.147   6.872  67.481  1.00  0.00     0.000 HD 
HETATM    3  C   UNL     1     -10.782   7.433  69.346  1.00  0.00    -0.211 C  
ENDROOT
BRANCH   3   4
HETATM    4  C   UNL     1     -11.289   7.110  70.758  1.00  0.00    -0.289 C  
HETATM    5  O   UNL     1     -10.689   5.906  71.264  1.00  0.00    -0.244 OA 
HETATM    6  C   UNL     1      -9.355   6.026  71.784  1.00  0.00    -0.148 C  
HETATM    7  C   UNL     1      -9.275   7.104  72.894  1.00  0.00    -0.142 C  
HETATM    8  H   UNL     1      -9.240   9.931  71.248  1.00  0.00     0.000 HD 
HETATM    9  H   UNL     1     -12.194   8.758  73.401  1.00  0.00     0.000 HD 
HETATM   10  O   UNL     1      -9.983   6.722  74.084  1.00  0.00    -0.291 OA 
HETATM   11  C   UNL     1      -9.837   8.450  72.405  1.00  0.00    -0.308 C  
HETATM   12  H   UNL     1      -9.934   7.383  74.764  1.00  0.00     0.000 HD 
HETATM   13  C   UNL     1     -11.230   8.279  71.769  1.00  0.00    -0.283 C  
HETATM   14  O   UNL     1     -12.230   8.039  72.780  1.00  0.00    -0.251 OA 
HETATM   15  O   UNL     1      -8.893   9.101  71.550  1.00  0.00    -0.330 OA 
BRANCH   6  16
HETATM   16  O   UNL     1      -8.421   6.346  70.751  1.00  0.00    -0.131 OA 
BRANCH  16  17
HETATM   17  C   UNL     1      -7.807   5.340  70.063  1.00  0.00    -0.080 A  
HETATM   18  O   UNL     1      -6.213   4.684  71.760  1.00  0.00    -0.019 OA 
HETATM   19  C   UNL     1      -6.170   3.590  69.684  1.00  0.00    -0.028 A  
HETATM   20  H   UNL     1      -5.500   4.137  72.070  1.00  0.00     0.000 HD 
HETATM   21  C   UNL     1      -6.614   3.478  68.369  1.00  0.00    -0.041 A  
HETATM   22  C   UNL     1      -6.760   4.538  70.519  1.00  0.00    -0.036 A  
HETATM   23  O   UNL     1      -5.954   2.554  67.535  1.00  0.00    -0.019 OA 
HETATM   24  C   UNL     1      -6.306   2.413  66.199  1.00  0.00    -0.024 C  
HETATM   25  O   UNL     1      -5.728   1.641  65.444  1.00  0.00    -0.012 OA 
HETATM   26  C   UNL     1      -7.424   3.241  65.711  1.00  0.00    -0.073 C  
HETATM   27  C   UNL     1      -8.064   4.115  66.498  1.00  0.00    -0.101 C  
HETATM   28  C   UNL     1      -7.648   4.272  67.880  1.00  0.00    -0.069 A  
HETATM   29  C   UNL     1      -8.242   5.203  68.737  1.00  0.00    -0.085 A  
ENDBRANCH  16  17
ENDBRANCH   6  16
ENDBRANCH   3   4
TORSDOF 3
ENDMDL
MODEL      191
REMARK 921   NORMALIZED FREE ENERGY PREDICTED BY IDOCK:   -2.73 KCAL/MOL
REMARK 922        TOTAL FREE ENERGY PREDICTED BY IDOCK:   -4.17 KCAL/MOL
REMARK 923 INTER-LIGAND FREE ENERGY PREDICTED BY IDOCK:   -3.42 KCAL/MOL
REMARK 924 INTRA-LIGAND FREE ENERGY PREDICTED BY IDOCK:   -0.76 KCAL/MOL
REMARK 927      BINDING AFFINITY PREDICTED BY RF-SCORE:    0.00 PKD
ROOT
HETATM    1  O   UNL     1      -5.556   8.252  63.626  1.00  0.00    -0.060 OA 
HETATM    2  H   UNL     1      -5.409   9.048  63.130  1.00  0.00     0.000 HD 
HETATM    3  C   UNL     1      -5.316   8.443  65.014  1.00  0.00    -0.036 C  
ENDROOT
BRANCH   3   4
HETATM    4  C   UNL     1      -5.555   7.156  65.816  1.00  0.00    -0.032 C  
HETATM    5  O   UNL     1      -6.361   7.408  66.979  1.00  0.00    -0.048 OA 
HETATM    6  C   UNL     1      -7.777   7.521  66.763  1.00  0.00    -0.102 C  
HETATM    7  C   UNL     1      -8.343   6.266  66.050  1.00  0.00    -0.138 C  
HETATM    8  H   UNL     1      -7.498   6.688  62.918  1.00  0.00     0.000 HD 
HETATM    9  H   UNL     1      -5.967   4.001  65.192  1.00  0.00     0.000 HD 
HETATM   10  O   UNL     1      -8.299   5.096  66.882  1.00  0.00    -0.108 OA 
HETATM   11  C   UNL     1      -7.572   5.969  64.752  1.00  0.00    -0.090 C  
HETATM   12  H   UNL     1      -8.646   4.327  66.446  1.00  0.00     0.000 HD 
HETATM   13  C   UNL     1      -6.050   5.944  64.994  1.00  0.00    -0.026 C  
HETATM   14  O   UNL     1      -5.662   4.745  65.697  1.00  0.00    -0.017 OA 
HETATM   15  O   UNL     1      -7.973   6.871  63.719  1.00  0.00    -0.119 OA 
BRANCH   6  16
HETATM   16  O   UNL     1      -8.095   8.682  65.991  1.00  0.00    -0.102 OA 
BRANCH  16  17
HETATM   17  C   UNL     1      -8.604   9.784  66.611  1.00  0.00    -0.128 A  
HETATM   18  O   UNL     1      -6.701  11.251  66.329  1.00  0.00    -0.293 OA 
HETATM   19  C   UNL     1      -8.572  12.039  67.507  1.00  0.00    -0.167 A  
HETATM   20  H   UNL     1      -6.266  12.088  66.447  1.00  0.00     0.000 HD 
HETATM   21  C   UNL     1      -9.815  11.810  68.091  1.00  0.00    -0.190 A  
HETATM   22  C   UNL     1      -7.965  11.013  66.785  1.00  0.00    -0.152 A  
HETATM   23  O   UNL     1     -10.371  12.847  68.867  1.00  0.00    -0.163 OA 
HETATM   24  C   UNL     1     -11.585  12.683  69.519  1.00  0.00    -0.281 C  
HETATM   25  O   UNL     1     -12.077  13.556  70.225  1.00  0.00    -0.335 OA 
HETATM   26  C   UNL     1     -12.280  11.396  69.329  1.00  0.00    -0.271 C  
HETATM   27  C   UNL     1     -11.765  10.409  68.586  1.00  0.00    -0.076 C  
HETATM   28  C   UNL     1     -10.474  10.592  67.948  1.00  0.00    -0.247 A  
HETATM   29  C   UNL     1      -9.859   9.580  67.204  1.00  0.00    -0.239 A  
ENDBRANCH  16  17
ENDBRANCH   6  16
ENDBRANCH   3   4
TORSDOF 3
ENDMDL
MODEL      192
REMARK 921   NORMALIZED FREE ENERGY PREDICTED BY IDOCK:   -2.70 KCAL/MOL
REMARK 922        TOTAL FREE ENERGY PREDICTED BY IDOCK:   -4.14 KCAL/MOL
REMARK 923 INTER-LIGAND FREE ENERGY PREDICTED BY IDOCK:   -3.45 KCAL/MOL
REMARK 924 INTRA-LIGAND FREE ENERGY PREDICTED BY IDOCK:   -0.69 KCAL/MOL
REMARK 927      BINDING AFFINITY PREDICTED BY RF-SCORE:    0.00 PKD
ROOT
HETATM    1  O   UNL     1     -10.014   9.713  70.507  1.00  0.00    -0.260 OA 
HETATM    2  H   UNL     1     -10.403  10.111  71.278  1.00  0.00     0.000 HD 
HETATM    3  C   UNL     1     -10.471  10.328  69.310  1.00  0.00    -0.228 C  
ENDROOT
BRANCH   3   4
HETATM    4  C   UNL     1      -9.843   9.685  68.065  1.00  0.00    -0.150 C  
HETATM    5  O   UNL     1      -9.254  10.677  67.207  1.00  0.00    -0.143 OA 
HETATM    6  C   UNL     1      -7.960  11.168  67.592  1.00  0.00    -0.116 C  
HETATM    7  C   UNL     1      -6.941  10.011  67.755  1.00  0.00    -0.085 C  
HETATM    8  H   UNL     1      -7.679   8.716  70.668  1.00  0.00     0.000 HD 
HETATM    9  H   UNL     1      -8.299   6.931  67.326  1.00  0.00     0.000 HD 
HETATM   10  O   UNL     1      -6.619   9.382  66.505  1.00  0.00    -0.066 OA 
HETATM   11  C   UNL     1      -7.471   8.936  68.719  1.00  0.00    -0.083 C  
HETATM   12  H   UNL     1      -5.995   8.673  66.606  1.00  0.00     0.000 HD 
HETATM   13  C   UNL     1      -8.897   8.492  68.339  1.00  0.00    -0.139 C  
HETATM   14  O   UNL     1      -8.879   7.664  67.158  1.00  0.00    -0.122 OA 
HETATM   15  O   UNL     1      -7.352   9.380  70.073  1.00  0.00    -0.075 OA 
BRANCH   6  16
HETATM   16  O   UNL     1      -8.026  11.911  68.811  1.00  0.00    -0.123 OA 
BRANCH  16  17
HETATM   17  C   UNL     1      -7.333  13.079  68.926  1.00  0.00    -0.017 A  
HETATM   18  O   UNL     1      -5.236  12.162  69.712  1.00  0.00    -0.070 OA 
HETATM   19  C   UNL     1      -5.441  14.490  69.494  1.00  0.00    -0.091 A  
HETATM   20  H   UNL     1      -4.337  12.261  70.001  1.00  0.00     0.000 HD 
HETATM   21  C   UNL     1      -6.223  15.615  69.247  1.00  0.00    -0.127 A  
HETATM   22  C   UNL     1      -6.010  13.225  69.350  1.00  0.00    -0.100 A  
HETATM   23  O   UNL     1      -5.636  16.877  69.463  1.00  0.00    -0.156 OA 
HETATM   24  C   UNL     1      -6.360  18.047  69.282  1.00  0.00    -0.249 C  
HETATM   25  O   UNL     1      -5.885  19.156  69.493  1.00  0.00    -0.228 OA 
HETATM   26  C   UNL     1      -7.753  17.907  68.816  1.00  0.00    -0.263 C  
HETATM   27  C   UNL     1      -8.317  16.713  68.598  1.00  0.00    -0.246 C  
HETATM   28  C   UNL     1      -7.549  15.504  68.834  1.00  0.00    -0.166 A  
HETATM   29  C   UNL     1      -8.097  14.228  68.676  1.00  0.00    -0.140 A  
ENDBRANCH  16  17
ENDBRANCH   6  16
ENDBRANCH   3   4
TORSDOF 3
ENDMDL
MODEL      193
REMARK 921   NORMALIZED FREE ENERGY PREDICTED BY IDOCK:   -2.63 KCAL/MOL
REMARK 922        TOTAL FREE ENERGY PREDICTED BY IDOCK:   -4.05 KCAL/MOL
REMARK 923 INTER-LIGAND FREE ENERGY PREDICTED BY IDOCK:   -4.43 KCAL/MOL
REMARK 924 INTRA-LIGAND FREE ENERGY PREDICTED BY IDOCK:    0.38 KCAL/MOL
REMARK 927      BINDING AFFINITY PREDICTED BY RF-SCORE:    0.00 PKD
ROOT
HETATM    1  O   UNL     1      -5.493  10.745  68.716  1.00  0.00    -0.041 OA 
HETATM    2  H   UNL     1      -4.756  11.203  69.102  1.00  0.00     0.000 HD 
HETATM    3  C   UNL     1      -6.455  10.375  69.694  1.00  0.00    -0.076 C  
ENDROOT
BRANCH   3   4
HETATM    4  C   UNL     1      -7.646   9.634  69.069  1.00  0.00    -0.076 C  
HETATM    5  O   UNL     1      -8.826  10.454  69.067  1.00  0.00    -0.154 OA 
HETATM    6  C   UNL     1      -8.914  11.446  68.031  1.00  0.00    -0.163 C  
HETATM    7  C   UNL     1      -8.771  10.809  66.625  1.00  0.00    -0.147 C  
HETATM    8  H   UNL     1      -5.555  10.296  66.314  1.00  0.00     0.000 HD 
HETATM    9  H   UNL     1      -8.134   7.477  66.697  1.00  0.00     0.000 HD 
HETATM   10  O   UNL     1      -9.890   9.976  66.283  1.00  0.00    -0.208 OA 
HETATM   11  C   UNL     1      -7.488   9.967  66.524  1.00  0.00    -0.100 C  
HETATM   12  H   UNL     1      -9.802   9.586  65.421  1.00  0.00     0.000 HD 
HETATM   13  C   UNL     1      -7.372   8.975  67.697  1.00  0.00    -0.084 C  
HETATM   14  O   UNL     1      -8.302   7.883  67.539  1.00  0.00    -0.121 OA 
HETATM   15  O   UNL     1      -6.347  10.816  66.377  1.00  0.00    -0.100 OA 
BRANCH   6  16
HETATM   16  O   UNL     1      -7.917  12.457  68.192  1.00  0.00    -0.135 OA 
BRANCH  16  17
HETATM   17  C   UNL     1      -8.129  13.700  67.672  1.00  0.00    -0.177 A  
HETATM   18  O   UNL     1     -10.464  13.440  67.094  1.00  0.00    -0.247 OA 
HETATM   19  C   UNL     1      -9.389  15.461  66.576  1.00  0.00    -0.311 A  
HETATM   20  H   UNL     1     -11.278  13.774  66.736  1.00  0.00     0.000 HD 
HETATM   21  C   UNL     1      -8.227  16.225  66.499  1.00  0.00    -0.309 A  
HETATM   22  C   UNL     1      -9.325  14.190  67.146  1.00  0.00    -0.237 A  
HETATM   23  O   UNL     1      -8.313  17.478  65.860  1.00  0.00    -0.538 OA 
HETATM   24  C   UNL     1      -7.192  18.282  65.703  1.00  0.00    -0.101 C  
HETATM   25  O   UNL     1      -7.232  19.361  65.124  1.00  0.00    -0.393 OA 
HETATM   26  C   UNL     1      -5.926  17.784  66.272  1.00  0.00    -0.245 C  
HETATM   27  C   UNL     1      -5.836  16.600  66.889  1.00  0.00    -0.132 C  
HETATM   28  C   UNL     1      -7.015  15.760  67.003  1.00  0.00    -0.128 A  
HETATM   29  C   UNL     1      -6.975  14.492  67.590  1.00  0.00    -0.204 A  
ENDBRANCH  16  17
ENDBRANCH   6  16
ENDBRANCH   3   4
TORSDOF 3
ENDMDL
MODEL      194
REMARK 921   NORMALIZED FREE ENERGY PREDICTED BY IDOCK:   -2.62 KCAL/MOL
REMARK 922        TOTAL FREE ENERGY PREDICTED BY IDOCK:   -4.04 KCAL/MOL
REMARK 923 INTER-LIGAND FREE ENERGY PREDICTED BY IDOCK:   -3.48 KCAL/MOL
REMARK 924 INTRA-LIGAND FREE ENERGY PREDICTED BY IDOCK:   -0.56 KCAL/MOL
REMARK 927      BINDING AFFINITY PREDICTED BY RF-SCORE:    0.00 PKD
ROOT
HETATM    1  O   UNL     1     -11.609   5.760  70.337  1.00  0.00    -0.061 OA 
HETATM    2  H   UNL     1     -12.354   5.454  69.833  1.00  0.00     0.000 HD 
HETATM    3  C   UNL     1     -11.029   6.926  69.765  1.00  0.00    -0.270 C  
ENDROOT
BRANCH   3   4
HETATM    4  C   UNL     1      -9.826   7.420  70.580  1.00  0.00    -0.179 C  
HETATM    5  O   UNL     1      -8.586   7.034  69.965  1.00  0.00    -0.138 OA 
HETATM    6  C   UNL     1      -8.147   7.833  68.855  1.00  0.00    -0.126 C  
HETATM    7  C   UNL     1      -8.044   9.330  69.240  1.00  0.00    -0.106 C  
HETATM    8  H   UNL     1     -11.144  10.374  69.189  1.00  0.00     0.000 HD 
HETATM    9  H   UNL     1      -9.078   9.997  72.403  1.00  0.00     0.000 HD 
HETATM   10  O   UNL     1      -6.986   9.585  70.177  1.00  0.00    -0.065 OA 
HETATM   11  C   UNL     1      -9.363   9.841  69.845  1.00  0.00    -0.231 C  
HETATM   12  H   UNL     1      -6.923  10.503  70.414  1.00  0.00     0.000 HD 
HETATM   13  C   UNL     1      -9.860   8.916  70.973  1.00  0.00    -0.253 C  
HETATM   14  O   UNL     1      -9.057   9.078  72.161  1.00  0.00    -0.372 OA 
HETATM   15  O   UNL     1     -10.330  10.059  68.815  1.00  0.00    -0.180 OA 
BRANCH   6  16
HETATM   16  O   UNL     1      -9.026   7.696  67.736  1.00  0.00    -0.131 OA 
BRANCH  16  17
HETATM   17  C   UNL     1      -8.689   6.858  66.714  1.00  0.00    -0.122 A  
HETATM   18  O   UNL     1      -8.088   8.534  65.075  1.00  0.00    -0.131 OA 
HETATM   19  C   UNL     1      -8.000   6.270  64.462  1.00  0.00    -0.121 A  
HETATM   20  H   UNL     1      -7.783   8.786  64.211  1.00  0.00     0.000 HD 
HETATM   21  C   UNL     1      -8.251   4.931  64.750  1.00  0.00    -0.126 A  
HETATM   22  C   UNL     1      -8.241   7.229  65.444  1.00  0.00    -0.137 A  
HETATM   23  O   UNL     1      -8.057   3.994  63.715  1.00  0.00    -0.087 OA 
HETATM   24  C   UNL     1      -8.326   2.646  63.906  1.00  0.00    -0.086 C  
HETATM   25  O   UNL     1      -8.197   1.815  63.015  1.00  0.00    -0.060 OA 
HETATM   26  C   UNL     1      -8.781   2.238  65.249  1.00  0.00    -0.118 C  
HETATM   27  C   UNL     1      -8.959   3.118  66.242  1.00  0.00    -0.153 C  
HETATM   28  C   UNL     1      -8.709   4.528  66.002  1.00  0.00    -0.115 A  
HETATM   29  C   UNL     1      -8.926   5.502  66.981  1.00  0.00    -0.113 A  
ENDBRANCH  16  17
ENDBRANCH   6  16
ENDBRANCH   3   4
TORSDOF 3
ENDMDL
MODEL      195
REMARK 921   NORMALIZED FREE ENERGY PREDICTED BY IDOCK:   -2.59 KCAL/MOL
REMARK 922        TOTAL FREE ENERGY PREDICTED BY IDOCK:   -4.00 KCAL/MOL
REMARK 923 INTER-LIGAND FREE ENERGY PREDICTED BY IDOCK:   -3.55 KCAL/MOL
REMARK 924 INTRA-LIGAND FREE ENERGY PREDICTED BY IDOCK:   -0.45 KCAL/MOL
REMARK 927      BINDING AFFINITY PREDICTED BY RF-SCORE:    0.00 PKD
ROOT
HETATM    1  O   UNL     1     -11.566   6.263  68.725  1.00  0.00    -0.468 OA 
HETATM    2  H   UNL     1     -12.040   5.731  68.097  1.00  0.00     0.000 HD 
HETATM    3  C   UNL     1     -11.239   7.540  68.194  1.00  0.00     0.412 C  
ENDROOT
BRANCH   3   4
HETATM    4  C   UNL     1     -10.472   8.399  69.208  1.00  0.00    -0.215 C  
HETATM    5  O   UNL     1      -9.105   8.584  68.807  1.00  0.00    -0.142 OA 
HETATM    6  C   UNL     1      -8.864   9.580  67.799  1.00  0.00    -0.119 C  
HETATM    7  C   UNL     1      -9.430  10.960  68.220  1.00  0.00    -0.168 C  
HETATM    8  H   UNL     1     -12.643  10.699  67.660  1.00  0.00     0.000 HD 
HETATM    9  H   UNL     1     -11.104  10.902  71.171  1.00  0.00     0.000 HD 
HETATM   10  O   UNL     1      -8.716  11.533  69.327  1.00  0.00    -0.362 OA 
HETATM   11  C   UNL     1     -10.917  10.858  68.601  1.00  0.00    -0.227 C  
HETATM   12  H   UNL     1      -9.063  12.378  69.585  1.00  0.00     0.000 HD 
HETATM   13  C   UNL     1     -11.162   9.723  69.613  1.00  0.00    -0.178 C  
HETATM   14  O   UNL     1     -10.679  10.090  70.922  1.00  0.00    -0.300 OA 
HETATM   15  O   UNL     1     -11.725  10.762  67.425  1.00  0.00    -0.462 OA 
BRANCH   6  16
HETATM   16  O   UNL     1      -9.435   9.201  66.545  1.00  0.00    -0.174 OA 
BRANCH  16  17
HETATM   17  C   UNL     1      -8.668   8.551  65.625  1.00  0.00    -0.181 A  
HETATM   18  O   UNL     1      -8.676  10.251  63.904  1.00  0.00    -0.176 OA 
HETATM   19  C   UNL     1      -7.564   8.227  63.487  1.00  0.00    -0.134 A  
HETATM   20  H   UNL     1      -8.421  10.575  63.048  1.00  0.00     0.000 HD 
HETATM   21  C   UNL     1      -7.245   6.925  63.865  1.00  0.00    -0.066 A  
HETATM   22  C   UNL     1      -8.293   9.026  64.367  1.00  0.00    -0.176 A  
HETATM   23  O   UNL     1      -6.562   6.124  62.929  1.00  0.00    -0.037 OA 
HETATM   24  C   UNL     1      -6.246   4.802  63.210  1.00  0.00    -0.022 C  
HETATM   25  O   UNL     1      -5.681   4.073  62.402  1.00  0.00    -0.009 OA 
HETATM   26  C   UNL     1      -6.619   4.293  64.543  1.00  0.00    -0.043 C  
HETATM   27  C   UNL     1      -7.259   5.049  65.444  1.00  0.00    -0.068 C  
HETATM   28  C   UNL     1      -7.614   6.416  65.108  1.00  0.00    -0.089 A  
HETATM   29  C   UNL     1      -8.327   7.239  65.985  1.00  0.00    -0.140 A  
ENDBRANCH  16  17
ENDBRANCH   6  16
ENDBRANCH   3   4
TORSDOF 3
ENDMDL
MODEL      196
REMARK 921   NORMALIZED FREE ENERGY PREDICTED BY IDOCK:   -2.45 KCAL/MOL
REMARK 922        TOTAL FREE ENERGY PREDICTED BY IDOCK:   -3.84 KCAL/MOL
REMARK 923 INTER-LIGAND FREE ENERGY PREDICTED BY IDOCK:   -3.28 KCAL/MOL
REMARK 924 INTRA-LIGAND FREE ENERGY PREDICTED BY IDOCK:   -0.56 KCAL/MOL
REMARK 927      BINDING AFFINITY PREDICTED BY RF-SCORE:    0.00 PKD
ROOT
HETATM    1  O   UNL     1     -11.749   6.890  67.205  1.00  0.00    -0.523 OA 
HETATM    2  H   UNL     1     -11.542   7.271  66.361  1.00  0.00     0.000 HD 
HETATM    3  C   UNL     1     -10.926   7.416  68.238  1.00  0.00     0.068 C  
ENDROOT
BRANCH   3   4
HETATM    4  C   UNL     1     -11.261   6.799  69.603  1.00  0.00    -0.292 C  
HETATM    5  O   UNL     1     -10.705   5.480  69.730  1.00  0.00    -0.322 OA 
HETATM    6  C   UNL     1      -9.307   5.405  70.053  1.00  0.00    -0.148 C  
HETATM    7  C   UNL     1      -8.982   6.188  71.350  1.00  0.00    -0.143 C  
HETATM    8  H   UNL     1      -8.928   9.316  70.392  1.00  0.00     0.000 HD 
HETATM    9  H   UNL     1     -11.651   7.830  72.653  1.00  0.00     0.000 HD 
HETATM   10  O   UNL     1      -9.552   5.577  72.519  1.00  0.00    -0.149 OA 
HETATM   11  C   UNL     1      -9.487   7.639  71.265  1.00  0.00    -0.153 C  
HETATM   12  H   UNL     1      -9.353   6.057  73.314  1.00  0.00     0.000 HD 
HETATM   13  C   UNL     1     -10.964   7.696  70.828  1.00  0.00    -0.252 C  
HETATM   14  O   UNL     1     -11.833   7.279  71.901  1.00  0.00    -0.279 OA 
HETATM   15  O   UNL     1      -8.616   8.420  70.444  1.00  0.00    -0.127 OA 
BRANCH   6  16
HETATM   16  O   UNL     1      -8.498   5.907  68.987  1.00  0.00    -0.105 OA 
BRANCH  16  17
HETATM   17  C   UNL     1      -8.044   5.053  68.026  1.00  0.00    -0.093 A  
HETATM   18  O   UNL     1      -6.178   4.118  69.250  1.00  0.00    -0.026 OA 
HETATM   19  C   UNL     1      -6.542   3.422  67.038  1.00  0.00    -0.038 A  
HETATM   20  H   UNL     1      -5.431   3.534  69.317  1.00  0.00     0.000 HD 
HETATM   21  C   UNL     1      -7.224   3.547  65.830  1.00  0.00    -0.068 A  
HETATM   22  C   UNL     1      -6.947   4.194  68.126  1.00  0.00    -0.051 A  
HETATM   23  O   UNL     1      -6.749   2.800  64.734  1.00  0.00    -0.037 OA 
HETATM   24  C   UNL     1      -7.345   2.900  63.484  1.00  0.00    -0.057 C  
HETATM   25  O   UNL     1      -6.934   2.287  62.507  1.00  0.00    -0.025 OA 
HETATM   26  C   UNL     1      -8.517   3.789  63.370  1.00  0.00    -0.092 C  
HETATM   27  C   UNL     1      -8.981   4.496  64.408  1.00  0.00    -0.152 C  
HETATM   28  C   UNL     1      -8.314   4.403  65.694  1.00  0.00    -0.114 A  
HETATM   29  C   UNL     1      -8.719   5.155  66.801  1.00  0.00    -0.108 A  
ENDBRANCH  16  17
ENDBRANCH   6  16
ENDBRANCH   3   4
TORSDOF 3
ENDMDL
MODEL      197
REMARK 921   NORMALIZED FREE ENERGY PREDICTED BY IDOCK:   -2.42 KCAL/MOL
REMARK 922        TOTAL FREE ENERGY PREDICTED BY IDOCK:   -3.80 KCAL/MOL
REMARK 923 INTER-LIGAND FREE ENERGY PREDICTED BY IDOCK:   -4.10 KCAL/MOL
REMARK 924 INTRA-LIGAND FREE ENERGY PREDICTED BY IDOCK:    0.30 KCAL/MOL
REMARK 927      BINDING AFFINITY PREDICTED BY RF-SCORE:    0.00 PKD
ROOT
HETATM    1  O   UNL     1      -8.492   6.387  73.204  1.00  0.00    -0.119 OA 
HETATM    2  H   UNL     1      -7.622   6.432  73.581  1.00  0.00     0.000 HD 
HETATM    3  C   UNL     1      -9.460   7.019  74.032  1.00  0.00    -0.253 C  
ENDROOT
BRANCH   3   4
HETATM    4  C   UNL     1     -10.867   6.945  73.422  1.00  0.00    -0.273 C  
HETATM    5  O   UNL     1     -11.134   8.087  72.590  1.00  0.00    -0.344 OA 
HETATM    6  C   UNL     1     -10.572   8.061  71.268  1.00  0.00    -0.209 C  
HETATM    7  C   UNL     1     -11.008   6.791  70.493  1.00  0.00    -0.280 C  
HETATM    8  H   UNL     1      -9.097   4.430  71.708  1.00  0.00     0.000 HD 
HETATM    9  H   UNL     1     -12.878   4.643  72.339  1.00  0.00     0.000 HD 
HETATM   10  O   UNL     1     -12.410   6.793  70.179  1.00  0.00    -0.614 OA 
HETATM   11  C   UNL     1     -10.689   5.515  71.291  1.00  0.00    -0.218 C  
HETATM   12  H   UNL     1     -12.676   6.015  69.705  1.00  0.00     0.000 HD 
HETATM   13  C   UNL     1     -11.223   5.607  72.734  1.00  0.00    -0.299 C  
HETATM   14  O   UNL     1     -12.659   5.466  72.760  1.00  0.00     0.064 OA 
HETATM   15  O   UNL     1      -9.293   5.217  71.215  1.00  0.00    -0.143 OA 
BRANCH   6  16
HETATM   16  O   UNL     1      -9.145   8.119  71.308  1.00  0.00    -0.136 OA 
BRANCH  16  17
HETATM   17  C   UNL     1      -8.440   8.152  70.141  1.00  0.00    -0.127 A  
HETATM   18  O   UNL     1      -6.258   7.616  71.040  1.00  0.00    -0.035 OA 
HETATM   19  C   UNL     1      -6.458   8.056  68.743  1.00  0.00    -0.049 A  
HETATM   20  H   UNL     1      -5.327   7.457  70.935  1.00  0.00     0.000 HD 
HETATM   21  C   UNL     1      -7.222   8.473  67.656  1.00  0.00    -0.084 A  
HETATM   22  C   UNL     1      -7.072   7.917  69.987  1.00  0.00    -0.050 A  
HETATM   23  O   UNL     1      -6.558   8.664  66.428  1.00  0.00    -0.061 OA 
HETATM   24  C   UNL     1      -7.238   9.120  65.307  1.00  0.00    -0.089 C  
HETATM   25  O   UNL     1      -6.680   9.325  64.236  1.00  0.00    -0.083 OA 
HETATM   26  C   UNL     1      -8.687   9.353  65.451  1.00  0.00    -0.194 C  
HETATM   27  C   UNL     1      -9.329   9.165  66.611  1.00  0.00    -0.228 C  
HETATM   28  C   UNL     1      -8.586   8.727  67.779  1.00  0.00    -0.129 A  
HETATM   29  C   UNL     1      -9.188   8.563  69.029  1.00  0.00    -0.146 A  
ENDBRANCH  16  17
ENDBRANCH   6  16
ENDBRANCH   3   4
TORSDOF 3
ENDMDL
MODEL      198
REMARK 921   NORMALIZED FREE ENERGY PREDICTED BY IDOCK:   -2.42 KCAL/MOL
REMARK 922        TOTAL FREE ENERGY PREDICTED BY IDOCK:   -3.80 KCAL/MOL
REMARK 923 INTER-LIGAND FREE ENERGY PREDICTED BY IDOCK:   -3.12 KCAL/MOL
REMARK 924 INTRA-LIGAND FREE ENERGY PREDICTED BY IDOCK:   -0.68 KCAL/MOL
REMARK 927      BINDING AFFINITY PREDICTED BY RF-SCORE:    0.00 PKD
ROOT
HETATM    1  O   UNL     1      -9.838   6.122  65.630  1.00  0.00    -0.339 OA 
HETATM    2  H   UNL     1      -9.805   5.237  65.288  1.00  0.00     0.000 HD 
HETATM    3  C   UNL     1     -10.686   6.217  66.768  1.00  0.00    -0.293 C  
ENDROOT
BRANCH   3   4
HETATM    4  C   UNL     1     -10.739   7.649  67.320  1.00  0.00    -0.274 C  
HETATM    5  O   UNL     1     -10.213   7.712  68.656  1.00  0.00    -0.190 OA 
HETATM    6  C   UNL     1      -8.782   7.731  68.779  1.00  0.00    -0.128 C  
HETATM    7  C   UNL     1      -8.159   8.892  67.964  1.00  0.00    -0.106 C  
HETATM    8  H   UNL     1      -8.207   7.806  64.878  1.00  0.00     0.000 HD 
HETATM    9  H   UNL     1     -10.426  10.662  66.164  1.00  0.00     0.000 HD 
HETATM   10  O   UNL     1      -8.483  10.181  68.508  1.00  0.00    -0.113 OA 
HETATM   11  C   UNL     1      -8.621   8.853  66.497  1.00  0.00    -0.124 C  
HETATM   12  H   UNL     1      -8.101  10.893  68.008  1.00  0.00     0.000 HD 
HETATM   13  C   UNL     1     -10.154   8.740  66.393  1.00  0.00    -0.243 C  
HETATM   14  O   UNL     1     -10.785   9.992  66.733  1.00  0.00    -0.187 OA 
HETATM   15  O   UNL     1      -7.922   7.830  65.783  1.00  0.00    -0.101 OA 
BRANCH   6  16
HETATM   16  O   UNL     1      -8.206   6.495  68.350  1.00  0.00    -0.113 OA 
BRANCH  16  17
HETATM   17  C   UNL     1      -8.068   5.472  69.241  1.00  0.00    -0.095 A  
HETATM   18  O   UNL     1      -8.539   3.636  67.737  1.00  0.00    -0.093 OA 
HETATM   19  C   UNL     1      -8.124   3.166  69.999  1.00  0.00    -0.059 A  
HETATM   20  H   UNL     1      -8.642   2.709  67.557  1.00  0.00     0.000 HD 
HETATM   21  C   UNL     1      -7.913   3.605  71.303  1.00  0.00    -0.060 A  
HETATM   22  C   UNL     1      -8.220   4.109  68.976  1.00  0.00    -0.070 A  
HETATM   23  O   UNL     1      -7.884   2.631  72.321  1.00  0.00    -0.052 OA 
HETATM   24  C   UNL     1      -7.722   2.988  73.653  1.00  0.00    -0.060 C  
HETATM   25  O   UNL     1      -7.725   2.165  74.561  1.00  0.00    -0.043 OA 
HETATM   26  C   UNL     1      -7.542   4.422  73.944  1.00  0.00    -0.081 C  
HETATM   27  C   UNL     1      -7.558   5.355  72.984  1.00  0.00    -0.097 C  
HETATM   28  C   UNL     1      -7.769   4.957  71.603  1.00  0.00    -0.097 A  
HETATM   29  C   UNL     1      -7.848   5.887  70.562  1.00  0.00    -0.101 A  
ENDBRANCH  16  17
ENDBRANCH   6  16
ENDBRANCH   3   4
TORSDOF 3
ENDMDL
MODEL      199
REMARK 921   NORMALIZED FREE ENERGY PREDICTED BY IDOCK:   -2.36 KCAL/MOL
REMARK 922        TOTAL FREE ENERGY PREDICTED BY IDOCK:   -3.73 KCAL/MOL
REMARK 923 INTER-LIGAND FREE ENERGY PREDICTED BY IDOCK:   -3.26 KCAL/MOL
REMARK 924 INTRA-LIGAND FREE ENERGY PREDICTED BY IDOCK:   -0.47 KCAL/MOL
REMARK 927      BINDING AFFINITY PREDICTED BY RF-SCORE:    0.00 PKD
ROOT
HETATM    1  O   UNL     1      -7.420  14.743  68.297  1.00  0.00    -0.103 OA 
HETATM    2  H   UNL     1      -6.832  14.605  69.030  1.00  0.00     0.000 HD 
HETATM    3  C   UNL     1      -8.451  13.766  68.256  1.00  0.00    -0.173 C  
ENDROOT
BRANCH   3   4
HETATM    4  C   UNL     1      -9.401  13.990  67.071  1.00  0.00    -0.250 C  
HETATM    5  O   UNL     1      -9.106  13.090  65.990  1.00  0.00    -0.007 OA 
HETATM    6  C   UNL     1      -9.604  11.749  66.120  1.00  0.00    -0.232 C  
HETATM    7  C   UNL     1     -11.136  11.734  66.351  1.00  0.00    -0.307 C  
HETATM    8  H   UNL     1     -11.466  12.513  69.511  1.00  0.00     0.000 HD 
HETATM    9  H   UNL     1     -12.502  14.828  66.628  1.00  0.00     0.000 HD 
HETATM   10  O   UNL     1     -11.871  12.172  65.197  1.00  0.00    -0.358 OA 
HETATM   11  C   UNL     1     -11.528  12.623  67.543  1.00  0.00    -0.340 C  
HETATM   12  H   UNL     1     -12.810  12.163  65.339  1.00  0.00     0.000 HD 
HETATM   13  C   UNL     1     -10.906  14.029  67.425  1.00  0.00    -0.282 C  
HETATM   14  O   UNL     1     -11.578  14.803  66.411  1.00  0.00    -0.356 OA 
HETATM   15  O   UNL     1     -11.224  11.964  68.775  1.00  0.00    -0.220 OA 
BRANCH   6  16
HETATM   16  O   UNL     1      -8.961  11.057  67.192  1.00  0.00    -0.141 OA 
BRANCH  16  17
HETATM   17  C   UNL     1      -8.292   9.896  66.939  1.00  0.00    -0.124 A  
HETATM   18  O   UNL     1      -6.076  10.626  67.578  1.00  0.00    -0.051 OA 
HETATM   19  C   UNL     1      -6.352   8.450  66.744  1.00  0.00    -0.056 A  
HETATM   20  H   UNL     1      -5.146  10.470  67.697  1.00  0.00     0.000 HD 
HETATM   21  C   UNL     1      -7.155   7.475  66.158  1.00  0.00    -0.070 A  
HETATM   22  C   UNL     1      -6.926   9.666  67.113  1.00  0.00    -0.085 A  
HETATM   23  O   UNL     1      -6.532   6.283  65.739  1.00  0.00    -0.040 OA 
HETATM   24  C   UNL     1      -7.252   5.279  65.107  1.00  0.00    -0.067 C  
HETATM   25  O   UNL     1      -6.730   4.246  64.705  1.00  0.00    -0.042 OA 
HETATM   26  C   UNL     1      -8.700   5.501  64.934  1.00  0.00    -0.067 C  
HETATM   27  C   UNL     1      -9.304   6.626  65.337  1.00  0.00     0.479 C  
HETATM   28  C   UNL     1      -8.519   7.677  65.959  1.00  0.00    -0.149 A  
HETATM   29  C   UNL     1      -9.081   8.895  66.354  1.00  0.00    -0.217 A  
ENDBRANCH  16  17
ENDBRANCH   6  16
ENDBRANCH   3   4
TORSDOF 3
ENDMDL
MODEL      200
REMARK 921   NORMALIZED FREE ENERGY PREDICTED BY IDOCK:   -2.33 KCAL/MOL
REMARK 922        TOTAL FREE ENERGY PREDICTED BY IDOCK:   -3.70 KCAL/MOL
REMARK 923 INTER-LIGAND FREE ENERGY PREDICTED BY IDOCK:   -3.15 KCAL/MOL
REMARK 924 INTRA-LIGAND FREE ENERGY PREDICTED BY IDOCK:   -0.55 KCAL/MOL
REMARK 927      BINDING AFFINITY PREDICTED BY RF-SCORE:    0.00 PKD
ROOT
HETATM    1  O   UNL     1     -11.508  14.145  65.677  1.00  0.00    -0.313 OA 
HETATM    2  H   UNL     1     -11.741  13.751  64.845  1.00  0.00     0.000 HD 
HETATM    3  C   UNL     1     -10.814  13.232  66.517  1.00  0.00    -0.281 C  
ENDROOT
BRANCH   3   4
HETATM    4  C   UNL     1     -10.438  13.869  67.863  1.00  0.00    -0.242 C  
HETATM    5  O   UNL     1      -9.864  12.900  68.755  1.00  0.00    -0.112 OA 
HETATM    6  C   UNL     1      -8.482  12.572  68.539  1.00  0.00    -0.061 C  
HETATM    7  C   UNL     1      -7.588  13.837  68.566  1.00  0.00    -0.134 C  
HETATM    8  H   UNL     1      -8.064  15.204  65.631  1.00  0.00     0.000 HD 
HETATM    9  H   UNL     1      -9.331  16.728  68.919  1.00  0.00     0.000 HD 
HETATM   10  O   UNL     1      -7.512  14.429  69.873  1.00  0.00    -0.385 OA 
HETATM   11  C   UNL     1      -8.100  14.901  67.580  1.00  0.00    -0.182 C  
HETATM   12  H   UNL     1      -6.965  15.205  69.889  1.00  0.00     0.000 HD 
HETATM   13  C   UNL     1      -9.606  15.169  67.772  1.00  0.00    -0.203 C  
HETATM   14  O   UNL     1      -9.842  15.929  68.975  1.00  0.00    -0.207 OA 
HETATM   15  O   UNL     1      -7.748  14.547  66.240  1.00  0.00     0.905 OA 
BRANCH   6  16
HETATM   16  O   UNL     1      -8.297  11.894  67.294  1.00  0.00    -0.154 OA 
BRANCH  16  17
HETATM   17  C   UNL     1      -8.251  10.531  67.270  1.00  0.00    -0.119 A  
HETATM   18  O   UNL     1      -5.862  10.270  66.993  1.00  0.00    -0.049 OA 
HETATM   19  C   UNL     1      -7.211   8.350  67.045  1.00  0.00    -0.080 A  
HETATM   20  H   UNL     1      -5.086   9.730  66.897  1.00  0.00     0.000 HD 
HETATM   21  C   UNL     1      -8.473   7.761  67.064  1.00  0.00    -0.124 A  
HETATM   22  C   UNL     1      -7.111   9.738  67.129  1.00  0.00    -0.086 A  
HETATM   23  O   UNL     1      -8.542   6.362  66.914  1.00  0.00    -0.109 OA 
HETATM   24  C   UNL     1      -9.762   5.702  66.878  1.00  0.00    -0.148 C  
HETATM   25  O   UNL     1      -9.852   4.491  66.717  1.00  0.00    -0.193 OA 
HETATM   26  C   UNL     1     -10.974   6.527  67.045  1.00  0.00    -0.466 C  
HETATM   27  C   UNL     1     -10.919   7.856  67.198  1.00  0.00     0.006 C  
HETATM   28  C   UNL     1      -9.631   8.525  67.191  1.00  0.00    -0.232 A  
HETATM   29  C   UNL     1      -9.510   9.914  67.294  1.00  0.00    -0.181 A  
ENDBRANCH  16  17
ENDBRANCH   6  16
ENDBRANCH   3   4
TORSDOF 3
ENDMDL
MODEL      201
REMARK 921   NORMALIZED FREE ENERGY PREDICTED BY IDOCK:   -2.27 KCAL/MOL
REMARK 922        TOTAL FREE ENERGY PREDICTED BY IDOCK:   -3.63 KCAL/MOL
REMARK 923 INTER-LIGAND FREE ENERGY PREDICTED BY IDOCK:   -3.07 KCAL/MOL
REMARK 924 INTRA-LIGAND FREE ENERGY PREDICTED BY IDOCK:   -0.56 KCAL/MOL
REMARK 927      BINDING AFFINITY PREDICTED BY RF-SCORE:    0.00 PKD
ROOT
HETATM    1  O   UNL     1      -5.173   9.175  65.869  1.00  0.00    -0.035 OA 
HETATM    2  H   UNL     1      -4.370   9.552  66.207  1.00  0.00     0.000 HD 
HETATM    3  C   UNL     1      -6.191  10.154  65.714  1.00  0.00    -0.100 C  
ENDROOT
BRANCH   3   4
HETATM    4  C   UNL     1      -7.490   9.544  65.168  1.00  0.00    -0.109 C  
HETATM    5  O   UNL     1      -7.700   8.219  65.683  1.00  0.00    -0.086 OA 
HETATM    6  C   UNL     1      -8.232   8.128  67.015  1.00  0.00    -0.115 C  
HETATM    7  C   UNL     1      -9.563   8.910  67.147  1.00  0.00    -0.172 C  
HETATM    8  H   UNL     1      -8.624  12.035  67.383  1.00  0.00     0.000 HD 
HETATM    9  H   UNL     1     -10.445  10.584  64.331  1.00  0.00     0.000 HD 
HETATM   10  O   UNL     1     -10.631   8.307  66.400  1.00  0.00    -0.333 OA 
HETATM   11  C   UNL     1      -9.402  10.366  66.678  1.00  0.00    -0.158 C  
HETATM   12  H   UNL     1     -11.447   8.787  66.481  1.00  0.00     0.000 HD 
HETATM   13  C   UNL     1      -8.746  10.439  65.286  1.00  0.00    -0.179 C  
HETATM   14  O   UNL     1      -9.674  10.034  64.259  1.00  0.00    -0.296 OA 
HETATM   15  O   UNL     1      -8.723  11.136  67.673  1.00  0.00    -0.127 OA 
BRANCH   6  16
HETATM   16  O   UNL     1      -7.301   8.619  67.982  1.00  0.00    -0.089 OA 
BRANCH  16  17
HETATM   17  C   UNL     1      -7.454   8.283  69.294  1.00  0.00    -0.085 A  
HETATM   18  O   UNL     1      -6.029   9.986  70.256  1.00  0.00    -0.053 OA 
HETATM   19  C   UNL     1      -7.043   8.422  71.683  1.00  0.00    -0.093 A  
HETATM   20  H   UNL     1      -5.627  10.416  71.002  1.00  0.00     0.000 HD 
HETATM   21  C   UNL     1      -7.792   7.262  71.865  1.00  0.00    -0.091 A  
HETATM   22  C   UNL     1      -6.863   8.914  70.391  1.00  0.00    -0.049 A  
HETATM   23  O   UNL     1      -7.902   6.757  73.175  1.00  0.00    -0.097 OA 
HETATM   24  C   UNL     1      -8.594   5.582  73.437  1.00  0.00    -0.115 C  
HETATM   25  O   UNL     1      -8.678   5.103  74.561  1.00  0.00    -0.108 OA 
HETATM   26  C   UNL     1      -9.239   4.916  72.290  1.00  0.00    -0.151 C  
HETATM   27  C   UNL     1      -9.148   5.393  71.042  1.00  0.00    -0.167 C  
HETATM   28  C   UNL     1      -8.384   6.602  70.791  1.00  0.00    -0.129 A  
HETATM   29  C   UNL     1      -8.209   7.121  69.505  1.00  0.00    -0.132 A  
ENDBRANCH  16  17
ENDBRANCH   6  16
ENDBRANCH   3   4
TORSDOF 3
ENDMDL
MODEL      202
REMARK 921   NORMALIZED FREE ENERGY PREDICTED BY IDOCK:   -2.26 KCAL/MOL
REMARK 922        TOTAL FREE ENERGY PREDICTED BY IDOCK:   -3.61 KCAL/MOL
REMARK 923 INTER-LIGAND FREE ENERGY PREDICTED BY IDOCK:   -3.26 KCAL/MOL
REMARK 924 INTRA-LIGAND FREE ENERGY PREDICTED BY IDOCK:   -0.35 KCAL/MOL
REMARK 927      BINDING AFFINITY PREDICTED BY RF-SCORE:    0.00 PKD
ROOT
HETATM    1  O   UNL     1      -9.531   5.425  66.212  1.00  0.00    -0.149 OA 
HETATM    2  H   UNL     1     -10.290   5.561  65.657  1.00  0.00     0.000 HD 
HETATM    3  C   UNL     1      -9.849   5.581  67.588  1.00  0.00    -0.144 C  
ENDROOT
BRANCH   3   4
HETATM    4  C   UNL     1      -8.622   5.362  68.484  1.00  0.00    -0.098 C  
HETATM    5  O   UNL     1      -7.612   6.353  68.236  1.00  0.00    -0.099 OA 
HETATM    6  C   UNL     1      -7.813   7.638  68.848  1.00  0.00    -0.123 C  
HETATM    7  C   UNL     1      -7.995   7.513  70.382  1.00  0.00    -0.102 C  
HETATM    8  H   UNL     1     -11.085   6.496  70.731  1.00  0.00     0.000 HD 
HETATM    9  H   UNL     1      -8.025   4.307  71.492  1.00  0.00     0.000 HD 
HETATM   10  O   UNL     1      -6.791   7.096  71.045  1.00  0.00    -0.054 OA 
HETATM   11  C   UNL     1      -9.113   6.516  70.730  1.00  0.00    -0.154 C  
HETATM   12  H   UNL     1      -6.903   7.019  71.985  1.00  0.00     0.000 HD 
HETATM   13  C   UNL     1      -8.923   5.177  69.990  1.00  0.00    -0.122 C  
HETATM   14  O   UNL     1      -7.839   4.421  70.567  1.00  0.00    -0.052 OA 
HETATM   15  O   UNL     1     -10.395   7.112  70.515  1.00  0.00    -0.199 OA 
BRANCH   6  16
HETATM   16  O   UNL     1      -8.949   8.306  68.293  1.00  0.00    -0.136 OA 
BRANCH  16  17
HETATM   17  C   UNL     1      -9.059   9.659  68.415  1.00  0.00    -0.123 A  
HETATM   18  O   UNL     1     -11.350   9.888  67.670  1.00  0.00    -0.480 OA 
HETATM   19  C   UNL     1     -10.142  11.823  68.223  1.00  0.00    -0.199 A  
HETATM   20  H   UNL     1     -12.116  10.415  67.473  1.00  0.00     0.000 HD 
HETATM   21  C   UNL     1      -8.944  12.438  68.576  1.00  0.00    -0.058 A  
HETATM   22  C   UNL     1     -10.185  10.433  68.127  1.00  0.00    -0.161 A  
HETATM   23  O   UNL     1      -8.918  13.847  68.603  1.00  0.00    -0.166 OA 
HETATM   24  C   UNL     1      -7.752  14.539  68.901  1.00  0.00    -0.132 C  
HETATM   25  O   UNL     1      -7.693  15.762  68.901  1.00  0.00    -0.157 OA 
HETATM   26  C   UNL     1      -6.560  13.733  69.227  1.00  0.00    -0.113 C  
HETATM   27  C   UNL     1      -6.577  12.394  69.213  1.00  0.00    -0.093 C  
HETATM   28  C   UNL     1      -7.799  11.697  68.858  1.00  0.00    -0.040 A  
HETATM   29  C   UNL     1      -7.867  10.303  68.775  1.00  0.00    -0.106 A  
ENDBRANCH  16  17
ENDBRANCH   6  16
ENDBRANCH   3   4
TORSDOF 3
ENDMDL
MODEL      203
REMARK 921   NORMALIZED FREE ENERGY PREDICTED BY IDOCK:   -2.15 KCAL/MOL
REMARK 922        TOTAL FREE ENERGY PREDICTED BY IDOCK:   -3.49 KCAL/MOL
REMARK 923 INTER-LIGAND FREE ENERGY PREDICTED BY IDOCK:   -2.89 KCAL/MOL
REMARK 924 INTRA-LIGAND FREE ENERGY PREDICTED BY IDOCK:   -0.59 KCAL/MOL
REMARK 927      BINDING AFFINITY PREDICTED BY RF-SCORE:    0.00 PKD
ROOT
HETATM    1  O   UNL     1     -11.370   6.618  67.740  1.00  0.00    -0.586 OA 
HETATM    2  H   UNL     1     -11.920   6.243  67.063  1.00  0.00     0.000 HD 
HETATM    3  C   UNL     1     -10.652   7.751  67.268  1.00  0.00    -0.306 C  
ENDROOT
BRANCH   3   4
HETATM    4  C   UNL     1      -9.763   8.358  68.363  1.00  0.00    -0.156 C  
HETATM    5  O   UNL     1      -8.427   7.830  68.301  1.00  0.00    -0.124 OA 
HETATM    6  C   UNL     1      -7.562   8.395  67.303  1.00  0.00    -0.097 C  
HETATM    7  C   UNL     1      -7.462   9.935  67.445  1.00  0.00    -0.091 C  
HETATM    8  H   UNL     1     -10.247  11.032  66.124  1.00  0.00     0.000 HD 
HETATM    9  H   UNL     1      -9.457  11.209  69.876  1.00  0.00     0.000 HD 
HETATM   10  O   UNL     1      -6.773  10.332  68.641  1.00  0.00    -0.052 OA 
HETATM   11  C   UNL     1      -8.857  10.584  67.449  1.00  0.00    -0.132 C  
HETATM   12  H   UNL     1      -6.712  11.276  68.728  1.00  0.00     0.000 HD 
HETATM   13  C   UNL     1      -9.794   9.901  68.464  1.00  0.00    -0.156 C  
HETATM   14  O   UNL     1      -9.437  10.262  69.814  1.00  0.00    -0.191 OA 
HETATM   15  O   UNL     1      -9.387  10.631  66.121  1.00  0.00    -0.167 OA 
BRANCH   6  16
HETATM   16  O   UNL     1      -8.011   8.073  65.984  1.00  0.00    -0.093 OA 
BRANCH  16  17
HETATM   17  C   UNL     1      -7.480   6.997  65.336  1.00  0.00    -0.088 A  
HETATM   18  O   UNL     1      -5.473   8.056  64.495  1.00  0.00    -0.039 OA 
HETATM   19  C   UNL     1      -5.885   5.813  63.941  1.00  0.00    -0.024 A  
HETATM   20  H   UNL     1      -4.656   8.032  64.010  1.00  0.00     0.000 HD 
HETATM   21  C   UNL     1      -6.727   4.703  63.946  1.00  0.00    -0.043 A  
HETATM   22  C   UNL     1      -6.279   6.963  64.624  1.00  0.00    -0.036 A  
HETATM   23  O   UNL     1      -6.328   3.580  63.194  1.00  0.00    -0.020 OA 
HETATM   24  C   UNL     1      -7.130   2.450  63.110  1.00  0.00    -0.037 C  
HETATM   25  O   UNL     1      -6.822   1.472  62.439  1.00  0.00    -0.019 OA 
HETATM   26  C   UNL     1      -8.392   2.467  63.874  1.00  0.00    -0.082 C  
HETATM   27  C   UNL     1      -8.775   3.525  64.598  1.00  0.00    -0.109 C  
HETATM   28  C   UNL     1      -7.936   4.709  64.636  1.00  0.00    -0.097 A  
HETATM   29  C   UNL     1      -8.306   5.865  65.331  1.00  0.00    -0.149 A  
ENDBRANCH  16  17
ENDBRANCH   6  16
ENDBRANCH   3   4
TORSDOF 3
ENDMDL
MODEL      204
REMARK 921   NORMALIZED FREE ENERGY PREDICTED BY IDOCK:   -2.02 KCAL/MOL
REMARK 922        TOTAL FREE ENERGY PREDICTED BY IDOCK:   -3.34 KCAL/MOL
REMARK 923 INTER-LIGAND FREE ENERGY PREDICTED BY IDOCK:   -3.45 KCAL/MOL
REMARK 924 INTRA-LIGAND FREE ENERGY PREDICTED BY IDOCK:    0.11 KCAL/MOL
REMARK 927      BINDING AFFINITY PREDICTED BY RF-SCORE:    0.00 PKD
ROOT
HETATM    1  O   UNL     1      -9.865  11.096  65.224  1.00  0.00    -0.222 OA 
HETATM    2  H   UNL     1     -10.095  10.489  64.531  1.00  0.00     0.000 HD 
HETATM    3  C   UNL     1      -8.963  10.515  66.156  1.00  0.00    -0.160 C  
ENDROOT
BRANCH   3   4
HETATM    4  C   UNL     1      -8.591  11.496  67.276  1.00  0.00    -0.150 C  
HETATM    5  O   UNL     1      -9.198  11.119  68.523  1.00  0.00    -0.172 OA 
HETATM    6  C   UNL     1      -8.556  10.061  69.253  1.00  0.00    -0.168 C  
HETATM    7  C   UNL     1      -7.065  10.386  69.525  1.00  0.00    -0.113 C  
HETATM    8  H   UNL     1      -5.586   9.763  66.674  1.00  0.00     0.000 HD 
HETATM    9  H   UNL     1      -6.026  13.293  68.116  1.00  0.00     0.000 HD 
HETATM   10  O   UNL     1      -6.900  11.476  70.447  1.00  0.00    -0.462 OA 
HETATM   11  C   UNL     1      -6.324  10.735  68.223  1.00  0.00    -0.057 C  
HETATM   12  H   UNL     1      -5.986  11.675  70.614  1.00  0.00     0.000 HD 
HETATM   13  C   UNL     1      -7.082  11.806  67.414  1.00  0.00    -0.126 C  
HETATM   14  O   UNL     1      -6.953  13.103  68.032  1.00  0.00    -0.087 OA 
HETATM   15  O   UNL     1      -6.043   9.547  67.478  1.00  0.00    -0.052 OA 
BRANCH   6  16
HETATM   16  O   UNL     1      -8.644   8.818  68.553  1.00  0.00    -0.132 OA 
BRANCH  16  17
HETATM   17  C   UNL     1      -8.915   7.674  69.245  1.00  0.00    -0.135 A  
HETATM   18  O   UNL     1      -9.520   8.684  71.359  1.00  0.00    -0.189 OA 
HETATM   19  C   UNL     1      -9.504   6.344  71.188  1.00  0.00    -0.177 A  
HETATM   20  H   UNL     1      -9.804   8.623  72.264  1.00  0.00     0.000 HD 
HETATM   21  C   UNL     1      -9.215   5.188  70.466  1.00  0.00    -0.146 A  
HETATM   22  C   UNL     1      -9.332   7.584  70.575  1.00  0.00    -0.160 A  
HETATM   23  O   UNL     1      -9.338   3.954  71.136  1.00  0.00    -0.121 OA 
HETATM   24  C   UNL     1      -9.027   2.759  70.502  1.00  0.00    -0.098 C  
HETATM   25  O   UNL     1      -9.096   1.675  71.070  1.00  0.00    -0.068 OA 
HETATM   26  C   UNL     1      -8.604   2.839  69.091  1.00  0.00    -0.117 C  
HETATM   27  C   UNL     1      -8.493   4.006  68.444  1.00  0.00    -0.106 C  
HETATM   28  C   UNL     1      -8.785   5.244  69.143  1.00  0.00    -0.106 A  
HETATM   29  C   UNL     1      -8.638   6.496  68.538  1.00  0.00    -0.123 A  
ENDBRANCH  16  17
ENDBRANCH   6  16
ENDBRANCH   3   4
TORSDOF 3
ENDMDL
MODEL      205
REMARK 921   NORMALIZED FREE ENERGY PREDICTED BY IDOCK:   -1.94 KCAL/MOL
REMARK 922        TOTAL FREE ENERGY PREDICTED BY IDOCK:   -3.24 KCAL/MOL
REMARK 923 INTER-LIGAND FREE ENERGY PREDICTED BY IDOCK:   -2.87 KCAL/MOL
REMARK 924 INTRA-LIGAND FREE ENERGY PREDICTED BY IDOCK:   -0.37 KCAL/MOL
REMARK 927      BINDING AFFINITY PREDICTED BY RF-SCORE:    0.00 PKD
ROOT
HETATM    1  O   UNL     1      -9.135   7.192  65.224  1.00  0.00    -0.362 OA 
HETATM    2  H   UNL     1      -9.517   6.323  65.195  1.00  0.00     0.000 HD 
HETATM    3  C   UNL     1      -9.992   8.124  65.869  1.00  0.00     0.403 C  
ENDROOT
BRANCH   3   4
HETATM    4  C   UNL     1      -9.374   9.528  65.915  1.00  0.00    -0.226 C  
HETATM    5  O   UNL     1      -8.754   9.784  67.186  1.00  0.00    -0.131 OA 
HETATM    6  C   UNL     1      -7.449   9.217  67.386  1.00  0.00    -0.084 C  
HETATM    7  C   UNL     1      -6.463   9.658  66.275  1.00  0.00    -0.070 C  
HETATM    8  H   UNL     1      -7.252   7.770  63.722  1.00  0.00     0.000 HD 
HETATM    9  H   UNL     1      -7.900  11.552  63.853  1.00  0.00     0.000 HD 
HETATM   10  O   UNL     1      -6.151  11.059  66.343  1.00  0.00    -0.115 OA 
HETATM   11  C   UNL     1      -7.028   9.353  64.877  1.00  0.00    -0.097 C  
HETATM   12  H   UNL     1      -5.547  11.329  65.661  1.00  0.00     0.000 HD 
HETATM   13  C   UNL     1      -8.463   9.892  64.719  1.00  0.00    -0.172 C  
HETATM   14  O   UNL     1      -8.459  11.329  64.588  1.00  0.00     0.182 OA 
HETATM   15  O   UNL     1      -6.904   7.959  64.586  1.00  0.00    -0.060 OA 
BRANCH   6  16
HETATM   16  O   UNL     1      -7.503   7.789  67.425  1.00  0.00    -0.089 OA 
BRANCH  16  17
HETATM   17  C   UNL     1      -8.060   7.166  68.503  1.00  0.00    -0.125 A  
HETATM   18  O   UNL     1      -8.737   5.118  67.406  1.00  0.00    -0.105 OA 
HETATM   19  C   UNL     1      -9.253   5.408  69.677  1.00  0.00    -0.153 A  
HETATM   20  H   UNL     1      -9.139   4.257  67.419  1.00  0.00     0.000 HD 
HETATM   21  C   UNL     1      -9.294   6.214  70.812  1.00  0.00    -0.158 A  
HETATM   22  C   UNL     1      -8.651   5.901  68.521  1.00  0.00    -0.110 A  
HETATM   23  O   UNL     1      -9.966   5.711  71.945  1.00  0.00    -0.173 OA 
HETATM   24  C   UNL     1     -10.090   6.468  73.101  1.00  0.00    -0.193 C  
HETATM   25  O   UNL     1     -10.695   6.069  74.089  1.00  0.00    -0.197 OA 
HETATM   26  C   UNL     1      -9.453   7.799  73.102  1.00  0.00    -0.325 C  
HETATM   27  C   UNL     1      -8.805   8.282  72.035  1.00  0.00    -0.256 C  
HETATM   28  C   UNL     1      -8.725   7.485  70.824  1.00  0.00    -0.140 A  
HETATM   29  C   UNL     1      -8.108   7.955  69.661  1.00  0.00    -0.117 A  
ENDBRANCH  16  17
ENDBRANCH   6  16
ENDBRANCH   3   4
TORSDOF 3
ENDMDL
MODEL      206
REMARK 921   NORMALIZED FREE ENERGY PREDICTED BY IDOCK:   -1.91 KCAL/MOL
REMARK 922        TOTAL FREE ENERGY PREDICTED BY IDOCK:   -3.21 KCAL/MOL
REMARK 923 INTER-LIGAND FREE ENERGY PREDICTED BY IDOCK:   -3.38 KCAL/MOL
REMARK 924 INTRA-LIGAND FREE ENERGY PREDICTED BY IDOCK:    0.17 KCAL/MOL
REMARK 927      BINDING AFFINITY PREDICTED BY RF-SCORE:    0.00 PKD
ROOT
HETATM    1  O   UNL     1     -10.254   5.977  67.324  1.00  0.00    -0.151 OA 
HETATM    2  H   UNL     1     -11.188   6.144  67.281  1.00  0.00     0.000 HD 
HETATM    3  C   UNL     1      -9.546   6.672  66.306  1.00  0.00    -0.039 C  
ENDROOT
BRANCH   3   4
HETATM    4  C   UNL     1      -8.037   6.401  66.377  1.00  0.00    -0.112 C  
HETATM    5  O   UNL     1      -7.325   7.543  66.881  1.00  0.00    -0.088 OA 
HETATM    6  C   UNL     1      -7.345   7.731  68.305  1.00  0.00    -0.102 C  
HETATM    7  C   UNL     1      -6.824   6.475  69.050  1.00  0.00    -0.066 C  
HETATM    8  H   UNL     1      -9.350   4.398  68.958  1.00  0.00     0.000 HD 
HETATM    9  H   UNL     1      -6.093   3.878  66.992  1.00  0.00     0.000 HD 
HETATM   10  O   UNL     1      -5.421   6.254  68.837  1.00  0.00    -0.013 OA 
HETATM   11  C   UNL     1      -7.588   5.213  68.613  1.00  0.00    -0.078 C  
HETATM   12  H   UNL     1      -5.102   5.484  69.293  1.00  0.00     0.000 HD 
HETATM   13  C   UNL     1      -7.630   5.084  67.078  1.00  0.00    -0.088 C  
HETATM   14  O   UNL     1      -6.343   4.688  66.561  1.00  0.00    -0.034 OA 
HETATM   15  O   UNL     1      -8.879   5.177  69.227  1.00  0.00    -0.095 OA 
BRANCH   6  16
HETATM   16  O   UNL     1      -8.661   8.040  68.771  1.00  0.00    -0.131 OA 
BRANCH  16  17
HETATM   17  C   UNL     1      -9.146   9.306  68.626  1.00  0.00    -0.132 A  
HETATM   18  O   UNL     1      -7.309  10.238  67.357  1.00  0.00    -0.091 OA 
HETATM   19  C   UNL     1      -9.098  11.637  67.950  1.00  0.00    -0.171 A  
HETATM   20  H   UNL     1      -6.887  10.958  66.905  1.00  0.00     0.000 HD 
HETATM   21  C   UNL     1     -10.284  11.849  68.648  1.00  0.00    -0.191 A  
HETATM   22  C   UNL     1      -8.526  10.365  67.961  1.00  0.00    -0.119 A  
HETATM   23  O   UNL     1     -10.802  13.160  68.669  1.00  0.00    -0.248 OA 
HETATM   24  C   UNL     1     -11.955  13.465  69.378  1.00  0.00    -0.315 C  
HETATM   25  O   UNL     1     -12.409  14.601  69.439  1.00  0.00    -0.263 OA 
HETATM   26  C   UNL     1     -12.631  12.351  70.069  1.00  0.00     0.107 C  
HETATM   27  C   UNL     1     -12.152  11.101  70.048  1.00  0.00    -0.437 C  
HETATM   28  C   UNL     1     -10.922  10.817  69.332  1.00  0.00    -0.305 A  
HETATM   29  C   UNL     1     -10.344   9.544  69.315  1.00  0.00    -0.219 A  
ENDBRANCH  16  17
ENDBRANCH   6  16
ENDBRANCH   3   4
TORSDOF 3
ENDMDL
MODEL      207
REMARK 921   NORMALIZED FREE ENERGY PREDICTED BY IDOCK:   -1.83 KCAL/MOL
REMARK 922        TOTAL FREE ENERGY PREDICTED BY IDOCK:   -3.12 KCAL/MOL
REMARK 923 INTER-LIGAND FREE ENERGY PREDICTED BY IDOCK:   -2.08 KCAL/MOL
REMARK 924 INTRA-LIGAND FREE ENERGY PREDICTED BY IDOCK:   -1.04 KCAL/MOL
REMARK 927      BINDING AFFINITY PREDICTED BY RF-SCORE:    0.00 PKD
ROOT
HETATM    1  O   UNL     1      -8.326   4.513  69.482  1.00  0.00    -0.073 OA 
HETATM    2  H   UNL     1      -9.020   4.569  68.836  1.00  0.00     0.000 HD 
HETATM    3  C   UNL     1      -8.842   4.358  70.797  1.00  0.00    -0.097 C  
ENDROOT
BRANCH   3   4
HETATM    4  C   UNL     1      -7.720   4.268  71.842  1.00  0.00    -0.079 C  
HETATM    5  O   UNL     1      -6.577   5.043  71.446  1.00  0.00    -0.035 OA 
HETATM    6  C   UNL     1      -6.657   6.460  71.672  1.00  0.00    -0.054 C  
HETATM    7  C   UNL     1      -6.962   6.781  73.157  1.00  0.00    -0.075 C  
HETATM    8  H   UNL     1     -10.174   6.223  73.440  1.00  0.00     0.000 HD 
HETATM    9  H   UNL     1      -7.480   4.023  75.066  1.00  0.00     0.000 HD 
HETATM   10  O   UNL     1      -5.873   6.440  74.029  1.00  0.00    -0.060 OA 
HETATM   11  C   UNL     1      -8.221   6.038  73.639  1.00  0.00    -0.112 C  
HETATM   12  H   UNL     1      -6.060   6.636  74.939  1.00  0.00     0.000 HD 
HETATM   13  C   UNL     1      -8.150   4.535  73.303  1.00  0.00    -0.095 C  
HETATM   14  O   UNL     1      -7.215   3.859  74.169  1.00  0.00    -0.058 OA 
HETATM   15  O   UNL     1      -9.397   6.681  73.143  1.00  0.00    -0.131 OA 
BRANCH   6  16
HETATM   16  O   UNL     1      -7.656   7.063  70.847  1.00  0.00    -0.084 OA 
BRANCH  16  17
HETATM   17  C   UNL     1      -7.285   7.959  69.887  1.00  0.00    -0.066 A  
HETATM   18  O   UNL     1      -7.060   6.413  68.039  1.00  0.00    -0.077 OA 
HETATM   19  C   UNL     1      -6.556   8.678  67.687  1.00  0.00    -0.062 A  
HETATM   20  H   UNL     1      -6.865   6.221  67.130  1.00  0.00     0.000 HD 
HETATM   21  C   UNL     1      -6.366   9.964  68.186  1.00  0.00    -0.055 A  
HETATM   22  C   UNL     1      -6.998   7.677  68.550  1.00  0.00    -0.072 A  
HETATM   23  O   UNL     1      -5.859  10.937  67.302  1.00  0.00    -0.045 OA 
HETATM   24  C   UNL     1      -5.599  12.231  67.731  1.00  0.00    -0.092 C  
HETATM   25  O   UNL     1      -5.128  13.088  66.992  1.00  0.00    -0.318 OA 
HETATM   26  C   UNL     1      -5.916  12.547  69.136  1.00  0.00    -0.085 C  
HETATM   27  C   UNL     1      -6.407  11.633  69.981  1.00  0.00    -0.098 C  
HETATM   28  C   UNL     1      -6.631  10.276  69.517  1.00  0.00    -0.066 A  
HETATM   29  C   UNL     1      -7.093   9.263  70.363  1.00  0.00    -0.091 A  
ENDBRANCH  16  17
ENDBRANCH   6  16
ENDBRANCH   3   4
TORSDOF 3
ENDMDL
MODEL      208
REMARK 921   NORMALIZED FREE ENERGY PREDICTED BY IDOCK:   -1.58 KCAL/MOL
REMARK 922        TOTAL FREE ENERGY PREDICTED BY IDOCK:   -2.82 KCAL/MOL
REMARK 923 INTER-LIGAND FREE ENERGY PREDICTED BY IDOCK:   -2.82 KCAL/MOL
REMARK 924 INTRA-LIGAND FREE ENERGY PREDICTED BY IDOCK:   -0.00 KCAL/MOL
REMARK 927      BINDING AFFINITY PREDICTED BY RF-SCORE:    0.00 PKD
ROOT
HETATM    1  O   UNL     1     -10.718   7.227  68.424  1.00  0.00    -0.308 OA 
HETATM    2  H   UNL     1     -10.331   6.864  67.637  1.00  0.00     0.000 HD 
HETATM    3  C   UNL     1     -10.630   8.645  68.450  1.00  0.00    -0.120 C  
ENDROOT
BRANCH   3   4
HETATM    4  C   UNL     1     -11.256   9.231  69.724  1.00  0.00    -0.085 C  
HETATM    5  O   UNL     1     -10.293   9.986  70.478  1.00  0.00    -0.272 OA 
HETATM    6  C   UNL     1     -10.020  11.318  70.013  1.00  0.00     1.209 C  
HETATM    7  C   UNL     1     -11.317  12.160  69.914  1.00  0.00    -0.031 C  
HETATM    8  H   UNL     1     -12.719  11.129  67.144  1.00  0.00     0.000 HD 
HETATM    9  H   UNL     1     -14.134  10.412  70.640  1.00  0.00     0.000 HD 
HETATM   10  O   UNL     1     -11.887  12.446  71.202  1.00  0.00    -0.155 OA 
HETATM   11  C   UNL     1     -12.380  11.447  69.060  1.00  0.00     0.033 C  
HETATM   12  H   UNL     1     -12.682  12.961  71.141  1.00  0.00     0.000 HD 
HETATM   13  C   UNL     1     -12.587   9.991  69.521  1.00  0.00     0.762 C  
HETATM   14  O   UNL     1     -13.315   9.946  70.765  1.00  0.00    -0.313 OA 
HETATM   15  O   UNL     1     -12.063  11.569  67.671  1.00  0.00    -0.623 OA 
BRANCH   6  16
HETATM   16  O   UNL     1      -9.373  11.303  68.739  1.00  0.00    -0.182 OA 
BRANCH  16  17
HETATM   17  C   UNL     1      -8.750  12.429  68.287  1.00  0.00    -0.175 A  
HETATM   18  O   UNL     1      -6.672  12.188  69.502  1.00  0.00    -0.239 OA 
HETATM   19  C   UNL     1      -6.980  14.084  68.154  1.00  0.00    -0.120 A  
HETATM   20  H   UNL     1      -5.802  12.488  69.737  1.00  0.00     0.000 HD 
HETATM   21  C   UNL     1      -7.800  14.876  67.354  1.00  0.00    -0.199 A  
HETATM   22  C   UNL     1      -7.472  12.871  68.632  1.00  0.00    -0.092 A  
HETATM   23  O   UNL     1      -7.296  16.125  66.939  1.00  0.00    -0.213 OA 
HETATM   24  C   UNL     1      -8.065  16.993  66.177  1.00  0.00    -0.257 C  
HETATM   25  O   UNL     1      -7.664  18.097  65.830  1.00  0.00    -0.523 OA 
HETATM   26  C   UNL     1      -9.411  16.531  65.789  1.00  0.00    -0.110 C  
HETATM   27  C   UNL     1      -9.895  15.342  66.170  1.00  0.00    -0.337 C  
HETATM   28  C   UNL     1      -9.085  14.471  67.001  1.00  0.00    -0.254 A  
HETATM   29  C   UNL     1      -9.553  13.241  67.473  1.00  0.00    -0.218 A  
ENDBRANCH  16  17
ENDBRANCH   6  16
ENDBRANCH   3   4
TORSDOF 3
ENDMDL
MODEL      209
REMARK 921   NORMALIZED FREE ENERGY PREDICTED BY IDOCK:   -1.51 KCAL/MOL
REMARK 922        TOTAL FREE ENERGY PREDICTED BY IDOCK:   -2.74 KCAL/MOL
REMARK 923 INTER-LIGAND FREE ENERGY PREDICTED BY IDOCK:   -2.31 KCAL/MOL
REMARK 924 INTRA-LIGAND FREE ENERGY PREDICTED BY IDOCK:   -0.43 KCAL/MOL
REMARK 927      BINDING AFFINITY PREDICTED BY RF-SCORE:    0.00 PKD
ROOT
HETATM    1  O   UNL     1     -10.449   4.781  65.946  1.00  0.00    -0.293 OA 
HETATM    2  H   UNL     1     -10.579   4.930  65.017  1.00  0.00     0.000 HD 
HETATM    3  C   UNL     1      -9.817   5.887  66.575  1.00  0.00    -0.152 C  
ENDROOT
BRANCH   3   4
HETATM    4  C   UNL     1      -9.607   5.645  68.077  1.00  0.00    -0.120 C  
HETATM    5  O   UNL     1      -8.430   6.316  68.554  1.00  0.00    -0.115 OA 
HETATM    6  C   UNL     1      -8.556   7.724  68.811  1.00  0.00    -0.129 C  
HETATM    7  C   UNL     1      -9.709   8.017  69.804  1.00  0.00    -0.176 C  
HETATM    8  H   UNL     1     -12.409   7.774  67.973  1.00  0.00     0.000 HD 
HETATM    9  H   UNL     1     -11.461   5.255  70.709  1.00  0.00     0.000 HD 
HETATM   10  O   UNL     1      -9.430   7.535  71.128  1.00  0.00    -0.158 OA 
HETATM   11  C   UNL     1     -11.029   7.386  69.326  1.00  0.00    -0.070 C  
HETATM   12  H   UNL     1     -10.137   7.714  71.737  1.00  0.00     0.000 HD 
HETATM   13  C   UNL     1     -10.845   5.898  68.969  1.00  0.00    -0.313 C  
HETATM   14  O   UNL     1     -10.700   5.099  70.161  1.00  0.00    -0.239 OA 
HETATM   15  O   UNL     1     -11.595   8.163  68.268  1.00  0.00     1.018 OA 
BRANCH   6  16
HETATM   16  O   UNL     1      -8.780   8.455  67.603  1.00  0.00    -0.135 OA 
BRANCH  16  17
HETATM   17  C   UNL     1      -8.031   9.565  67.340  1.00  0.00    -0.106 A  
HETATM   18  O   UNL     1      -6.486   8.574  65.764  1.00  0.00    -0.052 OA 
HETATM   19  C   UNL     1      -6.212  10.830  66.350  1.00  0.00    -0.119 A  
HETATM   20  H   UNL     1      -5.744   8.630  65.174  1.00  0.00     0.000 HD 
HETATM   21  C   UNL     1      -6.563  11.923  67.137  1.00  0.00    -0.148 A  
HETATM   22  C   UNL     1      -6.940   9.647  66.473  1.00  0.00    -0.085 A  
HETATM   23  O   UNL     1      -5.767  13.082  67.035  1.00  0.00    -0.298 OA 
HETATM   24  C   UNL     1      -6.022  14.200  67.816  1.00  0.00    -0.098 C  
HETATM   25  O   UNL     1      -5.328  15.208  67.770  1.00  0.00    -0.212 OA 
HETATM   26  C   UNL     1      -7.184  14.133  68.723  1.00  0.00    -0.120 C  
HETATM   27  C   UNL     1      -7.952  13.040  68.821  1.00  0.00     0.058 C  
HETATM   28  C   UNL     1      -7.638  11.870  68.021  1.00  0.00    -0.122 A  
HETATM   29  C   UNL     1      -8.369  10.683  68.116  1.00  0.00    -0.121 A  
ENDBRANCH  16  17
ENDBRANCH   6  16
ENDBRANCH   3   4
TORSDOF 3
ENDMDL
MODEL      210
REMARK 921   NORMALIZED FREE ENERGY PREDICTED BY IDOCK:   -1.37 KCAL/MOL
REMARK 922        TOTAL FREE ENERGY PREDICTED BY IDOCK:   -2.56 KCAL/MOL
REMARK 923 INTER-LIGAND FREE ENERGY PREDICTED BY IDOCK:   -1.89 KCAL/MOL
REMARK 924 INTRA-LIGAND FREE ENERGY PREDICTED BY IDOCK:   -0.67 KCAL/MOL
REMARK 927      BINDING AFFINITY PREDICTED BY RF-SCORE:    0.00 PKD
ROOT
HETATM    1  O   UNL     1      -8.326   4.513  69.482  1.00  0.00    -0.073 OA 
HETATM    2  H   UNL     1      -9.018   4.556  68.833  1.00  0.00     0.000 HD 
HETATM    3  C   UNL     1      -8.845   4.353  70.795  1.00  0.00    -0.097 C  
ENDROOT
BRANCH   3   4
HETATM    4  C   UNL     1      -7.727   4.284  71.845  1.00  0.00    -0.079 C  
HETATM    5  O   UNL     1      -6.594   5.077  71.452  1.00  0.00    -0.035 OA 
HETATM    6  C   UNL     1      -6.697   6.493  71.673  1.00  0.00    -0.062 C  
HETATM    7  C   UNL     1      -7.014   6.813  73.156  1.00  0.00    -0.075 C  
HETATM    8  H   UNL     1     -10.218   6.205  73.427  1.00  0.00     0.000 HD 
HETATM    9  H   UNL     1      -7.496   4.053  75.071  1.00  0.00     0.000 HD 
HETATM   10  O   UNL     1      -5.923   6.492  74.033  1.00  0.00    -0.061 OA 
HETATM   11  C   UNL     1      -8.263   6.051  73.635  1.00  0.00    -0.112 C  
HETATM   12  H   UNL     1      -6.118   6.688  74.942  1.00  0.00     0.000 HD 
HETATM   13  C   UNL     1      -8.167   4.549  73.303  1.00  0.00    -0.099 C  
HETATM   14  O   UNL     1      -7.225   3.891  74.175  1.00  0.00    -0.058 OA 
HETATM   15  O   UNL     1      -9.447   6.674  73.132  1.00  0.00    -0.140 OA 
BRANCH   6  16
HETATM   16  O   UNL     1      -7.702   7.077  70.842  1.00  0.00    -0.092 OA 
BRANCH  16  17
HETATM   17  C   UNL     1      -7.342   7.976  69.881  1.00  0.00    -0.066 A  
HETATM   18  O   UNL     1      -6.756   9.820  71.334  1.00  0.00    -0.322 OA 
HETATM   19  C   UNL     1      -6.624  10.125  69.011  1.00  0.00    -0.053 A  
HETATM   20  H   UNL     1      -6.449  10.708  71.475  1.00  0.00     0.000 HD 
HETATM   21  C   UNL     1      -6.854   9.662  67.718  1.00  0.00    -0.078 A  
HETATM   22  C   UNL     1      -6.890   9.281  70.088  1.00  0.00    -0.063 A  
HETATM   23  O   UNL     1      -6.635  10.562  66.655  1.00  0.00    -0.081 OA 
HETATM   24  C   UNL     1      -6.882  10.194  65.340  1.00  0.00    -0.128 C  
HETATM   25  O   UNL     1      -6.731  10.965  64.401  1.00  0.00     0.258 OA 
HETATM   26  C   UNL     1      -7.341   8.812  65.107  1.00  0.00    -0.088 C  
HETATM   27  C   UNL     1      -7.543   7.946  66.108  1.00  0.00    -0.083 C  
HETATM   28  C   UNL     1      -7.316   8.371  67.478  1.00  0.00    -0.093 A  
HETATM   29  C   UNL     1      -7.558   7.531  68.569  1.00  0.00    -0.114 A  
ENDBRANCH  16  17
ENDBRANCH   6  16
ENDBRANCH   3   4
TORSDOF 3
ENDMDL
MODEL      211
REMARK 921   NORMALIZED FREE ENERGY PREDICTED BY IDOCK:   -1.09 KCAL/MOL
REMARK 922        TOTAL FREE ENERGY PREDICTED BY IDOCK:   -2.24 KCAL/MOL
REMARK 923 INTER-LIGAND FREE ENERGY PREDICTED BY IDOCK:   -2.93 KCAL/MOL
REMARK 924 INTRA-LIGAND FREE ENERGY PREDICTED BY IDOCK:    0.69 KCAL/MOL
REMARK 927      BINDING AFFINITY PREDICTED BY RF-SCORE:    0.00 PKD
ROOT
HETATM    1  O   UNL     1      -6.148  15.476  67.751  1.00  0.00    -0.137 OA 
HETATM    2  H   UNL     1      -5.358  15.462  67.223  1.00  0.00     0.000 HD 
HETATM    3  C   UNL     1      -7.320  15.489  66.947  1.00  0.00    -0.023 C  
ENDROOT
BRANCH   3   4
HETATM    4  C   UNL     1      -8.596  15.513  67.800  1.00  0.00    -0.152 C  
HETATM    5  O   UNL     1      -9.698  14.908  67.106  1.00  0.00    -0.222 OA 
HETATM    6  C   UNL     1      -9.742  13.472  67.102  1.00  0.00    -0.244 C  
HETATM    7  C   UNL     1      -9.712  12.901  68.543  1.00  0.00    -0.127 C  
HETATM    8  H   UNL     1      -6.569  13.132  69.420  1.00  0.00     0.000 HD 
HETATM    9  H   UNL     1      -9.366  15.277  70.941  1.00  0.00     0.000 HD 
HETATM   10  O   UNL     1     -10.913  13.196  69.275  1.00  0.00    -0.398 OA 
HETATM   11  C   UNL     1      -8.513  13.451  69.335  1.00  0.00     0.977 C  
HETATM   12  H   UNL     1     -10.895  12.846  70.158  1.00  0.00     0.000 HD 
HETATM   13  C   UNL     1      -8.437  14.988  69.246  1.00  0.00    -0.167 C  
HETATM   14  O   UNL     1      -9.464  15.599  70.053  1.00  0.00    -0.168 OA 
HETATM   15  O   UNL     1      -7.309  12.793  68.932  1.00  0.00    -0.089 OA 
BRANCH   6  16
HETATM   16  O   UNL     1      -8.654  12.920  66.357  1.00  0.00     0.031 OA 
BRANCH  16  17
HETATM   17  C   UNL     1      -8.264  11.634  66.589  1.00  0.00    -0.140 A  
HETATM   18  O   UNL     1      -5.870  11.976  66.492  1.00  0.00    -0.477 OA 
HETATM   19  C   UNL     1      -6.689   9.802  66.827  1.00  0.00    -0.079 A  
HETATM   20  H   UNL     1      -4.978  11.654  66.539  1.00  0.00     0.000 HD 
HETATM   21  C   UNL     1      -7.757   8.911  66.887  1.00  0.00    -0.098 A  
HETATM   22  C   UNL     1      -6.952  11.160  66.658  1.00  0.00    -0.142 A  
HETATM   23  O   UNL     1      -7.455   7.538  66.995  1.00  0.00    -0.094 OA 
HETATM   24  C   UNL     1      -8.460   6.581  67.017  1.00  0.00    -0.113 C  
HETATM   25  O   UNL     1      -8.225   5.380  67.079  1.00  0.00    -0.105 OA 
HETATM   26  C   UNL     1      -9.851   7.069  66.964  1.00  0.00    -0.239 C  
HETATM   27  C   UNL     1     -10.149   8.371  66.871  1.00  0.00    -0.364 C  
HETATM   28  C   UNL     1      -9.077   9.349  66.809  1.00  0.00    -0.168 A  
HETATM   29  C   UNL     1      -9.322  10.717  66.660  1.00  0.00    -0.189 A  
ENDBRANCH  16  17
ENDBRANCH   6  16
ENDBRANCH   3   4
TORSDOF 3
ENDMDL
MODEL      212
REMARK 921   NORMALIZED FREE ENERGY PREDICTED BY IDOCK:   -0.44 KCAL/MOL
REMARK 922        TOTAL FREE ENERGY PREDICTED BY IDOCK:   -1.47 KCAL/MOL
REMARK 923 INTER-LIGAND FREE ENERGY PREDICTED BY IDOCK:   -2.27 KCAL/MOL
REMARK 924 INTRA-LIGAND FREE ENERGY PREDICTED BY IDOCK:    0.80 KCAL/MOL
REMARK 927      BINDING AFFINITY PREDICTED BY RF-SCORE:    0.00 PKD
ROOT
HETATM    1  O   UNL     1     -10.058   5.663  67.741  1.00  0.00    -0.146 OA 
HETATM    2  H   UNL     1      -9.523   5.836  66.976  1.00  0.00     0.000 HD 
HETATM    3  C   UNL     1      -9.349   5.910  68.948  1.00  0.00    -0.126 C  
ENDROOT
BRANCH   3   4
HETATM    4  C   UNL     1     -10.215   5.630  70.185  1.00  0.00    -0.250 C  
HETATM    5  O   UNL     1     -10.346   4.218  70.421  1.00  0.00    -0.037 OA 
HETATM    6  C   UNL     1      -9.236   3.573  71.067  1.00  0.00    -0.125 C  
HETATM    7  C   UNL     1      -8.892   4.254  72.416  1.00  0.00    -0.108 C  
HETATM    8  H   UNL     1      -7.245   6.944  71.545  1.00  0.00     0.000 HD 
HETATM    9  H   UNL     1     -10.768   7.005  73.069  1.00  0.00     0.000 HD 
HETATM   10  O   UNL     1      -9.916   4.062  73.405  1.00  0.00    -0.123 OA 
HETATM   11  C   UNL     1      -8.668   5.765  72.235  1.00  0.00    -0.132 C  
HETATM   12  H   UNL     1      -9.705   4.480  74.231  1.00  0.00     0.000 HD 
HETATM   13  C   UNL     1      -9.829   6.417  71.458  1.00  0.00    -0.168 C  
HETATM   14  O   UNL     1     -11.006   6.521  72.287  1.00  0.00    -0.230 OA 
HETATM   15  O   UNL     1      -7.384   6.011  71.657  1.00  0.00    -0.088 OA 
BRANCH   6  16
HETATM   16  O   UNL     1      -8.076   3.573  70.232  1.00  0.00    -0.046 OA 
BRANCH  16  17
HETATM   17  C   UNL     1      -8.183   3.180  68.930  1.00  0.00    -0.060 A  
HETATM   18  O   UNL     1      -9.985   1.587  69.197  1.00  0.00     0.057 OA 
HETATM   19  C   UNL     1      -9.035   1.874  67.071  1.00  0.00    -0.140 A  
HETATM   20  H   UNL     1     -10.594   0.948  68.846  1.00  0.00     0.000 HD 
HETATM   21  C   UNL     1      -8.054   2.427  66.251  1.00  0.00    -0.084 A  
HETATM   22  C   UNL     1      -9.079   2.242  68.414  1.00  0.00    -0.165 A  
HETATM   23  O   UNL     1      -7.998   1.986  64.914  1.00  0.00    -0.075 OA 
HETATM   24  C   UNL     1      -7.024   2.455  64.044  1.00  0.00    -0.040 C  
HETATM   25  O   UNL     1      -6.932   2.066  62.886  1.00  0.00    -0.029 OA 
HETATM   26  C   UNL     1      -6.083   3.462  64.571  1.00  0.00    -0.023 C  
HETATM   27  C   UNL     1      -6.134   3.894  65.837  1.00  0.00    -0.028 C  
HETATM   28  C   UNL     1      -7.138   3.357  66.737  1.00  0.00    -0.055 A  
HETATM   29  C   UNL     1      -7.210   3.729  68.083  1.00  0.00    -0.055 A  
ENDBRANCH  16  17
ENDBRANCH   6  16
ENDBRANCH   3   4
TORSDOF 3
ENDMDL
MODEL      213
REMARK 921   NORMALIZED FREE ENERGY PREDICTED BY IDOCK:    0.16 KCAL/MOL
REMARK 922        TOTAL FREE ENERGY PREDICTED BY IDOCK:   -0.77 KCAL/MOL
REMARK 923 INTER-LIGAND FREE ENERGY PREDICTED BY IDOCK:   -2.67 KCAL/MOL
REMARK 924 INTRA-LIGAND FREE ENERGY PREDICTED BY IDOCK:    1.90 KCAL/MOL
REMARK 927      BINDING AFFINITY PREDICTED BY RF-SCORE:    0.00 PKD
ROOT
HETATM    1  O   UNL     1     -10.267   8.427  66.577  1.00  0.00    -0.342 OA 
HETATM    2  H   UNL     1     -10.864   7.720  66.366  1.00  0.00     0.000 HD 
HETATM    3  C   UNL     1      -9.226   7.998  67.444  1.00  0.00    -0.134 C  
ENDROOT
BRANCH   3   4
HETATM    4  C   UNL     1      -8.260   9.142  67.784  1.00  0.00    -0.109 C  
HETATM    5  O   UNL     1      -8.725   9.899  68.914  1.00  0.00    -0.127 OA 
HETATM    6  C   UNL     1      -8.484   9.326  70.209  1.00  0.00    -0.203 C  
HETATM    7  C   UNL     1      -6.979   9.023  70.423  1.00  0.00    -0.058 C  
HETATM    8  H   UNL     1      -6.485   6.258  68.746  1.00  0.00     0.000 HD 
HETATM    9  H   UNL     1      -5.061   9.666  67.699  1.00  0.00     0.000 HD 
HETATM   10  O   UNL     1      -6.186  10.217  70.515  1.00  0.00    -0.101 OA 
HETATM   11  C   UNL     1      -6.420   8.154  69.284  1.00  0.00    -0.039 C  
HETATM   12  H   UNL     1      -5.264  10.031  70.645  1.00  0.00     0.000 HD 
HETATM   13  C   UNL     1      -6.771   8.741  67.903  1.00  0.00    -0.066 C  
HETATM   14  O   UNL     1      -5.975   9.912  67.626  1.00  0.00    -0.050 OA 
HETATM   15  O   UNL     1      -6.830   6.794  69.449  1.00  0.00    -0.057 OA 
BRANCH   6  16
HETATM   16  O   UNL     1      -9.236   8.125  70.396  1.00  0.00    -0.149 OA 
BRANCH  16  17
HETATM   17  C   UNL     1      -8.866   7.245  71.370  1.00  0.00    -0.130 A  
HETATM   18  O   UNL     1      -8.852   8.782  73.238  1.00  0.00    -0.280 OA 
HETATM   19  C   UNL     1      -8.225   6.550  73.605  1.00  0.00    -0.119 A  
HETATM   20  H   UNL     1      -8.723   8.976  74.159  1.00  0.00     0.000 HD 
HETATM   21  C   UNL     1      -7.923   5.284  73.110  1.00  0.00    -0.101 A  
HETATM   22  C   UNL     1      -8.678   7.530  72.723  1.00  0.00    -0.133 A  
HETATM   23  O   UNL     1      -7.408   4.335  74.016  1.00  0.00    -0.066 OA 
HETATM   24  C   UNL     1      -7.041   3.065  73.595  1.00  0.00    -0.041 C  
HETATM   25  O   UNL     1      -6.561   2.232  74.355  1.00  0.00    -0.019 OA 
HETATM   26  C   UNL     1      -7.253   2.744  72.171  1.00  0.00    -0.042 C  
HETATM   27  C   UNL     1      -7.750   3.635  71.304  1.00  0.00    -0.059 C  
HETATM   28  C   UNL     1      -8.088   4.970  71.763  1.00  0.00    -0.115 A  
HETATM   29  C   UNL     1      -8.562   5.960  70.897  1.00  0.00    -0.131 A  
ENDBRANCH  16  17
ENDBRANCH   6  16
ENDBRANCH   3   4
TORSDOF 3
ENDMDL
MODEL      214
REMARK 921   NORMALIZED FREE ENERGY PREDICTED BY IDOCK:    0.19 KCAL/MOL
REMARK 922        TOTAL FREE ENERGY PREDICTED BY IDOCK:   -0.74 KCAL/MOL
REMARK 923 INTER-LIGAND FREE ENERGY PREDICTED BY IDOCK:   -1.10 KCAL/MOL
REMARK 924 INTRA-LIGAND FREE ENERGY PREDICTED BY IDOCK:    0.36 KCAL/MOL
REMARK 927      BINDING AFFINITY PREDICTED BY RF-SCORE:    0.00 PKD
ROOT
HETATM    1  O   UNL     1      -9.232   8.264  66.556  1.00  0.00    -0.163 OA 
HETATM    2  H   UNL     1     -10.136   8.527  66.681  1.00  0.00     0.000 HD 
HETATM    3  C   UNL     1      -9.126   6.890  66.207  1.00  0.00    -0.141 C  
ENDROOT
BRANCH   3   4
HETATM    4  C   UNL     1      -7.665   6.466  66.005  1.00  0.00    -0.093 C  
HETATM    5  O   UNL     1      -6.946   6.463  67.249  1.00  0.00    -0.067 OA 
HETATM    6  C   UNL     1      -7.147   5.324  68.102  1.00  0.00    -0.066 C  
HETATM    7  C   UNL     1      -6.828   4.000  67.362  1.00  0.00    -0.051 C  
HETATM    8  H   UNL     1      -9.464   3.482  65.495  1.00  0.00     0.000 HD 
HETATM    9  H   UNL     1      -6.017   4.428  64.094  1.00  0.00     0.000 HD 
HETATM   10  O   UNL     1      -5.429   3.860  67.066  1.00  0.00    -0.015 OA 
HETATM   11  C   UNL     1      -7.616   3.895  66.045  1.00  0.00    -0.089 C  
HETATM   12  H   UNL     1      -5.233   3.049  66.613  1.00  0.00     0.000 HD 
HETATM   13  C   UNL     1      -7.457   5.167  65.190  1.00  0.00    -0.073 C  
HETATM   14  O   UNL     1      -6.145   5.225  64.595  1.00  0.00    -0.021 OA 
HETATM   15  O   UNL     1      -8.978   3.547  66.308  1.00  0.00    -0.128 OA 
BRANCH   6  16
HETATM   16  O   UNL     1      -8.488   5.273  68.595  1.00  0.00    -0.090 OA 
BRANCH  16  17
HETATM   17  C   UNL     1      -8.915   6.219  69.481  1.00  0.00    -0.134 A  
HETATM   18  O   UNL     1      -7.270   5.837  71.214  1.00  0.00    -0.070 OA 
HETATM   19  C   UNL     1      -8.937   7.451  71.572  1.00  0.00    -0.132 A  
HETATM   20  H   UNL     1      -6.890   6.032  72.063  1.00  0.00     0.000 HD 
HETATM   21  C   UNL     1     -10.112   8.081  71.172  1.00  0.00    -0.188 A  
HETATM   22  C   UNL     1      -8.356   6.506  70.728  1.00  0.00    -0.130 A  
HETATM   23  O   UNL     1     -10.707   8.984  72.075  1.00  0.00    -0.349 OA 
HETATM   24  C   UNL     1     -11.902   9.621  71.772  1.00  0.00    -0.320 C  
HETATM   25  O   UNL     1     -12.458  10.386  72.551  1.00  0.00     0.328 OA 
HETATM   26  C   UNL     1     -12.493   9.341  70.450  1.00  0.00     0.266 C  
HETATM   27  C   UNL     1     -11.931   8.492  69.580  1.00  0.00     1.054 C  
HETATM   28  C   UNL     1     -10.702   7.809  69.940  1.00  0.00    -0.245 A  
HETATM   29  C   UNL     1     -10.094   6.873  69.098  1.00  0.00    -0.180 A  
ENDBRANCH  16  17
ENDBRANCH   6  16
ENDBRANCH   3   4
TORSDOF 3
ENDMDL
MODEL      215
REMARK 921   NORMALIZED FREE ENERGY PREDICTED BY IDOCK:    1.16 KCAL/MOL
REMARK 922        TOTAL FREE ENERGY PREDICTED BY IDOCK:    0.41 KCAL/MOL
REMARK 923 INTER-LIGAND FREE ENERGY PREDICTED BY IDOCK:   -1.50 KCAL/MOL
REMARK 924 INTRA-LIGAND FREE ENERGY PREDICTED BY IDOCK:    1.91 KCAL/MOL
REMARK 927      BINDING AFFINITY PREDICTED BY RF-SCORE:    0.00 PKD
ROOT
HETATM    1  O   UNL     1      -9.562   5.704  67.850  1.00  0.00    -0.114 OA 
HETATM    2  H   UNL     1      -9.137   6.225  67.180  1.00  0.00     0.000 HD 
HETATM    3  C   UNL     1      -8.767   5.601  69.023  1.00  0.00    -0.104 C  
ENDROOT
BRANCH   3   4
HETATM    4  C   UNL     1      -9.455   4.758  70.106  1.00  0.00    -0.175 C  
HETATM    5  O   UNL     1      -8.803   3.487  70.270  1.00  0.00    -0.075 OA 
HETATM    6  C   UNL     1      -7.597   3.484  71.051  1.00  0.00    -0.047 C  
HETATM    7  C   UNL     1      -7.833   4.086  72.459  1.00  0.00    -0.082 C  
HETATM    8  H   UNL     1      -7.876   7.316  71.939  1.00  0.00     0.000 HD 
HETATM    9  H   UNL     1     -10.977   5.277  72.922  1.00  0.00     0.000 HD 
HETATM   10  O   UNL     1      -8.675   3.258  73.278  1.00  0.00    -0.080 OA 
HETATM   11  C   UNL     1      -8.468   5.484  72.367  1.00  0.00    -0.118 C  
HETATM   12  H   UNL     1      -8.819   3.628  74.140  1.00  0.00     0.000 HD 
HETATM   13  C   UNL     1      -9.707   5.480  71.450  1.00  0.00    -0.158 C  
HETATM   14  O   UNL     1     -10.822   4.832  72.097  1.00  0.00    -0.138 OA 
HETATM   15  O   UNL     1      -7.484   6.453  71.996  1.00  0.00    -0.091 OA 
BRANCH   6  16
HETATM   16  O   UNL     1      -6.553   4.210  70.399  1.00  0.00    -0.030 OA 
BRANCH  16  17
HETATM   17  C   UNL     1      -6.365   4.059  69.057  1.00  0.00    -0.032 A  
HETATM   18  O   UNL     1      -5.991   1.668  69.026  1.00  0.00    -0.022 OA 
HETATM   19  C   UNL     1      -5.851   2.860  67.009  1.00  0.00    -0.023 A  
HETATM   20  H   UNL     1      -5.809   0.857  68.567  1.00  0.00     0.000 HD 
HETATM   21  C   UNL     1      -5.836   4.071  66.322  1.00  0.00    -0.023 A  
HETATM   22  C   UNL     1      -6.098   2.866  68.381  1.00  0.00    -0.025 A  
HETATM   23  O   UNL     1      -5.521   4.036  64.948  1.00  0.00    -0.012 OA 
HETATM   24  C   UNL     1      -5.441   5.202  64.200  1.00  0.00    -0.016 C  
HETATM   25  O   UNL     1      -5.139   5.203  63.012  1.00  0.00    -0.009 OA 
HETATM   26  C   UNL     1      -5.740   6.467  64.897  1.00  0.00    -0.030 C  
HETATM   27  C   UNL     1      -6.049   6.510  66.199  1.00  0.00    -0.033 C  
HETATM   28  C   UNL     1      -6.086   5.279  66.967  1.00  0.00    -0.030 A  
HETATM   29  C   UNL     1      -6.351   5.264  68.340  1.00  0.00    -0.035 A  
ENDBRANCH  16  17
ENDBRANCH   6  16
ENDBRANCH   3   4
TORSDOF 3
ENDMDL
MODEL      216
REMARK 921   NORMALIZED FREE ENERGY PREDICTED BY IDOCK:    1.23 KCAL/MOL
REMARK 922        TOTAL FREE ENERGY PREDICTED BY IDOCK:    0.49 KCAL/MOL
REMARK 923 INTER-LIGAND FREE ENERGY PREDICTED BY IDOCK:   -0.52 KCAL/MOL
REMARK 924 INTRA-LIGAND FREE ENERGY PREDICTED BY IDOCK:    1.01 KCAL/MOL
REMARK 927      BINDING AFFINITY PREDICTED BY RF-SCORE:    0.00 PKD
ROOT
HETATM    1  O   UNL     1     -10.103   6.357  65.142  1.00  0.00     0.843 OA 
HETATM    2  H   UNL     1     -10.938   5.979  65.391  1.00  0.00     0.000 HD 
HETATM    3  C   UNL     1     -10.032   7.739  65.464  1.00  0.00     1.376 C  
ENDROOT
BRANCH   3   4
HETATM    4  C   UNL     1      -8.682   8.350  65.061  1.00  0.00    -0.056 C  
HETATM    5  O   UNL     1      -7.848   8.573  66.210  1.00  0.00    -0.095 OA 
HETATM    6  C   UNL     1      -7.159   7.426  66.733  1.00  0.00    -0.079 C  
HETATM    7  C   UNL     1      -6.299   6.736  65.643  1.00  0.00    -0.042 C  
HETATM    8  H   UNL     1      -8.470   5.040  63.879  1.00  0.00     0.000 HD 
HETATM    9  H   UNL     1      -6.619   8.137  62.569  1.00  0.00     0.000 HD 
HETATM   10  O   UNL     1      -5.184   7.543  65.231  1.00  0.00    -0.028 OA 
HETATM   11  C   UNL     1      -7.141   6.400  64.401  1.00  0.00    -0.057 C  
HETATM   12  H   UNL     1      -4.658   7.121  64.564  1.00  0.00     0.000 HD 
HETATM   13  C   UNL     1      -7.941   7.624  63.914  1.00  0.00    -0.091 C  
HETATM   14  O   UNL     1      -7.074   8.582  63.274  1.00  0.00    -0.089 OA 
HETATM   15  O   UNL     1      -7.951   5.248  64.647  1.00  0.00    -0.096 OA 
BRANCH   6  16
HETATM   16  O   UNL     1      -8.075   6.474  67.280  1.00  0.00    -0.111 OA 
BRANCH  16  17
HETATM   17  C   UNL     1      -8.670   6.725  68.481  1.00  0.00    -0.124 A  
HETATM   18  O   UNL     1      -9.578   8.908  67.966  1.00  0.00    -0.144 OA 
HETATM   19  C   UNL     1      -9.885   8.036  70.123  1.00  0.00    -0.184 A  
HETATM   20  H   UNL     1     -10.067   9.687  68.205  1.00  0.00     0.000 HD 
HETATM   21  C   UNL     1      -9.621   7.057  71.078  1.00  0.00    -0.170 A  
HETATM   22  C   UNL     1      -9.388   7.870  68.831  1.00  0.00    -0.150 A  
HETATM   23  O   UNL     1     -10.083   7.285  72.390  1.00  0.00    -0.177 OA 
HETATM   24  C   UNL     1      -9.824   6.381  73.410  1.00  0.00    -0.178 C  
HETATM   25  O   UNL     1     -10.186   6.569  74.565  1.00  0.00    -0.358 OA 
HETATM   26  C   UNL     1      -9.082   5.158  73.049  1.00  0.00    -0.126 C  
HETATM   27  C   UNL     1      -8.647   4.927  71.804  1.00  0.00    -0.132 C  
HETATM   28  C   UNL     1      -8.897   5.909  70.764  1.00  0.00    -0.140 A  
HETATM   29  C   UNL     1      -8.424   5.751  69.459  1.00  0.00    -0.112 A  
ENDBRANCH  16  17
ENDBRANCH   6  16
ENDBRANCH   3   4
TORSDOF 3
ENDMDL
MODEL      217
REMARK 921   NORMALIZED FREE ENERGY PREDICTED BY IDOCK:    1.61 KCAL/MOL
REMARK 922        TOTAL FREE ENERGY PREDICTED BY IDOCK:    0.93 KCAL/MOL
REMARK 923 INTER-LIGAND FREE ENERGY PREDICTED BY IDOCK:    0.13 KCAL/MOL
REMARK 924 INTRA-LIGAND FREE ENERGY PREDICTED BY IDOCK:    0.80 KCAL/MOL
REMARK 927      BINDING AFFINITY PREDICTED BY RF-SCORE:    0.00 PKD
ROOT
HETATM    1  O   UNL     1     -10.974  11.735  65.505  1.00  0.00    -0.291 OA 
HETATM    2  H   UNL     1     -11.414  12.496  65.145  1.00  0.00     0.000 HD 
HETATM    3  C   UNL     1     -10.085  11.146  64.565  1.00  0.00    -0.308 C  
ENDROOT
BRANCH   3   4
HETATM    4  C   UNL     1      -9.374   9.917  65.147  1.00  0.00    -0.258 C  
HETATM    5  O   UNL     1      -7.973  10.170  65.345  1.00  0.00    -0.133 OA 
HETATM    6  C   UNL     1      -7.618  10.916  66.520  1.00  0.00    -0.142 C  
HETATM    7  C   UNL     1      -8.169  10.247  67.804  1.00  0.00    -0.110 C  
HETATM    8  H   UNL     1     -11.333  11.078  67.832  1.00  0.00     0.000 HD 
HETATM    9  H   UNL     1     -10.076   7.506  67.199  1.00  0.00     0.000 HD 
HETATM   10  O   UNL     1      -7.528   8.993  68.089  1.00  0.00    -0.083 OA 
HETATM   11  C   UNL     1      -9.684  10.004  67.698  1.00  0.00    -0.158 C  
HETATM   12  H   UNL     1      -7.866   8.583  68.876  1.00  0.00     0.000 HD 
HETATM   13  C   UNL     1     -10.049   9.283  66.386  1.00  0.00    -0.267 C  
HETATM   14  O   UNL     1      -9.661   7.895  66.439  1.00  0.00    -0.209 OA 
HETATM   15  O   UNL     1     -10.398  11.227  67.897  1.00  0.00    -0.174 OA 
BRANCH   6  16
HETATM   16  O   UNL     1      -8.099  12.260  66.448  1.00  0.00     0.074 OA 
BRANCH  16  17
HETATM   17  C   UNL     1      -7.922  13.097  67.510  1.00  0.00    -0.179 A  
HETATM   18  O   UNL     1      -8.875  15.097  66.539  1.00  0.00    -0.275 OA 
HETATM   19  C   UNL     1      -7.974  15.209  68.704  1.00  0.00    -0.151 A  
HETATM   20  H   UNL     1      -9.119  16.015  66.586  1.00  0.00     0.000 HD 
HETATM   21  C   UNL     1      -7.266  14.621  69.748  1.00  0.00    -0.058 A  
HETATM   22  C   UNL     1      -8.280  14.444  67.580  1.00  0.00    -0.188 A  
HETATM   23  O   UNL     1      -6.918  15.438  70.842  1.00  0.00     0.636 OA 
HETATM   24  C   UNL     1      -6.175  14.941  71.903  1.00  0.00     0.771 C  
HETATM   25  O   UNL     1      -5.831  15.637  72.851  1.00  0.00     0.977 OA 
HETATM   26  C   UNL     1      -5.806  13.514  71.852  1.00  0.00     0.282 C  
HETATM   27  C   UNL     1      -6.140  12.726  70.822  1.00  0.00     0.256 C  
HETATM   28  C   UNL     1      -6.883  13.282  69.706  1.00  0.00     0.226 A  
HETATM   29  C   UNL     1      -7.216  12.525  68.579  1.00  0.00    -0.110 A  
ENDBRANCH  16  17
ENDBRANCH   6  16
ENDBRANCH   3   4
TORSDOF 3
ENDMDL
MODEL      218
REMARK 921   NORMALIZED FREE ENERGY PREDICTED BY IDOCK:    3.40 KCAL/MOL
REMARK 922        TOTAL FREE ENERGY PREDICTED BY IDOCK:    3.03 KCAL/MOL
REMARK 923 INTER-LIGAND FREE ENERGY PREDICTED BY IDOCK:   -2.29 KCAL/MOL
REMARK 924 INTRA-LIGAND FREE ENERGY PREDICTED BY IDOCK:    5.33 KCAL/MOL
REMARK 927      BINDING AFFINITY PREDICTED BY RF-SCORE:    0.00 PKD
ROOT
HETATM    1  O   UNL     1      -6.870   9.920  67.936  1.00  0.00    -0.074 OA 
HETATM    2  H   UNL     1      -6.247   9.666  68.606  1.00  0.00     0.000 HD 
HETATM    3  C   UNL     1      -6.262  10.003  66.654  1.00  0.00    -0.069 C  
ENDROOT
BRANCH   3   4
HETATM    4  C   UNL     1      -7.270  10.414  65.571  1.00  0.00    -0.138 C  
HETATM    5  O   UNL     1      -6.724  10.233  64.255  1.00  0.00    -0.124 OA 
HETATM    6  C   UNL     1      -6.732   8.892  63.737  1.00  0.00    -0.088 C  
HETATM    7  C   UNL     1      -8.160   8.290  63.750  1.00  0.00    -0.126 C  
HETATM    8  H   UNL     1      -8.631   7.439  66.874  1.00  0.00     0.000 HD 
HETATM    9  H   UNL     1     -10.485  10.326  65.152  1.00  0.00     0.000 HD 
HETATM   10  O   UNL     1      -9.037   8.935  62.813  1.00  0.00    -0.451 OA 
HETATM   11  C   UNL     1      -8.791   8.383  65.150  1.00  0.00    -0.031 C  
HETATM   12  H   UNL     1      -9.912   8.566  62.821  1.00  0.00     0.000 HD 
HETATM   13  C   UNL     1      -8.687   9.811  65.720  1.00  0.00    -0.142 C  
HETATM   14  O   UNL     1      -9.614  10.696  65.059  1.00  0.00    -0.222 OA 
HETATM   15  O   UNL     1      -8.242   7.382  66.010  1.00  0.00    -0.116 OA 
BRANCH   6  16
HETATM   16  O   UNL     1      -5.858   8.041  64.482  1.00  0.00    -0.044 OA 
BRANCH  16  17
HETATM   17  C   UNL     1      -6.248   6.769  64.778  1.00  0.00    -0.036 A  
HETATM   18  O   UNL     1      -6.585   5.975  62.518  1.00  0.00    -0.031 OA 
HETATM   19  C   UNL     1      -7.053   4.528  64.305  1.00  0.00    -0.050 A  
HETATM   20  H   UNL     1      -6.822   5.296  61.897  1.00  0.00     0.000 HD 
HETATM   21  C   UNL     1      -7.194   4.306  65.673  1.00  0.00    -0.072 A  
HETATM   22  C   UNL     1      -6.598   5.771  63.867  1.00  0.00    -0.037 A  
HETATM   23  O   UNL     1      -7.717   3.062  66.080  1.00  0.00    -0.076 OA 
HETATM   24  C   UNL     1      -7.930   2.776  67.421  1.00  0.00    -0.073 C  
HETATM   25  O   UNL     1      -8.412   1.716  67.801  1.00  0.00    -0.064 OA 
HETATM   26  C   UNL     1      -7.547   3.815  68.396  1.00  0.00    -0.061 C  
HETATM   27  C   UNL     1      -7.042   4.996  68.020  1.00  0.00    -0.062 C  
HETATM   28  C   UNL     1      -6.866   5.284  66.608  1.00  0.00    -0.063 A  
HETATM   29  C   UNL     1      -6.393   6.517  66.150  1.00  0.00    -0.042 A  
ENDBRANCH  16  17
ENDBRANCH   6  16
ENDBRANCH   3   4
TORSDOF 3
ENDMDL
MODEL      219
REMARK 921   NORMALIZED FREE ENERGY PREDICTED BY IDOCK:    3.97 KCAL/MOL
REMARK 922        TOTAL FREE ENERGY PREDICTED BY IDOCK:    3.70 KCAL/MOL
REMARK 923 INTER-LIGAND FREE ENERGY PREDICTED BY IDOCK:    0.70 KCAL/MOL
REMARK 924 INTRA-LIGAND FREE ENERGY PREDICTED BY IDOCK:    3.00 KCAL/MOL
REMARK 927      BINDING AFFINITY PREDICTED BY RF-SCORE:    0.00 PKD
ROOT
HETATM    1  O   UNL     1      -7.482   8.728  62.421  1.00  0.00    -0.101 OA 
HETATM    2  H   UNL     1      -6.625   8.494  62.084  1.00  0.00     0.000 HD 
HETATM    3  C   UNL     1      -7.487   8.805  63.840  1.00  0.00    -0.117 C  
ENDROOT
BRANCH   3   4
HETATM    4  C   UNL     1      -8.872   9.182  64.385  1.00  0.00    -0.116 C  
HETATM    5  O   UNL     1      -9.762   8.054  64.370  1.00  0.00     2.077 OA 
HETATM    6  C   UNL     1      -9.612   7.107  65.440  1.00  0.00     1.018 C  
HETATM    7  C   UNL     1      -9.732   7.793  66.824  1.00  0.00    -0.227 C  
HETATM    8  H   UNL     1      -6.824   9.230  67.249  1.00  0.00     0.000 HD 
HETATM    9  H   UNL     1     -10.085  11.164  66.647  1.00  0.00     0.000 HD 
HETATM   10  O   UNL     1     -11.061   8.273  67.087  1.00  0.00    -0.393 OA 
HETATM   11  C   UNL     1      -8.756   8.975  66.946  1.00  0.00    -0.123 C  
HETATM   12  H   UNL     1     -11.134   8.694  67.935  1.00  0.00     0.000 HD 
HETATM   13  C   UNL     1      -8.872   9.928  65.740  1.00  0.00    -0.147 C  
HETATM   14  O   UNL     1     -10.085  10.705  65.815  1.00  0.00    -0.245 OA 
HETATM   15  O   UNL     1      -7.427   8.500  67.174  1.00  0.00    -0.083 OA 
BRANCH   6  16
HETATM   16  O   UNL     1      -8.358   6.427  65.361  1.00  0.00    -0.142 OA 
BRANCH  16  17
HETATM   17  C   UNL     1      -7.702   6.089  66.508  1.00  0.00    -0.103 A  
HETATM   18  O   UNL     1      -5.439   6.193  65.658  1.00  0.00    -0.013 OA 
HETATM   19  C   UNL     1      -5.781   5.544  67.887  1.00  0.00    -0.013 A  
HETATM   20  H   UNL     1      -4.499   6.113  65.772  1.00  0.00     0.000 HD 
HETATM   21  C   UNL     1      -6.642   5.194  68.924  1.00  0.00    -0.048 A  
HETATM   22  C   UNL     1      -6.321   5.971  66.676  1.00  0.00    -0.045 A  
HETATM   23  O   UNL     1      -6.065   4.706  70.114  1.00  0.00    -0.020 OA 
HETATM   24  C   UNL     1      -6.854   4.295  71.179  1.00  0.00    -0.035 C  
HETATM   25  O   UNL     1      -6.380   3.837  72.212  1.00  0.00    -0.013 OA 
HETATM   26  C   UNL     1      -8.314   4.432  71.022  1.00  0.00    -0.096 C  
HETATM   27  C   UNL     1      -8.872   4.903  69.900  1.00  0.00    -0.126 C  
HETATM   28  C   UNL     1      -8.024   5.288  68.786  1.00  0.00    -0.086 A  
HETATM   29  C   UNL     1      -8.548   5.738  67.571  1.00  0.00    -0.105 A  
ENDBRANCH  16  17
ENDBRANCH   6  16
ENDBRANCH   3   4
TORSDOF 3
ENDMDL
MODEL      220
REMARK 921   NORMALIZED FREE ENERGY PREDICTED BY IDOCK:    8.04 KCAL/MOL
REMARK 922        TOTAL FREE ENERGY PREDICTED BY IDOCK:    8.49 KCAL/MOL
REMARK 923 INTER-LIGAND FREE ENERGY PREDICTED BY IDOCK:    4.89 KCAL/MOL
REMARK 924 INTRA-LIGAND FREE ENERGY PREDICTED BY IDOCK:    3.60 KCAL/MOL
REMARK 927      BINDING AFFINITY PREDICTED BY RF-SCORE:    0.00 PKD
ROOT
HETATM    1  O   UNL     1      -8.363  14.948  68.589  1.00  0.00    -0.149 OA 
HETATM    2  H   UNL     1      -8.673  15.825  68.394  1.00  0.00     0.000 HD 
HETATM    3  C   UNL     1      -8.134  14.768  69.980  1.00  0.00     0.491 C  
ENDROOT
BRANCH   3   4
HETATM    4  C   UNL     1      -7.634  13.351  70.295  1.00  0.00     2.150 C  
HETATM    5  O   UNL     1      -8.242  12.379  69.428  1.00  0.00     0.581 OA 
HETATM    6  C   UNL     1      -7.690  12.266  68.107  1.00  0.00    -0.138 C  
HETATM    7  C   UNL     1      -6.168  11.981  68.151  1.00  0.00    -0.053 C  
HETATM    8  H   UNL     1      -4.838  14.896  68.815  1.00  0.00     0.000 HD 
HETATM    9  H   UNL     1      -4.878  11.961  71.290  1.00  0.00     0.000 HD 
HETATM   10  O   UNL     1      -5.868  10.676  68.670  1.00  0.00    -0.041 OA 
HETATM   11  C   UNL     1      -5.431  13.025  69.008  1.00  0.00    -0.069 C  
HETATM   12  H   UNL     1      -4.935  10.501  68.697  1.00  0.00     0.000 HD 
HETATM   13  C   UNL     1      -6.098  13.193  70.388  1.00  0.00    -0.049 C  
HETATM   14  O   UNL     1      -5.821  12.058  71.233  1.00  0.00    -0.357 OA 
HETATM   15  O   UNL     1      -5.292  14.252  68.286  1.00  0.00    -0.099 OA 
BRANCH   6  16
HETATM   16  O   UNL     1      -7.923  13.452  67.343  1.00  0.00    -0.167 OA 
BRANCH  16  17
HETATM   17  C   UNL     1      -9.113  13.613  66.696  1.00  0.00    -0.174 A  
HETATM   18  O   UNL     1      -9.596  11.280  66.273  1.00  0.00    -0.197 OA 
HETATM   19  C   UNL     1     -11.086  12.906  65.472  1.00  0.00    -0.306 A  
HETATM   20  H   UNL     1     -10.148  10.591  65.922  1.00  0.00     0.000 HD 
HETATM   21  C   UNL     1     -11.409  14.242  65.249  1.00  0.00    -0.336 A  
HETATM   22  C   UNL     1      -9.925  12.601  66.180  1.00  0.00    -0.261 A  
HETATM   23  O   UNL     1     -12.556  14.516  64.477  1.00  0.00    -0.644 OA 
HETATM   24  C   UNL     1     -12.923  15.819  64.171  1.00  0.00     1.408 C  
HETATM   25  O   UNL     1     -13.896  16.084  63.475  1.00  0.00     1.742 OA 
HETATM   26  C   UNL     1     -12.084  16.898  64.726  1.00  0.00     2.284 C  
HETATM   27  C   UNL     1     -10.999  16.649  65.470  1.00  0.00    -0.063 C  
HETATM   28  C   UNL     1     -10.615  15.276  65.740  1.00  0.00    -0.359 A  
HETATM   29  C   UNL     1      -9.464  14.951  66.465  1.00  0.00    -0.307 A  
ENDBRANCH  16  17
ENDBRANCH   6  16
ENDBRANCH   3   4
TORSDOF 3
ENDMDL
MODEL      221
REMARK 921   NORMALIZED FREE ENERGY PREDICTED BY IDOCK:    9.35 KCAL/MOL
REMARK 922        TOTAL FREE ENERGY PREDICTED BY IDOCK:   10.03 KCAL/MOL
REMARK 923 INTER-LIGAND FREE ENERGY PREDICTED BY IDOCK:   -3.13 KCAL/MOL
REMARK 924 INTRA-LIGAND FREE ENERGY PREDICTED BY IDOCK:   13.16 KCAL/MOL
REMARK 927      BINDING AFFINITY PREDICTED BY RF-SCORE:    0.00 PKD
ROOT
HETATM    1  O   UNL     1     -10.216  12.921  64.553  1.00  0.00    -0.448 OA 
HETATM    2  H   UNL     1     -10.704  12.607  63.801  1.00  0.00     0.000 HD 
HETATM    3  C   UNL     1     -11.078  13.340  65.603  1.00  0.00    -0.282 C  
ENDROOT
BRANCH   3   4
HETATM    4  C   UNL     1     -10.289  13.848  66.819  1.00  0.00    -0.272 C  
HETATM    5  O   UNL     1     -10.932  13.476  68.049  1.00  0.00    -0.239 OA 
HETATM    6  C   UNL     1     -10.727  12.126  68.495  1.00  0.00    -0.232 C  
HETATM    7  C   UNL     1      -9.219  11.795  68.624  1.00  0.00    -0.083 C  
HETATM    8  H   UNL     1      -8.258  11.271  65.541  1.00  0.00     0.000 HD 
HETATM    9  H   UNL     1      -7.181  14.315  67.618  1.00  0.00     0.000 HD 
HETATM   10  O   UNL     1      -8.587  12.520  69.691  1.00  0.00     0.757 OA 
HETATM   11  C   UNL     1      -8.468  12.102  67.317  1.00  0.00    -0.178 C  
HETATM   12  H   UNL     1      -7.662  12.317  69.770  1.00  0.00     0.000 HD 
HETATM   13  C   UNL     1      -8.777  13.524  66.811  1.00  0.00    -0.083 C  
HETATM   14  O   UNL     1      -8.110  14.513  67.623  1.00  0.00    -0.151 OA 
HETATM   15  O   UNL     1      -8.722  11.082  66.348  1.00  0.00    -0.161 OA 
BRANCH   6  16
HETATM   16  O   UNL     1     -11.339  11.186  67.608  1.00  0.00    -0.319 OA 
BRANCH  16  17
HETATM   17  C   UNL     1     -10.639  10.088  67.204  1.00  0.00    -0.232 A  
HETATM   18  O   UNL     1     -11.566   8.492  68.769  1.00  0.00     0.194 OA 
HETATM   19  C   UNL     1      -9.898   7.778  67.280  1.00  0.00    -0.249 A  
HETATM   20  H   UNL     1     -11.627   7.615  69.131  1.00  0.00     0.000 HD 
HETATM   21  C   UNL     1      -8.945   8.066  66.307  1.00  0.00    -0.171 A  
HETATM   22  C   UNL     1     -10.728   8.800  67.737  1.00  0.00    -0.125 A  
HETATM   23  O   UNL     1      -8.080   7.025  65.913  1.00  0.00    -0.106 OA 
HETATM   24  C   UNL     1      -7.075   7.241  64.981  1.00  0.00    -0.064 C  
HETATM   25  O   UNL     1      -6.289   6.363  64.644  1.00  0.00    -0.030 OA 
HETATM   26  C   UNL     1      -6.982   8.592  64.396  1.00  0.00    -0.081 C  
HETATM   27  C   UNL     1      -7.804   9.585  64.757  1.00  0.00    -0.120 C  
HETATM   28  C   UNL     1      -8.822   9.342  65.764  1.00  0.00    -0.204 A  
HETATM   29  C   UNL     1      -9.676  10.351  66.220  1.00  0.00    -0.256 A  
ENDBRANCH  16  17
ENDBRANCH   6  16
ENDBRANCH   3   4
TORSDOF 3
ENDMDL
MODEL      222
REMARK 921   NORMALIZED FREE ENERGY PREDICTED BY IDOCK:   12.32 KCAL/MOL
REMARK 922        TOTAL FREE ENERGY PREDICTED BY IDOCK:   13.53 KCAL/MOL
REMARK 923 INTER-LIGAND FREE ENERGY PREDICTED BY IDOCK:   13.65 KCAL/MOL
REMARK 924 INTRA-LIGAND FREE ENERGY PREDICTED BY IDOCK:   -0.12 KCAL/MOL
REMARK 927      BINDING AFFINITY PREDICTED BY RF-SCORE:    0.00 PKD
ROOT
HETATM    1  O   UNL     1     -13.616  16.405  70.122  1.00  0.00     0.825 OA 
HETATM    2  H   UNL     1     -13.470  17.164  69.570  1.00  0.00     0.000 HD 
HETATM    3  C   UNL     1     -12.453  15.593  70.219  1.00  0.00    -0.334 C  
ENDROOT
BRANCH   3   4
HETATM    4  C   UNL     1     -12.689  14.366  71.112  1.00  0.00    -0.352 C  
HETATM    5  O   UNL     1     -13.033  13.211  70.330  1.00  0.00     0.110 OA 
HETATM    6  C   UNL     1     -11.944  12.523  69.693  1.00  0.00    -0.272 C  
HETATM    7  C   UNL     1     -10.862  12.101  70.719  1.00  0.00     2.941 C  
HETATM    8  H   UNL     1      -9.208  14.863  71.302  1.00  0.00     0.000 HD 
HETATM    9  H   UNL     1     -11.494  13.168  73.878  1.00  0.00     0.000 HD 
HETATM   10  O   UNL     1     -11.325  11.080  71.617  1.00  0.00     0.760 OA 
HETATM   11  C   UNL     1     -10.389  13.304  71.553  1.00  0.00     7.745 C  
HETATM   12  H   UNL     1     -10.662  10.822  72.246  1.00  0.00     0.000 HD 
HETATM   13  C   UNL     1     -11.580  14.079  72.151  1.00  0.00     1.371 C  
HETATM   14  O   UNL     1     -12.175  13.344  73.240  1.00  0.00     0.864 OA 
HETATM   15  O   UNL     1      -9.500  14.121  70.787  1.00  0.00     2.656 OA 
BRANCH   6  16
HETATM   16  O   UNL     1     -11.340  13.330  68.679  1.00  0.00    -0.250 OA 
BRANCH  16  17
HETATM   17  C   UNL     1     -10.669  12.732  67.654  1.00  0.00    -0.219 A  
HETATM   18  O   UNL     1     -10.357  14.684  66.259  1.00  0.00    -0.278 OA 
HETATM   19  C   UNL     1      -9.584  12.607  65.486  1.00  0.00    -0.026 A  
HETATM   20  H   UNL     1     -10.033  15.105  65.471  1.00  0.00     0.000 HD 
HETATM   21  C   UNL     1      -9.492  11.225  65.627  1.00  0.00    -0.229 A  
HETATM   22  C   UNL     1     -10.192  13.351  66.497  1.00  0.00    -0.282 A  
HETATM   23  O   UNL     1      -8.929  10.497  64.560  1.00  0.00    -0.189 OA 
HETATM   24  C   UNL     1      -8.841   9.112  64.602  1.00  0.00    -0.142 C  
HETATM   25  O   UNL     1      -8.386   8.453  63.676  1.00  0.00    -0.139 OA 
HETATM   26  C   UNL     1      -9.324   8.448  65.827  1.00  0.00    -0.141 C  
HETATM   27  C   UNL     1      -9.852   9.131  66.851  1.00  0.00    -0.280 C  
HETATM   28  C   UNL     1      -9.969  10.575  66.763  1.00  0.00    -0.252 A  
HETATM   29  C   UNL     1     -10.557  11.339  67.775  1.00  0.00    -0.239 A  
ENDBRANCH  16  17
ENDBRANCH   6  16
ENDBRANCH   3   4
TORSDOF 3
ENDMDL
MODEL      223
REMARK 921   NORMALIZED FREE ENERGY PREDICTED BY IDOCK:   17.98 KCAL/MOL
REMARK 922        TOTAL FREE ENERGY PREDICTED BY IDOCK:   20.17 KCAL/MOL
REMARK 923 INTER-LIGAND FREE ENERGY PREDICTED BY IDOCK:   -2.93 KCAL/MOL
REMARK 924 INTRA-LIGAND FREE ENERGY PREDICTED BY IDOCK:   23.10 KCAL/MOL
REMARK 927      BINDING AFFINITY PREDICTED BY RF-SCORE:    0.00 PKD
ROOT
HETATM    1  O   UNL     1      -8.911   7.897  67.679  1.00  0.00    -0.131 OA 
HETATM    2  H   UNL     1      -9.245   8.362  68.436  1.00  0.00     0.000 HD 
HETATM    3  C   UNL     1      -9.861   6.969  67.170  1.00  0.00    -0.173 C  
ENDROOT
BRANCH   3   4
HETATM    4  C   UNL     1      -9.322   6.216  65.946  1.00  0.00     0.001 C  
HETATM    5  O   UNL     1      -7.901   6.021  66.038  1.00  0.00    -0.100 OA 
HETATM    6  C   UNL     1      -7.457   4.945  66.880  1.00  0.00    -0.087 C  
HETATM    7  C   UNL     1      -8.099   3.597  66.463  1.00  0.00    -0.096 C  
HETATM    8  H   UNL     1     -11.126   3.750  67.696  1.00  0.00     0.000 HD 
HETATM    9  H   UNL     1     -10.348   3.885  63.939  1.00  0.00     0.000 HD 
HETATM   10  O   UNL     1      -7.631   3.137  65.186  1.00  0.00    -0.078 OA 
HETATM   11  C   UNL     1      -9.633   3.705  66.409  1.00  0.00    -0.133 C  
HETATM   12  H   UNL     1      -8.025   2.312  64.930  1.00  0.00     0.000 HD 
HETATM   13  C   UNL     1     -10.082   4.921  65.575  1.00  0.00    -0.069 C  
HETATM   14  O   UNL     1      -9.881   4.680  64.167  1.00  0.00     0.035 OA 
HETATM   15  O   UNL     1     -10.179   3.684  67.730  1.00  0.00     0.313 OA 
BRANCH   6  16
HETATM   16  O   UNL     1      -7.756   5.202  68.254  1.00  0.00    -0.082 OA 
BRANCH  16  17
HETATM   17  C   UNL     1      -8.349   6.378  68.605  1.00  0.00    -0.121 A  
HETATM   18  O   UNL     1      -6.562   7.874  67.954  1.00  0.00    -0.053 OA 
HETATM   19  C   UNL     1      -8.490   8.778  68.942  1.00  0.00    -0.131 A  
HETATM   20  H   UNL     1      -6.192   8.745  67.864  1.00  0.00     0.000 HD 
HETATM   21  C   UNL     1      -9.713   8.602  69.583  1.00  0.00    -0.179 A  
HETATM   22  C   UNL     1      -7.805   7.658  68.473  1.00  0.00    -0.121 A  
HETATM   23  O   UNL     1     -10.348   9.749  70.101  1.00  0.00    -0.247 OA 
HETATM   24  C   UNL     1     -11.548   9.655  70.792  1.00  0.00    -0.321 C  
HETATM   25  O   UNL     1     -12.106  10.631  71.280  1.00  0.00    -0.345 OA 
HETATM   26  C   UNL     1     -12.143   8.311  70.922  1.00  0.00    -0.149 C  
HETATM   27  C   UNL     1     -11.552   7.217  70.426  1.00  0.00    -0.300 C  
HETATM   28  C   UNL     1     -10.277   7.339  69.742  1.00  0.00    -0.214 A  
HETATM   29  C   UNL     1      -9.586   6.229  69.248  1.00  0.00    -0.147 A  
ENDBRANCH  16  17
ENDBRANCH   6  16
ENDBRANCH   3   4
TORSDOF 3
ENDMDL
MODEL      224
REMARK 921   NORMALIZED FREE ENERGY PREDICTED BY IDOCK:   25.23 KCAL/MOL
REMARK 922        TOTAL FREE ENERGY PREDICTED BY IDOCK:   28.70 KCAL/MOL
REMARK 923 INTER-LIGAND FREE ENERGY PREDICTED BY IDOCK:   29.25 KCAL/MOL
REMARK 924 INTRA-LIGAND FREE ENERGY PREDICTED BY IDOCK:   -0.55 KCAL/MOL
REMARK 927      BINDING AFFINITY PREDICTED BY RF-SCORE:    0.00 PKD
ROOT
HETATM    1  O   UNL     1      -9.155  17.174  72.404  1.00  0.00    11.513 OA 
HETATM    2  H   UNL     1     -10.011  17.395  72.752  1.00  0.00     0.000 HD 
HETATM    3  C   UNL     1      -8.889  17.857  71.187  1.00  0.00     7.747 C  
ENDROOT
BRANCH   3   4
HETATM    4  C   UNL     1      -7.505  17.500  70.625  1.00  0.00     3.619 C  
HETATM    5  O   UNL     1      -7.615  16.662  69.463  1.00  0.00    -0.124 OA 
HETATM    6  C   UNL     1      -7.934  17.320  68.227  1.00  0.00    -0.244 C  
HETATM    7  C   UNL     1      -6.920  18.449  67.909  1.00  0.00    -0.215 C  
HETATM    8  H   UNL     1      -7.851  20.916  69.844  1.00  0.00     0.000 HD 
HETATM    9  H   UNL     1      -4.606  18.927  70.345  1.00  0.00     0.000 HD 
HETATM   10  O   UNL     1      -5.611  17.941  67.603  1.00  0.00    -0.137 OA 
HETATM   11  C   UNL     1      -6.797  19.434  69.084  1.00  0.00    -0.339 C  
HETATM   12  H   UNL     1      -4.990  18.633  67.408  1.00  0.00     0.000 HD 
HETATM   13  C   UNL     1      -6.546  18.695  70.413  1.00  0.00     0.571 C  
HETATM   14  O   UNL     1      -5.195  18.193  70.474  1.00  0.00    -0.227 OA 
HETATM   15  O   UNL     1      -7.927  20.308  69.119  1.00  0.00     0.191 OA 
BRANCH   6  16
HETATM   16  O   UNL     1      -9.253  17.870  68.255  1.00  0.00    -0.267 OA 
BRANCH  16  17
HETATM   17  C   UNL     1     -10.242  17.283  67.521  1.00  0.00    -0.328 A  
HETATM   18  O   UNL     1     -12.142  18.271  68.648  1.00  0.00     2.331 OA 
HETATM   19  C   UNL     1     -12.528  16.737  66.914  1.00  0.00     3.747 A  
HETATM   20  H   UNL     1     -13.078  18.389  68.761  1.00  0.00     0.000 HD 
HETATM   21  C   UNL     1     -12.047  15.807  65.996  1.00  0.00     1.121 A  
HETATM   22  C   UNL     1     -11.617  17.457  67.687  1.00  0.00     0.934 A  
HETATM   23  O   UNL     1     -12.994  15.052  65.277  1.00  0.00     0.079 OA 
HETATM   24  C   UNL     1     -12.599  14.074  64.375  1.00  0.00    -0.164 C  
HETATM   25  O   UNL     1     -13.401  13.381  63.760  1.00  0.00     0.515 OA 
HETATM   26  C   UNL     1     -11.148  13.894  64.176  1.00  0.00    -0.128 C  
HETATM   27  C   UNL     1     -10.240  14.613  64.848  1.00  0.00    -0.322 C  
HETATM   28  C   UNL     1     -10.682  15.601  65.815  1.00  0.00    -0.350 A  
HETATM   29  C   UNL     1      -9.783  16.346  66.584  1.00  0.00    -0.272 A  
ENDBRANCH  16  17
ENDBRANCH   6  16
ENDBRANCH   3   4
TORSDOF 3
ENDMDL
MODEL      225
REMARK 921   NORMALIZED FREE ENERGY PREDICTED BY IDOCK:   28.50 KCAL/MOL
REMARK 922        TOTAL FREE ENERGY PREDICTED BY IDOCK:   32.54 KCAL/MOL
REMARK 923 INTER-LIGAND FREE ENERGY PREDICTED BY IDOCK:   -3.79 KCAL/MOL
REMARK 924 INTRA-LIGAND FREE ENERGY PREDICTED BY IDOCK:   36.33 KCAL/MOL
REMARK 927      BINDING AFFINITY PREDICTED BY RF-SCORE:    0.00 PKD
ROOT
HETATM    1  O   UNL     1      -7.899  12.741  69.349  1.00  0.00    -0.159 OA 
HETATM    2  H   UNL     1      -8.644  12.162  69.243  1.00  0.00     0.000 HD 
HETATM    3  C   UNL     1      -8.182  14.054  68.882  1.00  0.00     0.022 C  
ENDROOT
BRANCH   3   4
HETATM    4  C   UNL     1      -6.977  14.991  69.053  1.00  0.00    -0.127 C  
HETATM    5  O   UNL     1      -6.388  15.319  67.784  1.00  0.00    -0.139 OA 
HETATM    6  C   UNL     1      -7.053  16.334  67.015  1.00  0.00    -0.224 C  
HETATM    7  C   UNL     1      -7.210  17.646  67.823  1.00  0.00    -0.190 C  
HETATM    8  H   UNL     1      -9.731  17.047  69.820  1.00  0.00     0.000 HD 
HETATM    9  H   UNL     1      -6.104  17.414  71.023  1.00  0.00     0.000 HD 
HETATM   10  O   UNL     1      -5.951  18.292  68.073  1.00  0.00    -0.166 OA 
HETATM   11  C   UNL     1      -7.900  17.388  69.174  1.00  0.00    -0.024 C  
HETATM   12  H   UNL     1      -6.047  19.096  68.569  1.00  0.00     0.000 HD 
HETATM   13  C   UNL     1      -7.224  16.234  69.940  1.00  0.00     0.348 C  
HETATM   14  O   UNL     1      -5.952  16.651  70.478  1.00  0.00    -0.061 OA 
HETATM   15  O   UNL     1      -9.305  17.206  68.987  1.00  0.00    -0.237 OA 
BRANCH   6  16
HETATM   16  O   UNL     1      -8.341  15.895  66.578  1.00  0.00    -0.265 OA 
BRANCH  16  17
HETATM   17  C   UNL     1      -9.154  15.226  67.444  1.00  0.00    -0.192 A  
HETATM   18  O   UNL     1      -9.388  16.963  69.112  1.00  0.00    -0.228 OA 
HETATM   19  C   UNL     1     -10.427  14.892  69.484  1.00  0.00    -0.213 A  
HETATM   20  H   UNL     1      -9.735  17.292  69.933  1.00  0.00     0.000 HD 
HETATM   21  C   UNL     1     -10.643  13.567  69.115  1.00  0.00    -0.024 A  
HETATM   22  C   UNL     1      -9.664  15.709  68.651  1.00  0.00    -0.204 A  
HETATM   23  O   UNL     1     -11.364  12.751  70.010  1.00  0.00    -0.070 OA 
HETATM   24  C   UNL     1     -11.585  11.408  69.738  1.00  0.00    -0.332 C  
HETATM   25  O   UNL     1     -12.181  10.669  70.513  1.00  0.00    -0.300 OA 
HETATM   26  C   UNL     1     -11.069  10.890  68.458  1.00  0.00    -0.311 C  
HETATM   27  C   UNL     1     -10.390  11.658  67.597  1.00  0.00    -0.210 C  
HETATM   28  C   UNL     1     -10.138  13.050  67.925  1.00  0.00    -0.235 A  
HETATM   29  C   UNL     1      -9.392  13.890  67.092  1.00  0.00    -0.244 A  
ENDBRANCH  16  17
ENDBRANCH   6  16
ENDBRANCH   3   4
TORSDOF 3
ENDMDL
