MODEL        1
REMARK 921   NORMALIZED FREE ENERGY PREDICTED BY IDOCK:   -5.23 KCAL/MOL
REMARK 922        TOTAL FREE ENERGY PREDICTED BY IDOCK:   -6.09 KCAL/MOL
REMARK 923 INTER-LIGAND FREE ENERGY PREDICTED BY IDOCK:   -5.84 KCAL/MOL
REMARK 924 INTRA-LIGAND FREE ENERGY PREDICTED BY IDOCK:   -0.25 KCAL/MOL
REMARK 927      BINDING AFFINITY PREDICTED BY RF-SCORE:    0.00 PKD
ROOT
HETATM    1  C   UNL     1      -7.878  14.435  67.364  1.00  0.00    -0.190 C  
HETATM    2  N   UNL     1      -8.887  14.934  66.451  1.00  0.00    -0.460 NA 
HETATM    3  H   UNL     1      -8.722  15.754  65.868  1.00  0.00     0.000 HD 
ENDROOT
BRANCH   2   4
HETATM    4  C   UNL     1     -10.179  14.191  66.406  1.00  0.00    -0.290 C  
HETATM    5  C   UNL     1      -9.969  12.813  65.709  1.00  0.00    -0.259 C  
HETATM    6  O   UNL     1     -10.685  15.972  64.743  1.00  0.00    -0.611 OA 
HETATM    7  C   UNL     1     -11.061  14.957  65.337  1.00  0.00    -0.364 C  
HETATM    8  C   UNL     1     -11.268  12.098  65.302  1.00  0.00    -0.381 C  
HETATM    9  C   UNL     1     -12.387  14.323  64.982  1.00  0.00    -0.434 C  
HETATM   10  C   UNL     1     -12.129  12.953  64.379  1.00  0.00    -0.474 C  
BRANCH   4  11
HETATM   11  C   UNL     1     -10.854  14.276  67.798  1.00  0.00    -0.259 A  
HETATM   12  C   UNL     1     -11.896  12.953  69.618  1.00  0.00    -0.387 A  
HETATM   13  C   UNL     1     -11.813  15.340  69.789  1.00  0.00    -0.357 A  
HETATM   14  C   UNL     1     -11.250  13.040  68.381  1.00  0.00    -0.304 A  
HETATM   15  C   UNL     1     -12.161  14.110  70.336  1.00  0.00    -0.427 A  
HETATM   16  C   UNL     1     -11.198  15.433  68.526  1.00  0.00    -0.318 A  
HETATM   17 CL   UNL     1     -11.018  17.057  67.966  1.00  0.00    -0.324 Cl 
ENDBRANCH   4  11
ENDBRANCH   2   4
TORSDOF 2
ENDMDL
MODEL        2
REMARK 921   NORMALIZED FREE ENERGY PREDICTED BY IDOCK:   -5.18 KCAL/MOL
REMARK 922        TOTAL FREE ENERGY PREDICTED BY IDOCK:   -6.04 KCAL/MOL
REMARK 923 INTER-LIGAND FREE ENERGY PREDICTED BY IDOCK:   -5.74 KCAL/MOL
REMARK 924 INTRA-LIGAND FREE ENERGY PREDICTED BY IDOCK:   -0.30 KCAL/MOL
REMARK 927      BINDING AFFINITY PREDICTED BY RF-SCORE:    0.00 PKD
ROOT
HETATM    1  C   UNL     1      -7.949  14.181  67.352  1.00  0.00    -0.184 C  
HETATM    2  N   UNL     1      -8.872  14.777  66.407  1.00  0.00    -0.470 NA 
HETATM    3  H   UNL     1      -8.649  15.641  65.914  1.00  0.00     0.000 HD 
ENDROOT
BRANCH   2   4
HETATM    4  C   UNL     1     -10.163  14.064  66.190  1.00  0.00    -0.302 C  
HETATM    5  C   UNL     1      -9.920  12.780  65.342  1.00  0.00    -0.215 C  
HETATM    6  O   UNL     1     -10.549  16.043  64.730  1.00  0.00    -0.600 OA 
HETATM    7  C   UNL     1     -10.970  14.970  65.170  1.00  0.00    -0.406 C  
HETATM    8  C   UNL     1     -11.195  12.139  64.770  1.00  0.00    -0.373 C  
HETATM    9  C   UNL     1     -12.275  14.404  64.657  1.00  0.00    -0.479 C  
HETATM   10  C   UNL     1     -11.989  13.114  63.907  1.00  0.00    -0.550 C  
BRANCH   4  11
HETATM   11  C   UNL     1     -10.926  13.989  67.536  1.00  0.00    -0.288 A  
HETATM   12  C   UNL     1     -12.153  15.314  69.236  1.00  0.00    -0.280 A  
HETATM   13  C   UNL     1     -11.818  12.968  69.580  1.00  0.00    -0.385 A  
HETATM   14  C   UNL     1     -11.463  15.213  68.024  1.00  0.00    -0.355 A  
HETATM   15  C   UNL     1     -12.350  14.180  70.009  1.00  0.00    -0.403 A  
HETATM   16  C   UNL     1     -11.090  12.872  68.379  1.00  0.00    -0.262 A  
HETATM   17 CL   UNL     1     -10.373  11.319  68.133  1.00  0.00    -0.194 Cl 
ENDBRANCH   4  11
ENDBRANCH   2   4
TORSDOF 2
ENDMDL
MODEL        3
REMARK 921   NORMALIZED FREE ENERGY PREDICTED BY IDOCK:   -5.18 KCAL/MOL
REMARK 922        TOTAL FREE ENERGY PREDICTED BY IDOCK:   -6.04 KCAL/MOL
REMARK 923 INTER-LIGAND FREE ENERGY PREDICTED BY IDOCK:   -5.77 KCAL/MOL
REMARK 924 INTRA-LIGAND FREE ENERGY PREDICTED BY IDOCK:   -0.27 KCAL/MOL
REMARK 927      BINDING AFFINITY PREDICTED BY RF-SCORE:    0.00 PKD
ROOT
HETATM    1  C   UNL     1      -8.139  13.546  68.443  1.00  0.00    -0.145 C  
HETATM    2  N   UNL     1      -9.333  14.187  68.957  1.00  0.00    -0.397 NA 
HETATM    3  H   UNL     1      -9.282  14.972  69.606  1.00  0.00     0.000 HD 
ENDROOT
BRANCH   2   4
HETATM    4  C   UNL     1     -10.640  13.644  68.490  1.00  0.00    -0.250 C  
HETATM    5  C   UNL     1     -10.420  12.265  67.798  1.00  0.00    -0.225 C  
HETATM    6  O   UNL     1     -10.383  15.514  66.867  1.00  0.00    -0.277 OA 
HETATM    7  C   UNL     1     -11.052  14.554  67.260  1.00  0.00    -0.312 C  
HETATM    8  C   UNL     1     -11.622  11.757  66.985  1.00  0.00    -0.321 C  
HETATM    9  C   UNL     1     -12.285  14.129  66.494  1.00  0.00    -0.463 C  
HETATM   10  C   UNL     1     -12.046  12.749  65.907  1.00  0.00    -0.485 C  
BRANCH   4  11
HETATM   11  C   UNL     1     -11.682  13.799  69.625  1.00  0.00    -0.379 A  
HETATM   12  C   UNL     1     -13.032  15.432  70.914  1.00  0.00    -0.539 A  
HETATM   13  C   UNL     1     -13.148  13.105  71.466  1.00  0.00    -0.404 A  
HETATM   14  C   UNL     1     -12.117  15.126  69.902  1.00  0.00    -0.373 A  
HETATM   15  C   UNL     1     -13.566  14.413  71.687  1.00  0.00    -0.463 A  
HETATM   16  C   UNL     1     -12.197  12.799  70.473  1.00  0.00    -0.307 A  
HETATM   17 CL   UNL     1     -11.693  11.146  70.491  1.00  0.00    -0.428 Cl 
ENDBRANCH   4  11
ENDBRANCH   2   4
TORSDOF 2
ENDMDL
MODEL        4
REMARK 921   NORMALIZED FREE ENERGY PREDICTED BY IDOCK:   -5.14 KCAL/MOL
REMARK 922        TOTAL FREE ENERGY PREDICTED BY IDOCK:   -5.99 KCAL/MOL
REMARK 923 INTER-LIGAND FREE ENERGY PREDICTED BY IDOCK:   -5.67 KCAL/MOL
REMARK 924 INTRA-LIGAND FREE ENERGY PREDICTED BY IDOCK:   -0.32 KCAL/MOL
REMARK 927      BINDING AFFINITY PREDICTED BY RF-SCORE:    0.00 PKD
ROOT
HETATM    1  C   UNL     1     -12.503  14.208  65.543  1.00  0.00    -0.476 C  
HETATM    2  N   UNL     1     -12.660  13.864  66.942  1.00  0.00    -0.438 NA 
HETATM    3  H   UNL     1     -13.581  13.754  67.366  1.00  0.00     0.000 HD 
ENDROOT
BRANCH   2   4
HETATM    4  C   UNL     1     -11.410  13.680  67.732  1.00  0.00    -0.306 C  
HETATM    5  C   UNL     1     -10.176  14.063  66.862  1.00  0.00    -0.260 C  
HETATM    6  O   UNL     1     -12.031  11.291  67.406  1.00  0.00    -0.581 OA 
HETATM    7  C   UNL     1     -11.230  12.111  67.864  1.00  0.00    -0.272 C  
HETATM    8  C   UNL     1      -8.823  13.608  67.433  1.00  0.00    -0.221 C  
HETATM    9  C   UNL     1      -9.946  11.634  68.505  1.00  0.00    -0.198 C  
HETATM   10  C   UNL     1      -8.774  12.100  67.659  1.00  0.00    -0.172 C  
BRANCH   4  11
HETATM   11  C   UNL     1     -11.608  14.301  69.137  1.00  0.00    -0.346 A  
HETATM   12  C   UNL     1     -12.533  13.908  71.404  1.00  0.00    -0.424 A  
HETATM   13  C   UNL     1     -11.539  16.023  70.883  1.00  0.00    -0.453 A  
HETATM   14  C   UNL     1     -12.257  13.481  70.102  1.00  0.00    -0.400 A  
HETATM   15  C   UNL     1     -12.154  15.180  71.804  1.00  0.00    -0.437 A  
HETATM   16  C   UNL     1     -11.296  15.609  69.559  1.00  0.00    -0.327 A  
HETATM   17 CL   UNL     1     -10.690  16.870  68.545  1.00  0.00    -0.357 Cl 
ENDBRANCH   4  11
ENDBRANCH   2   4
TORSDOF 2
ENDMDL
MODEL        5
REMARK 921   NORMALIZED FREE ENERGY PREDICTED BY IDOCK:   -5.10 KCAL/MOL
REMARK 922        TOTAL FREE ENERGY PREDICTED BY IDOCK:   -5.95 KCAL/MOL
REMARK 923 INTER-LIGAND FREE ENERGY PREDICTED BY IDOCK:   -5.77 KCAL/MOL
REMARK 924 INTRA-LIGAND FREE ENERGY PREDICTED BY IDOCK:   -0.19 KCAL/MOL
REMARK 927      BINDING AFFINITY PREDICTED BY RF-SCORE:    0.00 PKD
ROOT
HETATM    1  C   UNL     1     -12.306  14.028  66.210  1.00  0.00    -0.448 C  
HETATM    2  N   UNL     1     -11.942  13.515  67.516  1.00  0.00    -0.362 NA 
HETATM    3  H   UNL     1     -12.016  12.523  67.740  1.00  0.00     0.000 HD 
ENDROOT
BRANCH   2   4
HETATM    4  C   UNL     1     -11.453  14.507  68.515  1.00  0.00    -0.301 C  
HETATM    5  C   UNL     1     -11.404  15.924  67.869  1.00  0.00    -0.252 C  
HETATM    6  O   UNL     1      -9.332  13.265  68.115  1.00  0.00    -0.211 OA 
HETATM    7  C   UNL     1      -9.912  14.187  68.696  1.00  0.00    -0.222 C  
HETATM    8  C   UNL     1     -10.613  16.968  68.674  1.00  0.00    -0.362 C  
HETATM    9  C   UNL     1      -9.123  15.149  69.558  1.00  0.00    -0.131 C  
HETATM   10  C   UNL     1      -9.174  16.529  68.925  1.00  0.00    -0.258 C  
BRANCH   4  11
HETATM   11  C   UNL     1     -12.194  14.275  69.855  1.00  0.00    -0.407 A  
HETATM   12  C   UNL     1     -13.368  15.396  71.731  1.00  0.00    -0.567 A  
HETATM   13  C   UNL     1     -13.069  13.021  71.773  1.00  0.00    -0.469 A  
HETATM   14  C   UNL     1     -12.701  15.437  70.502  1.00  0.00    -0.455 A  
HETATM   15  C   UNL     1     -13.571  14.178  72.360  1.00  0.00    -0.632 A  
HETATM   16  C   UNL     1     -12.362  13.064  70.556  1.00  0.00    -0.287 A  
HETATM   17 CL   UNL     1     -11.678  11.544  70.103  1.00  0.00    -0.406 Cl 
ENDBRANCH   4  11
ENDBRANCH   2   4
TORSDOF 2
ENDMDL
MODEL        6
REMARK 921   NORMALIZED FREE ENERGY PREDICTED BY IDOCK:   -5.04 KCAL/MOL
REMARK 922        TOTAL FREE ENERGY PREDICTED BY IDOCK:   -5.89 KCAL/MOL
REMARK 923 INTER-LIGAND FREE ENERGY PREDICTED BY IDOCK:   -5.68 KCAL/MOL
REMARK 924 INTRA-LIGAND FREE ENERGY PREDICTED BY IDOCK:   -0.21 KCAL/MOL
REMARK 927      BINDING AFFINITY PREDICTED BY RF-SCORE:    0.00 PKD
ROOT
HETATM    1  C   UNL     1     -12.510  12.699  64.691  1.00  0.00    -0.466 C  
HETATM    2  N   UNL     1     -12.116  12.239  66.008  1.00  0.00    -0.630 NA 
HETATM    3  H   UNL     1     -12.354  11.306  66.342  1.00  0.00     0.000 HD 
ENDROOT
BRANCH   2   4
HETATM    4  C   UNL     1     -11.344  13.197  66.850  1.00  0.00    -0.318 C  
HETATM    5  C   UNL     1     -11.362  14.609  66.192  1.00  0.00    -0.350 C  
HETATM    6  O   UNL     1      -9.459  11.825  65.978  1.00  0.00    -0.225 OA 
HETATM    7  C   UNL     1      -9.826  12.781  66.667  1.00  0.00    -0.250 C  
HETATM    8  C   UNL     1     -10.340  15.600  66.774  1.00  0.00    -0.287 C  
HETATM    9  C   UNL     1      -8.799  13.689  67.305  1.00  0.00    -0.227 C  
HETATM   10  C   UNL     1      -8.913  15.070  66.684  1.00  0.00    -0.313 C  
BRANCH   4  11
HETATM   11  C   UNL     1     -11.760  13.010  68.330  1.00  0.00    -0.386 A  
HETATM   12  C   UNL     1     -12.521  14.189  70.376  1.00  0.00    -0.424 A  
HETATM   13  C   UNL     1     -12.146  11.825  70.443  1.00  0.00    -0.440 A  
HETATM   14  C   UNL     1     -12.146  14.189  69.028  1.00  0.00    -0.348 A  
HETATM   15  C   UNL     1     -12.541  12.996  71.082  1.00  0.00    -0.388 A  
HETATM   16  C   UNL     1     -11.731  11.829  69.097  1.00  0.00    -0.325 A  
HETATM   17 CL   UNL     1     -11.118  10.304  68.563  1.00  0.00    -0.300 Cl 
ENDBRANCH   4  11
ENDBRANCH   2   4
TORSDOF 2
ENDMDL
MODEL        7
REMARK 921   NORMALIZED FREE ENERGY PREDICTED BY IDOCK:   -5.04 KCAL/MOL
REMARK 922        TOTAL FREE ENERGY PREDICTED BY IDOCK:   -5.88 KCAL/MOL
REMARK 923 INTER-LIGAND FREE ENERGY PREDICTED BY IDOCK:   -5.64 KCAL/MOL
REMARK 924 INTRA-LIGAND FREE ENERGY PREDICTED BY IDOCK:   -0.24 KCAL/MOL
REMARK 927      BINDING AFFINITY PREDICTED BY RF-SCORE:    0.00 PKD
ROOT
HETATM    1  C   UNL     1      -8.248  14.219  68.673  1.00  0.00    -0.139 C  
HETATM    2  N   UNL     1      -9.604  14.382  69.158  1.00  0.00    -0.403 NA 
HETATM    3  H   UNL     1      -9.849  15.113  69.825  1.00  0.00     0.000 HD 
ENDROOT
BRANCH   2   4
HETATM    4  C   UNL     1     -10.624  13.430  68.633  1.00  0.00    -0.241 C  
HETATM    5  C   UNL     1      -9.936  12.375  67.715  1.00  0.00    -0.205 C  
HETATM    6  O   UNL     1     -11.271  15.458  67.343  1.00  0.00    -0.328 OA 
HETATM    7  C   UNL     1     -11.468  14.263  67.583  1.00  0.00    -0.346 C  
HETATM    8  C   UNL     1     -10.904  11.548  66.854  1.00  0.00    -0.331 C  
HETATM    9  C   UNL     1     -12.493  13.492  66.782  1.00  0.00    -0.213 C  
HETATM   10  C   UNL     1     -11.778  12.428  65.967  1.00  0.00    -0.469 C  
BRANCH   4  11
HETATM   11  C   UNL     1     -11.539  12.983  69.800  1.00  0.00    -0.286 A  
HETATM   12  C   UNL     1     -12.481  11.019  70.987  1.00  0.00    -0.512 A  
HETATM   13  C   UNL     1     -13.106  13.227  71.671  1.00  0.00    -0.453 A  
HETATM   14  C   UNL     1     -11.670  11.579  69.994  1.00  0.00    -0.414 A  
HETATM   15  C   UNL     1     -13.187  11.849  71.844  1.00  0.00    -0.467 A  
HETATM   16  C   UNL     1     -12.322  13.792  70.648  1.00  0.00    -0.375 A  
HETATM   17 CL   UNL     1     -12.508  15.504  70.505  1.00  0.00    -0.457 Cl 
ENDBRANCH   4  11
ENDBRANCH   2   4
TORSDOF 2
ENDMDL
MODEL        8
REMARK 921   NORMALIZED FREE ENERGY PREDICTED BY IDOCK:   -5.01 KCAL/MOL
REMARK 922        TOTAL FREE ENERGY PREDICTED BY IDOCK:   -5.85 KCAL/MOL
REMARK 923 INTER-LIGAND FREE ENERGY PREDICTED BY IDOCK:   -5.83 KCAL/MOL
REMARK 924 INTRA-LIGAND FREE ENERGY PREDICTED BY IDOCK:   -0.02 KCAL/MOL
REMARK 927      BINDING AFFINITY PREDICTED BY RF-SCORE:    0.00 PKD
ROOT
HETATM    1  C   UNL     1     -11.894  15.287  68.762  1.00  0.00    -0.307 C  
HETATM    2  N   UNL     1     -12.249  14.078  68.046  1.00  0.00    -0.528 NA 
HETATM    3  H   UNL     1     -12.933  13.418  68.416  1.00  0.00     0.000 HD 
ENDROOT
BRANCH   2   4
HETATM    4  C   UNL     1     -11.567  13.845  66.741  1.00  0.00    -0.378 C  
HETATM    5  C   UNL     1     -12.539  14.181  65.571  1.00  0.00    -0.501 C  
HETATM    6  O   UNL     1     -11.834  11.482  67.479  1.00  0.00    -0.605 OA 
HETATM    7  C   UNL     1     -11.447  12.270  66.612  1.00  0.00    -0.373 C  
HETATM    8  C   UNL     1     -12.083  13.673  64.193  1.00  0.00    -0.484 C  
HETATM    9  C   UNL     1     -10.916  11.743  65.297  1.00  0.00    -0.350 C  
HETATM   10  C   UNL     1     -11.858  12.165  64.183  1.00  0.00    -0.490 C  
BRANCH   4  11
HETATM   11  C   UNL     1     -10.152  14.472  66.796  1.00  0.00    -0.264 A  
HETATM   12  C   UNL     1      -7.856  14.195  67.692  1.00  0.00    -0.190 A  
HETATM   13  C   UNL     1      -8.398  16.144  66.412  1.00  0.00    -0.357 A  
HETATM   14  C   UNL     1      -9.170  13.746  67.528  1.00  0.00    -0.216 A  
HETATM   15  C   UNL     1      -7.462  15.391  67.113  1.00  0.00    -0.224 A  
HETATM   16  C   UNL     1      -9.732  15.713  66.278  1.00  0.00    -0.301 A  
HETATM   17 CL   UNL     1     -10.759  16.881  65.525  1.00  0.00    -0.260 Cl 
ENDBRANCH   4  11
ENDBRANCH   2   4
TORSDOF 2
ENDMDL
MODEL        9
REMARK 921   NORMALIZED FREE ENERGY PREDICTED BY IDOCK:   -5.01 KCAL/MOL
REMARK 922        TOTAL FREE ENERGY PREDICTED BY IDOCK:   -5.85 KCAL/MOL
REMARK 923 INTER-LIGAND FREE ENERGY PREDICTED BY IDOCK:   -5.74 KCAL/MOL
REMARK 924 INTRA-LIGAND FREE ENERGY PREDICTED BY IDOCK:   -0.11 KCAL/MOL
REMARK 927      BINDING AFFINITY PREDICTED BY RF-SCORE:    0.00 PKD
ROOT
HETATM    1  C   UNL     1      -8.174  14.485  67.074  1.00  0.00    -0.135 C  
HETATM    2  N   UNL     1      -9.063  14.912  66.013  1.00  0.00    -0.500 NA 
HETATM    3  H   UNL     1      -8.878  15.753  65.467  1.00  0.00     0.000 HD 
ENDROOT
BRANCH   2   4
HETATM    4  C   UNL     1     -10.261  14.063  65.758  1.00  0.00    -0.328 C  
HETATM    5  C   UNL     1      -9.913  12.962  64.713  1.00  0.00    -0.151 C  
HETATM    6  O   UNL     1     -11.012  16.157  64.640  1.00  0.00    -0.642 OA 
HETATM    7  C   UNL     1     -11.253  14.983  64.933  1.00  0.00    -0.416 C  
HETATM    8  C   UNL     1     -11.131  12.236  64.117  1.00  0.00    -0.423 C  
HETATM    9  C   UNL     1     -12.506  14.317  64.409  1.00  0.00    -0.328 C  
HETATM   10  C   UNL     1     -12.108  13.203  63.457  1.00  0.00    -0.585 C  
BRANCH   4  11
HETATM   11  C   UNL     1     -10.907  13.687  67.115  1.00  0.00    -0.292 A  
HETATM   12  C   UNL     1     -11.737  11.806  68.501  1.00  0.00    -0.390 A  
HETATM   13  C   UNL     1     -11.935  14.050  69.313  1.00  0.00    -0.396 A  
HETATM   14  C   UNL     1     -11.138  12.301  67.339  1.00  0.00    -0.333 A  
HETATM   15  C   UNL     1     -12.119  12.684  69.503  1.00  0.00    -0.253 A  
HETATM   16  C   UNL     1     -11.367  14.554  68.127  1.00  0.00    -0.298 A  
HETATM   17 CL   UNL     1     -11.396  16.278  68.029  1.00  0.00    -0.268 Cl 
ENDBRANCH   4  11
ENDBRANCH   2   4
TORSDOF 2
ENDMDL
MODEL       10
REMARK 921   NORMALIZED FREE ENERGY PREDICTED BY IDOCK:   -4.97 KCAL/MOL
REMARK 922        TOTAL FREE ENERGY PREDICTED BY IDOCK:   -5.81 KCAL/MOL
REMARK 923 INTER-LIGAND FREE ENERGY PREDICTED BY IDOCK:   -5.51 KCAL/MOL
REMARK 924 INTRA-LIGAND FREE ENERGY PREDICTED BY IDOCK:   -0.30 KCAL/MOL
REMARK 927      BINDING AFFINITY PREDICTED BY RF-SCORE:    0.00 PKD
ROOT
HETATM    1  C   UNL     1     -11.784  12.350  68.544  1.00  0.00    -0.326 C  
HETATM    2  N   UNL     1     -11.994  12.259  67.113  1.00  0.00    -0.576 NA 
HETATM    3  H   UNL     1     -12.735  11.682  66.717  1.00  0.00     0.000 HD 
ENDROOT
BRANCH   2   4
HETATM    4  C   UNL     1     -11.073  13.050  66.248  1.00  0.00    -0.289 C  
HETATM    5  C   UNL     1     -10.346  14.131  67.103  1.00  0.00    -0.265 C  
HETATM    6  O   UNL     1     -13.251  13.899  65.393  1.00  0.00    -0.750 OA 
HETATM    7  C   UNL     1     -12.019  13.944  65.344  1.00  0.00    -0.381 C  
HETATM    8  C   UNL     1      -9.629  15.218  66.286  1.00  0.00    -0.331 C  
HETATM    9  C   UNL     1     -11.336  14.964  64.461  1.00  0.00    -0.306 C  
HETATM   10  C   UNL     1     -10.579  15.945  65.340  1.00  0.00    -0.439 C  
BRANCH   4  11
HETATM   11  C   UNL     1     -10.266  12.076  65.354  1.00  0.00    -0.295 A  
HETATM   12  C   UNL     1     -10.151  11.022  63.112  1.00  0.00    -0.350 A  
HETATM   13  C   UNL     1      -8.524  10.449  64.773  1.00  0.00    -0.176 A  
HETATM   14  C   UNL     1     -10.752  11.889  64.030  1.00  0.00    -0.428 A  
HETATM   15  C   UNL     1      -9.017  10.313  63.479  1.00  0.00    -0.259 A  
HETATM   16  C   UNL     1      -9.152  11.291  65.711  1.00  0.00    -0.203 A  
HETATM   17 CL   UNL     1      -8.481  11.171  67.299  1.00  0.00    -0.134 Cl 
ENDBRANCH   4  11
ENDBRANCH   2   4
TORSDOF 2
ENDMDL
MODEL       11
REMARK 921   NORMALIZED FREE ENERGY PREDICTED BY IDOCK:   -4.97 KCAL/MOL
REMARK 922        TOTAL FREE ENERGY PREDICTED BY IDOCK:   -5.81 KCAL/MOL
REMARK 923 INTER-LIGAND FREE ENERGY PREDICTED BY IDOCK:   -5.48 KCAL/MOL
REMARK 924 INTRA-LIGAND FREE ENERGY PREDICTED BY IDOCK:   -0.32 KCAL/MOL
REMARK 927      BINDING AFFINITY PREDICTED BY RF-SCORE:    0.00 PKD
ROOT
HETATM    1  C   UNL     1     -10.531  19.328  67.325  1.00  0.00    -0.462 C  
HETATM    2  N   UNL     1     -10.331  18.192  66.447  1.00  0.00    -0.394 NA 
HETATM    3  H   UNL     1     -10.589  18.226  65.461  1.00  0.00     0.000 HD 
ENDROOT
BRANCH   2   4
HETATM    4  C   UNL     1      -9.730  16.971  67.055  1.00  0.00    -0.263 C  
HETATM    5  C   UNL     1      -9.419  17.231  68.559  1.00  0.00    -0.285 C  
HETATM    6  O   UNL     1      -7.828  17.675  65.611  1.00  0.00    -0.533 OA 
HETATM    7  C   UNL     1      -8.272  16.877  66.441  1.00  0.00    -0.307 C  
HETATM    8  C   UNL     1      -8.503  16.185  69.214  1.00  0.00    -0.187 C  
HETATM    9  C   UNL     1      -7.375  15.797  67.003  1.00  0.00    -0.226 C  
HETATM   10  C   UNL     1      -7.169  16.054  68.486  1.00  0.00    -0.138 C  
BRANCH   4  11
HETATM   11  C   UNL     1     -10.558  15.736  66.622  1.00  0.00    -0.307 A  
HETATM   12  C   UNL     1     -11.135  14.263  64.713  1.00  0.00    -0.398 A  
HETATM   13  C   UNL     1     -12.161  13.892  66.844  1.00  0.00    -0.467 A  
HETATM   14  C   UNL     1     -10.432  15.340  65.261  1.00  0.00    -0.436 A  
HETATM   15  C   UNL     1     -11.989  13.521  65.514  1.00  0.00    -0.420 A  
HETATM   16  C   UNL     1     -11.483  15.000  67.389  1.00  0.00    -0.317 A  
HETATM   17 CL   UNL     1     -11.978  15.384  68.999  1.00  0.00    -0.343 Cl 
ENDBRANCH   4  11
ENDBRANCH   2   4
TORSDOF 2
ENDMDL
MODEL       12
REMARK 921   NORMALIZED FREE ENERGY PREDICTED BY IDOCK:   -4.96 KCAL/MOL
REMARK 922        TOTAL FREE ENERGY PREDICTED BY IDOCK:   -5.79 KCAL/MOL
REMARK 923 INTER-LIGAND FREE ENERGY PREDICTED BY IDOCK:   -5.66 KCAL/MOL
REMARK 924 INTRA-LIGAND FREE ENERGY PREDICTED BY IDOCK:   -0.12 KCAL/MOL
REMARK 927      BINDING AFFINITY PREDICTED BY RF-SCORE:    0.00 PKD
ROOT
HETATM    1  C   UNL     1     -12.511  12.741  65.017  1.00  0.00    -0.506 C  
HETATM    2  N   UNL     1     -12.119  12.577  66.403  1.00  0.00    -0.597 NA 
HETATM    3  H   UNL     1     -12.351  11.734  66.928  1.00  0.00     0.000 HD 
ENDROOT
BRANCH   2   4
HETATM    4  C   UNL     1     -11.361  13.700  67.024  1.00  0.00    -0.324 C  
HETATM    5  C   UNL     1     -11.378  14.935  66.074  1.00  0.00    -0.306 C  
HETATM    6  O   UNL     1      -9.461  12.183  66.489  1.00  0.00    -0.220 OA 
HETATM    7  C   UNL     1      -9.839  13.264  66.949  1.00  0.00    -0.247 C  
HETATM    8  C   UNL     1     -10.366  16.035  66.435  1.00  0.00    -0.312 C  
HETATM    9  C   UNL     1      -8.823  14.296  67.384  1.00  0.00    -0.211 C  
HETATM   10  C   UNL     1      -8.936  15.508  66.475  1.00  0.00    -0.348 C  
BRANCH   4  11
HETATM   11  C   UNL     1     -11.791  13.838  68.505  1.00  0.00    -0.406 A  
HETATM   12  C   UNL     1     -12.392  15.452  70.289  1.00  0.00    -0.425 A  
HETATM   13  C   UNL     1     -12.315  13.112  70.789  1.00  0.00    -0.404 A  
HETATM   14  C   UNL     1     -12.025  15.162  68.971  1.00  0.00    -0.295 A  
HETATM   15  C   UNL     1     -12.558  14.419  71.198  1.00  0.00    -0.422 A  
HETATM   16  C   UNL     1     -11.907  12.821  69.473  1.00  0.00    -0.316 A  
HETATM   17 CL   UNL     1     -11.490  11.161  69.234  1.00  0.00    -0.327 Cl 
ENDBRANCH   4  11
ENDBRANCH   2   4
TORSDOF 2
ENDMDL
MODEL       13
REMARK 921   NORMALIZED FREE ENERGY PREDICTED BY IDOCK:   -4.95 KCAL/MOL
REMARK 922        TOTAL FREE ENERGY PREDICTED BY IDOCK:   -5.78 KCAL/MOL
REMARK 923 INTER-LIGAND FREE ENERGY PREDICTED BY IDOCK:   -5.42 KCAL/MOL
REMARK 924 INTRA-LIGAND FREE ENERGY PREDICTED BY IDOCK:   -0.35 KCAL/MOL
REMARK 927      BINDING AFFINITY PREDICTED BY RF-SCORE:    0.00 PKD
ROOT
HETATM    1  C   UNL     1     -12.112  13.949  69.572  1.00  0.00    -0.342 C  
HETATM    2  N   UNL     1     -12.088  14.569  68.262  1.00  0.00    -0.571 NA 
HETATM    3  H   UNL     1     -12.862  15.142  67.927  1.00  0.00     0.000 HD 
ENDROOT
BRANCH   2   4
HETATM    4  C   UNL     1     -10.876  14.327  67.428  1.00  0.00    -0.285 C  
HETATM    5  C   UNL     1      -9.739  13.732  68.311  1.00  0.00    -0.231 C  
HETATM    6  O   UNL     1     -10.838  16.816  67.475  1.00  0.00    -0.307 OA 
HETATM    7  C   UNL     1     -10.303  15.768  67.102  1.00  0.00    -0.291 C  
HETATM    8  C   UNL     1      -8.347  13.747  67.659  1.00  0.00    -0.183 C  
HETATM    9  C   UNL     1      -8.975  15.815  66.380  1.00  0.00    -0.366 C  
HETATM   10  C   UNL     1      -7.921  15.153  67.250  1.00  0.00    -0.234 C  
BRANCH   4  11
HETATM   11  C   UNL     1     -11.303  13.628  66.114  1.00  0.00    -0.324 A  
HETATM   12  C   UNL     1     -12.231  13.994  63.843  1.00  0.00    -0.336 A  
HETATM   13  C   UNL     1     -11.766  11.765  64.586  1.00  0.00    -0.241 A  
HETATM   14  C   UNL     1     -11.783  14.476  65.077  1.00  0.00    -0.392 A  
HETATM   15  C   UNL     1     -12.204  12.631  63.589  1.00  0.00    -0.624 A  
HETATM   16  C   UNL     1     -11.351  12.246  65.843  1.00  0.00    -0.360 A  
HETATM   17 CL   UNL     1     -11.021  10.991  66.983  1.00  0.00    -0.338 Cl 
ENDBRANCH   4  11
ENDBRANCH   2   4
TORSDOF 2
ENDMDL
MODEL       14
REMARK 921   NORMALIZED FREE ENERGY PREDICTED BY IDOCK:   -4.94 KCAL/MOL
REMARK 922        TOTAL FREE ENERGY PREDICTED BY IDOCK:   -5.77 KCAL/MOL
REMARK 923 INTER-LIGAND FREE ENERGY PREDICTED BY IDOCK:   -5.57 KCAL/MOL
REMARK 924 INTRA-LIGAND FREE ENERGY PREDICTED BY IDOCK:   -0.20 KCAL/MOL
REMARK 927      BINDING AFFINITY PREDICTED BY RF-SCORE:    0.00 PKD
ROOT
HETATM    1  C   UNL     1     -11.723  10.758  69.513  1.00  0.00    -0.312 C  
HETATM    2  N   UNL     1     -12.079  11.416  68.273  1.00  0.00    -0.608 NA 
HETATM    3  H   UNL     1     -12.987  11.269  67.830  1.00  0.00     0.000 HD 
ENDROOT
BRANCH   2   4
HETATM    4  C   UNL     1     -11.056  12.319  67.673  1.00  0.00    -0.268 C  
HETATM    5  C   UNL     1      -9.654  11.998  68.274  1.00  0.00    -0.204 C  
HETATM    6  O   UNL     1     -12.275  13.975  69.075  1.00  0.00    -0.346 OA 
HETATM    7  C   UNL     1     -11.348  13.747  68.294  1.00  0.00    -0.285 C  
HETATM    8  C   UNL     1      -8.579  13.061  67.996  1.00  0.00    -0.186 C  
HETATM    9  C   UNL     1     -10.354  14.838  67.964  1.00  0.00    -0.237 C  
HETATM   10  C   UNL     1      -8.991  14.439  68.503  1.00  0.00    -0.187 C  
BRANCH   4  11
HETATM   11  C   UNL     1     -11.265  12.365  66.139  1.00  0.00    -0.364 A  
HETATM   12  C   UNL     1     -12.402  13.570  64.294  1.00  0.00    -0.392 A  
HETATM   13  C   UNL     1     -11.076  11.638  63.804  1.00  0.00    -0.499 A  
HETATM   14  C   UNL     1     -12.095  13.412  65.649  1.00  0.00    -0.476 A  
HETATM   15  C   UNL     1     -11.872  12.690  63.363  1.00  0.00    -0.594 A  
HETATM   16  C   UNL     1     -10.798  11.453  65.172  1.00  0.00    -0.238 A  
HETATM   17 CL   UNL     1      -9.943   9.990  65.508  1.00  0.00    -0.373 Cl 
ENDBRANCH   4  11
ENDBRANCH   2   4
TORSDOF 2
ENDMDL
MODEL       15
REMARK 921   NORMALIZED FREE ENERGY PREDICTED BY IDOCK:   -4.94 KCAL/MOL
REMARK 922        TOTAL FREE ENERGY PREDICTED BY IDOCK:   -5.77 KCAL/MOL
REMARK 923 INTER-LIGAND FREE ENERGY PREDICTED BY IDOCK:   -5.43 KCAL/MOL
REMARK 924 INTRA-LIGAND FREE ENERGY PREDICTED BY IDOCK:   -0.34 KCAL/MOL
REMARK 927      BINDING AFFINITY PREDICTED BY RF-SCORE:    0.00 PKD
ROOT
HETATM    1  C   UNL     1      -7.869  12.337  66.959  1.00  0.00    -0.108 C  
HETATM    2  N   UNL     1      -8.719  13.374  66.409  1.00  0.00    -0.425 NA 
HETATM    3  H   UNL     1      -8.371  14.318  66.242  1.00  0.00     0.000 HD 
ENDROOT
BRANCH   2   4
HETATM    4  C   UNL     1     -10.127  12.994  66.099  1.00  0.00    -0.285 C  
HETATM    5  C   UNL     1     -10.148  11.948  64.945  1.00  0.00    -0.296 C  
HETATM    6  O   UNL     1     -10.135  15.318  65.206  1.00  0.00    -0.350 OA 
HETATM    7  C   UNL     1     -10.752  14.265  65.388  1.00  0.00    -0.343 C  
HETATM    8  C   UNL     1     -11.529  11.725  64.309  1.00  0.00    -0.386 C  
HETATM    9  C   UNL     1     -12.148  14.102  64.830  1.00  0.00    -0.454 C  
HETATM   10  C   UNL     1     -12.127  13.019  63.766  1.00  0.00    -0.574 C  
BRANCH   4  11
HETATM   11  C   UNL     1     -10.875  12.720  67.427  1.00  0.00    -0.265 A  
HETATM   12  C   UNL     1     -11.867  13.777  69.440  1.00  0.00    -0.392 A  
HETATM   13  C   UNL     1     -11.885  11.392  69.226  1.00  0.00    -0.417 A  
HETATM   14  C   UNL     1     -11.215  13.862  68.205  1.00  0.00    -0.298 A  
HETATM   15  C   UNL     1     -12.222  12.535  69.944  1.00  0.00    -0.233 A  
HETATM   16  C   UNL     1     -11.194  11.473  68.001  1.00  0.00    -0.269 A  
HETATM   17 CL   UNL     1     -10.723   9.933  67.375  1.00  0.00    -0.332 Cl 
ENDBRANCH   4  11
ENDBRANCH   2   4
TORSDOF 2
ENDMDL
MODEL       16
REMARK 921   NORMALIZED FREE ENERGY PREDICTED BY IDOCK:   -4.92 KCAL/MOL
REMARK 922        TOTAL FREE ENERGY PREDICTED BY IDOCK:   -5.75 KCAL/MOL
REMARK 923 INTER-LIGAND FREE ENERGY PREDICTED BY IDOCK:   -5.39 KCAL/MOL
REMARK 924 INTRA-LIGAND FREE ENERGY PREDICTED BY IDOCK:   -0.36 KCAL/MOL
REMARK 927      BINDING AFFINITY PREDICTED BY RF-SCORE:    0.00 PKD
ROOT
HETATM    1  C   UNL     1     -11.158   6.295  68.691  1.00  0.00    -0.325 C  
HETATM    2  N   UNL     1     -11.832   6.693  69.911  1.00  0.00    -0.653 NA 
HETATM    3  H   UNL     1     -12.811   6.464  70.081  1.00  0.00     0.000 HD 
ENDROOT
BRANCH   2   4
HETATM    4  C   UNL     1     -11.023   7.452  70.907  1.00  0.00    -0.253 C  
HETATM    5  C   UNL     1      -9.507   7.193  70.662  1.00  0.00    -0.161 C  
HETATM    6  O   UNL     1     -11.996   5.727  72.416  1.00  0.00    -0.275 OA 
HETATM    7  C   UNL     1     -11.254   6.705  72.285  1.00  0.00    -0.267 C  
HETATM    8  C   UNL     1      -8.586   7.642  71.809  1.00  0.00    -0.130 C  
HETATM    9  C   UNL     1     -10.426   7.185  73.456  1.00  0.00    -0.422 C  
HETATM   10  C   UNL     1      -8.956   6.981  73.133  1.00  0.00    -0.154 C  
BRANCH   4  11
HETATM   11  C   UNL     1     -11.572   8.898  71.001  1.00  0.00    -0.347 A  
HETATM   12  C   UNL     1     -13.274  10.344  72.079  1.00  0.00    -0.497 A  
HETATM   13  C   UNL     1     -11.787  11.279  70.452  1.00  0.00    -0.443 A  
HETATM   14  C   UNL     1     -12.652   9.103  71.903  1.00  0.00    -0.463 A  
HETATM   15  C   UNL     1     -12.825  11.443  71.364  1.00  0.00    -0.502 A  
HETATM   16  C   UNL     1     -11.186  10.023  70.245  1.00  0.00    -0.313 A  
HETATM   17 CL   UNL     1     -10.047  10.012  68.946  1.00  0.00    -0.185 Cl 
ENDBRANCH   4  11
ENDBRANCH   2   4
TORSDOF 2
ENDMDL
MODEL       17
REMARK 921   NORMALIZED FREE ENERGY PREDICTED BY IDOCK:   -4.91 KCAL/MOL
REMARK 922        TOTAL FREE ENERGY PREDICTED BY IDOCK:   -5.74 KCAL/MOL
REMARK 923 INTER-LIGAND FREE ENERGY PREDICTED BY IDOCK:   -5.38 KCAL/MOL
REMARK 924 INTRA-LIGAND FREE ENERGY PREDICTED BY IDOCK:   -0.37 KCAL/MOL
REMARK 927      BINDING AFFINITY PREDICTED BY RF-SCORE:    0.00 PKD
ROOT
HETATM    1  C   UNL     1     -10.218  16.061  66.350  1.00  0.00    -0.305 C  
HETATM    2  N   UNL     1     -11.265  15.099  66.629  1.00  0.00    -0.311 NA 
HETATM    3  H   UNL     1     -12.068  15.335  67.213  1.00  0.00     0.000 HD 
ENDROOT
BRANCH   2   4
HETATM    4  C   UNL     1     -11.114  13.746  66.021  1.00  0.00    -0.291 C  
HETATM    5  C   UNL     1     -10.214  13.837  64.752  1.00  0.00    -0.362 C  
HETATM    6  O   UNL     1     -13.502  14.169  65.461  1.00  0.00    -0.643 OA 
HETATM    7  C   UNL     1     -12.527  13.416  65.386  1.00  0.00    -0.494 C  
HETATM    8  C   UNL     1     -10.249  12.591  63.852  1.00  0.00    -0.386 C  
HETATM    9  C   UNL     1     -12.615  12.147  64.567  1.00  0.00    -0.323 C  
HETATM   10  C   UNL     1     -11.663  12.257  63.389  1.00  0.00    -0.542 C  
BRANCH   4  11
HETATM   11  C   UNL     1     -10.795  12.726  67.142  1.00  0.00    -0.282 A  
HETATM   12  C   UNL     1     -11.782  11.334  68.942  1.00  0.00    -0.409 A  
HETATM   13  C   UNL     1      -9.410  11.338  68.616  1.00  0.00    -0.167 A  
HETATM   14  C   UNL     1     -11.909  12.237  67.882  1.00  0.00    -0.358 A  
HETATM   15  C   UNL     1     -10.527  10.866  69.298  1.00  0.00    -0.230 A  
HETATM   16  C   UNL     1      -9.531  12.278  67.575  1.00  0.00    -0.182 A  
HETATM   17 CL   UNL     1      -8.012  12.858  66.992  1.00  0.00    -0.091 Cl 
ENDBRANCH   4  11
ENDBRANCH   2   4
TORSDOF 2
ENDMDL
MODEL       18
REMARK 921   NORMALIZED FREE ENERGY PREDICTED BY IDOCK:   -4.89 KCAL/MOL
REMARK 922        TOTAL FREE ENERGY PREDICTED BY IDOCK:   -5.71 KCAL/MOL
REMARK 923 INTER-LIGAND FREE ENERGY PREDICTED BY IDOCK:   -5.36 KCAL/MOL
REMARK 924 INTRA-LIGAND FREE ENERGY PREDICTED BY IDOCK:   -0.35 KCAL/MOL
REMARK 927      BINDING AFFINITY PREDICTED BY RF-SCORE:    0.00 PKD
ROOT
HETATM    1  C   UNL     1      -8.634  16.116  66.385  1.00  0.00    -0.330 C  
HETATM    2  N   UNL     1      -8.689  14.669  66.438  1.00  0.00    -0.459 NA 
HETATM    3  H   UNL     1      -7.876  14.094  66.218  1.00  0.00     0.000 HD 
ENDROOT
BRANCH   2   4
HETATM    4  C   UNL     1      -9.992  14.061  66.831  1.00  0.00    -0.263 C  
HETATM    5  C   UNL     1     -10.861  15.116  67.579  1.00  0.00    -0.301 C  
HETATM    6  O   UNL     1      -8.495  12.849  68.408  1.00  0.00    -0.163 OA 
HETATM    7  C   UNL     1      -9.643  13.050  68.000  1.00  0.00    -0.224 C  
HETATM    8  C   UNL     1     -12.075  14.534  68.323  1.00  0.00    -0.234 C  
HETATM    9  C   UNL     1     -10.816  12.393  68.692  1.00  0.00    -0.273 C  
HETATM   10  C   UNL     1     -11.670  13.470  69.337  1.00  0.00    -0.381 C  
BRANCH   4  11
HETATM   11  C   UNL     1     -10.566  13.281  65.622  1.00  0.00    -0.291 A  
HETATM   12  C   UNL     1     -10.543  11.105  64.430  1.00  0.00    -0.411 A  
HETATM   13  C   UNL     1     -11.839  12.919  63.556  1.00  0.00    -0.605 A  
HETATM   14  C   UNL     1     -10.137  11.931  65.484  1.00  0.00    -0.277 A  
HETATM   15  C   UNL     1     -11.416  11.597  63.472  1.00  0.00    -0.427 A  
HETATM   16  C   UNL     1     -11.400  13.764  64.594  1.00  0.00    -0.372 A  
HETATM   17 CL   UNL     1     -11.905  15.405  64.404  1.00  0.00    -0.348 Cl 
ENDBRANCH   4  11
ENDBRANCH   2   4
TORSDOF 2
ENDMDL
MODEL       19
REMARK 921   NORMALIZED FREE ENERGY PREDICTED BY IDOCK:   -4.84 KCAL/MOL
REMARK 922        TOTAL FREE ENERGY PREDICTED BY IDOCK:   -5.66 KCAL/MOL
REMARK 923 INTER-LIGAND FREE ENERGY PREDICTED BY IDOCK:   -5.30 KCAL/MOL
REMARK 924 INTRA-LIGAND FREE ENERGY PREDICTED BY IDOCK:   -0.36 KCAL/MOL
REMARK 927      BINDING AFFINITY PREDICTED BY RF-SCORE:    0.00 PKD
ROOT
HETATM    1  C   UNL     1      -8.882   8.135  72.573  1.00  0.00    -0.208 C  
HETATM    2  N   UNL     1      -9.745   7.232  71.839  1.00  0.00    -0.156 NA 
HETATM    3  H   UNL     1      -9.529   6.239  71.750  1.00  0.00     0.000 HD 
ENDROOT
BRANCH   2   4
HETATM    4  C   UNL     1     -10.966   7.824  71.221  1.00  0.00    -0.234 C  
HETATM    5  C   UNL     1     -11.307   9.175  71.919  1.00  0.00    -0.416 C  
HETATM    6  O   UNL     1     -12.014   5.908  72.415  1.00  0.00    -0.298 OA 
HETATM    7  C   UNL     1     -12.163   6.906  71.705  1.00  0.00    -0.356 C  
HETATM    8  C   UNL     1     -12.711   9.719  71.610  1.00  0.00    -0.517 C  
HETATM    9  C   UNL     1     -13.555   7.369  71.338  1.00  0.00    -0.410 C  
HETATM   10  C   UNL     1     -13.806   8.723  71.979  1.00  0.00    -0.504 C  
BRANCH   4  11
HETATM   11  C   UNL     1     -10.837   7.743  69.680  1.00  0.00    -0.185 A  
HETATM   12  C   UNL     1     -10.950   6.223  67.724  1.00  0.00    -0.427 A  
HETATM   13  C   UNL     1     -10.383   8.526  67.400  1.00  0.00    -0.356 A  
HETATM   14  C   UNL     1     -11.057   6.464  69.097  1.00  0.00    -0.428 A  
HETATM   15  C   UNL     1     -10.631   7.265  66.867  1.00  0.00    -0.375 A  
HETATM   16  C   UNL     1     -10.452   8.762  68.786  1.00  0.00    -0.191 A  
HETATM   17 CL   UNL     1      -9.934  10.347  69.240  1.00  0.00    -0.236 Cl 
ENDBRANCH   4  11
ENDBRANCH   2   4
TORSDOF 2
ENDMDL
MODEL       20
REMARK 921   NORMALIZED FREE ENERGY PREDICTED BY IDOCK:   -4.83 KCAL/MOL
REMARK 922        TOTAL FREE ENERGY PREDICTED BY IDOCK:   -5.65 KCAL/MOL
REMARK 923 INTER-LIGAND FREE ENERGY PREDICTED BY IDOCK:   -5.32 KCAL/MOL
REMARK 924 INTRA-LIGAND FREE ENERGY PREDICTED BY IDOCK:   -0.32 KCAL/MOL
REMARK 927      BINDING AFFINITY PREDICTED BY RF-SCORE:    0.00 PKD
ROOT
HETATM    1  C   UNL     1     -12.470  13.242  65.385  1.00  0.00    -0.489 C  
HETATM    2  N   UNL     1     -12.152  12.314  66.451  1.00  0.00    -0.612 NA 
HETATM    3  H   UNL     1     -12.642  11.426  66.552  1.00  0.00     0.000 HD 
ENDROOT
BRANCH   2   4
HETATM    4  C   UNL     1     -11.072  12.721  67.395  1.00  0.00    -0.275 C  
HETATM    5  C   UNL     1     -10.356  13.997  66.858  1.00  0.00    -0.269 C  
HETATM    6  O   UNL     1     -10.036  10.655  66.471  1.00  0.00    -0.200 OA 
HETATM    7  C   UNL     1      -9.939  11.627  67.226  1.00  0.00    -0.191 C  
HETATM    8  C   UNL     1      -9.025  14.325  67.552  1.00  0.00    -0.197 C  
HETATM    9  C   UNL     1      -8.647  11.877  67.971  1.00  0.00    -0.168 C  
HETATM   10  C   UNL     1      -8.032  13.170  67.464  1.00  0.00    -0.179 C  
BRANCH   4  11
HETATM   11  C   UNL     1     -11.627  12.678  68.841  1.00  0.00    -0.363 A  
HETATM   12  C   UNL     1     -12.397  11.180  70.661  1.00  0.00    -0.482 A  
HETATM   13  C   UNL     1     -12.487  13.553  70.965  1.00  0.00    -0.451 A  
HETATM   14  C   UNL     1     -11.871  11.384  69.381  1.00  0.00    -0.419 A  
HETATM   15  C   UNL     1     -12.687  12.271  71.465  1.00  0.00    -0.339 A  
HETATM   16  C   UNL     1     -11.994  13.762  69.662  1.00  0.00    -0.342 A  
HETATM   17 CL   UNL     1     -11.993  15.423  69.186  1.00  0.00    -0.347 Cl 
ENDBRANCH   4  11
ENDBRANCH   2   4
TORSDOF 2
ENDMDL
MODEL       21
REMARK 921   NORMALIZED FREE ENERGY PREDICTED BY IDOCK:   -4.83 KCAL/MOL
REMARK 922        TOTAL FREE ENERGY PREDICTED BY IDOCK:   -5.64 KCAL/MOL
REMARK 923 INTER-LIGAND FREE ENERGY PREDICTED BY IDOCK:   -5.47 KCAL/MOL
REMARK 924 INTRA-LIGAND FREE ENERGY PREDICTED BY IDOCK:   -0.18 KCAL/MOL
REMARK 927      BINDING AFFINITY PREDICTED BY RF-SCORE:    0.00 PKD
ROOT
HETATM    1  C   UNL     1     -10.056  11.636  63.212  1.00  0.00    -0.423 C  
HETATM    2  N   UNL     1     -10.514  12.871  63.817  1.00  0.00    -0.482 NA 
HETATM    3  H   UNL     1     -10.860  13.647  63.253  1.00  0.00     0.000 HD 
ENDROOT
BRANCH   2   4
HETATM    4  C   UNL     1     -10.454  12.952  65.304  1.00  0.00    -0.296 C  
HETATM    5  C   UNL     1      -9.768  11.674  65.874  1.00  0.00    -0.260 C  
HETATM    6  O   UNL     1     -12.903  12.607  65.022  1.00  0.00    -0.765 OA 
HETATM    7  C   UNL     1     -11.949  12.754  65.790  1.00  0.00    -0.449 C  
HETATM    8  C   UNL     1      -9.940  11.477  67.389  1.00  0.00    -0.209 C  
HETATM    9  C   UNL     1     -12.160  12.646  67.284  1.00  0.00    -0.184 C  
HETATM   10  C   UNL     1     -11.408  11.431  67.799  1.00  0.00    -0.354 C  
BRANCH   4  11
HETATM   11  C   UNL     1      -9.957  14.362  65.710  1.00  0.00    -0.354 A  
HETATM   12  C   UNL     1      -8.415  15.605  67.203  1.00  0.00    -0.234 A  
HETATM   13  C   UNL     1      -9.870  16.813  65.734  1.00  0.00    -0.209 A  
HETATM   14  C   UNL     1      -8.947  14.408  66.711  1.00  0.00    -0.256 A  
HETATM   15  C   UNL     1      -8.865  16.814  66.697  1.00  0.00    -0.286 A  
HETATM   16  C   UNL     1     -10.434  15.611  65.266  1.00  0.00    -0.412 A  
HETATM   17 CL   UNL     1     -11.782  15.850  64.212  1.00  0.00    -0.295 Cl 
ENDBRANCH   4  11
ENDBRANCH   2   4
TORSDOF 2
ENDMDL
MODEL       22
REMARK 921   NORMALIZED FREE ENERGY PREDICTED BY IDOCK:   -4.81 KCAL/MOL
REMARK 922        TOTAL FREE ENERGY PREDICTED BY IDOCK:   -5.62 KCAL/MOL
REMARK 923 INTER-LIGAND FREE ENERGY PREDICTED BY IDOCK:   -5.24 KCAL/MOL
REMARK 924 INTRA-LIGAND FREE ENERGY PREDICTED BY IDOCK:   -0.38 KCAL/MOL
REMARK 927      BINDING AFFINITY PREDICTED BY RF-SCORE:    0.00 PKD
ROOT
HETATM    1  C   UNL     1      -8.171  12.856  68.129  1.00  0.00    -0.163 C  
HETATM    2  N   UNL     1      -9.580  12.686  68.423  1.00  0.00    -0.315 NA 
HETATM    3  H   UNL     1      -9.992  11.763  68.555  1.00  0.00     0.000 HD 
ENDROOT
BRANCH   2   4
HETATM    4  C   UNL     1     -10.399  13.928  68.524  1.00  0.00    -0.244 C  
HETATM    5  C   UNL     1      -9.619  15.008  69.332  1.00  0.00    -0.145 C  
HETATM    6  O   UNL     1     -11.719  12.455  70.036  1.00  0.00    -0.301 OA 
HETATM    7  C   UNL     1     -11.574  13.569  69.525  1.00  0.00    -0.294 C  
HETATM    8  C   UNL     1     -10.471  16.203  69.792  1.00  0.00    -0.286 C  
HETATM    9  C   UNL     1     -12.485  14.708  69.926  1.00  0.00    -0.290 C  
HETATM   10  C   UNL     1     -11.662  15.766  70.639  1.00  0.00    -0.412 C  
BRANCH   4  11
HETATM   11  C   UNL     1     -10.985  14.256  67.129  1.00  0.00    -0.305 A  
HETATM   12  C   UNL     1     -12.745  13.655  65.488  1.00  0.00    -0.514 A  
HETATM   13  C   UNL     1     -11.144  15.348  64.938  1.00  0.00    -0.435 A  
HETATM   14  C   UNL     1     -12.119  13.495  66.728  1.00  0.00    -0.425 A  
HETATM   15  C   UNL     1     -12.267  14.601  64.595  1.00  0.00    -0.447 A  
HETATM   16  C   UNL     1     -10.489  15.162  66.171  1.00  0.00    -0.312 A  
HETATM   17 CL   UNL     1      -9.022  16.063  66.312  1.00  0.00    -0.354 Cl 
ENDBRANCH   4  11
ENDBRANCH   2   4
TORSDOF 2
ENDMDL
MODEL       23
REMARK 921   NORMALIZED FREE ENERGY PREDICTED BY IDOCK:   -4.78 KCAL/MOL
REMARK 922        TOTAL FREE ENERGY PREDICTED BY IDOCK:   -5.60 KCAL/MOL
REMARK 923 INTER-LIGAND FREE ENERGY PREDICTED BY IDOCK:   -5.22 KCAL/MOL
REMARK 924 INTRA-LIGAND FREE ENERGY PREDICTED BY IDOCK:   -0.38 KCAL/MOL
REMARK 927      BINDING AFFINITY PREDICTED BY RF-SCORE:    0.00 PKD
ROOT
HETATM    1  C   UNL     1     -11.674  11.586  68.704  1.00  0.00    -0.326 C  
HETATM    2  N   UNL     1     -12.005  11.644  67.294  1.00  0.00    -0.602 NA 
HETATM    3  H   UNL     1     -12.826  11.171  66.917  1.00  0.00     0.000 HD 
ENDROOT
BRANCH   2   4
HETATM    4  C   UNL     1     -11.085  12.428  66.421  1.00  0.00    -0.301 C  
HETATM    5  C   UNL     1     -10.863  13.845  67.029  1.00  0.00    -0.288 C  
HETATM    6  O   UNL     1     -13.095  12.388  64.951  1.00  0.00    -0.765 OA 
HETATM    7  C   UNL     1     -11.933  12.768  65.126  1.00  0.00    -0.424 C  
HETATM    8  C   UNL     1     -10.213  14.858  66.072  1.00  0.00    -0.317 C  
HETATM    9  C   UNL     1     -11.283  13.692  64.121  1.00  0.00    -0.294 C  
HETATM   10  C   UNL     1     -11.017  15.031  64.788  1.00  0.00    -0.389 C  
BRANCH   4  11
HETATM   11  C   UNL     1      -9.879  11.536  66.034  1.00  0.00    -0.255 A  
HETATM   12  C   UNL     1      -9.146   9.640  64.614  1.00  0.00    -0.286 A  
HETATM   13  C   UNL     1      -7.592  10.656  66.126  1.00  0.00    -0.138 A  
HETATM   14  C   UNL     1     -10.125  10.539  65.049  1.00  0.00    -0.390 A  
HETATM   15  C   UNL     1      -7.866   9.711  65.141  1.00  0.00    -0.117 A  
HETATM   16  C   UNL     1      -8.586  11.537  66.593  1.00  0.00    -0.176 A  
HETATM   17 CL   UNL     1      -8.077  12.498  67.935  1.00  0.00    -0.150 Cl 
ENDBRANCH   4  11
ENDBRANCH   2   4
TORSDOF 2
ENDMDL
MODEL       24
REMARK 921   NORMALIZED FREE ENERGY PREDICTED BY IDOCK:   -4.78 KCAL/MOL
REMARK 922        TOTAL FREE ENERGY PREDICTED BY IDOCK:   -5.59 KCAL/MOL
REMARK 923 INTER-LIGAND FREE ENERGY PREDICTED BY IDOCK:   -5.24 KCAL/MOL
REMARK 924 INTRA-LIGAND FREE ENERGY PREDICTED BY IDOCK:   -0.35 KCAL/MOL
REMARK 927      BINDING AFFINITY PREDICTED BY RF-SCORE:    0.00 PKD
ROOT
HETATM    1  C   UNL     1      -7.803  14.110  67.517  1.00  0.00    -0.192 C  
HETATM    2  N   UNL     1      -8.377  12.958  66.853  1.00  0.00    -0.382 NA 
HETATM    3  H   UNL     1      -7.833  12.385  66.208  1.00  0.00     0.000 HD 
ENDROOT
BRANCH   2   4
HETATM    4  C   UNL     1      -9.804  12.650  67.156  1.00  0.00    -0.212 C  
HETATM    5  C   UNL     1     -10.188  13.249  68.542  1.00  0.00    -0.222 C  
HETATM    6  O   UNL     1      -8.843  10.366  67.400  1.00  0.00    -0.132 OA 
HETATM    7  C   UNL     1      -9.837  11.096  67.462  1.00  0.00    -0.177 C  
HETATM    8  C   UNL     1     -11.513  12.726  69.121  1.00  0.00    -0.361 C  
HETATM    9  C   UNL     1     -11.155  10.535  67.948  1.00  0.00    -0.367 C  
HETATM   10  C   UNL     1     -11.520  11.207  69.259  1.00  0.00    -0.363 C  
BRANCH   4  11
HETATM   11  C   UNL     1     -10.660  12.953  65.901  1.00  0.00    -0.287 A  
HETATM   12  C   UNL     1     -11.549  12.004  63.789  1.00  0.00    -0.565 A  
HETATM   13  C   UNL     1     -11.989  14.293  64.335  1.00  0.00    -0.476 A  
HETATM   14  C   UNL     1     -10.828  11.880  64.981  1.00  0.00    -0.351 A  
HETATM   15  C   UNL     1     -12.151  13.212  63.474  1.00  0.00    -0.585 A  
HETATM   16  C   UNL     1     -11.231  14.182  65.516  1.00  0.00    -0.317 A  
HETATM   17 CL   UNL     1     -11.015  15.686  66.339  1.00  0.00    -0.253 Cl 
ENDBRANCH   4  11
ENDBRANCH   2   4
TORSDOF 2
ENDMDL
MODEL       25
REMARK 921   NORMALIZED FREE ENERGY PREDICTED BY IDOCK:   -4.75 KCAL/MOL
REMARK 922        TOTAL FREE ENERGY PREDICTED BY IDOCK:   -5.56 KCAL/MOL
REMARK 923 INTER-LIGAND FREE ENERGY PREDICTED BY IDOCK:   -5.42 KCAL/MOL
REMARK 924 INTRA-LIGAND FREE ENERGY PREDICTED BY IDOCK:   -0.14 KCAL/MOL
REMARK 927      BINDING AFFINITY PREDICTED BY RF-SCORE:    0.00 PKD
ROOT
HETATM    1  C   UNL     1     -10.118  11.956  63.590  1.00  0.00    -0.426 C  
HETATM    2  N   UNL     1     -10.308  13.294  64.112  1.00  0.00    -0.636 NA 
HETATM    3  H   UNL     1     -10.388  14.103  63.496  1.00  0.00     0.000 HD 
ENDROOT
BRANCH   2   4
HETATM    4  C   UNL     1     -10.382  13.432  65.595  1.00  0.00    -0.290 C  
HETATM    5  C   UNL     1      -9.832  12.141  66.272  1.00  0.00    -0.250 C  
HETATM    6  O   UNL     1     -12.811  13.219  65.094  1.00  0.00    -0.670 OA 
HETATM    7  C   UNL     1     -11.924  13.342  65.944  1.00  0.00    -0.419 C  
HETATM    8  C   UNL     1     -10.155  12.016  67.770  1.00  0.00    -0.199 C  
HETATM    9  C   UNL     1     -12.279  13.307  67.414  1.00  0.00    -0.236 C  
HETATM   10  C   UNL     1     -11.655  12.072  68.040  1.00  0.00    -0.407 C  
BRANCH   4  11
HETATM   11  C   UNL     1      -9.838  14.826  65.996  1.00  0.00    -0.350 A  
HETATM   12  C   UNL     1     -10.196  17.270  65.778  1.00  0.00    -0.212 A  
HETATM   13  C   UNL     1      -8.301  16.457  66.994  1.00  0.00    -0.230 A  
HETATM   14  C   UNL     1     -10.575  15.948  65.524  1.00  0.00    -0.419 A  
HETATM   15  C   UNL     1      -9.063  17.526  66.535  1.00  0.00    -0.284 A  
HETATM   16  C   UNL     1      -8.658  15.125  66.706  1.00  0.00    -0.262 A  
HETATM   17 CL   UNL     1      -7.479  13.971  67.219  1.00  0.00    -0.134 Cl 
ENDBRANCH   4  11
ENDBRANCH   2   4
TORSDOF 2
ENDMDL
MODEL       26
REMARK 921   NORMALIZED FREE ENERGY PREDICTED BY IDOCK:   -4.75 KCAL/MOL
REMARK 922        TOTAL FREE ENERGY PREDICTED BY IDOCK:   -5.56 KCAL/MOL
REMARK 923 INTER-LIGAND FREE ENERGY PREDICTED BY IDOCK:   -5.31 KCAL/MOL
REMARK 924 INTRA-LIGAND FREE ENERGY PREDICTED BY IDOCK:   -0.24 KCAL/MOL
REMARK 927      BINDING AFFINITY PREDICTED BY RF-SCORE:    0.00 PKD
ROOT
HETATM    1  C   UNL     1      -7.505  13.530  67.519  1.00  0.00    -0.167 C  
HETATM    2  N   UNL     1      -8.357  12.640  66.756  1.00  0.00    -0.394 NA 
HETATM    3  H   UNL     1      -7.976  12.005  66.054  1.00  0.00     0.000 HD 
ENDROOT
BRANCH   2   4
HETATM    4  C   UNL     1      -9.819  12.696  67.046  1.00  0.00    -0.225 C  
HETATM    5  C   UNL     1     -10.096  13.769  68.141  1.00  0.00    -0.245 C  
HETATM    6  O   UNL     1      -9.295  10.486  68.065  1.00  0.00    -0.142 OA 
HETATM    7  C   UNL     1     -10.139  11.355  67.825  1.00  0.00    -0.181 C  
HETATM    8  C   UNL     1     -11.499  13.697  68.766  1.00  0.00    -0.346 C  
HETATM    9  C   UNL     1     -11.541  11.217  68.375  1.00  0.00    -0.376 C  
HETATM   10  C   UNL     1     -11.786  12.330  69.379  1.00  0.00    -0.392 C  
BRANCH   4  11
HETATM   11  C   UNL     1     -10.595  12.718  65.705  1.00  0.00    -0.295 A  
HETATM   12  C   UNL     1     -12.248  13.978  64.352  1.00  0.00    -0.457 A  
HETATM   13  C   UNL     1     -11.376  11.906  63.526  1.00  0.00    -0.516 A  
HETATM   14  C   UNL     1     -11.460  13.829  65.498  1.00  0.00    -0.319 A  
HETATM   15  C   UNL     1     -12.190  13.021  63.351  1.00  0.00    -0.552 A  
HETATM   16  C   UNL     1     -10.611  11.735  64.696  1.00  0.00    -0.308 A  
HETATM   17 CL   UNL     1      -9.817  10.203  64.780  1.00  0.00    -0.398 Cl 
ENDBRANCH   4  11
ENDBRANCH   2   4
TORSDOF 2
ENDMDL
MODEL       27
REMARK 921   NORMALIZED FREE ENERGY PREDICTED BY IDOCK:   -4.70 KCAL/MOL
REMARK 922        TOTAL FREE ENERGY PREDICTED BY IDOCK:   -5.50 KCAL/MOL
REMARK 923 INTER-LIGAND FREE ENERGY PREDICTED BY IDOCK:   -5.29 KCAL/MOL
REMARK 924 INTRA-LIGAND FREE ENERGY PREDICTED BY IDOCK:   -0.21 KCAL/MOL
REMARK 927      BINDING AFFINITY PREDICTED BY RF-SCORE:    0.00 PKD
ROOT
HETATM    1  C   UNL     1     -12.268  14.536  68.961  1.00  0.00    -0.180 C  
HETATM    2  N   UNL     1     -11.988  13.322  68.219  1.00  0.00    -0.339 NA 
HETATM    3  H   UNL     1     -12.125  12.400  68.632  1.00  0.00     0.000 HD 
ENDROOT
BRANCH   2   4
HETATM    4  C   UNL     1     -11.490  13.488  66.824  1.00  0.00    -0.346 C  
HETATM    5  C   UNL     1     -12.654  13.962  65.903  1.00  0.00    -0.498 C  
HETATM    6  O   UNL     1     -11.424  11.004  66.979  1.00  0.00    -0.415 OA 
HETATM    7  C   UNL     1     -11.246  12.015  66.294  1.00  0.00    -0.342 C  
HETATM    8  C   UNL     1     -12.365  13.852  64.397  1.00  0.00    -0.400 C  
HETATM    9  C   UNL     1     -10.871  11.880  64.835  1.00  0.00    -0.356 C  
HETATM   10  C   UNL     1     -12.005  12.428  63.985  1.00  0.00    -0.546 C  
BRANCH   4  11
HETATM   11  C   UNL     1     -10.147  14.259  66.859  1.00  0.00    -0.264 A  
HETATM   12  C   UNL     1      -8.982  16.316  66.111  1.00  0.00    -0.374 A  
HETATM   13  C   UNL     1      -7.779  14.662  67.355  1.00  0.00    -0.226 A  
HETATM   14  C   UNL     1     -10.126  15.515  66.192  1.00  0.00    -0.329 A  
HETATM   15  C   UNL     1      -7.807  15.896  66.715  1.00  0.00    -0.273 A  
HETATM   16  C   UNL     1      -8.918  13.836  67.404  1.00  0.00    -0.224 A  
HETATM   17 CL   UNL     1      -8.611  12.280  68.089  1.00  0.00    -0.176 Cl 
ENDBRANCH   4  11
ENDBRANCH   2   4
TORSDOF 2
ENDMDL
MODEL       28
REMARK 921   NORMALIZED FREE ENERGY PREDICTED BY IDOCK:   -4.68 KCAL/MOL
REMARK 922        TOTAL FREE ENERGY PREDICTED BY IDOCK:   -5.48 KCAL/MOL
REMARK 923 INTER-LIGAND FREE ENERGY PREDICTED BY IDOCK:   -5.22 KCAL/MOL
REMARK 924 INTRA-LIGAND FREE ENERGY PREDICTED BY IDOCK:   -0.26 KCAL/MOL
REMARK 927      BINDING AFFINITY PREDICTED BY RF-SCORE:    0.00 PKD
ROOT
HETATM    1  C   UNL     1     -11.254  12.132  69.029  1.00  0.00    -0.260 C  
HETATM    2  N   UNL     1     -10.260  12.831  68.240  1.00  0.00    -0.240 NA 
HETATM    3  H   UNL     1      -9.273  12.824  68.496  1.00  0.00     0.000 HD 
ENDROOT
BRANCH   2   4
HETATM    4  C   UNL     1     -10.750  13.561  67.036  1.00  0.00    -0.277 C  
HETATM    5  C   UNL     1     -12.263  13.259  66.817  1.00  0.00    -0.340 C  
HETATM    6  O   UNL     1      -9.323  11.856  65.915  1.00  0.00    -0.231 OA 
HETATM    7  C   UNL     1     -10.095  12.813  65.803  1.00  0.00    -0.286 C  
HETATM    8  C   UNL     1     -12.806  13.675  65.440  1.00  0.00    -0.440 C  
HETATM    9  C   UNL     1     -10.544  13.262  64.430  1.00  0.00    -0.438 C  
HETATM   10  C   UNL     1     -12.037  13.018  64.298  1.00  0.00    -0.480 C  
BRANCH   4  11
HETATM   11  C   UNL     1     -10.236  15.022  67.092  1.00  0.00    -0.249 A  
HETATM   12  C   UNL     1      -8.520  16.591  66.230  1.00  0.00    -0.363 A  
HETATM   13  C   UNL     1     -10.115  17.353  67.845  1.00  0.00    -0.326 A  
HETATM   14  C   UNL     1      -9.116  15.326  66.270  1.00  0.00    -0.337 A  
HETATM   15  C   UNL     1      -9.035  17.616  67.008  1.00  0.00    -0.258 A  
HETATM   16  C   UNL     1     -10.692  16.070  67.916  1.00  0.00    -0.316 A  
HETATM   17 CL   UNL     1     -11.897  15.925  69.145  1.00  0.00    -0.384 Cl 
ENDBRANCH   4  11
ENDBRANCH   2   4
TORSDOF 2
ENDMDL
MODEL       29
REMARK 921   NORMALIZED FREE ENERGY PREDICTED BY IDOCK:   -4.68 KCAL/MOL
REMARK 922        TOTAL FREE ENERGY PREDICTED BY IDOCK:   -5.48 KCAL/MOL
REMARK 923 INTER-LIGAND FREE ENERGY PREDICTED BY IDOCK:   -5.20 KCAL/MOL
REMARK 924 INTRA-LIGAND FREE ENERGY PREDICTED BY IDOCK:   -0.28 KCAL/MOL
REMARK 927      BINDING AFFINITY PREDICTED BY RF-SCORE:    0.00 PKD
ROOT
HETATM    1  C   UNL     1     -10.681  15.769  65.246  1.00  0.00    -0.428 C  
HETATM    2  N   UNL     1     -11.513  15.008  66.157  1.00  0.00    -0.280 NA 
HETATM    3  H   UNL     1     -12.524  15.139  66.195  1.00  0.00     0.000 HD 
ENDROOT
BRANCH   2   4
HETATM    4  C   UNL     1     -10.819  14.025  67.037  1.00  0.00    -0.290 C  
HETATM    5  C   UNL     1      -9.357  13.815  66.541  1.00  0.00    -0.249 C  
HETATM    6  O   UNL     1     -12.390  12.482  65.875  1.00  0.00    -0.626 OA 
HETATM    7  C   UNL     1     -11.475  12.625  66.691  1.00  0.00    -0.351 C  
HETATM    8  C   UNL     1      -8.644  12.595  67.147  1.00  0.00    -0.199 C  
HETATM    9  C   UNL     1     -10.850  11.411  67.344  1.00  0.00    -0.301 C  
HETATM   10  C   UNL     1      -9.406  11.299  66.889  1.00  0.00    -0.190 C  
BRANCH   4  11
HETATM   11  C   UNL     1     -11.108  14.384  68.516  1.00  0.00    -0.270 A  
HETATM   12  C   UNL     1     -12.509  13.839  70.487  1.00  0.00    -0.409 A  
HETATM   13  C   UNL     1     -10.921  15.626  70.623  1.00  0.00    -0.364 A  
HETATM   14  C   UNL     1     -12.116  13.618  69.164  1.00  0.00    -0.361 A  
HETATM   15  C   UNL     1     -11.894  14.836  71.228  1.00  0.00    -0.390 A  
HETATM   16  C   UNL     1     -10.550  15.430  69.279  1.00  0.00    -0.252 A  
HETATM   17 CL   UNL     1      -9.460  16.631  68.684  1.00  0.00    -0.241 Cl 
ENDBRANCH   4  11
ENDBRANCH   2   4
TORSDOF 2
ENDMDL
MODEL       30
REMARK 921   NORMALIZED FREE ENERGY PREDICTED BY IDOCK:   -4.67 KCAL/MOL
REMARK 922        TOTAL FREE ENERGY PREDICTED BY IDOCK:   -5.47 KCAL/MOL
REMARK 923 INTER-LIGAND FREE ENERGY PREDICTED BY IDOCK:   -5.10 KCAL/MOL
REMARK 924 INTRA-LIGAND FREE ENERGY PREDICTED BY IDOCK:   -0.37 KCAL/MOL
REMARK 927      BINDING AFFINITY PREDICTED BY RF-SCORE:    0.00 PKD
ROOT
HETATM    1  C   UNL     1      -8.091  13.309  67.332  1.00  0.00    -0.175 C  
HETATM    2  N   UNL     1      -8.156  12.007  66.699  1.00  0.00    -0.366 NA 
HETATM    3  H   UNL     1      -7.374  11.634  66.161  1.00  0.00     0.000 HD 
ENDROOT
BRANCH   2   4
HETATM    4  C   UNL     1      -9.422  11.239  66.870  1.00  0.00    -0.177 C  
HETATM    5  C   UNL     1      -9.750  11.098  68.387  1.00  0.00    -0.191 C  
HETATM    6  O   UNL     1      -7.939   9.395  66.098  1.00  0.00    -0.108 OA 
HETATM    7  C   UNL     1      -9.057   9.746  66.484  1.00  0.00    -0.153 C  
HETATM    8  C   UNL     1     -10.834  10.057  68.714  1.00  0.00    -0.252 C  
HETATM    9  C   UNL     1     -10.136   8.711  66.711  1.00  0.00    -0.366 C  
HETATM   10  C   UNL     1     -10.473   8.670  68.191  1.00  0.00    -0.241 C  
BRANCH   4  11
HETATM   11  C   UNL     1     -10.480  11.789  65.882  1.00  0.00    -0.296 A  
HETATM   12  C   UNL     1     -11.137  11.912  63.493  1.00  0.00    -0.506 A  
HETATM   13  C   UNL     1     -12.450  13.049  65.142  1.00  0.00    -0.552 A  
HETATM   14  C   UNL     1     -10.285  11.467  64.509  1.00  0.00    -0.338 A  
HETATM   15  C   UNL     1     -12.238  12.691  63.814  1.00  0.00    -0.600 A  
HETATM   16  C   UNL     1     -11.572  12.635  66.161  1.00  0.00    -0.393 A  
HETATM   17 CL   UNL     1     -11.924  13.338  67.699  1.00  0.00    -0.389 Cl 
ENDBRANCH   4  11
ENDBRANCH   2   4
TORSDOF 2
ENDMDL
MODEL       31
REMARK 921   NORMALIZED FREE ENERGY PREDICTED BY IDOCK:   -4.66 KCAL/MOL
REMARK 922        TOTAL FREE ENERGY PREDICTED BY IDOCK:   -5.46 KCAL/MOL
REMARK 923 INTER-LIGAND FREE ENERGY PREDICTED BY IDOCK:   -5.92 KCAL/MOL
REMARK 924 INTRA-LIGAND FREE ENERGY PREDICTED BY IDOCK:    0.46 KCAL/MOL
REMARK 927      BINDING AFFINITY PREDICTED BY RF-SCORE:    0.00 PKD
ROOT
HETATM    1  C   UNL     1     -10.438  15.901  66.096  1.00  0.00    -0.326 C  
HETATM    2  N   UNL     1     -11.064  14.801  66.801  1.00  0.00    -0.332 NA 
HETATM    3  H   UNL     1     -11.469  14.921  67.729  1.00  0.00     0.000 HD 
ENDROOT
BRANCH   2   4
HETATM    4  C   UNL     1     -11.088  13.483  66.103  1.00  0.00    -0.291 C  
HETATM    5  C   UNL     1     -10.089  13.503  64.908  1.00  0.00    -0.280 C  
HETATM    6  O   UNL     1     -13.324  14.337  65.419  1.00  0.00    -0.649 OA 
HETATM    7  C   UNL     1     -12.482  13.437  65.352  1.00  0.00    -0.494 C  
HETATM    8  C   UNL     1     -10.256  12.341  63.915  1.00  0.00    -0.421 C  
HETATM    9  C   UNL     1     -12.711  12.256  64.435  1.00  0.00    -0.384 C  
HETATM   10  C   UNL     1     -11.665  12.280  63.334  1.00  0.00    -0.542 C  
BRANCH   4  11
HETATM   11  C   UNL     1     -11.029  12.354  67.162  1.00  0.00    -0.304 A  
HETATM   12  C   UNL     1     -10.463   9.969  67.538  1.00  0.00    -0.307 A  
HETATM   13  C   UNL     1     -11.339  11.276  69.343  1.00  0.00    -0.360 A  
HETATM   14  C   UNL     1     -10.550  11.093  66.710  1.00  0.00    -0.311 A  
HETATM   15  C   UNL     1     -10.841  10.067  68.868  1.00  0.00    -0.250 A  
HETATM   16  C   UNL     1     -11.464  12.398  68.502  1.00  0.00    -0.306 A  
HETATM   17 CL   UNL     1     -12.267  13.732  69.250  1.00  0.00    -0.358 Cl 
ENDBRANCH   4  11
ENDBRANCH   2   4
TORSDOF 2
ENDMDL
MODEL       32
REMARK 921   NORMALIZED FREE ENERGY PREDICTED BY IDOCK:   -4.63 KCAL/MOL
REMARK 922        TOTAL FREE ENERGY PREDICTED BY IDOCK:   -5.43 KCAL/MOL
REMARK 923 INTER-LIGAND FREE ENERGY PREDICTED BY IDOCK:   -5.11 KCAL/MOL
REMARK 924 INTRA-LIGAND FREE ENERGY PREDICTED BY IDOCK:   -0.31 KCAL/MOL
REMARK 927      BINDING AFFINITY PREDICTED BY RF-SCORE:    0.00 PKD
ROOT
HETATM    1  C   UNL     1      -6.624  17.326  66.356  1.00  0.00    -0.246 C  
HETATM    2  N   UNL     1      -7.478  17.168  67.516  1.00  0.00    -0.159 NA 
HETATM    3  H   UNL     1      -7.165  16.666  68.347  1.00  0.00     0.000 HD 
ENDROOT
BRANCH   2   4
HETATM    4  C   UNL     1      -8.838  17.774  67.436  1.00  0.00    -0.240 C  
HETATM    5  C   UNL     1      -8.990  18.550  66.093  1.00  0.00    -0.123 C  
HETATM    6  O   UNL     1      -7.858  19.226  69.205  1.00  0.00    -0.321 OA 
HETATM    7  C   UNL     1      -8.826  18.959  68.488  1.00  0.00    -0.352 C  
HETATM    8  C   UNL     1     -10.206  19.488  66.030  1.00  0.00    -0.567 C  
HETATM    9  C   UNL     1     -10.050  19.848  68.511  1.00  0.00    -0.538 C  
HETATM   10  C   UNL     1     -10.195  20.518  67.156  1.00  0.00    -0.334 C  
BRANCH   4  11
HETATM   11  C   UNL     1      -9.885  16.713  67.858  1.00  0.00    -0.248 A  
HETATM   12  C   UNL     1     -11.187  15.813  69.766  1.00  0.00    -0.330 A  
HETATM   13  C   UNL     1     -11.393  14.795  67.609  1.00  0.00    -0.352 A  
HETATM   14  C   UNL     1     -10.274  16.724  69.227  1.00  0.00    -0.278 A  
HETATM   15  C   UNL     1     -11.766  14.855  68.948  1.00  0.00    -0.343 A  
HETATM   16  C   UNL     1     -10.444  15.686  67.072  1.00  0.00    -0.303 A  
HETATM   17 CL   UNL     1     -10.001  15.319  65.443  1.00  0.00    -0.381 Cl 
ENDBRANCH   4  11
ENDBRANCH   2   4
TORSDOF 2
ENDMDL
MODEL       33
REMARK 921   NORMALIZED FREE ENERGY PREDICTED BY IDOCK:   -4.62 KCAL/MOL
REMARK 922        TOTAL FREE ENERGY PREDICTED BY IDOCK:   -5.41 KCAL/MOL
REMARK 923 INTER-LIGAND FREE ENERGY PREDICTED BY IDOCK:   -5.05 KCAL/MOL
REMARK 924 INTRA-LIGAND FREE ENERGY PREDICTED BY IDOCK:   -0.36 KCAL/MOL
REMARK 927      BINDING AFFINITY PREDICTED BY RF-SCORE:    0.00 PKD
ROOT
HETATM    1  C   UNL     1     -10.425   8.347  67.347  1.00  0.00    -0.283 C  
HETATM    2  N   UNL     1     -11.051   9.648  67.467  1.00  0.00    -0.421 NA 
HETATM    3  H   UNL     1     -12.013   9.752  67.791  1.00  0.00     0.000 HD 
ENDROOT
BRANCH   2   4
HETATM    4  C   UNL     1     -10.221  10.829  67.094  1.00  0.00    -0.213 C  
HETATM    5  C   UNL     1      -8.710  10.458  67.177  1.00  0.00    -0.130 C  
HETATM    6  O   UNL     1     -11.073  11.620  69.295  1.00  0.00    -0.240 OA 
HETATM    7  C   UNL     1     -10.368  11.838  68.307  1.00  0.00    -0.206 C  
HETATM    8  C   UNL     1      -7.753  11.660  67.143  1.00  0.00    -0.159 C  
HETATM    9  C   UNL     1      -9.502  13.077  68.257  1.00  0.00    -0.208 C  
HETATM   10  C   UNL     1      -8.043  12.656  68.261  1.00  0.00    -0.161 C  
BRANCH   4  11
HETATM   11  C   UNL     1     -10.808  11.468  65.811  1.00  0.00    -0.319 A  
HETATM   12  C   UNL     1     -12.546  13.006  64.937  1.00  0.00    -0.490 A  
HETATM   13  C   UNL     1     -11.087  11.880  63.409  1.00  0.00    -0.463 A  
HETATM   14  C   UNL     1     -11.893  12.371  65.997  1.00  0.00    -0.459 A  
HETATM   15  C   UNL     1     -12.127  12.775  63.635  1.00  0.00    -0.624 A  
HETATM   16  C   UNL     1     -10.453  11.209  64.472  1.00  0.00    -0.350 A  
HETATM   17 CL   UNL     1      -9.315  10.018  63.952  1.00  0.00    -0.322 Cl 
ENDBRANCH   4  11
ENDBRANCH   2   4
TORSDOF 2
ENDMDL
MODEL       34
REMARK 921   NORMALIZED FREE ENERGY PREDICTED BY IDOCK:   -4.58 KCAL/MOL
REMARK 922        TOTAL FREE ENERGY PREDICTED BY IDOCK:   -5.37 KCAL/MOL
REMARK 923 INTER-LIGAND FREE ENERGY PREDICTED BY IDOCK:   -5.04 KCAL/MOL
REMARK 924 INTRA-LIGAND FREE ENERGY PREDICTED BY IDOCK:   -0.33 KCAL/MOL
REMARK 927      BINDING AFFINITY PREDICTED BY RF-SCORE:    0.00 PKD
ROOT
HETATM    1  C   UNL     1     -12.092  12.804  64.761  1.00  0.00    -0.432 C  
HETATM    2  N   UNL     1     -12.255  12.461  66.160  1.00  0.00    -0.609 NA 
HETATM    3  H   UNL     1     -13.150  12.145  66.533  1.00  0.00     0.000 HD 
ENDROOT
BRANCH   2   4
HETATM    4  C   UNL     1     -11.050  12.593  67.029  1.00  0.00    -0.281 C  
HETATM    5  C   UNL     1      -9.765  12.318  66.191  1.00  0.00    -0.256 C  
HETATM    6  O   UNL     1     -11.984  10.482  67.960  1.00  0.00    -0.350 OA 
HETATM    7  C   UNL     1     -11.086  11.328  67.981  1.00  0.00    -0.266 C  
HETATM    8  C   UNL     1      -8.493  12.095  67.026  1.00  0.00    -0.183 C  
HETATM    9  C   UNL     1      -9.885  11.131  68.881  1.00  0.00    -0.176 C  
HETATM   10  C   UNL     1      -8.651  10.946  68.016  1.00  0.00    -0.131 C  
BRANCH   4  11
HETATM   11  C   UNL     1     -11.181  13.885  67.873  1.00  0.00    -0.302 A  
HETATM   12  C   UNL     1     -12.010  14.820  70.015  1.00  0.00    -0.369 A  
HETATM   13  C   UNL     1     -11.018  16.277  68.394  1.00  0.00    -0.351 A  
HETATM   14  C   UNL     1     -11.795  13.743  69.149  1.00  0.00    -0.398 A  
HETATM   15  C   UNL     1     -11.600  16.091  69.645  1.00  0.00    -0.299 A  
HETATM   16  C   UNL     1     -10.837  15.201  67.504  1.00  0.00    -0.301 A  
HETATM   17 CL   UNL     1     -10.264  15.686  65.948  1.00  0.00    -0.343 Cl 
ENDBRANCH   4  11
ENDBRANCH   2   4
TORSDOF 2
ENDMDL
MODEL       35
REMARK 921   NORMALIZED FREE ENERGY PREDICTED BY IDOCK:   -4.57 KCAL/MOL
REMARK 922        TOTAL FREE ENERGY PREDICTED BY IDOCK:   -5.35 KCAL/MOL
REMARK 923 INTER-LIGAND FREE ENERGY PREDICTED BY IDOCK:   -5.01 KCAL/MOL
REMARK 924 INTRA-LIGAND FREE ENERGY PREDICTED BY IDOCK:   -0.34 KCAL/MOL
REMARK 927      BINDING AFFINITY PREDICTED BY RF-SCORE:    0.00 PKD
ROOT
HETATM    1  C   UNL     1     -12.648  13.903  65.702  1.00  0.00    -0.517 C  
HETATM    2  N   UNL     1     -12.105  12.706  66.313  1.00  0.00    -0.568 NA 
HETATM    3  H   UNL     1     -12.463  11.779  66.084  1.00  0.00     0.000 HD 
ENDROOT
BRANCH   2   4
HETATM    4  C   UNL     1     -11.000  12.896  67.296  1.00  0.00    -0.261 C  
HETATM    5  C   UNL     1     -10.618  14.405  67.373  1.00  0.00    -0.270 C  
HETATM    6  O   UNL     1      -9.735  11.742  65.489  1.00  0.00    -0.227 OA 
HETATM    7  C   UNL     1      -9.717  12.279  66.600  1.00  0.00    -0.222 C  
HETATM    8  C   UNL     1      -9.288  14.692  68.088  1.00  0.00    -0.197 C  
HETATM    9  C   UNL     1      -8.403  12.469  67.325  1.00  0.00    -0.185 C  
HETATM   10  C   UNL     1      -8.118  13.956  67.442  1.00  0.00    -0.190 C  
BRANCH   4  11
HETATM   11  C   UNL     1     -11.329  12.098  68.582  1.00  0.00    -0.330 A  
HETATM   12  C   UNL     1     -11.272   9.852  69.632  1.00  0.00    -0.251 A  
HETATM   13  C   UNL     1     -12.205  11.699  70.838  1.00  0.00    -0.401 A  
HETATM   14  C   UNL     1     -11.011  10.711  68.560  1.00  0.00    -0.296 A  
HETATM   15  C   UNL     1     -11.855  10.353  70.786  1.00  0.00    -0.466 A  
HETATM   16  C   UNL     1     -11.978  12.557  69.745  1.00  0.00    -0.289 A  
HETATM   17 CL   UNL     1     -12.650  14.135  69.959  1.00  0.00    -0.341 Cl 
ENDBRANCH   4  11
ENDBRANCH   2   4
TORSDOF 2
ENDMDL
MODEL       36
REMARK 921   NORMALIZED FREE ENERGY PREDICTED BY IDOCK:   -4.53 KCAL/MOL
REMARK 922        TOTAL FREE ENERGY PREDICTED BY IDOCK:   -5.31 KCAL/MOL
REMARK 923 INTER-LIGAND FREE ENERGY PREDICTED BY IDOCK:   -5.25 KCAL/MOL
REMARK 924 INTRA-LIGAND FREE ENERGY PREDICTED BY IDOCK:   -0.06 KCAL/MOL
REMARK 927      BINDING AFFINITY PREDICTED BY RF-SCORE:    0.00 PKD
ROOT
HETATM    1  C   UNL     1     -12.522  12.829  64.264  1.00  0.00    -0.382 C  
HETATM    2  N   UNL     1     -12.397  12.576  65.686  1.00  0.00    -0.638 NA 
HETATM    3  H   UNL     1     -13.208  12.356  66.263  1.00  0.00     0.000 HD 
ENDROOT
BRANCH   2   4
HETATM    4  C   UNL     1     -11.025  12.654  66.263  1.00  0.00    -0.283 C  
HETATM    5  C   UNL     1     -10.034  11.842  65.376  1.00  0.00    -0.284 C  
HETATM    6  O   UNL     1     -12.097  11.198  67.975  1.00  0.00    -0.635 OA 
HETATM    7  C   UNL     1     -11.077  11.767  67.575  1.00  0.00    -0.272 C  
HETATM    8  C   UNL     1      -8.670  11.564  66.029  1.00  0.00    -0.095 C  
HETATM    9  C   UNL     1      -9.762  11.549  68.291  1.00  0.00    -0.198 C  
HETATM   10  C   UNL     1      -8.809  10.825  67.356  1.00  0.00    -0.129 C  
BRANCH   4  11
HETATM   11  C   UNL     1     -10.722  14.125  66.641  1.00  0.00    -0.289 A  
HETATM   12  C   UNL     1      -9.405  16.135  66.027  1.00  0.00    -0.368 A  
HETATM   13  C   UNL     1     -10.816  16.191  67.961  1.00  0.00    -0.333 A  
HETATM   14  C   UNL     1      -9.801  14.813  65.802  1.00  0.00    -0.373 A  
HETATM   15  C   UNL     1      -9.932  16.835  67.102  1.00  0.00    -0.274 A  
HETATM   16  C   UNL     1     -11.186  14.847  67.758  1.00  0.00    -0.321 A  
HETATM   17 CL   UNL     1     -12.148  14.199  69.039  1.00  0.00    -0.374 Cl 
ENDBRANCH   4  11
ENDBRANCH   2   4
TORSDOF 2
ENDMDL
MODEL       37
REMARK 921   NORMALIZED FREE ENERGY PREDICTED BY IDOCK:   -4.48 KCAL/MOL
REMARK 922        TOTAL FREE ENERGY PREDICTED BY IDOCK:   -5.26 KCAL/MOL
REMARK 923 INTER-LIGAND FREE ENERGY PREDICTED BY IDOCK:   -5.06 KCAL/MOL
REMARK 924 INTRA-LIGAND FREE ENERGY PREDICTED BY IDOCK:   -0.21 KCAL/MOL
REMARK 927      BINDING AFFINITY PREDICTED BY RF-SCORE:    0.00 PKD
ROOT
HETATM    1  C   UNL     1      -8.127   8.062  74.296  1.00  0.00    -0.258 C  
HETATM    2  N   UNL     1      -8.780   8.585  73.113  1.00  0.00    -0.364 NA 
HETATM    3  H   UNL     1      -8.476   9.453  72.673  1.00  0.00     0.000 HD 
ENDROOT
BRANCH   2   4
HETATM    4  C   UNL     1      -9.920   7.792  72.569  1.00  0.00    -0.225 C  
HETATM    5  C   UNL     1     -10.339   6.700  73.598  1.00  0.00    -0.343 C  
HETATM    6  O   UNL     1      -8.111   6.969  71.071  1.00  0.00    -0.103 OA 
HETATM    7  C   UNL     1      -9.297   6.913  71.408  1.00  0.00    -0.156 C  
HETATM    8  C   UNL     1     -11.268   5.612  73.034  1.00  0.00    -0.319 C  
HETATM    9  C   UNL     1     -10.215   5.894  70.771  1.00  0.00    -0.268 C  
HETATM   10  C   UNL     1     -10.655   4.900  71.833  1.00  0.00    -0.186 C  
BRANCH   4  11
HETATM   11  C   UNL     1     -10.971   8.765  71.980  1.00  0.00    -0.438 A  
HETATM   12  C   UNL     1     -13.343   9.482  72.092  1.00  0.00    -0.545 A  
HETATM   13  C   UNL     1     -11.878  10.488  70.487  1.00  0.00    -0.442 A  
HETATM   14  C   UNL     1     -12.279   8.690  72.535  1.00  0.00    -0.374 A  
HETATM   15  C   UNL     1     -13.136  10.401  71.075  1.00  0.00    -0.450 A  
HETATM   16  C   UNL     1     -10.815   9.664  70.906  1.00  0.00    -0.339 A  
HETATM   17 CL   UNL     1      -9.401   9.814  69.924  1.00  0.00    -0.247 Cl 
ENDBRANCH   4  11
ENDBRANCH   2   4
TORSDOF 2
ENDMDL
MODEL       38
REMARK 921   NORMALIZED FREE ENERGY PREDICTED BY IDOCK:   -4.47 KCAL/MOL
REMARK 922        TOTAL FREE ENERGY PREDICTED BY IDOCK:   -5.25 KCAL/MOL
REMARK 923 INTER-LIGAND FREE ENERGY PREDICTED BY IDOCK:   -5.50 KCAL/MOL
REMARK 924 INTRA-LIGAND FREE ENERGY PREDICTED BY IDOCK:    0.26 KCAL/MOL
REMARK 927      BINDING AFFINITY PREDICTED BY RF-SCORE:    0.00 PKD
ROOT
HETATM    1  C   UNL     1     -11.274  15.869  65.042  1.00  0.00    -0.290 C  
HETATM    2  N   UNL     1     -10.508  17.079  65.258  1.00  0.00    -0.665 NA 
HETATM    3  H   UNL     1     -10.196  17.661  64.481  1.00  0.00     0.000 HD 
ENDROOT
BRANCH   2   4
HETATM    4  C   UNL     1     -10.196  17.434  66.673  1.00  0.00    -0.324 C  
HETATM    5  C   UNL     1     -10.766  18.847  66.998  1.00  0.00    -0.477 C  
HETATM    6  O   UNL     1      -7.906  17.589  65.710  1.00  0.00    -0.544 OA 
HETATM    7  C   UNL     1      -8.636  17.707  66.698  1.00  0.00    -0.257 C  
HETATM    8  C   UNL     1     -10.234  19.467  68.301  1.00  0.00    -0.552 C  
HETATM    9  C   UNL     1      -8.067  18.233  67.997  1.00  0.00    -0.279 C  
HETATM   10  C   UNL     1      -8.712  19.573  68.306  1.00  0.00    -0.380 C  
BRANCH   4  11
HETATM   11  C   UNL     1     -10.528  16.221  67.578  1.00  0.00    -0.302 A  
HETATM   12  C   UNL     1     -12.029  15.393  69.370  1.00  0.00    -0.351 A  
HETATM   13  C   UNL     1     -10.266  13.990  68.562  1.00  0.00    -0.237 A  
HETATM   14  C   UNL     1     -11.624  16.385  68.471  1.00  0.00    -0.100 A  
HETATM   15  C   UNL     1     -11.359  14.180  69.401  1.00  0.00    -0.318 A  
HETATM   16  C   UNL     1      -9.832  15.001  67.684  1.00  0.00    -0.220 A  
HETATM   17 CL   UNL     1      -8.357  14.618  66.869  1.00  0.00    -0.209 Cl 
ENDBRANCH   4  11
ENDBRANCH   2   4
TORSDOF 2
ENDMDL
MODEL       39
REMARK 921   NORMALIZED FREE ENERGY PREDICTED BY IDOCK:   -4.47 KCAL/MOL
REMARK 922        TOTAL FREE ENERGY PREDICTED BY IDOCK:   -5.24 KCAL/MOL
REMARK 923 INTER-LIGAND FREE ENERGY PREDICTED BY IDOCK:   -4.88 KCAL/MOL
REMARK 924 INTRA-LIGAND FREE ENERGY PREDICTED BY IDOCK:   -0.37 KCAL/MOL
REMARK 927      BINDING AFFINITY PREDICTED BY RF-SCORE:    0.00 PKD
ROOT
HETATM    1  C   UNL     1      -8.038   8.396  71.195  1.00  0.00    -0.125 C  
HETATM    2  N   UNL     1      -8.939   9.479  70.853  1.00  0.00    -0.334 NA 
HETATM    3  H   UNL     1      -8.841  10.406  71.266  1.00  0.00     0.000 HD 
ENDROOT
BRANCH   2   4
HETATM    4  C   UNL     1     -10.016   9.171  69.869  1.00  0.00    -0.197 C  
HETATM    5  C   UNL     1      -9.546   8.033  68.914  1.00  0.00    -0.152 C  
HETATM    6  O   UNL     1      -9.321  11.404  69.015  1.00  0.00    -0.094 OA 
HETATM    7  C   UNL     1     -10.049  10.415  68.889  1.00  0.00    -0.201 C  
HETATM    8  C   UNL     1     -10.416   7.851  67.659  1.00  0.00    -0.303 C  
HETATM    9  C   UNL     1     -10.965  10.302  67.691  1.00  0.00    -0.356 C  
HETATM   10  C   UNL     1     -10.511   9.131  66.836  1.00  0.00    -0.287 C  
BRANCH   4  11
HETATM   11  C   UNL     1     -11.366   9.064  70.621  1.00  0.00    -0.311 A  
HETATM   12  C   UNL     1     -13.154  10.359  71.751  1.00  0.00    -0.567 A  
HETATM   13  C   UNL     1     -13.280   7.969  71.696  1.00  0.00    -0.358 A  
HETATM   14  C   UNL     1     -11.952  10.291  71.039  1.00  0.00    -0.483 A  
HETATM   15  C   UNL     1     -13.832   9.191  72.064  1.00  0.00    -0.480 A  
HETATM   16  C   UNL     1     -12.050   7.896  71.013  1.00  0.00    -0.230 A  
HETATM   17 CL   UNL     1     -11.468   6.282  70.815  1.00  0.00    -0.401 Cl 
ENDBRANCH   4  11
ENDBRANCH   2   4
TORSDOF 2
ENDMDL
MODEL       40
REMARK 921   NORMALIZED FREE ENERGY PREDICTED BY IDOCK:   -4.46 KCAL/MOL
REMARK 922        TOTAL FREE ENERGY PREDICTED BY IDOCK:   -5.23 KCAL/MOL
REMARK 923 INTER-LIGAND FREE ENERGY PREDICTED BY IDOCK:   -5.00 KCAL/MOL
REMARK 924 INTRA-LIGAND FREE ENERGY PREDICTED BY IDOCK:   -0.24 KCAL/MOL
REMARK 927      BINDING AFFINITY PREDICTED BY RF-SCORE:    0.00 PKD
ROOT
HETATM    1  C   UNL     1      -8.388  11.506  67.095  1.00  0.00    -0.160 C  
HETATM    2  N   UNL     1      -8.887  12.705  67.739  1.00  0.00    -0.169 NA 
HETATM    3  H   UNL     1      -8.359  13.178  68.472  1.00  0.00     0.000 HD 
ENDROOT
BRANCH   2   4
HETATM    4  C   UNL     1     -10.210  13.214  67.277  1.00  0.00    -0.243 C  
HETATM    5  C   UNL     1     -10.765  12.291  66.151  1.00  0.00    -0.296 C  
HETATM    6  O   UNL     1      -8.748  14.996  66.338  1.00  0.00    -0.256 OA 
HETATM    7  C   UNL     1      -9.886  14.539  66.471  1.00  0.00    -0.285 C  
HETATM    8  C   UNL     1     -11.947  12.880  65.365  1.00  0.00    -0.470 C  
HETATM    9  C   UNL     1     -11.050  15.193  65.759  1.00  0.00    -0.330 C  
HETATM   10  C   UNL     1     -11.601  14.223  64.729  1.00  0.00    -0.404 C  
BRANCH   4  11
HETATM   11  C   UNL     1     -11.075  13.555  68.516  1.00  0.00    -0.300 A  
HETATM   12  C   UNL     1     -11.922  15.402  69.937  1.00  0.00    -0.384 A  
HETATM   13  C   UNL     1     -12.455  13.137  70.500  1.00  0.00    -0.322 A  
HETATM   14  C   UNL     1     -11.198  14.937  68.835  1.00  0.00    -0.282 A  
HETATM   15  C   UNL     1     -12.571  14.498  70.764  1.00  0.00    -0.418 A  
HETATM   16  C   UNL     1     -11.694  12.663  69.414  1.00  0.00    -0.325 A  
HETATM   17 CL   UNL     1     -11.541  10.943  69.381  1.00  0.00    -0.353 Cl 
ENDBRANCH   4  11
ENDBRANCH   2   4
TORSDOF 2
ENDMDL
MODEL       41
REMARK 921   NORMALIZED FREE ENERGY PREDICTED BY IDOCK:   -4.46 KCAL/MOL
REMARK 922        TOTAL FREE ENERGY PREDICTED BY IDOCK:   -5.23 KCAL/MOL
REMARK 923 INTER-LIGAND FREE ENERGY PREDICTED BY IDOCK:   -4.92 KCAL/MOL
REMARK 924 INTRA-LIGAND FREE ENERGY PREDICTED BY IDOCK:   -0.31 KCAL/MOL
REMARK 927      BINDING AFFINITY PREDICTED BY RF-SCORE:    0.00 PKD
ROOT
HETATM    1  C   UNL     1      -8.813   8.231  72.237  1.00  0.00    -0.209 C  
HETATM    2  N   UNL     1      -8.791   8.700  70.866  1.00  0.00    -0.165 NA 
HETATM    3  H   UNL     1      -8.002   9.229  70.494  1.00  0.00     0.000 HD 
ENDROOT
BRANCH   2   4
HETATM    4  C   UNL     1      -9.977   8.371  70.024  1.00  0.00    -0.188 C  
HETATM    5  C   UNL     1      -9.974   6.851  69.681  1.00  0.00    -0.179 C  
HETATM    6  O   UNL     1      -8.657   9.671  68.362  1.00  0.00    -0.118 OA 
HETATM    7  C   UNL     1      -9.674   9.017  68.610  1.00  0.00    -0.160 C  
HETATM    8  C   UNL     1     -10.943   6.447  68.558  1.00  0.00    -0.396 C  
HETATM    9  C   UNL     1     -10.661   8.710  67.506  1.00  0.00    -0.292 C  
HETATM   10  C   UNL     1     -10.675   7.210  67.265  1.00  0.00    -0.399 C  
BRANCH   4  11
HETATM   11  C   UNL     1     -11.231   9.037  70.644  1.00  0.00    -0.318 A  
HETATM   12  C   UNL     1     -12.413  11.192  70.977  1.00  0.00    -0.506 A  
HETATM   13  C   UNL     1     -13.314   9.188  71.930  1.00  0.00    -0.490 A  
HETATM   14  C   UNL     1     -11.353  10.443  70.456  1.00  0.00    -0.424 A  
HETATM   15  C   UNL     1     -13.410  10.557  71.702  1.00  0.00    -0.423 A  
HETATM   16  C   UNL     1     -12.228   8.439  71.439  1.00  0.00    -0.302 A  
HETATM   17 CL   UNL     1     -12.219   6.801  71.989  1.00  0.00    -0.352 Cl 
ENDBRANCH   4  11
ENDBRANCH   2   4
TORSDOF 2
ENDMDL
MODEL       42
REMARK 921   NORMALIZED FREE ENERGY PREDICTED BY IDOCK:   -4.44 KCAL/MOL
REMARK 922        TOTAL FREE ENERGY PREDICTED BY IDOCK:   -5.21 KCAL/MOL
REMARK 923 INTER-LIGAND FREE ENERGY PREDICTED BY IDOCK:   -4.95 KCAL/MOL
REMARK 924 INTRA-LIGAND FREE ENERGY PREDICTED BY IDOCK:   -0.26 KCAL/MOL
REMARK 927      BINDING AFFINITY PREDICTED BY RF-SCORE:    0.00 PKD
ROOT
HETATM    1  C   UNL     1     -11.857  13.814  69.564  1.00  0.00    -0.339 C  
HETATM    2  N   UNL     1     -12.411  13.957  68.232  1.00  0.00    -0.455 NA 
HETATM    3  H   UNL     1     -13.414  13.890  68.060  1.00  0.00     0.000 HD 
ENDROOT
BRANCH   2   4
HETATM    4  C   UNL     1     -11.443  14.205  67.126  1.00  0.00    -0.353 C  
HETATM    5  C   UNL     1     -10.995  15.698  67.144  1.00  0.00    -0.270 C  
HETATM    6  O   UNL     1     -13.517  13.907  65.782  1.00  0.00    -0.464 OA 
HETATM    7  C   UNL     1     -12.307  14.149  65.799  1.00  0.00    -0.461 C  
HETATM    8  C   UNL     1     -10.268  16.164  65.872  1.00  0.00    -0.381 C  
HETATM    9  C   UNL     1     -11.593  14.516  64.517  1.00  0.00    -0.385 C  
HETATM   10  C   UNL     1     -11.111  15.953  64.619  1.00  0.00    -0.368 C  
BRANCH   4  11
HETATM   11  C   UNL     1     -10.393  13.067  67.112  1.00  0.00    -0.243 A  
HETATM   12  C   UNL     1      -9.993  10.699  66.492  1.00  0.00    -0.265 A  
HETATM   13  C   UNL     1      -8.255  11.951  67.561  1.00  0.00    -0.155 A  
HETATM   14  C   UNL     1     -10.815  11.829  66.551  1.00  0.00    -0.323 A  
HETATM   15  C   UNL     1      -8.698  10.767  66.982  1.00  0.00    -0.136 A  
HETATM   16  C   UNL     1      -9.094  13.078  67.658  1.00  0.00    -0.198 A  
HETATM   17 CL   UNL     1      -8.403  14.373  68.569  1.00  0.00    -0.154 Cl 
ENDBRANCH   4  11
ENDBRANCH   2   4
TORSDOF 2
ENDMDL
MODEL       43
REMARK 921   NORMALIZED FREE ENERGY PREDICTED BY IDOCK:   -4.40 KCAL/MOL
REMARK 922        TOTAL FREE ENERGY PREDICTED BY IDOCK:   -5.17 KCAL/MOL
REMARK 923 INTER-LIGAND FREE ENERGY PREDICTED BY IDOCK:   -5.23 KCAL/MOL
REMARK 924 INTRA-LIGAND FREE ENERGY PREDICTED BY IDOCK:    0.06 KCAL/MOL
REMARK 927      BINDING AFFINITY PREDICTED BY RF-SCORE:    0.00 PKD
ROOT
HETATM    1  C   UNL     1     -10.459  19.536  67.466  1.00  0.00    -0.472 C  
HETATM    2  N   UNL     1     -10.833  18.151  67.262  1.00  0.00    -0.302 NA 
HETATM    3  H   UNL     1     -11.691  17.895  66.773  1.00  0.00     0.000 HD 
ENDROOT
BRANCH   2   4
HETATM    4  C   UNL     1      -9.903  17.117  67.801  1.00  0.00    -0.274 C  
HETATM    5  C   UNL     1      -8.625  17.804  68.368  1.00  0.00    -0.292 C  
HETATM    6  O   UNL     1      -9.663  16.640  65.370  1.00  0.00    -0.501 OA 
HETATM    7  C   UNL     1      -9.326  16.374  66.527  1.00  0.00    -0.273 C  
HETATM    8  C   UNL     1      -7.454  16.848  68.647  1.00  0.00    -0.226 C  
HETATM    9  C   UNL     1      -8.233  15.360  66.779  1.00  0.00    -0.252 C  
HETATM   10  C   UNL     1      -7.042  16.067  67.403  1.00  0.00    -0.222 C  
BRANCH   4  11
HETATM   11  C   UNL     1     -10.711  16.118  68.666  1.00  0.00    -0.295 A  
HETATM   12  C   UNL     1     -11.270  15.453  70.989  1.00  0.00    -0.408 A  
HETATM   13  C   UNL     1     -12.148  14.191  69.154  1.00  0.00    -0.362 A  
HETATM   14  C   UNL     1     -10.621  16.291  70.076  1.00  0.00    -0.239 A  
HETATM   15  C   UNL     1     -12.054  14.409  70.525  1.00  0.00    -0.404 A  
HETATM   16  C   UNL     1     -11.465  15.009  68.234  1.00  0.00    -0.332 A  
HETATM   17 CL   UNL     1     -11.578  14.451  66.602  1.00  0.00    -0.379 Cl 
ENDBRANCH   4  11
ENDBRANCH   2   4
TORSDOF 2
ENDMDL
MODEL       44
REMARK 921   NORMALIZED FREE ENERGY PREDICTED BY IDOCK:   -4.38 KCAL/MOL
REMARK 922        TOTAL FREE ENERGY PREDICTED BY IDOCK:   -5.14 KCAL/MOL
REMARK 923 INTER-LIGAND FREE ENERGY PREDICTED BY IDOCK:   -4.80 KCAL/MOL
REMARK 924 INTRA-LIGAND FREE ENERGY PREDICTED BY IDOCK:   -0.34 KCAL/MOL
REMARK 927      BINDING AFFINITY PREDICTED BY RF-SCORE:    0.00 PKD
ROOT
HETATM    1  C   UNL     1      -9.047   8.042  73.326  1.00  0.00    -0.282 C  
HETATM    2  N   UNL     1      -9.016   8.778  72.078  1.00  0.00    -0.369 NA 
HETATM    3  H   UNL     1      -8.330   9.514  71.908  1.00  0.00     0.000 HD 
ENDROOT
BRANCH   2   4
HETATM    4  C   UNL     1     -10.036   8.409  71.055  1.00  0.00    -0.190 C  
HETATM    5  C   UNL     1     -10.981   7.310  71.626  1.00  0.00    -0.253 C  
HETATM    6  O   UNL     1      -8.022   7.399  69.994  1.00  0.00    -0.114 OA 
HETATM    7  C   UNL     1      -9.239   7.600  69.950  1.00  0.00    -0.147 C  
HETATM    8  C   UNL     1     -11.857   6.609  70.575  1.00  0.00    -0.430 C  
HETATM    9  C   UNL     1     -10.067   6.972  68.850  1.00  0.00    -0.174 C  
HETATM   10  C   UNL     1     -11.024   5.968  69.470  1.00  0.00    -0.467 C  
BRANCH   4  11
HETATM   11  C   UNL     1     -10.616   9.705  70.435  1.00  0.00    -0.354 A  
HETATM   12  C   UNL     1     -10.187  11.533  68.815  1.00  0.00    -0.204 A  
HETATM   13  C   UNL     1     -12.196  11.554  70.118  1.00  0.00    -0.387 A  
HETATM   14  C   UNL     1      -9.814  10.343  69.447  1.00  0.00    -0.235 A  
HETATM   15  C   UNL     1     -11.395  12.132  69.138  1.00  0.00    -0.333 A  
HETATM   16  C   UNL     1     -11.805  10.376  70.783  1.00  0.00    -0.368 A  
HETATM   17 CL   UNL     1     -12.859   9.937  72.080  1.00  0.00    -0.495 Cl 
ENDBRANCH   4  11
ENDBRANCH   2   4
TORSDOF 2
ENDMDL
MODEL       45
REMARK 921   NORMALIZED FREE ENERGY PREDICTED BY IDOCK:   -4.37 KCAL/MOL
REMARK 922        TOTAL FREE ENERGY PREDICTED BY IDOCK:   -5.14 KCAL/MOL
REMARK 923 INTER-LIGAND FREE ENERGY PREDICTED BY IDOCK:   -4.86 KCAL/MOL
REMARK 924 INTRA-LIGAND FREE ENERGY PREDICTED BY IDOCK:   -0.27 KCAL/MOL
REMARK 927      BINDING AFFINITY PREDICTED BY RF-SCORE:    0.00 PKD
ROOT
HETATM    1  C   UNL     1     -11.908  11.412  68.902  1.00  0.00    -0.347 C  
HETATM    2  N   UNL     1     -12.025  11.694  67.485  1.00  0.00    -0.621 NA 
HETATM    3  H   UNL     1     -12.709  11.216  66.899  1.00  0.00     0.000 HD 
ENDROOT
BRANCH   2   4
HETATM    4  C   UNL     1     -11.098  12.719  66.926  1.00  0.00    -0.270 C  
HETATM    5  C   UNL     1     -11.432  14.116  67.530  1.00  0.00    -0.365 C  
HETATM    6  O   UNL     1     -12.467  12.270  64.896  1.00  0.00    -0.500 OA 
HETATM    7  C   UNL     1     -11.550  12.909  65.419  1.00  0.00    -0.350 C  
HETATM    8  C   UNL     1     -10.781  15.302  66.799  1.00  0.00    -0.313 C  
HETATM    9  C   UNL     1     -10.863  14.012  64.646  1.00  0.00    -0.416 C  
HETATM   10  C   UNL     1     -11.156  15.340  65.321  1.00  0.00    -0.382 C  
BRANCH   4  11
HETATM   11  C   UNL     1      -9.653  12.165  66.970  1.00  0.00    -0.207 A  
HETATM   12  C   UNL     1      -7.341  12.618  67.747  1.00  0.00    -0.128 A  
HETATM   13  C   UNL     1      -7.800  10.630  66.494  1.00  0.00    -0.140 A  
HETATM   14  C   UNL     1      -8.692  12.968  67.646  1.00  0.00    -0.189 A  
HETATM   15  C   UNL     1      -6.897  11.431  67.186  1.00  0.00    -0.124 A  
HETATM   16  C   UNL     1      -9.151  10.999  66.357  1.00  0.00    -0.178 A  
HETATM   17 CL   UNL     1     -10.047   9.953  65.314  1.00  0.00    -0.333 Cl 
ENDBRANCH   4  11
ENDBRANCH   2   4
TORSDOF 2
ENDMDL
MODEL       46
REMARK 921   NORMALIZED FREE ENERGY PREDICTED BY IDOCK:   -4.37 KCAL/MOL
REMARK 922        TOTAL FREE ENERGY PREDICTED BY IDOCK:   -5.13 KCAL/MOL
REMARK 923 INTER-LIGAND FREE ENERGY PREDICTED BY IDOCK:   -4.81 KCAL/MOL
REMARK 924 INTRA-LIGAND FREE ENERGY PREDICTED BY IDOCK:   -0.32 KCAL/MOL
REMARK 927      BINDING AFFINITY PREDICTED BY RF-SCORE:    0.00 PKD
ROOT
HETATM    1  C   UNL     1      -7.905  10.274  69.243  1.00  0.00    -0.142 C  
HETATM    2  N   UNL     1      -8.574   9.506  70.274  1.00  0.00    -0.215 NA 
HETATM    3  H   UNL     1      -8.061   9.101  71.057  1.00  0.00     0.000 HD 
ENDROOT
BRANCH   2   4
HETATM    4  C   UNL     1     -10.049   9.336  70.135  1.00  0.00    -0.213 C  
HETATM    5  C   UNL     1     -10.721  10.726  69.924  1.00  0.00    -0.202 C  
HETATM    6  O   UNL     1      -9.813   8.811  72.557  1.00  0.00    -0.249 OA 
HETATM    7  C   UNL     1     -10.560   8.953  71.585  1.00  0.00    -0.352 C  
HETATM    8  C   UNL     1     -12.248  10.732  70.099  1.00  0.00    -0.425 C  
HETATM    9  C   UNL     1     -12.059   8.863  71.766  1.00  0.00    -0.432 C  
HETATM   10  C   UNL     1     -12.670  10.222  71.473  1.00  0.00    -0.557 C  
BRANCH   4  11
HETATM   11  C   UNL     1     -10.329   8.168  69.157  1.00  0.00    -0.228 A  
HETATM   12  C   UNL     1     -10.512   5.702  68.961  1.00  0.00    -0.321 A  
HETATM   13  C   UNL     1     -10.774   7.067  67.011  1.00  0.00    -0.423 A  
HETATM   14  C   UNL     1     -10.306   6.860  69.718  1.00  0.00    -0.224 A  
HETATM   15  C   UNL     1     -10.768   5.808  67.603  1.00  0.00    -0.313 A  
HETATM   16  C   UNL     1     -10.527   8.231  67.764  1.00  0.00    -0.215 A  
HETATM   17 CL   UNL     1     -10.406   9.660  66.800  1.00  0.00    -0.305 Cl 
ENDBRANCH   4  11
ENDBRANCH   2   4
TORSDOF 2
ENDMDL
MODEL       47
REMARK 921   NORMALIZED FREE ENERGY PREDICTED BY IDOCK:   -4.36 KCAL/MOL
REMARK 922        TOTAL FREE ENERGY PREDICTED BY IDOCK:   -5.13 KCAL/MOL
REMARK 923 INTER-LIGAND FREE ENERGY PREDICTED BY IDOCK:   -5.08 KCAL/MOL
REMARK 924 INTRA-LIGAND FREE ENERGY PREDICTED BY IDOCK:   -0.04 KCAL/MOL
REMARK 927      BINDING AFFINITY PREDICTED BY RF-SCORE:    0.00 PKD
ROOT
HETATM    1  C   UNL     1     -11.003   6.058  68.964  1.00  0.00    -0.339 C  
HETATM    2  N   UNL     1     -11.686   6.876  69.947  1.00  0.00    -0.605 NA 
HETATM    3  H   UNL     1     -12.701   6.856  70.047  1.00  0.00     0.000 HD 
ENDROOT
BRANCH   2   4
HETATM    4  C   UNL     1     -10.834   7.747  70.805  1.00  0.00    -0.239 C  
HETATM    5  C   UNL     1      -9.330   7.482  70.495  1.00  0.00    -0.160 C  
HETATM    6  O   UNL     1     -11.681   6.181  72.545  1.00  0.00    -0.278 OA 
HETATM    7  C   UNL     1     -10.967   7.148  72.266  1.00  0.00    -0.243 C  
HETATM    8  C   UNL     1      -8.351   8.062  71.528  1.00  0.00    -0.139 C  
HETATM    9  C   UNL     1     -10.079   7.760  73.326  1.00  0.00    -0.374 C  
HETATM   10  C   UNL     1      -8.627   7.542  72.935  1.00  0.00    -0.172 C  
BRANCH   4  11
HETATM   11  C   UNL     1     -11.403   9.187  70.779  1.00  0.00    -0.337 A  
HETATM   12  C   UNL     1     -11.044  11.483  69.911  1.00  0.00    -0.079 A  
HETATM   13  C   UNL     1     -12.905  11.041  71.351  1.00  0.00    -0.548 A  
HETATM   14  C   UNL     1     -10.674  10.138  70.011  1.00  0.00    -0.356 A  
HETATM   15  C   UNL     1     -12.178  11.932  70.568  1.00  0.00    -0.426 A  
HETATM   16  C   UNL     1     -12.512   9.695  71.485  1.00  0.00    -0.386 A  
HETATM   17 CL   UNL     1     -13.450   8.817  72.640  1.00  0.00    -0.402 Cl 
ENDBRANCH   4  11
ENDBRANCH   2   4
TORSDOF 2
ENDMDL
MODEL       48
REMARK 921   NORMALIZED FREE ENERGY PREDICTED BY IDOCK:   -4.34 KCAL/MOL
REMARK 922        TOTAL FREE ENERGY PREDICTED BY IDOCK:   -5.10 KCAL/MOL
REMARK 923 INTER-LIGAND FREE ENERGY PREDICTED BY IDOCK:   -4.90 KCAL/MOL
REMARK 924 INTRA-LIGAND FREE ENERGY PREDICTED BY IDOCK:   -0.20 KCAL/MOL
REMARK 927      BINDING AFFINITY PREDICTED BY RF-SCORE:    0.00 PKD
ROOT
HETATM    1  C   UNL     1     -10.565   7.862  67.378  1.00  0.00    -0.272 C  
HETATM    2  N   UNL     1     -10.919   9.267  67.360  1.00  0.00    -0.404 NA 
HETATM    3  H   UNL     1     -11.775   9.609  67.796  1.00  0.00     0.000 HD 
ENDROOT
BRANCH   2   4
HETATM    4  C   UNL     1      -9.972  10.190  66.671  1.00  0.00    -0.216 C  
HETATM    5  C   UNL     1      -8.814   9.370  66.027  1.00  0.00    -0.185 C  
HETATM    6  O   UNL     1      -9.452  10.776  69.034  1.00  0.00    -0.191 OA 
HETATM    7  C   UNL     1      -9.214  10.950  67.835  1.00  0.00    -0.152 C  
HETATM    8  C   UNL     1      -7.607  10.210  65.579  1.00  0.00    -0.146 C  
HETATM    9  C   UNL     1      -8.077  11.856  67.417  1.00  0.00    -0.165 C  
HETATM   10  C   UNL     1      -7.013  11.020  66.727  1.00  0.00    -0.131 C  
BRANCH   4  11
HETATM   11  C   UNL     1     -10.784  11.204  65.828  1.00  0.00    -0.252 A  
HETATM   12  C   UNL     1     -11.227  12.018  63.527  1.00  0.00    -0.526 A  
HETATM   13  C   UNL     1     -12.309  13.074  65.384  1.00  0.00    -0.538 A  
HETATM   14  C   UNL     1     -10.588  11.151  64.419  1.00  0.00    -0.411 A  
HETATM   15  C   UNL     1     -12.109  12.972  64.011  1.00  0.00    -0.519 A  
HETATM   16  C   UNL     1     -11.636  12.228  66.287  1.00  0.00    -0.385 A  
HETATM   17 CL   UNL     1     -11.896  12.646  67.944  1.00  0.00    -0.405 Cl 
ENDBRANCH   4  11
ENDBRANCH   2   4
TORSDOF 2
ENDMDL
MODEL       49
REMARK 921   NORMALIZED FREE ENERGY PREDICTED BY IDOCK:   -4.32 KCAL/MOL
REMARK 922        TOTAL FREE ENERGY PREDICTED BY IDOCK:   -5.08 KCAL/MOL
REMARK 923 INTER-LIGAND FREE ENERGY PREDICTED BY IDOCK:   -4.88 KCAL/MOL
REMARK 924 INTRA-LIGAND FREE ENERGY PREDICTED BY IDOCK:   -0.20 KCAL/MOL
REMARK 927      BINDING AFFINITY PREDICTED BY RF-SCORE:    0.00 PKD
ROOT
HETATM    1  C   UNL     1     -11.878  12.484  68.645  1.00  0.00    -0.297 C  
HETATM    2  N   UNL     1     -11.552  11.509  67.623  1.00  0.00    -0.515 NA 
HETATM    3  H   UNL     1     -11.759  10.517  67.745  1.00  0.00     0.000 HD 
ENDROOT
BRANCH   2   4
HETATM    4  C   UNL     1     -10.900  12.025  66.386  1.00  0.00    -0.278 C  
HETATM    5  C   UNL     1     -11.989  12.495  65.375  1.00  0.00    -0.492 C  
HETATM    6  O   UNL     1     -10.410   9.599  66.113  1.00  0.00    -0.230 OA 
HETATM    7  C   UNL     1     -10.322  10.742  65.657  1.00  0.00    -0.230 C  
HETATM    8  C   UNL     1     -11.474  12.734  63.946  1.00  0.00    -0.505 C  
HETATM    9  C   UNL     1      -9.727  10.962  64.283  1.00  0.00    -0.347 C  
HETATM   10  C   UNL     1     -10.810  11.493  63.360  1.00  0.00    -0.423 C  
BRANCH   4  11
HETATM   11  C   UNL     1      -9.737  12.965  66.787  1.00  0.00    -0.246 A  
HETATM   12  C   UNL     1      -7.455  13.051  67.755  1.00  0.00    -0.146 A  
HETATM   13  C   UNL     1      -8.565  15.087  67.161  1.00  0.00    -0.246 A  
HETATM   14  C   UNL     1      -8.577  12.337  67.322  1.00  0.00    -0.183 A  
HETATM   15  C   UNL     1      -7.441  14.433  67.655  1.00  0.00    -0.191 A  
HETATM   16  C   UNL     1      -9.711  14.373  66.761  1.00  0.00    -0.270 A  
HETATM   17 CL   UNL     1     -11.046  15.391  66.352  1.00  0.00    -0.281 Cl 
ENDBRANCH   4  11
ENDBRANCH   2   4
TORSDOF 2
ENDMDL
MODEL       50
REMARK 921   NORMALIZED FREE ENERGY PREDICTED BY IDOCK:   -4.30 KCAL/MOL
REMARK 922        TOTAL FREE ENERGY PREDICTED BY IDOCK:   -5.05 KCAL/MOL
REMARK 923 INTER-LIGAND FREE ENERGY PREDICTED BY IDOCK:   -4.81 KCAL/MOL
REMARK 924 INTRA-LIGAND FREE ENERGY PREDICTED BY IDOCK:   -0.24 KCAL/MOL
REMARK 927      BINDING AFFINITY PREDICTED BY RF-SCORE:    0.00 PKD
ROOT
HETATM    1  C   UNL     1     -11.806  12.155  69.825  1.00  0.00    -0.327 C  
HETATM    2  N   UNL     1     -10.817  12.804  68.988  1.00  0.00    -0.398 NA 
HETATM    3  H   UNL     1     -10.383  13.686  69.259  1.00  0.00     0.000 HD 
ENDROOT
BRANCH   2   4
HETATM    4  C   UNL     1     -10.463  12.118  67.712  1.00  0.00    -0.205 C  
HETATM    5  C   UNL     1     -10.819  10.605  67.812  1.00  0.00    -0.338 C  
HETATM    6  O   UNL     1      -8.171  12.560  68.576  1.00  0.00    -0.147 OA 
HETATM    7  C   UNL     1      -8.880  12.071  67.692  1.00  0.00    -0.172 C  
HETATM    8  C   UNL     1     -10.208   9.729  66.706  1.00  0.00    -0.300 C  
HETATM    9  C   UNL     1      -8.246  11.290  66.562  1.00  0.00    -0.165 C  
HETATM   10  C   UNL     1      -8.688   9.840  66.660  1.00  0.00    -0.142 C  
BRANCH   4  11
HETATM   11  C   UNL     1     -10.975  12.973  66.526  1.00  0.00    -0.307 A  
HETATM   12  C   UNL     1     -12.442  12.975  64.526  1.00  0.00    -0.427 A  
HETATM   13  C   UNL     1     -11.139  14.917  65.039  1.00  0.00    -0.422 A  
HETATM   14  C   UNL     1     -11.909  12.345  65.656  1.00  0.00    -0.468 A  
HETATM   15  C   UNL     1     -12.070  14.276  64.228  1.00  0.00    -0.467 A  
HETATM   16  C   UNL     1     -10.572  14.271  66.155  1.00  0.00    -0.293 A  
HETATM   17 CL   UNL     1      -9.314  15.182  66.911  1.00  0.00    -0.235 Cl 
ENDBRANCH   4  11
ENDBRANCH   2   4
TORSDOF 2
ENDMDL
MODEL       51
REMARK 921   NORMALIZED FREE ENERGY PREDICTED BY IDOCK:   -4.27 KCAL/MOL
REMARK 922        TOTAL FREE ENERGY PREDICTED BY IDOCK:   -5.03 KCAL/MOL
REMARK 923 INTER-LIGAND FREE ENERGY PREDICTED BY IDOCK:   -4.80 KCAL/MOL
REMARK 924 INTRA-LIGAND FREE ENERGY PREDICTED BY IDOCK:   -0.23 KCAL/MOL
REMARK 927      BINDING AFFINITY PREDICTED BY RF-SCORE:    0.00 PKD
ROOT
HETATM    1  C   UNL     1      -8.162  13.663  67.303  1.00  0.00    -0.152 C  
HETATM    2  N   UNL     1      -8.207  12.322  66.755  1.00  0.00    -0.365 NA 
HETATM    3  H   UNL     1      -7.413  11.921  66.255  1.00  0.00     0.000 HD 
ENDROOT
BRANCH   2   4
HETATM    4  C   UNL     1      -9.470  11.556  66.956  1.00  0.00    -0.183 C  
HETATM    5  C   UNL     1      -9.960  11.727  68.425  1.00  0.00    -0.202 C  
HETATM    6  O   UNL     1      -7.877   9.653  66.756  1.00  0.00    -0.101 OA 
HETATM    7  C   UNL     1      -9.037  10.032  66.940  1.00  0.00    -0.139 C  
HETATM    8  C   UNL     1     -11.053  10.735  68.855  1.00  0.00    -0.307 C  
HETATM    9  C   UNL     1     -10.116   9.025  67.272  1.00  0.00    -0.297 C  
HETATM   10  C   UNL     1     -10.612   9.285  68.683  1.00  0.00    -0.219 C  
BRANCH   4  11
HETATM   11  C   UNL     1     -10.423  11.840  65.768  1.00  0.00    -0.302 A  
HETATM   12  C   UNL     1     -12.631  12.773  65.132  1.00  0.00    -0.513 A  
HETATM   13  C   UNL     1     -11.224  11.812  63.450  1.00  0.00    -0.440 A  
HETATM   14  C   UNL     1     -11.655  12.476  66.089  1.00  0.00    -0.448 A  
HETATM   15  C   UNL     1     -12.405  12.458  63.801  1.00  0.00    -0.625 A  
HETATM   16  C   UNL     1     -10.257  11.477  64.417  1.00  0.00    -0.300 A  
HETATM   17 CL   UNL     1      -8.958  10.526  63.789  1.00  0.00    -0.208 Cl 
ENDBRANCH   4  11
ENDBRANCH   2   4
TORSDOF 2
ENDMDL
MODEL       52
REMARK 921   NORMALIZED FREE ENERGY PREDICTED BY IDOCK:   -4.27 KCAL/MOL
REMARK 922        TOTAL FREE ENERGY PREDICTED BY IDOCK:   -5.02 KCAL/MOL
REMARK 923 INTER-LIGAND FREE ENERGY PREDICTED BY IDOCK:   -4.78 KCAL/MOL
REMARK 924 INTRA-LIGAND FREE ENERGY PREDICTED BY IDOCK:   -0.25 KCAL/MOL
REMARK 927      BINDING AFFINITY PREDICTED BY RF-SCORE:    0.00 PKD
ROOT
HETATM    1  C   UNL     1      -5.917  19.164  64.843  1.00  0.00    -0.281 C  
HETATM    2  N   UNL     1      -6.213  17.975  65.616  1.00  0.00    -0.235 NA 
HETATM    3  H   UNL     1      -6.087  17.040  65.229  1.00  0.00     0.000 HD 
ENDROOT
BRANCH   2   4
HETATM    4  C   UNL     1      -6.711  18.184  67.006  1.00  0.00    -0.184 C  
HETATM    5  C   UNL     1      -5.683  19.034  67.811  1.00  0.00    -0.190 C  
HETATM    6  O   UNL     1      -6.169  15.758  67.138  1.00  0.00    -0.309 OA 
HETATM    7  C   UNL     1      -6.577  16.772  67.711  1.00  0.00    -0.144 C  
HETATM    8  C   UNL     1      -5.909  19.042  69.332  1.00  0.00    -0.258 C  
HETATM    9  C   UNL     1      -6.881  16.730  69.192  1.00  0.00    -0.227 C  
HETATM   10  C   UNL     1      -5.901  17.634  69.920  1.00  0.00    -0.247 C  
BRANCH   4  11
HETATM   11  C   UNL     1      -8.203  18.597  66.947  1.00  0.00    -0.268 A  
HETATM   12  C   UNL     1      -9.830  20.369  67.549  1.00  0.00    -0.564 A  
HETATM   13  C   UNL     1     -10.602  18.363  66.494  1.00  0.00    -0.344 A  
HETATM   14  C   UNL     1      -8.526  19.867  67.502  1.00  0.00    -0.378 A  
HETATM   15  C   UNL     1     -10.872  19.621  67.023  1.00  0.00    -0.518 A  
HETATM   16  C   UNL     1      -9.295  17.839  66.481  1.00  0.00    -0.279 A  
HETATM   17 CL   UNL     1      -9.218  16.199  65.945  1.00  0.00    -0.349 Cl 
ENDBRANCH   4  11
ENDBRANCH   2   4
TORSDOF 2
ENDMDL
MODEL       53
REMARK 921   NORMALIZED FREE ENERGY PREDICTED BY IDOCK:   -4.25 KCAL/MOL
REMARK 922        TOTAL FREE ENERGY PREDICTED BY IDOCK:   -5.00 KCAL/MOL
REMARK 923 INTER-LIGAND FREE ENERGY PREDICTED BY IDOCK:   -4.75 KCAL/MOL
REMARK 924 INTRA-LIGAND FREE ENERGY PREDICTED BY IDOCK:   -0.25 KCAL/MOL
REMARK 927      BINDING AFFINITY PREDICTED BY RF-SCORE:    0.00 PKD
ROOT
HETATM    1  C   UNL     1      -7.720   8.232  73.198  1.00  0.00    -0.125 C  
HETATM    2  N   UNL     1      -8.369   8.623  71.962  1.00  0.00    -0.317 NA 
HETATM    3  H   UNL     1      -8.030   9.407  71.405  1.00  0.00     0.000 HD 
ENDROOT
BRANCH   2   4
HETATM    4  C   UNL     1      -9.556   7.823  71.544  1.00  0.00    -0.155 C  
HETATM    5  C   UNL     1      -9.588   6.479  72.331  1.00  0.00    -0.148 C  
HETATM    6  O   UNL     1      -8.189   7.619  69.474  1.00  0.00    -0.125 OA 
HETATM    7  C   UNL     1      -9.224   7.325  70.078  1.00  0.00    -0.148 C  
HETATM    8  C   UNL     1     -10.557   5.429  71.766  1.00  0.00    -0.286 C  
HETATM    9  C   UNL     1     -10.209   6.358  69.458  1.00  0.00    -0.228 C  
HETATM   10  C   UNL     1     -10.259   5.099  70.307  1.00  0.00    -0.342 C  
BRANCH   4  11
HETATM   11  C   UNL     1     -10.798   8.749  71.512  1.00  0.00    -0.374 A  
HETATM   12  C   UNL     1     -13.086   9.085  72.407  1.00  0.00    -0.487 A  
HETATM   13  C   UNL     1     -12.209  10.621  70.793  1.00  0.00    -0.474 A  
HETATM   14  C   UNL     1     -11.886   8.369  72.346  1.00  0.00    -0.452 A  
HETATM   15  C   UNL     1     -13.241  10.230  71.641  1.00  0.00    -0.509 A  
HETATM   16  C   UNL     1     -11.016   9.880  70.701  1.00  0.00    -0.337 A  
HETATM   17 CL   UNL     1      -9.951  10.442  69.462  1.00  0.00    -0.247 Cl 
ENDBRANCH   4  11
ENDBRANCH   2   4
TORSDOF 2
ENDMDL
MODEL       54
REMARK 921   NORMALIZED FREE ENERGY PREDICTED BY IDOCK:   -4.24 KCAL/MOL
REMARK 922        TOTAL FREE ENERGY PREDICTED BY IDOCK:   -4.99 KCAL/MOL
REMARK 923 INTER-LIGAND FREE ENERGY PREDICTED BY IDOCK:   -4.75 KCAL/MOL
REMARK 924 INTRA-LIGAND FREE ENERGY PREDICTED BY IDOCK:   -0.24 KCAL/MOL
REMARK 927      BINDING AFFINITY PREDICTED BY RF-SCORE:    0.00 PKD
ROOT
HETATM    1  C   UNL     1      -7.873  14.064  68.343  1.00  0.00    -0.144 C  
HETATM    2  N   UNL     1      -9.147  13.386  68.468  1.00  0.00    -0.344 NA 
HETATM    3  H   UNL     1      -9.510  13.091  69.374  1.00  0.00     0.000 HD 
ENDROOT
BRANCH   2   4
HETATM    4  C   UNL     1      -9.902  13.138  67.206  1.00  0.00    -0.232 C  
HETATM    5  C   UNL     1      -9.398  14.105  66.093  1.00  0.00    -0.166 C  
HETATM    6  O   UNL     1     -11.712  14.190  68.555  1.00  0.00    -0.306 OA 
HETATM    7  C   UNL     1     -11.359  13.700  67.479  1.00  0.00    -0.308 C  
HETATM    8  C   UNL     1     -10.307  14.186  64.855  1.00  0.00    -0.435 C  
HETATM    9  C   UNL     1     -12.306  13.709  66.299  1.00  0.00    -0.464 C  
HETATM   10  C   UNL     1     -11.729  14.603  65.215  1.00  0.00    -0.346 C  
BRANCH   4  11
HETATM   11  C   UNL     1      -9.971  11.612  66.954  1.00  0.00    -0.225 A  
HETATM   12  C   UNL     1      -9.587   9.825  65.278  1.00  0.00    -0.368 A  
HETATM   13  C   UNL     1     -10.460   9.256  67.434  1.00  0.00    -0.340 A  
HETATM   14  C   UNL     1      -9.557  11.168  65.667  1.00  0.00    -0.259 A  
HETATM   15  C   UNL     1     -10.022   8.860  66.174  1.00  0.00    -0.290 A  
HETATM   16  C   UNL     1     -10.467  10.612  67.815  1.00  0.00    -0.221 A  
HETATM   17 CL   UNL     1     -11.215  10.892  69.347  1.00  0.00    -0.302 Cl 
ENDBRANCH   4  11
ENDBRANCH   2   4
TORSDOF 2
ENDMDL
MODEL       55
REMARK 921   NORMALIZED FREE ENERGY PREDICTED BY IDOCK:   -4.22 KCAL/MOL
REMARK 922        TOTAL FREE ENERGY PREDICTED BY IDOCK:   -4.97 KCAL/MOL
REMARK 923 INTER-LIGAND FREE ENERGY PREDICTED BY IDOCK:   -4.75 KCAL/MOL
REMARK 924 INTRA-LIGAND FREE ENERGY PREDICTED BY IDOCK:   -0.22 KCAL/MOL
REMARK 927      BINDING AFFINITY PREDICTED BY RF-SCORE:    0.00 PKD
ROOT
HETATM    1  C   UNL     1      -7.316  13.604  67.529  1.00  0.00    -0.166 C  
HETATM    2  N   UNL     1      -8.043  14.598  66.765  1.00  0.00    -0.358 NA 
HETATM    3  H   UNL     1      -7.674  14.979  65.894  1.00  0.00     0.000 HD 
ENDROOT
BRANCH   2   4
HETATM    4  C   UNL     1      -9.358  15.038  67.314  1.00  0.00    -0.202 C  
HETATM    5  C   UNL     1      -9.648  14.287  68.648  1.00  0.00    -0.192 C  
HETATM    6  O   UNL     1     -10.161  13.730  65.354  1.00  0.00    -0.317 OA 
HETATM    7  C   UNL     1     -10.443  14.403  66.350  1.00  0.00    -0.295 C  
HETATM    8  C   UNL     1     -11.101  14.395  69.141  1.00  0.00    -0.290 C  
HETATM    9  C   UNL     1     -11.888  14.572  66.762  1.00  0.00    -0.390 C  
HETATM   10  C   UNL     1     -12.098  13.890  68.103  1.00  0.00    -0.317 C  
BRANCH   4  11
HETATM   11  C   UNL     1      -9.438  16.583  67.245  1.00  0.00    -0.237 A  
HETATM   12  C   UNL     1     -10.421  18.498  66.013  1.00  0.00    -0.433 A  
HETATM   13  C   UNL     1      -8.920  18.907  67.832  1.00  0.00    -0.328 A  
HETATM   14  C   UNL     1     -10.267  17.124  66.222  1.00  0.00    -0.340 A  
HETATM   15  C   UNL     1      -9.760  19.396  66.836  1.00  0.00    -0.431 A  
HETATM   16  C   UNL     1      -8.732  17.524  68.019  1.00  0.00    -0.254 A  
HETATM   17 CL   UNL     1      -7.516  17.148  69.188  1.00  0.00    -0.200 Cl 
ENDBRANCH   4  11
ENDBRANCH   2   4
TORSDOF 2
ENDMDL
MODEL       56
REMARK 921   NORMALIZED FREE ENERGY PREDICTED BY IDOCK:   -4.22 KCAL/MOL
REMARK 922        TOTAL FREE ENERGY PREDICTED BY IDOCK:   -4.97 KCAL/MOL
REMARK 923 INTER-LIGAND FREE ENERGY PREDICTED BY IDOCK:   -4.72 KCAL/MOL
REMARK 924 INTRA-LIGAND FREE ENERGY PREDICTED BY IDOCK:   -0.25 KCAL/MOL
REMARK 927      BINDING AFFINITY PREDICTED BY RF-SCORE:    0.00 PKD
ROOT
HETATM    1  C   UNL     1      -7.760  12.545  67.995  1.00  0.00    -0.140 C  
HETATM    2  N   UNL     1      -8.747  13.442  68.563  1.00  0.00    -0.327 NA 
HETATM    3  H   UNL     1      -9.186  13.253  69.464  1.00  0.00     0.000 HD 
ENDROOT
BRANCH   2   4
HETATM    4  C   UNL     1      -9.090  14.654  67.766  1.00  0.00    -0.191 C  
HETATM    5  C   UNL     1      -7.789  15.292  67.193  1.00  0.00    -0.249 C  
HETATM    6  O   UNL     1      -9.586  15.522  70.045  1.00  0.00    -0.228 OA 
HETATM    7  C   UNL     1      -9.533  15.739  68.832  1.00  0.00    -0.229 C  
HETATM    8  C   UNL     1      -7.964  16.716  66.639  1.00  0.00    -0.315 C  
HETATM    9  C   UNL     1      -9.800  17.131  68.302  1.00  0.00    -0.288 C  
HETATM   10  C   UNL     1      -8.522  17.674  67.686  1.00  0.00    -0.224 C  
BRANCH   4  11
HETATM   11  C   UNL     1     -10.282  14.321  66.835  1.00  0.00    -0.266 A  
HETATM   12  C   UNL     1     -11.108  14.430  64.499  1.00  0.00    -0.301 A  
HETATM   13  C   UNL     1     -12.530  13.559  66.217  1.00  0.00    -0.384 A  
HETATM   14  C   UNL     1     -10.114  14.644  65.459  1.00  0.00    -0.405 A  
HETATM   15  C   UNL     1     -12.316  13.865  64.877  1.00  0.00    -0.445 A  
HETATM   16  C   UNL     1     -11.545  13.809  67.192  1.00  0.00    -0.364 A  
HETATM   17 CL   UNL     1     -12.087  13.520  68.807  1.00  0.00    -0.361 Cl 
ENDBRANCH   4  11
ENDBRANCH   2   4
TORSDOF 2
ENDMDL
MODEL       57
REMARK 921   NORMALIZED FREE ENERGY PREDICTED BY IDOCK:   -4.21 KCAL/MOL
REMARK 922        TOTAL FREE ENERGY PREDICTED BY IDOCK:   -4.96 KCAL/MOL
REMARK 923 INTER-LIGAND FREE ENERGY PREDICTED BY IDOCK:   -4.63 KCAL/MOL
REMARK 924 INTRA-LIGAND FREE ENERGY PREDICTED BY IDOCK:   -0.33 KCAL/MOL
REMARK 927      BINDING AFFINITY PREDICTED BY RF-SCORE:    0.00 PKD
ROOT
HETATM    1  C   UNL     1      -9.972   5.717  69.606  1.00  0.00    -0.189 C  
HETATM    2  N   UNL     1     -10.278   7.128  69.738  1.00  0.00    -0.202 NA 
HETATM    3  H   UNL     1      -9.936   7.814  69.066  1.00  0.00     0.000 HD 
ENDROOT
BRANCH   2   4
HETATM    4  C   UNL     1     -11.116   7.526  70.905  1.00  0.00    -0.263 C  
HETATM    5  C   UNL     1     -12.534   6.894  70.775  1.00  0.00    -0.251 C  
HETATM    6  O   UNL     1     -10.999   9.718  69.730  1.00  0.00    -0.237 OA 
HETATM    7  C   UNL     1     -11.431   9.063  70.683  1.00  0.00    -0.248 C  
HETATM    8  C   UNL     1     -13.588   7.487  71.725  1.00  0.00    -0.397 C  
HETATM    9  C   UNL     1     -12.398   9.698  71.657  1.00  0.00    -0.489 C  
HETATM   10  C   UNL     1     -13.740   8.994  71.545  1.00  0.00    -0.388 C  
BRANCH   4  11
HETATM   11  C   UNL     1     -10.287   7.347  72.202  1.00  0.00    -0.232 A  
HETATM   12  C   UNL     1      -8.362   8.215  73.501  1.00  0.00    -0.299 A  
HETATM   13  C   UNL     1      -9.574   6.315  74.310  1.00  0.00    -0.240 A  
HETATM   14  C   UNL     1      -9.217   8.264  72.396  1.00  0.00    -0.326 A  
HETATM   15  C   UNL     1      -8.554   7.247  74.475  1.00  0.00    -0.230 A  
HETATM   16  C   UNL     1     -10.412   6.339  73.178  1.00  0.00    -0.239 A  
HETATM   17 CL   UNL     1     -11.487   4.989  73.091  1.00  0.00    -0.398 Cl 
ENDBRANCH   4  11
ENDBRANCH   2   4
TORSDOF 2
ENDMDL
MODEL       58
REMARK 921   NORMALIZED FREE ENERGY PREDICTED BY IDOCK:   -4.21 KCAL/MOL
REMARK 922        TOTAL FREE ENERGY PREDICTED BY IDOCK:   -4.95 KCAL/MOL
REMARK 923 INTER-LIGAND FREE ENERGY PREDICTED BY IDOCK:   -4.84 KCAL/MOL
REMARK 924 INTRA-LIGAND FREE ENERGY PREDICTED BY IDOCK:   -0.11 KCAL/MOL
REMARK 927      BINDING AFFINITY PREDICTED BY RF-SCORE:    0.00 PKD
ROOT
HETATM    1  C   UNL     1     -11.675  12.375  68.995  1.00  0.00    -0.323 C  
HETATM    2  N   UNL     1     -11.761  12.751  67.598  1.00  0.00    -0.360 NA 
HETATM    3  H   UNL     1     -12.650  12.755  67.099  1.00  0.00     0.000 HD 
ENDROOT
BRANCH   2   4
HETATM    4  C   UNL     1     -10.486  13.132  66.926  1.00  0.00    -0.256 C  
HETATM    5  C   UNL     1      -9.333  13.180  67.973  1.00  0.00    -0.219 C  
HETATM    6  O   UNL     1     -11.673  15.317  66.797  1.00  0.00    -0.159 OA 
HETATM    7  C   UNL     1     -10.651  14.666  66.564  1.00  0.00    -0.300 C  
HETATM    8  C   UNL     1      -8.052  13.875  67.484  1.00  0.00    -0.191 C  
HETATM    9  C   UNL     1      -9.431  15.356  65.996  1.00  0.00    -0.381 C  
HETATM   10  C   UNL     1      -8.315  15.306  67.025  1.00  0.00    -0.267 C  
BRANCH   4  11
HETATM   11  C   UNL     1     -10.337  12.303  65.626  1.00  0.00    -0.287 A  
HETATM   12  C   UNL     1      -9.058  10.483  64.530  1.00  0.00    -0.251 A  
HETATM   13  C   UNL     1     -10.769  11.628  63.308  1.00  0.00    -0.404 A  
HETATM   14  C   UNL     1      -9.333  11.295  65.635  1.00  0.00    -0.245 A  
HETATM   15  C   UNL     1      -9.795  10.637  63.366  1.00  0.00    -0.376 A  
HETATM   16  C   UNL     1     -11.020  12.473  64.406  1.00  0.00    -0.340 A  
HETATM   17 CL   UNL     1     -12.140  13.742  64.055  1.00  0.00    -0.483 Cl 
ENDBRANCH   4  11
ENDBRANCH   2   4
TORSDOF 2
ENDMDL
MODEL       59
REMARK 921   NORMALIZED FREE ENERGY PREDICTED BY IDOCK:   -4.19 KCAL/MOL
REMARK 922        TOTAL FREE ENERGY PREDICTED BY IDOCK:   -4.94 KCAL/MOL
REMARK 923 INTER-LIGAND FREE ENERGY PREDICTED BY IDOCK:   -4.64 KCAL/MOL
REMARK 924 INTRA-LIGAND FREE ENERGY PREDICTED BY IDOCK:   -0.30 KCAL/MOL
REMARK 927      BINDING AFFINITY PREDICTED BY RF-SCORE:    0.00 PKD
ROOT
HETATM    1  C   UNL     1     -10.368  15.062  67.683  1.00  0.00    -0.243 C  
HETATM    2  N   UNL     1      -9.915  15.949  66.629  1.00  0.00    -0.247 NA 
HETATM    3  H   UNL     1      -9.847  15.638  65.661  1.00  0.00     0.000 HD 
ENDROOT
BRANCH   2   4
HETATM    4  C   UNL     1      -9.552  17.338  67.031  1.00  0.00    -0.261 C  
HETATM    5  C   UNL     1     -10.330  17.732  68.322  1.00  0.00    -0.387 C  
HETATM    6  O   UNL     1     -10.884  17.847  64.990  1.00  0.00    -0.767 OA 
HETATM    7  C   UNL     1     -10.236  18.273  65.951  1.00  0.00    -0.226 C  
HETATM    8  C   UNL     1     -10.305  19.234  68.652  1.00  0.00    -0.330 C  
HETATM    9  C   UNL     1     -10.150  19.762  66.201  1.00  0.00    -0.600 C  
HETATM   10  C   UNL     1     -10.854  20.081  67.509  1.00  0.00    -0.236 C  
BRANCH   4  11
HETATM   11  C   UNL     1      -8.013  17.495  66.958  1.00  0.00    -0.240 A  
HETATM   12  C   UNL     1      -6.127  18.236  65.528  1.00  0.00    -0.265 A  
HETATM   13  C   UNL     1      -5.679  17.298  67.685  1.00  0.00    -0.144 A  
HETATM   14  C   UNL     1      -7.495  18.056  65.757  1.00  0.00    -0.118 A  
HETATM   15  C   UNL     1      -5.214  17.874  66.506  1.00  0.00    -0.192 A  
HETATM   16  C   UNL     1      -7.053  17.080  67.901  1.00  0.00    -0.156 A  
HETATM   17 CL   UNL     1      -7.388  16.195  69.347  1.00  0.00    -0.227 Cl 
ENDBRANCH   4  11
ENDBRANCH   2   4
TORSDOF 2
ENDMDL
MODEL       60
REMARK 921   NORMALIZED FREE ENERGY PREDICTED BY IDOCK:   -4.19 KCAL/MOL
REMARK 922        TOTAL FREE ENERGY PREDICTED BY IDOCK:   -4.94 KCAL/MOL
REMARK 923 INTER-LIGAND FREE ENERGY PREDICTED BY IDOCK:   -4.72 KCAL/MOL
REMARK 924 INTRA-LIGAND FREE ENERGY PREDICTED BY IDOCK:   -0.22 KCAL/MOL
REMARK 927      BINDING AFFINITY PREDICTED BY RF-SCORE:    0.00 PKD
ROOT
HETATM    1  C   UNL     1     -10.731   7.278  67.280  1.00  0.00    -0.321 C  
HETATM    2  N   UNL     1     -11.026   7.308  68.699  1.00  0.00    -0.437 NA 
HETATM    3  H   UNL     1     -11.640   6.619  69.132  1.00  0.00     0.000 HD 
ENDROOT
BRANCH   2   4
HETATM    4  C   UNL     1     -10.387   8.395  69.494  1.00  0.00    -0.219 C  
HETATM    5  C   UNL     1      -9.434   9.224  68.581  1.00  0.00    -0.148 C  
HETATM    6  O   UNL     1      -9.208   6.436  70.478  1.00  0.00    -0.157 OA 
HETATM    7  C   UNL     1      -9.356   7.661  70.446  1.00  0.00    -0.160 C  
HETATM    8  C   UNL     1      -8.470  10.153  69.338  1.00  0.00    -0.179 C  
HETATM    9  C   UNL     1      -8.453   8.551  71.272  1.00  0.00    -0.203 C  
HETATM   10  C   UNL     1      -7.603   9.391  70.335  1.00  0.00    -0.152 C  
BRANCH   4  11
HETATM   11  C   UNL     1     -11.473   9.098  70.345  1.00  0.00    -0.228 A  
HETATM   12  C   UNL     1     -12.396  11.299  71.021  1.00  0.00    -0.472 A  
HETATM   13  C   UNL     1     -13.329   9.294  71.937  1.00  0.00    -0.498 A  
HETATM   14  C   UNL     1     -11.494  10.520  70.289  1.00  0.00    -0.416 A  
HETATM   15  C   UNL     1     -13.332  10.681  71.834  1.00  0.00    -0.454 A  
HETATM   16  C   UNL     1     -12.397   8.509  71.232  1.00  0.00    -0.271 A  
HETATM   17 CL   UNL     1     -12.457   6.832  71.644  1.00  0.00    -0.404 Cl 
ENDBRANCH   4  11
ENDBRANCH   2   4
TORSDOF 2
ENDMDL
MODEL       61
REMARK 921   NORMALIZED FREE ENERGY PREDICTED BY IDOCK:   -4.19 KCAL/MOL
REMARK 922        TOTAL FREE ENERGY PREDICTED BY IDOCK:   -4.93 KCAL/MOL
REMARK 923 INTER-LIGAND FREE ENERGY PREDICTED BY IDOCK:   -4.57 KCAL/MOL
REMARK 924 INTRA-LIGAND FREE ENERGY PREDICTED BY IDOCK:   -0.36 KCAL/MOL
REMARK 927      BINDING AFFINITY PREDICTED BY RF-SCORE:    0.00 PKD
ROOT
HETATM    1  C   UNL     1     -10.956   6.908  67.355  1.00  0.00    -0.304 C  
HETATM    2  N   UNL     1     -11.348   6.897  68.750  1.00  0.00    -0.533 NA 
HETATM    3  H   UNL     1     -12.185   6.409  69.067  1.00  0.00     0.000 HD 
ENDROOT
BRANCH   2   4
HETATM    4  C   UNL     1     -10.467   7.635  69.700  1.00  0.00    -0.235 C  
HETATM    5  C   UNL     1      -9.039   7.776  69.093  1.00  0.00    -0.145 C  
HETATM    6  O   UNL     1     -10.703   5.497  70.953  1.00  0.00    -0.252 OA 
HETATM    7  C   UNL     1     -10.207   6.626  70.893  1.00  0.00    -0.196 C  
HETATM    8  C   UNL     1      -7.959   8.216  70.095  1.00  0.00    -0.107 C  
HETATM    9  C   UNL     1      -9.214   7.070  71.944  1.00  0.00    -0.147 C  
HETATM   10  C   UNL     1      -7.859   7.268  71.285  1.00  0.00    -0.096 C  
BRANCH   4  11
HETATM   11  C   UNL     1     -11.228   8.878  70.226  1.00  0.00    -0.219 A  
HETATM   12  C   UNL     1     -12.866   9.678  71.907  1.00  0.00    -0.515 A  
HETATM   13  C   UNL     1     -11.983  11.211  70.293  1.00  0.00    -0.460 A  
HETATM   14  C   UNL     1     -12.091   8.663  71.337  1.00  0.00    -0.351 A  
HETATM   15  C   UNL     1     -12.796  10.965  71.395  1.00  0.00    -0.554 A  
HETATM   16  C   UNL     1     -11.232  10.182  69.692  1.00  0.00    -0.261 A  
HETATM   17 CL   UNL     1     -10.439  10.670  68.237  1.00  0.00    -0.200 Cl 
ENDBRANCH   4  11
ENDBRANCH   2   4
TORSDOF 2
ENDMDL
MODEL       62
REMARK 921   NORMALIZED FREE ENERGY PREDICTED BY IDOCK:   -4.17 KCAL/MOL
REMARK 922        TOTAL FREE ENERGY PREDICTED BY IDOCK:   -4.91 KCAL/MOL
REMARK 923 INTER-LIGAND FREE ENERGY PREDICTED BY IDOCK:   -4.55 KCAL/MOL
REMARK 924 INTRA-LIGAND FREE ENERGY PREDICTED BY IDOCK:   -0.36 KCAL/MOL
REMARK 927      BINDING AFFINITY PREDICTED BY RF-SCORE:    0.00 PKD
ROOT
HETATM    1  C   UNL     1     -11.690  11.710  69.211  1.00  0.00    -0.331 C  
HETATM    2  N   UNL     1     -10.368  12.177  68.844  1.00  0.00    -0.400 NA 
HETATM    3  H   UNL     1      -9.751  12.625  69.522  1.00  0.00     0.000 HD 
ENDROOT
BRANCH   2   4
HETATM    4  C   UNL     1      -9.952  11.971  67.428  1.00  0.00    -0.191 C  
HETATM    5  C   UNL     1     -10.646  10.699  66.855  1.00  0.00    -0.311 C  
HETATM    6  O   UNL     1      -7.811  11.392  68.560  1.00  0.00    -0.126 OA 
HETATM    7  C   UNL     1      -8.441  11.501  67.503  1.00  0.00    -0.143 C  
HETATM    8  C   UNL     1     -10.056  10.188  65.531  1.00  0.00    -0.338 C  
HETATM    9  C   UNL     1      -7.804  11.076  66.199  1.00  0.00    -0.117 C  
HETATM   10  C   UNL     1      -8.566   9.884  65.646  1.00  0.00    -0.157 C  
BRANCH   4  11
HETATM   11  C   UNL     1     -10.040  13.323  66.678  1.00  0.00    -0.266 A  
HETATM   12  C   UNL     1      -8.989  15.554  66.411  1.00  0.00    -0.359 A  
HETATM   13  C   UNL     1     -10.975  15.027  65.181  1.00  0.00    -0.417 A  
HETATM   14  C   UNL     1      -9.031  14.279  66.984  1.00  0.00    -0.251 A  
HETATM   15  C   UNL     1      -9.956  15.923  65.489  1.00  0.00    -0.313 A  
HETATM   16  C   UNL     1     -11.040  13.757  65.786  1.00  0.00    -0.289 A  
HETATM   17 CL   UNL     1     -12.479  12.883  65.394  1.00  0.00    -0.541 Cl 
ENDBRANCH   4  11
ENDBRANCH   2   4
TORSDOF 2
ENDMDL
MODEL       63
REMARK 921   NORMALIZED FREE ENERGY PREDICTED BY IDOCK:   -4.15 KCAL/MOL
REMARK 922        TOTAL FREE ENERGY PREDICTED BY IDOCK:   -4.89 KCAL/MOL
REMARK 923 INTER-LIGAND FREE ENERGY PREDICTED BY IDOCK:   -4.62 KCAL/MOL
REMARK 924 INTRA-LIGAND FREE ENERGY PREDICTED BY IDOCK:   -0.27 KCAL/MOL
REMARK 927      BINDING AFFINITY PREDICTED BY RF-SCORE:    0.00 PKD
ROOT
HETATM    1  C   UNL     1     -11.945  12.645  65.576  1.00  0.00    -0.456 C  
HETATM    2  N   UNL     1     -10.710  13.169  66.124  1.00  0.00    -0.276 NA 
HETATM    3  H   UNL     1      -9.864  13.247  65.560  1.00  0.00     0.000 HD 
ENDROOT
BRANCH   2   4
HETATM    4  C   UNL     1     -10.735  13.588  67.555  1.00  0.00    -0.259 C  
HETATM    5  C   UNL     1     -11.777  14.730  67.750  1.00  0.00    -0.368 C  
HETATM    6  O   UNL     1      -8.511  14.502  66.911  1.00  0.00    -0.211 OA 
HETATM    7  C   UNL     1      -9.371  14.360  67.785  1.00  0.00    -0.200 C  
HETATM    8  C   UNL     1     -11.668  15.475  69.091  1.00  0.00    -0.380 C  
HETATM    9  C   UNL     1      -9.196  15.028  69.131  1.00  0.00    -0.183 C  
HETATM   10  C   UNL     1     -10.282  16.076  69.302  1.00  0.00    -0.249 C  
BRANCH   4  11
HETATM   11  C   UNL     1     -10.775  12.323  68.447  1.00  0.00    -0.255 A  
HETATM   12  C   UNL     1     -11.959  11.215  70.324  1.00  0.00    -0.460 A  
HETATM   13  C   UNL     1     -10.046  10.159  69.344  1.00  0.00    -0.250 A  
HETATM   14  C   UNL     1     -11.808  12.276  69.426  1.00  0.00    -0.370 A  
HETATM   15  C   UNL     1     -11.085  10.140  70.269  1.00  0.00    -0.384 A  
HETATM   16  C   UNL     1      -9.869  11.244  68.464  1.00  0.00    -0.197 A  
HETATM   17 CL   UNL     1      -8.420  11.141  67.529  1.00  0.00    -0.124 Cl 
ENDBRANCH   4  11
ENDBRANCH   2   4
TORSDOF 2
ENDMDL
MODEL       64
REMARK 921   NORMALIZED FREE ENERGY PREDICTED BY IDOCK:   -4.15 KCAL/MOL
REMARK 922        TOTAL FREE ENERGY PREDICTED BY IDOCK:   -4.89 KCAL/MOL
REMARK 923 INTER-LIGAND FREE ENERGY PREDICTED BY IDOCK:   -4.67 KCAL/MOL
REMARK 924 INTRA-LIGAND FREE ENERGY PREDICTED BY IDOCK:   -0.22 KCAL/MOL
REMARK 927      BINDING AFFINITY PREDICTED BY RF-SCORE:    0.00 PKD
ROOT
HETATM    1  C   UNL     1      -7.547   9.327  70.742  1.00  0.00    -0.133 C  
HETATM    2  N   UNL     1      -8.393   8.273  70.220  1.00  0.00    -0.120 NA 
HETATM    3  H   UNL     1      -8.029   7.557  69.591  1.00  0.00     0.000 HD 
ENDROOT
BRANCH   2   4
HETATM    4  C   UNL     1      -9.822   8.285  70.647  1.00  0.00    -0.182 C  
HETATM    5  C   UNL     1      -9.911   8.100  72.191  1.00  0.00    -0.315 C  
HETATM    6  O   UNL     1      -9.772   6.086  69.481  1.00  0.00    -0.142 OA 
HETATM    7  C   UNL     1     -10.421   6.913  70.128  1.00  0.00    -0.209 C  
HETATM    8  C   UNL     1     -11.317   7.764  72.715  1.00  0.00    -0.446 C  
HETATM    9  C   UNL     1     -11.837   6.595  70.554  1.00  0.00    -0.430 C  
HETATM   10  C   UNL     1     -11.883   6.504  72.069  1.00  0.00    -0.374 C  
BRANCH   4  11
HETATM   11  C   UNL     1     -10.543   9.466  69.950  1.00  0.00    -0.258 A  
HETATM   12  C   UNL     1     -12.099  11.366  70.295  1.00  0.00    -0.459 A  
HETATM   13  C   UNL     1     -11.263  10.906  68.099  1.00  0.00    -0.363 A  
HETATM   14  C   UNL     1     -11.362  10.280  70.780  1.00  0.00    -0.421 A  
HETATM   15  C   UNL     1     -12.032  11.693  68.950  1.00  0.00    -0.355 A  
HETATM   16  C   UNL     1     -10.551   9.789  68.578  1.00  0.00    -0.221 A  
HETATM   17 CL   UNL     1      -9.812   8.856  67.326  1.00  0.00    -0.237 Cl 
ENDBRANCH   4  11
ENDBRANCH   2   4
TORSDOF 2
ENDMDL
MODEL       65
REMARK 921   NORMALIZED FREE ENERGY PREDICTED BY IDOCK:   -4.11 KCAL/MOL
REMARK 922        TOTAL FREE ENERGY PREDICTED BY IDOCK:   -4.84 KCAL/MOL
REMARK 923 INTER-LIGAND FREE ENERGY PREDICTED BY IDOCK:   -4.60 KCAL/MOL
REMARK 924 INTRA-LIGAND FREE ENERGY PREDICTED BY IDOCK:   -0.24 KCAL/MOL
REMARK 927      BINDING AFFINITY PREDICTED BY RF-SCORE:    0.00 PKD
ROOT
HETATM    1  C   UNL     1      -8.789   8.321  72.720  1.00  0.00    -0.239 C  
HETATM    2  N   UNL     1      -9.287   8.906  71.491  1.00  0.00    -0.266 NA 
HETATM    3  H   UNL     1      -9.080   9.871  71.235  1.00  0.00     0.000 HD 
ENDROOT
BRANCH   2   4
HETATM    4  C   UNL     1     -10.118   8.028  70.618  1.00  0.00    -0.194 C  
HETATM    5  C   UNL     1      -9.476   6.611  70.534  1.00  0.00    -0.171 C  
HETATM    6  O   UNL     1      -9.178   9.544  68.881  1.00  0.00    -0.140 OA 
HETATM    7  C   UNL     1      -9.887   8.569  69.147  1.00  0.00    -0.186 C  
HETATM    8  C   UNL     1     -10.039   5.718  69.416  1.00  0.00    -0.277 C  
HETATM    9  C   UNL     1     -10.507   7.759  68.029  1.00  0.00    -0.244 C  
HETATM   10  C   UNL     1      -9.903   6.366  68.042  1.00  0.00    -0.126 C  
BRANCH   4  11
HETATM   11  C   UNL     1     -11.607   8.198  71.008  1.00  0.00    -0.301 A  
HETATM   12  C   UNL     1     -13.697   6.985  71.568  1.00  0.00    -0.355 A  
HETATM   13  C   UNL     1     -13.709   9.377  71.464  1.00  0.00    -0.363 A  
HETATM   14  C   UNL     1     -12.338   6.998  71.236  1.00  0.00    -0.426 A  
HETATM   15  C   UNL     1     -14.382   8.183  71.703  1.00  0.00    -0.570 A  
HETATM   16  C   UNL     1     -12.352   9.391  71.091  1.00  0.00    -0.308 A  
HETATM   17 CL   UNL     1     -11.771  10.964  70.672  1.00  0.00    -0.435 Cl 
ENDBRANCH   4  11
ENDBRANCH   2   4
TORSDOF 2
ENDMDL
MODEL       66
REMARK 921   NORMALIZED FREE ENERGY PREDICTED BY IDOCK:   -4.11 KCAL/MOL
REMARK 922        TOTAL FREE ENERGY PREDICTED BY IDOCK:   -4.84 KCAL/MOL
REMARK 923 INTER-LIGAND FREE ENERGY PREDICTED BY IDOCK:   -4.54 KCAL/MOL
REMARK 924 INTRA-LIGAND FREE ENERGY PREDICTED BY IDOCK:   -0.30 KCAL/MOL
REMARK 927      BINDING AFFINITY PREDICTED BY RF-SCORE:    0.00 PKD
ROOT
HETATM    1  C   UNL     1     -10.681  19.046  67.902  1.00  0.00    -0.293 C  
HETATM    2  N   UNL     1     -10.836  17.723  67.331  1.00  0.00    -0.266 NA 
HETATM    3  H   UNL     1     -11.578  17.512  66.664  1.00  0.00     0.000 HD 
ENDROOT
BRANCH   2   4
HETATM    4  C   UNL     1      -9.858  16.685  67.766  1.00  0.00    -0.252 C  
HETATM    5  C   UNL     1      -9.010  17.228  68.955  1.00  0.00    -0.173 C  
HETATM    6  O   UNL     1      -8.839  17.302  65.580  1.00  0.00    -0.476 OA 
HETATM    7  C   UNL     1      -8.779  16.621  66.608  1.00  0.00    -0.246 C  
HETATM    8  C   UNL     1      -7.756  16.398  69.278  1.00  0.00    -0.171 C  
HETATM    9  C   UNL     1      -7.575  15.740  66.861  1.00  0.00    -0.235 C  
HETATM   10  C   UNL     1      -6.829  16.267  68.074  1.00  0.00    -0.142 C  
BRANCH   4  11
HETATM   11  C   UNL     1     -10.588  15.323  67.874  1.00  0.00    -0.260 A  
HETATM   12  C   UNL     1     -11.337  13.330  66.603  1.00  0.00    -0.353 A  
HETATM   13  C   UNL     1     -11.860  13.512  68.932  1.00  0.00    -0.384 A  
HETATM   14  C   UNL     1     -10.685  14.565  66.674  1.00  0.00    -0.305 A  
HETATM   15  C   UNL     1     -11.911  12.791  67.744  1.00  0.00    -0.387 A  
HETATM   16  C   UNL     1     -11.238  14.774  68.997  1.00  0.00    -0.270 A  
HETATM   17 CL   UNL     1     -11.448  15.566  70.518  1.00  0.00    -0.329 Cl 
ENDBRANCH   4  11
ENDBRANCH   2   4
TORSDOF 2
ENDMDL
MODEL       67
REMARK 921   NORMALIZED FREE ENERGY PREDICTED BY IDOCK:   -4.10 KCAL/MOL
REMARK 922        TOTAL FREE ENERGY PREDICTED BY IDOCK:   -4.84 KCAL/MOL
REMARK 923 INTER-LIGAND FREE ENERGY PREDICTED BY IDOCK:   -4.47 KCAL/MOL
REMARK 924 INTRA-LIGAND FREE ENERGY PREDICTED BY IDOCK:   -0.36 KCAL/MOL
REMARK 927      BINDING AFFINITY PREDICTED BY RF-SCORE:    0.00 PKD
ROOT
HETATM    1  C   UNL     1      -7.521  20.144  65.705  1.00  0.00    -0.251 C  
HETATM    2  N   UNL     1      -7.303  18.712  65.704  1.00  0.00    -0.514 NA 
HETATM    3  H   UNL     1      -7.185  18.189  64.837  1.00  0.00     0.000 HD 
ENDROOT
BRANCH   2   4
HETATM    4  C   UNL     1      -7.260  18.038  67.034  1.00  0.00    -0.196 C  
HETATM    5  C   UNL     1      -6.915  19.080  68.140  1.00  0.00    -0.269 C  
HETATM    6  O   UNL     1      -5.194  17.076  66.032  1.00  0.00    -0.333 OA 
HETATM    7  C   UNL     1      -5.945  17.155  67.009  1.00  0.00    -0.174 C  
HETATM    8  C   UNL     1      -6.515  18.469  69.493  1.00  0.00    -0.222 C  
HETATM    9  C   UNL     1      -5.573  16.467  68.303  1.00  0.00    -0.118 C  
HETATM   10  C   UNL     1      -5.325  17.524  69.366  1.00  0.00    -0.181 C  
BRANCH   4  11
HETATM   11  C   UNL     1      -8.501  17.122  67.172  1.00  0.00    -0.219 A  
HETATM   12  C   UNL     1      -9.481  14.941  66.513  1.00  0.00    -0.307 A  
HETATM   13  C   UNL     1     -10.763  16.458  67.850  1.00  0.00    -0.332 A  
HETATM   14  C   UNL     1      -8.432  15.866  66.505  1.00  0.00    -0.348 A  
HETATM   15  C   UNL     1     -10.646  15.230  67.207  1.00  0.00    -0.290 A  
HETATM   16  C   UNL     1      -9.723  17.407  67.812  1.00  0.00    -0.268 A  
HETATM   17 CL   UNL     1     -10.150  18.923  68.523  1.00  0.00    -0.450 Cl 
ENDBRANCH   4  11
ENDBRANCH   2   4
TORSDOF 2
ENDMDL
MODEL       68
REMARK 921   NORMALIZED FREE ENERGY PREDICTED BY IDOCK:   -4.10 KCAL/MOL
REMARK 922        TOTAL FREE ENERGY PREDICTED BY IDOCK:   -4.83 KCAL/MOL
REMARK 923 INTER-LIGAND FREE ENERGY PREDICTED BY IDOCK:   -4.69 KCAL/MOL
REMARK 924 INTRA-LIGAND FREE ENERGY PREDICTED BY IDOCK:   -0.14 KCAL/MOL
REMARK 927      BINDING AFFINITY PREDICTED BY RF-SCORE:    0.00 PKD
ROOT
HETATM    1  C   UNL     1     -10.182  10.563  65.060  1.00  0.00    -0.295 C  
HETATM    2  N   UNL     1     -10.007  10.345  66.482  1.00  0.00    -0.209 NA 
HETATM    3  H   UNL     1      -9.574   9.496  66.844  1.00  0.00     0.000 HD 
ENDROOT
BRANCH   2   4
HETATM    4  C   UNL     1     -10.493  11.422  67.392  1.00  0.00    -0.205 C  
HETATM    5  C   UNL     1     -11.531  12.313  66.645  1.00  0.00    -0.431 C  
HETATM    6  O   UNL     1      -8.172  12.238  67.009  1.00  0.00    -0.177 OA 
HETATM    7  C   UNL     1      -9.270  12.419  67.542  1.00  0.00    -0.183 C  
HETATM    8  C   UNL     1     -11.856  13.642  67.346  1.00  0.00    -0.429 C  
HETATM    9  C   UNL     1      -9.536  13.697  68.306  1.00  0.00    -0.215 C  
HETATM   10  C   UNL     1     -10.609  14.488  67.579  1.00  0.00    -0.262 C  
BRANCH   4  11
HETATM   11  C   UNL     1     -10.831  10.801  68.769  1.00  0.00    -0.262 A  
HETATM   12  C   UNL     1     -12.582  10.597  70.514  1.00  0.00    -0.433 A  
HETATM   13  C   UNL     1     -10.447   9.568  70.855  1.00  0.00    -0.382 A  
HETATM   14  C   UNL     1     -12.136  11.064  69.274  1.00  0.00    -0.363 A  
HETATM   15  C   UNL     1     -11.739   9.827  71.300  1.00  0.00    -0.472 A  
HETATM   16  C   UNL     1      -9.982  10.070  69.624  1.00  0.00    -0.236 A  
HETATM   17 CL   UNL     1      -8.301   9.780  69.354  1.00  0.00    -0.138 Cl 
ENDBRANCH   4  11
ENDBRANCH   2   4
TORSDOF 2
ENDMDL
MODEL       69
REMARK 921   NORMALIZED FREE ENERGY PREDICTED BY IDOCK:   -4.06 KCAL/MOL
REMARK 922        TOTAL FREE ENERGY PREDICTED BY IDOCK:   -4.79 KCAL/MOL
REMARK 923 INTER-LIGAND FREE ENERGY PREDICTED BY IDOCK:   -4.45 KCAL/MOL
REMARK 924 INTRA-LIGAND FREE ENERGY PREDICTED BY IDOCK:   -0.35 KCAL/MOL
REMARK 927      BINDING AFFINITY PREDICTED BY RF-SCORE:    0.00 PKD
ROOT
HETATM    1  C   UNL     1     -13.498   7.403  71.421  1.00  0.00    -0.330 C  
HETATM    2  N   UNL     1     -12.445   6.790  70.637  1.00  0.00    -0.511 NA 
HETATM    3  H   UNL     1     -12.633   6.367  69.727  1.00  0.00     0.000 HD 
ENDROOT
BRANCH   2   4
HETATM    4  C   UNL     1     -11.075   6.805  71.223  1.00  0.00    -0.262 C  
HETATM    5  C   UNL     1     -11.097   7.548  72.593  1.00  0.00    -0.398 C  
HETATM    6  O   UNL     1     -10.722   8.399  69.343  1.00  0.00    -0.221 OA 
HETATM    7  C   UNL     1     -10.252   7.819  70.326  1.00  0.00    -0.199 C  
HETATM    8  C   UNL     1      -9.710   7.924  73.140  1.00  0.00    -0.353 C  
HETATM    9  C   UNL     1      -8.848   8.140  70.790  1.00  0.00    -0.149 C  
HETATM   10  C   UNL     1      -8.923   8.790  72.161  1.00  0.00    -0.184 C  
BRANCH   4  11
HETATM   11  C   UNL     1     -10.462   5.388  71.104  1.00  0.00    -0.295 A  
HETATM   12  C   UNL     1      -9.448   3.754  69.538  1.00  0.00    -0.257 A  
HETATM   13  C   UNL     1      -9.785   3.144  71.829  1.00  0.00    -0.234 A  
HETATM   14  C   UNL     1     -10.000   5.009  69.812  1.00  0.00    -0.319 A  
HETATM   15  C   UNL     1      -9.321   2.823  70.557  1.00  0.00    -0.216 A  
HETATM   16  C   UNL     1     -10.376   4.393  72.099  1.00  0.00    -0.143 A  
HETATM   17 CL   UNL     1     -11.039   4.511  73.690  1.00  0.00    -0.375 Cl 
ENDBRANCH   4  11
ENDBRANCH   2   4
TORSDOF 2
ENDMDL
MODEL       70
REMARK 921   NORMALIZED FREE ENERGY PREDICTED BY IDOCK:   -4.03 KCAL/MOL
REMARK 922        TOTAL FREE ENERGY PREDICTED BY IDOCK:   -4.76 KCAL/MOL
REMARK 923 INTER-LIGAND FREE ENERGY PREDICTED BY IDOCK:   -4.53 KCAL/MOL
REMARK 924 INTRA-LIGAND FREE ENERGY PREDICTED BY IDOCK:   -0.23 KCAL/MOL
REMARK 927      BINDING AFFINITY PREDICTED BY RF-SCORE:    0.00 PKD
ROOT
HETATM    1  C   UNL     1     -13.625   7.835  71.824  1.00  0.00    -0.329 C  
HETATM    2  N   UNL     1     -12.496   7.786  70.917  1.00  0.00    -0.518 NA 
HETATM    3  H   UNL     1     -12.595   8.011  69.927  1.00  0.00     0.000 HD 
ENDROOT
BRANCH   2   4
HETATM    4  C   UNL     1     -11.182   7.390  71.500  1.00  0.00    -0.243 C  
HETATM    5  C   UNL     1     -11.283   7.363  73.054  1.00  0.00    -0.345 C  
HETATM    6  O   UNL     1     -10.585   9.662  70.678  1.00  0.00    -0.278 OA 
HETATM    7  C   UNL     1     -10.232   8.635  71.264  1.00  0.00    -0.239 C  
HETATM    8  C   UNL     1      -9.931   7.298  73.783  1.00  0.00    -0.368 C  
HETATM    9  C   UNL     1      -8.859   8.561  71.895  1.00  0.00    -0.284 C  
HETATM   10  C   UNL     1      -9.018   8.458  73.402  1.00  0.00    -0.166 C  
BRANCH   4  11
HETATM   11  C   UNL     1     -10.638   6.165  70.723  1.00  0.00    -0.299 A  
HETATM   12  C   UNL     1      -9.664   3.896  70.961  1.00  0.00    -0.252 A  
HETATM   13  C   UNL     1      -9.937   4.844  68.779  1.00  0.00    -0.206 A  
HETATM   14  C   UNL     1     -10.205   5.062  71.512  1.00  0.00    -0.273 A  
HETATM   15  C   UNL     1      -9.548   3.778  69.584  1.00  0.00    -0.242 A  
HETATM   16  C   UNL     1     -10.445   6.034  69.334  1.00  0.00    -0.267 A  
HETATM   17 CL   UNL     1     -10.694   7.285  68.168  1.00  0.00    -0.221 Cl 
ENDBRANCH   4  11
ENDBRANCH   2   4
TORSDOF 2
ENDMDL
MODEL       71
REMARK 921   NORMALIZED FREE ENERGY PREDICTED BY IDOCK:   -4.03 KCAL/MOL
REMARK 922        TOTAL FREE ENERGY PREDICTED BY IDOCK:   -4.76 KCAL/MOL
REMARK 923 INTER-LIGAND FREE ENERGY PREDICTED BY IDOCK:   -4.84 KCAL/MOL
REMARK 924 INTRA-LIGAND FREE ENERGY PREDICTED BY IDOCK:    0.08 KCAL/MOL
REMARK 927      BINDING AFFINITY PREDICTED BY RF-SCORE:    0.00 PKD
ROOT
HETATM    1  C   UNL     1      -8.624  15.563  66.582  1.00  0.00    -0.290 C  
HETATM    2  N   UNL     1      -8.711  14.116  66.599  1.00  0.00    -0.441 NA 
HETATM    3  H   UNL     1      -7.946  13.538  66.948  1.00  0.00     0.000 HD 
ENDROOT
BRANCH   2   4
HETATM    4  C   UNL     1      -9.972  13.513  66.081  1.00  0.00    -0.304 C  
HETATM    5  C   UNL     1     -10.470  14.316  64.842  1.00  0.00    -0.454 C  
HETATM    6  O   UNL     1     -10.840  14.497  68.197  1.00  0.00    -0.233 OA 
HETATM    7  C   UNL     1     -11.077  13.873  67.158  1.00  0.00    -0.300 C  
HETATM    8  C   UNL     1     -11.916  14.010  64.419  1.00  0.00    -0.480 C  
HETATM    9  C   UNL     1     -12.501  13.503  66.809  1.00  0.00    -0.213 C  
HETATM   10  C   UNL     1     -12.908  14.253  65.552  1.00  0.00    -0.334 C  
BRANCH   4  11
HETATM   11  C   UNL     1      -9.799  11.975  66.007  1.00  0.00    -0.258 A  
HETATM   12  C   UNL     1      -9.553   9.906  67.353  1.00  0.00    -0.185 A  
HETATM   13  C   UNL     1      -9.474   9.780  64.963  1.00  0.00    -0.337 A  
HETATM   14  C   UNL     1      -9.735  11.289  67.253  1.00  0.00    -0.192 A  
HETATM   15  C   UNL     1      -9.442   9.144  66.200  1.00  0.00    -0.309 A  
HETATM   16  C   UNL     1      -9.618  11.177  64.861  1.00  0.00    -0.239 A  
HETATM   17 CL   UNL     1      -9.453  11.768  63.246  1.00  0.00    -0.272 Cl 
ENDBRANCH   4  11
ENDBRANCH   2   4
TORSDOF 2
ENDMDL
MODEL       72
REMARK 921   NORMALIZED FREE ENERGY PREDICTED BY IDOCK:   -4.03 KCAL/MOL
REMARK 922        TOTAL FREE ENERGY PREDICTED BY IDOCK:   -4.75 KCAL/MOL
REMARK 923 INTER-LIGAND FREE ENERGY PREDICTED BY IDOCK:   -4.54 KCAL/MOL
REMARK 924 INTRA-LIGAND FREE ENERGY PREDICTED BY IDOCK:   -0.22 KCAL/MOL
REMARK 927      BINDING AFFINITY PREDICTED BY RF-SCORE:    0.00 PKD
ROOT
HETATM    1  C   UNL     1      -9.134   8.683  68.299  1.00  0.00    -0.141 C  
HETATM    2  N   UNL     1     -10.325   8.124  68.909  1.00  0.00    -0.214 NA 
HETATM    3  H   UNL     1     -11.144   7.876  68.354  1.00  0.00     0.000 HD 
ENDROOT
BRANCH   2   4
HETATM    4  C   UNL     1     -10.294   7.929  70.387  1.00  0.00    -0.212 C  
HETATM    5  C   UNL     1      -9.039   8.633  70.984  1.00  0.00    -0.248 C  
HETATM    6  O   UNL     1      -9.763   5.606  69.667  1.00  0.00    -0.152 OA 
HETATM    7  C   UNL     1      -9.931   6.402  70.596  1.00  0.00    -0.185 C  
HETATM    8  C   UNL     1      -8.710   8.235  72.432  1.00  0.00    -0.279 C  
HETATM    9  C   UNL     1      -9.689   5.958  72.022  1.00  0.00    -0.174 C  
HETATM   10  C   UNL     1      -8.506   6.730  72.581  1.00  0.00    -0.127 C  
BRANCH   4  11
HETATM   11  C   UNL     1     -11.706   8.213  70.958  1.00  0.00    -0.295 A  
HETATM   12  C   UNL     1     -13.810   7.164  71.747  1.00  0.00    -0.375 A  
HETATM   13  C   UNL     1     -13.628   9.551  71.688  1.00  0.00    -0.426 A  
HETATM   14  C   UNL     1     -12.505   7.073  71.252  1.00  0.00    -0.430 A  
HETATM   15  C   UNL     1     -14.367   8.410  71.986  1.00  0.00    -0.555 A  
HETATM   16  C   UNL     1     -12.328   9.461  71.153  1.00  0.00    -0.308 A  
HETATM   17 CL   UNL     1     -11.668  10.991  70.694  1.00  0.00    -0.417 Cl 
ENDBRANCH   4  11
ENDBRANCH   2   4
TORSDOF 2
ENDMDL
MODEL       73
REMARK 921   NORMALIZED FREE ENERGY PREDICTED BY IDOCK:   -4.02 KCAL/MOL
REMARK 922        TOTAL FREE ENERGY PREDICTED BY IDOCK:   -4.75 KCAL/MOL
REMARK 923 INTER-LIGAND FREE ENERGY PREDICTED BY IDOCK:   -4.39 KCAL/MOL
REMARK 924 INTRA-LIGAND FREE ENERGY PREDICTED BY IDOCK:   -0.35 KCAL/MOL
REMARK 927      BINDING AFFINITY PREDICTED BY RF-SCORE:    0.00 PKD
ROOT
HETATM    1  C   UNL     1     -11.748  14.338  64.663  1.00  0.00    -0.430 C  
HETATM    2  N   UNL     1     -10.407  14.414  65.207  1.00  0.00    -0.378 NA 
HETATM    3  H   UNL     1      -9.583  14.292  64.618  1.00  0.00     0.000 HD 
ENDROOT
BRANCH   2   4
HETATM    4  C   UNL     1     -10.290  14.681  66.669  1.00  0.00    -0.273 C  
HETATM    5  C   UNL     1     -11.660  15.168  67.227  1.00  0.00    -0.231 C  
HETATM    6  O   UNL     1      -8.941  16.588  65.807  1.00  0.00    -0.481 OA 
HETATM    7  C   UNL     1      -9.415  15.996  66.782  1.00  0.00    -0.231 C  
HETATM    8  C   UNL     1     -11.596  15.789  68.632  1.00  0.00    -0.392 C  
HETATM    9  C   UNL     1      -9.258  16.582  68.168  1.00  0.00    -0.217 C  
HETATM   10  C   UNL     1     -10.630  16.967  68.694  1.00  0.00    -0.362 C  
BRANCH   4  11
HETATM   11  C   UNL     1      -9.542  13.499  67.335  1.00  0.00    -0.227 A  
HETATM   12  C   UNL     1      -7.305  12.539  67.813  1.00  0.00    -0.124 A  
HETATM   13  C   UNL     1      -9.271  11.351  68.489  1.00  0.00    -0.174 A  
HETATM   14  C   UNL     1      -8.120  13.544  67.282  1.00  0.00    -0.141 A  
HETATM   15  C   UNL     1      -7.884  11.446  68.439  1.00  0.00    -0.135 A  
HETATM   16  C   UNL     1     -10.094  12.342  67.921  1.00  0.00    -0.208 A  
HETATM   17 CL   UNL     1     -11.773  11.936  67.941  1.00  0.00    -0.388 Cl 
ENDBRANCH   4  11
ENDBRANCH   2   4
TORSDOF 2
ENDMDL
MODEL       74
REMARK 921   NORMALIZED FREE ENERGY PREDICTED BY IDOCK:   -4.00 KCAL/MOL
REMARK 922        TOTAL FREE ENERGY PREDICTED BY IDOCK:   -4.72 KCAL/MOL
REMARK 923 INTER-LIGAND FREE ENERGY PREDICTED BY IDOCK:   -4.35 KCAL/MOL
REMARK 924 INTRA-LIGAND FREE ENERGY PREDICTED BY IDOCK:   -0.37 KCAL/MOL
REMARK 927      BINDING AFFINITY PREDICTED BY RF-SCORE:    0.00 PKD
ROOT
HETATM    1  C   UNL     1     -10.558  12.871  64.396  1.00  0.00    -0.396 C  
HETATM    2  N   UNL     1      -9.941  13.999  65.064  1.00  0.00    -0.599 NA 
HETATM    3  H   UNL     1      -9.438  14.719  64.546  1.00  0.00     0.000 HD 
ENDROOT
BRANCH   2   4
HETATM    4  C   UNL     1     -10.077  14.057  66.548  1.00  0.00    -0.285 C  
HETATM    5  C   UNL     1     -11.385  13.332  66.985  1.00  0.00    -0.346 C  
HETATM    6  O   UNL     1     -10.512  16.449  66.014  1.00  0.00    -0.329 OA 
HETATM    7  C   UNL     1     -10.427  15.567  66.873  1.00  0.00    -0.301 C  
HETATM    8  C   UNL     1     -11.813  13.603  68.437  1.00  0.00    -0.407 C  
HETATM    9  C   UNL     1     -10.766  15.883  68.313  1.00  0.00    -0.291 C  
HETATM   10  C   UNL     1     -12.000  15.092  68.711  1.00  0.00    -0.282 C  
BRANCH   4  11
HETATM   11  C   UNL     1      -8.717  13.687  67.191  1.00  0.00    -0.224 A  
HETATM   12  C   UNL     1      -6.473  14.550  67.800  1.00  0.00    -0.181 A  
HETATM   13  C   UNL     1      -7.006  12.250  68.203  1.00  0.00    -0.087 A  
HETATM   14  C   UNL     1      -7.755  14.733  67.272  1.00  0.00    -0.214 A  
HETATM   15  C   UNL     1      -6.103  13.306  68.287  1.00  0.00    -0.093 A  
HETATM   16  C   UNL     1      -8.283  12.423  67.636  1.00  0.00    -0.169 A  
HETATM   17 CL   UNL     1      -9.167  10.947  67.471  1.00  0.00    -0.149 Cl 
ENDBRANCH   4  11
ENDBRANCH   2   4
TORSDOF 2
ENDMDL
MODEL       75
REMARK 921   NORMALIZED FREE ENERGY PREDICTED BY IDOCK:   -3.97 KCAL/MOL
REMARK 922        TOTAL FREE ENERGY PREDICTED BY IDOCK:   -4.69 KCAL/MOL
REMARK 923 INTER-LIGAND FREE ENERGY PREDICTED BY IDOCK:   -4.69 KCAL/MOL
REMARK 924 INTRA-LIGAND FREE ENERGY PREDICTED BY IDOCK:   -0.00 KCAL/MOL
REMARK 927      BINDING AFFINITY PREDICTED BY RF-SCORE:    0.00 PKD
ROOT
HETATM    1  C   UNL     1     -11.607  14.234  65.584  1.00  0.00    -0.346 C  
HETATM    2  N   UNL     1     -10.277  14.518  66.083  1.00  0.00    -0.293 NA 
HETATM    3  H   UNL     1      -9.447  14.105  65.658  1.00  0.00     0.000 HD 
ENDROOT
BRANCH   2   4
HETATM    4  C   UNL     1     -10.180  15.444  67.247  1.00  0.00    -0.254 C  
HETATM    5  C   UNL     1     -10.398  16.912  66.771  1.00  0.00    -0.298 C  
HETATM    6  O   UNL     1      -7.786  14.787  67.060  1.00  0.00    -0.186 OA 
HETATM    7  C   UNL     1      -8.644  15.462  67.636  1.00  0.00    -0.167 C  
HETATM    8  C   UNL     1      -9.998  17.984  67.798  1.00  0.00    -0.329 C  
HETATM    9  C   UNL     1      -8.235  16.445  68.709  1.00  0.00    -0.234 C  
HETATM   10  C   UNL     1      -8.540  17.853  68.227  1.00  0.00    -0.277 C  
BRANCH   4  11
HETATM   11  C   UNL     1     -11.008  14.864  68.420  1.00  0.00    -0.266 A  
HETATM   12  C   UNL     1     -12.549  15.434  70.278  1.00  0.00    -0.377 A  
HETATM   13  C   UNL     1     -11.853  13.163  69.973  1.00  0.00    -0.360 A  
HETATM   14  C   UNL     1     -11.772  15.798  69.173  1.00  0.00    -0.398 A  
HETATM   15  C   UNL     1     -12.606  14.105  70.667  1.00  0.00    -0.421 A  
HETATM   16  C   UNL     1     -11.040  13.534  68.885  1.00  0.00    -0.267 A  
HETATM   17 CL   UNL     1     -10.061  12.242  68.287  1.00  0.00    -0.215 Cl 
ENDBRANCH   4  11
ENDBRANCH   2   4
TORSDOF 2
ENDMDL
MODEL       76
REMARK 921   NORMALIZED FREE ENERGY PREDICTED BY IDOCK:   -3.95 KCAL/MOL
REMARK 922        TOTAL FREE ENERGY PREDICTED BY IDOCK:   -4.67 KCAL/MOL
REMARK 923 INTER-LIGAND FREE ENERGY PREDICTED BY IDOCK:   -4.41 KCAL/MOL
REMARK 924 INTRA-LIGAND FREE ENERGY PREDICTED BY IDOCK:   -0.26 KCAL/MOL
REMARK 927      BINDING AFFINITY PREDICTED BY RF-SCORE:    0.00 PKD
ROOT
HETATM    1  C   UNL     1     -12.246  13.965  69.821  1.00  0.00    -0.332 C  
HETATM    2  N   UNL     1     -11.890  13.213  68.634  1.00  0.00    -0.325 NA 
HETATM    3  H   UNL     1     -12.322  12.314  68.421  1.00  0.00     0.000 HD 
ENDROOT
BRANCH   2   4
HETATM    4  C   UNL     1     -10.862  13.817  67.739  1.00  0.00    -0.250 C  
HETATM    5  C   UNL     1     -11.098  15.353  67.627  1.00  0.00    -0.316 C  
HETATM    6  O   UNL     1     -12.192  12.578  66.039  1.00  0.00    -0.605 OA 
HETATM    7  C   UNL     1     -11.243  13.330  66.281  1.00  0.00    -0.299 C  
HETATM    8  C   UNL     1     -10.326  16.038  66.489  1.00  0.00    -0.303 C  
HETATM    9  C   UNL     1     -10.439  13.920  65.144  1.00  0.00    -0.409 C  
HETATM   10  C   UNL     1     -10.644  15.425  65.129  1.00  0.00    -0.458 C  
BRANCH   4  11
HETATM   11  C   UNL     1      -9.470  13.259  68.128  1.00  0.00    -0.222 A  
HETATM   12  C   UNL     1      -7.150  13.879  68.749  1.00  0.00    -0.109 A  
HETATM   13  C   UNL     1      -7.741  11.568  68.539  1.00  0.00    -0.134 A  
HETATM   14  C   UNL     1      -8.463  14.224  68.411  1.00  0.00    -0.166 A  
HETATM   15  C   UNL     1      -6.793  12.542  68.833  1.00  0.00    -0.098 A  
HETATM   16  C   UNL     1      -9.053  11.914  68.160  1.00  0.00    -0.190 A  
HETATM   17 CL   UNL     1     -10.006  10.559  67.670  1.00  0.00    -0.195 Cl 
ENDBRANCH   4  11
ENDBRANCH   2   4
TORSDOF 2
ENDMDL
MODEL       77
REMARK 921   NORMALIZED FREE ENERGY PREDICTED BY IDOCK:   -3.95 KCAL/MOL
REMARK 922        TOTAL FREE ENERGY PREDICTED BY IDOCK:   -4.66 KCAL/MOL
REMARK 923 INTER-LIGAND FREE ENERGY PREDICTED BY IDOCK:   -4.43 KCAL/MOL
REMARK 924 INTRA-LIGAND FREE ENERGY PREDICTED BY IDOCK:   -0.23 KCAL/MOL
REMARK 927      BINDING AFFINITY PREDICTED BY RF-SCORE:    0.00 PKD
ROOT
HETATM    1  C   UNL     1     -13.275  14.075  65.349  1.00  0.00     0.014 C  
HETATM    2  N   UNL     1     -12.120  13.231  65.117  1.00  0.00    -0.387 NA 
HETATM    3  H   UNL     1     -11.965  12.772  64.219  1.00  0.00     0.000 HD 
ENDROOT
BRANCH   2   4
HETATM    4  C   UNL     1     -11.169  13.067  66.253  1.00  0.00    -0.301 C  
HETATM    5  C   UNL     1     -11.735  13.776  67.519  1.00  0.00    -0.410 C  
HETATM    6  O   UNL     1      -9.849  14.646  64.853  1.00  0.00    -0.204 OA 
HETATM    7  C   UNL     1      -9.933  13.991  65.896  1.00  0.00    -0.307 C  
HETATM    8  C   UNL     1     -10.716  13.968  68.655  1.00  0.00    -0.269 C  
HETATM    9  C   UNL     1      -8.868  14.129  66.961  1.00  0.00    -0.237 C  
HETATM   10  C   UNL     1      -9.490  14.753  68.199  1.00  0.00    -0.208 C  
BRANCH   4  11
HETATM   11  C   UNL     1     -10.713  11.588  66.314  1.00  0.00    -0.321 A  
HETATM   12  C   UNL     1      -9.477   9.806  65.110  1.00  0.00    -0.338 A  
HETATM   13  C   UNL     1     -10.533   9.307  67.200  1.00  0.00    -0.319 A  
HETATM   14  C   UNL     1      -9.940  11.122  65.214  1.00  0.00    -0.311 A  
HETATM   15  C   UNL     1      -9.759   8.899  66.119  1.00  0.00    -0.338 A  
HETATM   16  C   UNL     1     -11.033  10.621  67.288  1.00  0.00    -0.284 A  
HETATM   17 CL   UNL     1     -12.113  10.858  68.616  1.00  0.00    -0.212 Cl 
ENDBRANCH   4  11
ENDBRANCH   2   4
TORSDOF 2
ENDMDL
MODEL       78
REMARK 921   NORMALIZED FREE ENERGY PREDICTED BY IDOCK:   -3.93 KCAL/MOL
REMARK 922        TOTAL FREE ENERGY PREDICTED BY IDOCK:   -4.64 KCAL/MOL
REMARK 923 INTER-LIGAND FREE ENERGY PREDICTED BY IDOCK:   -4.41 KCAL/MOL
REMARK 924 INTRA-LIGAND FREE ENERGY PREDICTED BY IDOCK:   -0.24 KCAL/MOL
REMARK 927      BINDING AFFINITY PREDICTED BY RF-SCORE:    0.00 PKD
ROOT
HETATM    1  C   UNL     1      -7.731   8.519  70.625  1.00  0.00    -0.081 C  
HETATM    2  N   UNL     1      -8.951   8.362  71.393  1.00  0.00    -0.168 NA 
HETATM    3  H   UNL     1      -8.935   8.052  72.364  1.00  0.00     0.000 HD 
ENDROOT
BRANCH   2   4
HETATM    4  C   UNL     1     -10.230   8.673  70.692  1.00  0.00    -0.198 C  
HETATM    5  C   UNL     1     -10.345  10.210  70.467  1.00  0.00    -0.108 C  
HETATM    6  O   UNL     1     -11.141   8.022  72.916  1.00  0.00    -0.392 OA 
HETATM    7  C   UNL     1     -11.364   8.424  71.770  1.00  0.00    -0.300 C  
HETATM    8  C   UNL     1     -11.747  10.695  70.061  1.00  0.00    -0.405 C  
HETATM    9  C   UNL     1     -12.770   8.809  71.366  1.00  0.00    -0.324 C  
HETATM   10  C   UNL     1     -12.808  10.300  71.083  1.00  0.00    -0.504 C  
BRANCH   4  11
HETATM   11  C   UNL     1     -10.408   7.686  69.512  1.00  0.00    -0.217 A  
HETATM   12  C   UNL     1     -10.681   7.511  67.053  1.00  0.00    -0.367 A  
HETATM   13  C   UNL     1     -10.726   5.527  68.392  1.00  0.00    -0.156 A  
HETATM   14  C   UNL     1     -10.492   8.266  68.215  1.00  0.00    -0.211 A  
HETATM   15  C   UNL     1     -10.778   6.131  67.140  1.00  0.00    -0.422 A  
HETATM   16  C   UNL     1     -10.575   6.288  69.567  1.00  0.00    -0.271 A  
HETATM   17 CL   UNL     1     -10.715   5.354  71.014  1.00  0.00    -0.279 Cl 
ENDBRANCH   4  11
ENDBRANCH   2   4
TORSDOF 2
ENDMDL
MODEL       79
REMARK 921   NORMALIZED FREE ENERGY PREDICTED BY IDOCK:   -3.90 KCAL/MOL
REMARK 922        TOTAL FREE ENERGY PREDICTED BY IDOCK:   -4.61 KCAL/MOL
REMARK 923 INTER-LIGAND FREE ENERGY PREDICTED BY IDOCK:   -4.37 KCAL/MOL
REMARK 924 INTRA-LIGAND FREE ENERGY PREDICTED BY IDOCK:   -0.24 KCAL/MOL
REMARK 927      BINDING AFFINITY PREDICTED BY RF-SCORE:    0.00 PKD
ROOT
HETATM    1  C   UNL     1     -10.913  15.323  64.922  1.00  0.00    -0.430 C  
HETATM    2  N   UNL     1      -9.891  16.256  65.354  1.00  0.00    -0.483 NA 
HETATM    3  H   UNL     1      -9.428  16.884  64.697  1.00  0.00     0.000 HD 
ENDROOT
BRANCH   2   4
HETATM    4  C   UNL     1      -9.550  16.253  66.805  1.00  0.00    -0.239 C  
HETATM    5  C   UNL     1     -10.410  15.186  67.546  1.00  0.00    -0.242 C  
HETATM    6  O   UNL     1     -10.740  18.436  66.679  1.00  0.00    -0.348 OA 
HETATM    7  C   UNL     1     -10.155  17.601  67.375  1.00  0.00    -0.331 C  
HETATM    8  C   UNL     1     -10.400  15.307  69.078  1.00  0.00    -0.242 C  
HETATM    9  C   UNL     1     -10.079  17.790  68.874  1.00  0.00    -0.350 C  
HETATM   10  C   UNL     1     -10.868  16.681  69.548  1.00  0.00    -0.285 C  
BRANCH   4  11
HETATM   11  C   UNL     1      -8.008  16.269  66.957  1.00  0.00    -0.248 A  
HETATM   12  C   UNL     1      -6.064  15.062  67.913  1.00  0.00    -0.170 A  
HETATM   13  C   UNL     1      -5.721  17.132  66.760  1.00  0.00    -0.231 A  
HETATM   14  C   UNL     1      -7.436  15.177  67.669  1.00  0.00    -0.202 A  
HETATM   15  C   UNL     1      -5.199  16.035  67.438  1.00  0.00    -0.062 A  
HETATM   16  C   UNL     1      -7.106  17.270  66.547  1.00  0.00    -0.265 A  
HETATM   17 CL   UNL     1      -7.546  18.786  65.846  1.00  0.00    -0.243 Cl 
ENDBRANCH   4  11
ENDBRANCH   2   4
TORSDOF 2
ENDMDL
MODEL       80
REMARK 921   NORMALIZED FREE ENERGY PREDICTED BY IDOCK:   -3.86 KCAL/MOL
REMARK 922        TOTAL FREE ENERGY PREDICTED BY IDOCK:   -4.57 KCAL/MOL
REMARK 923 INTER-LIGAND FREE ENERGY PREDICTED BY IDOCK:   -4.53 KCAL/MOL
REMARK 924 INTRA-LIGAND FREE ENERGY PREDICTED BY IDOCK:   -0.04 KCAL/MOL
REMARK 927      BINDING AFFINITY PREDICTED BY RF-SCORE:    0.00 PKD
ROOT
HETATM    1  C   UNL     1     -10.699  19.680  67.620  1.00  0.00    -0.367 C  
HETATM    2  N   UNL     1      -9.509  19.267  66.903  1.00  0.00    -0.312 NA 
HETATM    3  H   UNL     1      -9.256  19.679  66.005  1.00  0.00     0.000 HD 
ENDROOT
BRANCH   2   4
HETATM    4  C   UNL     1      -8.673  18.211  67.541  1.00  0.00    -0.249 C  
HETATM    5  C   UNL     1      -7.863  18.824  68.723  1.00  0.00    -0.344 C  
HETATM    6  O   UNL     1      -7.442  18.448  65.390  1.00  0.00    -0.494 OA 
HETATM    7  C   UNL     1      -7.525  17.903  66.495  1.00  0.00    -0.246 C  
HETATM    8  C   UNL     1      -6.724  17.934  69.248  1.00  0.00    -0.213 C  
HETATM    9  C   UNL     1      -6.435  16.959  66.952  1.00  0.00    -0.249 C  
HETATM   10  C   UNL     1      -5.730  17.568  68.151  1.00  0.00    -0.152 C  
BRANCH   4  11
HETATM   11  C   UNL     1      -9.540  16.945  67.752  1.00  0.00    -0.249 A  
HETATM   12  C   UNL     1     -10.057  15.092  69.317  1.00  0.00    -0.246 A  
HETATM   13  C   UNL     1     -11.143  15.177  67.185  1.00  0.00    -0.335 A  
HETATM   14  C   UNL     1      -9.369  16.264  68.990  1.00  0.00    -0.254 A  
HETATM   15  C   UNL     1     -10.966  14.556  68.417  1.00  0.00    -0.255 A  
HETATM   16  C   UNL     1     -10.422  16.335  66.837  1.00  0.00    -0.302 A  
HETATM   17 CL   UNL     1     -10.666  16.832  65.201  1.00  0.00    -0.262 Cl 
ENDBRANCH   4  11
ENDBRANCH   2   4
TORSDOF 2
ENDMDL
MODEL       81
REMARK 921   NORMALIZED FREE ENERGY PREDICTED BY IDOCK:   -3.84 KCAL/MOL
REMARK 922        TOTAL FREE ENERGY PREDICTED BY IDOCK:   -4.55 KCAL/MOL
REMARK 923 INTER-LIGAND FREE ENERGY PREDICTED BY IDOCK:   -5.04 KCAL/MOL
REMARK 924 INTRA-LIGAND FREE ENERGY PREDICTED BY IDOCK:    0.49 KCAL/MOL
REMARK 927      BINDING AFFINITY PREDICTED BY RF-SCORE:    0.00 PKD
ROOT
HETATM    1  C   UNL     1      -6.943  15.271  67.366  1.00  0.00    -0.179 C  
HETATM    2  N   UNL     1      -8.161  14.558  67.038  1.00  0.00    -0.347 NA 
HETATM    3  H   UNL     1      -8.161  13.555  66.853  1.00  0.00     0.000 HD 
ENDROOT
BRANCH   2   4
HETATM    4  C   UNL     1      -9.415  15.362  66.984  1.00  0.00    -0.220 C  
HETATM    5  C   UNL     1      -9.097  16.800  66.476  1.00  0.00    -0.302 C  
HETATM    6  O   UNL     1      -9.150  15.203  69.454  1.00  0.00    -0.227 OA 
HETATM    7  C   UNL     1      -9.797  15.636  68.497  1.00  0.00    -0.205 C  
HETATM    8  C   UNL     1     -10.229  17.819  66.688  1.00  0.00    -0.361 C  
HETATM    9  C   UNL     1     -10.966  16.566  68.736  1.00  0.00    -0.330 C  
HETATM   10  C   UNL     1     -10.634  17.929  68.154  1.00  0.00    -0.351 C  
BRANCH   4  11
HETATM   11  C   UNL     1     -10.525  14.515  66.312  1.00  0.00    -0.303 A  
HETATM   12  C   UNL     1     -11.629  12.295  66.283  1.00  0.00    -0.446 A  
HETATM   13  C   UNL     1     -12.313  13.976  64.722  1.00  0.00    -0.437 A  
HETATM   14  C   UNL     1     -10.689  13.190  66.804  1.00  0.00    -0.274 A  
HETATM   15  C   UNL     1     -12.460  12.697  65.249  1.00  0.00    -0.483 A  
HETATM   16  C   UNL     1     -11.342  14.867  65.219  1.00  0.00    -0.358 A  
HETATM   17 CL   UNL     1     -11.216  16.327  64.305  1.00  0.00    -0.216 Cl 
ENDBRANCH   4  11
ENDBRANCH   2   4
TORSDOF 2
ENDMDL
MODEL       82
REMARK 921   NORMALIZED FREE ENERGY PREDICTED BY IDOCK:   -3.83 KCAL/MOL
REMARK 922        TOTAL FREE ENERGY PREDICTED BY IDOCK:   -4.53 KCAL/MOL
REMARK 923 INTER-LIGAND FREE ENERGY PREDICTED BY IDOCK:   -4.67 KCAL/MOL
REMARK 924 INTRA-LIGAND FREE ENERGY PREDICTED BY IDOCK:    0.13 KCAL/MOL
REMARK 927      BINDING AFFINITY PREDICTED BY RF-SCORE:    0.00 PKD
ROOT
HETATM    1  C   UNL     1      -7.150  10.024  69.988  1.00  0.00    -0.146 C  
HETATM    2  N   UNL     1      -8.476  10.427  70.413  1.00  0.00    -0.211 NA 
HETATM    3  H   UNL     1      -8.617  11.029  71.224  1.00  0.00     0.000 HD 
ENDROOT
BRANCH   2   4
HETATM    4  C   UNL     1      -9.623   9.918  69.608  1.00  0.00    -0.227 C  
HETATM    5  C   UNL     1      -9.144   8.758  68.685  1.00  0.00    -0.141 C  
HETATM    6  O   UNL     1      -9.313  12.129  68.507  1.00  0.00    -0.183 OA 
HETATM    7  C   UNL     1      -9.927  11.059  68.553  1.00  0.00    -0.193 C  
HETATM    8  C   UNL     1     -10.136   8.371  67.575  1.00  0.00    -0.279 C  
HETATM    9  C   UNL     1     -10.966  10.741  67.500  1.00  0.00    -0.372 C  
HETATM   10  C   UNL     1     -10.485   9.556  66.680  1.00  0.00    -0.241 C  
BRANCH   4  11
HETATM   11  C   UNL     1     -10.845   9.731  70.541  1.00  0.00    -0.387 A  
HETATM   12  C   UNL     1     -12.204   8.063  71.776  1.00  0.00    -0.352 A  
HETATM   13  C   UNL     1     -12.835  10.373  71.823  1.00  0.00    -0.561 A  
HETATM   14  C   UNL     1     -11.121   8.398  70.957  1.00  0.00    -0.298 A  
HETATM   15  C   UNL     1     -13.055   9.060  72.228  1.00  0.00    -0.508 A  
HETATM   16  C   UNL     1     -11.768  10.706  70.967  1.00  0.00    -0.233 A  
HETATM   17 CL   UNL     1     -11.790  12.355  70.452  1.00  0.00    -0.334 Cl 
ENDBRANCH   4  11
ENDBRANCH   2   4
TORSDOF 2
ENDMDL
MODEL       83
REMARK 921   NORMALIZED FREE ENERGY PREDICTED BY IDOCK:   -3.83 KCAL/MOL
REMARK 922        TOTAL FREE ENERGY PREDICTED BY IDOCK:   -4.53 KCAL/MOL
REMARK 923 INTER-LIGAND FREE ENERGY PREDICTED BY IDOCK:   -4.25 KCAL/MOL
REMARK 924 INTRA-LIGAND FREE ENERGY PREDICTED BY IDOCK:   -0.28 KCAL/MOL
REMARK 927      BINDING AFFINITY PREDICTED BY RF-SCORE:    0.00 PKD
ROOT
HETATM    1  C   UNL     1     -12.989   7.246  71.370  1.00  0.00    -0.373 C  
HETATM    2  N   UNL     1     -12.178   8.205  70.648  1.00  0.00    -0.491 NA 
HETATM    3  H   UNL     1     -12.513   9.147  70.449  1.00  0.00     0.000 HD 
ENDROOT
BRANCH   2   4
HETATM    4  C   UNL     1     -10.828   7.748  70.210  1.00  0.00    -0.249 C  
HETATM    5  C   UNL     1     -10.738   6.196  70.316  1.00  0.00    -0.355 C  
HETATM    6  O   UNL     1     -10.203   8.833  72.362  1.00  0.00    -0.293 OA 
HETATM    7  C   UNL     1      -9.842   8.203  71.363  1.00  0.00    -0.174 C  
HETATM    8  C   UNL     1      -9.313   5.629  70.216  1.00  0.00    -0.186 C  
HETATM    9  C   UNL     1      -8.409   7.734  71.245  1.00  0.00    -0.108 C  
HETATM   10  C   UNL     1      -8.386   6.216  71.275  1.00  0.00    -0.124 C  
BRANCH   4  11
HETATM   11  C   UNL     1     -10.457   8.472  68.892  1.00  0.00    -0.207 A  
HETATM   12  C   UNL     1      -9.758  10.638  67.908  1.00  0.00    -0.177 A  
HETATM   13  C   UNL     1     -10.136   8.756  66.476  1.00  0.00    -0.349 A  
HETATM   14  C   UNL     1     -10.092   9.842  69.008  1.00  0.00    -0.199 A  
HETATM   15  C   UNL     1      -9.760  10.086  66.636  1.00  0.00    -0.246 A  
HETATM   16  C   UNL     1     -10.511   7.964  67.578  1.00  0.00    -0.262 A  
HETATM   17 CL   UNL     1     -11.109   6.405  67.132  1.00  0.00    -0.460 Cl 
ENDBRANCH   4  11
ENDBRANCH   2   4
TORSDOF 2
ENDMDL
MODEL       84
REMARK 921   NORMALIZED FREE ENERGY PREDICTED BY IDOCK:   -3.82 KCAL/MOL
REMARK 922        TOTAL FREE ENERGY PREDICTED BY IDOCK:   -4.52 KCAL/MOL
REMARK 923 INTER-LIGAND FREE ENERGY PREDICTED BY IDOCK:   -4.18 KCAL/MOL
REMARK 924 INTRA-LIGAND FREE ENERGY PREDICTED BY IDOCK:   -0.34 KCAL/MOL
REMARK 927      BINDING AFFINITY PREDICTED BY RF-SCORE:    0.00 PKD
ROOT
HETATM    1  C   UNL     1      -7.769   8.013  71.099  1.00  0.00    -0.087 C  
HETATM    2  N   UNL     1      -8.162   8.625  69.845  1.00  0.00    -0.117 NA 
HETATM    3  H   UNL     1      -7.585   9.333  69.392  1.00  0.00     0.000 HD 
ENDROOT
BRANCH   2   4
HETATM    4  C   UNL     1      -9.451   8.168  69.250  1.00  0.00    -0.159 C  
HETATM    5  C   UNL     1      -9.913   6.852  69.945  1.00  0.00    -0.185 C  
HETATM    6  O   UNL     1      -7.934   7.687  67.335  1.00  0.00    -0.115 OA 
HETATM    7  C   UNL     1      -9.077   7.648  67.802  1.00  0.00    -0.130 C  
HETATM    8  C   UNL     1     -11.038   6.103  69.212  1.00  0.00    -0.463 C  
HETATM    9  C   UNL     1     -10.188   6.985  67.019  1.00  0.00    -0.330 C  
HETATM   10  C   UNL     1     -10.654   5.754  67.777  1.00  0.00    -0.310 C  
BRANCH   4  11
HETATM   11  C   UNL     1     -10.408   9.380  69.138  1.00  0.00    -0.221 A  
HETATM   12  C   UNL     1     -11.131  11.252  67.680  1.00  0.00    -0.336 A  
HETATM   13  C   UNL     1     -12.090  11.013  69.860  1.00  0.00    -0.435 A  
HETATM   14  C   UNL     1     -10.350  10.117  67.922  1.00  0.00    -0.234 A  
HETATM   15  C   UNL     1     -12.021  11.690  68.647  1.00  0.00    -0.311 A  
HETATM   16  C   UNL     1     -11.277   9.893  70.121  1.00  0.00    -0.289 A  
HETATM   17 CL   UNL     1     -11.398   9.320  71.747  1.00  0.00    -0.456 Cl 
ENDBRANCH   4  11
ENDBRANCH   2   4
TORSDOF 2
ENDMDL
MODEL       85
REMARK 921   NORMALIZED FREE ENERGY PREDICTED BY IDOCK:   -3.78 KCAL/MOL
REMARK 922        TOTAL FREE ENERGY PREDICTED BY IDOCK:   -4.48 KCAL/MOL
REMARK 923 INTER-LIGAND FREE ENERGY PREDICTED BY IDOCK:   -4.21 KCAL/MOL
REMARK 924 INTRA-LIGAND FREE ENERGY PREDICTED BY IDOCK:   -0.27 KCAL/MOL
REMARK 927      BINDING AFFINITY PREDICTED BY RF-SCORE:    0.00 PKD
ROOT
HETATM    1  C   UNL     1      -7.952  13.797  67.996  1.00  0.00    -0.156 C  
HETATM    2  N   UNL     1      -8.764  13.305  66.900  1.00  0.00    -0.365 NA 
HETATM    3  H   UNL     1      -9.148  13.933  66.195  1.00  0.00     0.000 HD 
ENDROOT
BRANCH   2   4
HETATM    4  C   UNL     1      -9.010  11.835  66.855  1.00  0.00    -0.195 C  
HETATM    5  C   UNL     1      -7.664  11.083  66.636  1.00  0.00    -0.153 C  
HETATM    6  O   UNL     1     -10.041  12.481  64.682  1.00  0.00    -0.284 OA 
HETATM    7  C   UNL     1      -9.744  11.581  65.474  1.00  0.00    -0.230 C  
HETATM    8  C   UNL     1      -7.813   9.605  66.240  1.00  0.00    -0.101 C  
HETATM    9  C   UNL     1      -9.986  10.136  65.098  1.00  0.00    -0.379 C  
HETATM   10  C   UNL     1      -8.647   9.431  64.974  1.00  0.00    -0.193 C  
BRANCH   4  11
HETATM   11  C   UNL     1      -9.950  11.448  68.023  1.00  0.00    -0.192 A  
HETATM   12  C   UNL     1     -10.212   9.966  69.994  1.00  0.00    -0.319 A  
HETATM   13  C   UNL     1     -11.986  11.457  69.392  1.00  0.00    -0.407 A  
HETATM   14  C   UNL     1      -9.470  10.443  68.909  1.00  0.00    -0.190 A  
HETATM   15  C   UNL     1     -11.470  10.491  70.249  1.00  0.00    -0.416 A  
HETATM   16  C   UNL     1     -11.257  11.911  68.276  1.00  0.00    -0.261 A  
HETATM   17 CL   UNL     1     -12.156  12.975  67.253  1.00  0.00    -0.368 Cl 
ENDBRANCH   4  11
ENDBRANCH   2   4
TORSDOF 2
ENDMDL
MODEL       86
REMARK 921   NORMALIZED FREE ENERGY PREDICTED BY IDOCK:   -3.77 KCAL/MOL
REMARK 922        TOTAL FREE ENERGY PREDICTED BY IDOCK:   -4.46 KCAL/MOL
REMARK 923 INTER-LIGAND FREE ENERGY PREDICTED BY IDOCK:   -4.21 KCAL/MOL
REMARK 924 INTRA-LIGAND FREE ENERGY PREDICTED BY IDOCK:   -0.25 KCAL/MOL
REMARK 927      BINDING AFFINITY PREDICTED BY RF-SCORE:    0.00 PKD
ROOT
HETATM    1  C   UNL     1     -10.434   7.857  67.159  1.00  0.00    -0.344 C  
HETATM    2  N   UNL     1     -10.459   9.284  67.408  1.00  0.00    -0.266 NA 
HETATM    3  H   UNL     1     -10.562   9.958  66.650  1.00  0.00     0.000 HD 
ENDROOT
BRANCH   2   4
HETATM    4  C   UNL     1     -10.328   9.720  68.828  1.00  0.00    -0.208 C  
HETATM    5  C   UNL     1     -10.766   8.564  69.776  1.00  0.00    -0.213 C  
HETATM    6  O   UNL     1     -12.276  11.119  68.159  1.00  0.00    -0.612 OA 
HETATM    7  C   UNL     1     -11.494  10.770  69.048  1.00  0.00    -0.298 C  
HETATM    8  C   UNL     1     -10.995   8.986  71.237  1.00  0.00    -0.384 C  
HETATM    9  C   UNL     1     -11.686  11.273  70.462  1.00  0.00    -0.345 C  
HETATM   10  C   UNL     1     -12.034  10.096  71.357  1.00  0.00    -0.447 C  
BRANCH   4  11
HETATM   11  C   UNL     1      -8.957  10.417  69.013  1.00  0.00    -0.184 A  
HETATM   12  C   UNL     1      -6.845  10.399  70.313  1.00  0.00    -0.132 A  
HETATM   13  C   UNL     1      -7.199  12.089  68.654  1.00  0.00    -0.110 A  
HETATM   14  C   UNL     1      -8.102   9.867  70.009  1.00  0.00    -0.193 A  
HETATM   15  C   UNL     1      -6.382  11.505  69.617  1.00  0.00    -0.133 A  
HETATM   16  C   UNL     1      -8.480  11.578  68.373  1.00  0.00    -0.159 A  
HETATM   17 CL   UNL     1      -9.386  12.559  67.277  1.00  0.00    -0.184 Cl 
ENDBRANCH   4  11
ENDBRANCH   2   4
TORSDOF 2
ENDMDL
MODEL       87
REMARK 921   NORMALIZED FREE ENERGY PREDICTED BY IDOCK:   -3.76 KCAL/MOL
REMARK 922        TOTAL FREE ENERGY PREDICTED BY IDOCK:   -4.45 KCAL/MOL
REMARK 923 INTER-LIGAND FREE ENERGY PREDICTED BY IDOCK:   -4.09 KCAL/MOL
REMARK 924 INTRA-LIGAND FREE ENERGY PREDICTED BY IDOCK:   -0.36 KCAL/MOL
REMARK 927      BINDING AFFINITY PREDICTED BY RF-SCORE:    0.00 PKD
ROOT
HETATM    1  C   UNL     1     -10.281   9.014  66.684  1.00  0.00    -0.263 C  
HETATM    2  N   UNL     1     -10.849   7.838  67.312  1.00  0.00    -0.528 NA 
HETATM    3  H   UNL     1     -11.780   7.499  67.069  1.00  0.00     0.000 HD 
ENDROOT
BRANCH   2   4
HETATM    4  C   UNL     1     -10.008   7.148  68.331  1.00  0.00    -0.158 C  
HETATM    5  C   UNL     1      -8.500   7.374  68.010  1.00  0.00    -0.123 C  
HETATM    6  O   UNL     1     -10.893   5.156  67.129  1.00  0.00    -0.101 OA 
HETATM    7  C   UNL     1     -10.170   5.602  68.024  1.00  0.00    -0.186 C  
HETATM    8  C   UNL     1      -7.537   6.454  68.776  1.00  0.00    -0.093 C  
HETATM    9  C   UNL     1      -9.297   4.663  68.828  1.00  0.00    -0.197 C  
HETATM   10  C   UNL     1      -7.840   4.978  68.537  1.00  0.00    -0.082 C  
BRANCH   4  11
HETATM   11  C   UNL     1     -10.570   7.461  69.740  1.00  0.00    -0.245 A  
HETATM   12  C   UNL     1     -12.263   6.802  71.428  1.00  0.00    -0.413 A  
HETATM   13  C   UNL     1     -10.823   8.665  71.863  1.00  0.00    -0.419 A  
HETATM   14  C   UNL     1     -11.633   6.629  70.192  1.00  0.00    -0.446 A  
HETATM   15  C   UNL     1     -11.842   7.813  72.278  1.00  0.00    -0.378 A  
HETATM   16  C   UNL     1     -10.213   8.517  70.602  1.00  0.00    -0.197 A  
HETATM   17 CL   UNL     1      -9.102   9.785  70.223  1.00  0.00    -0.260 Cl 
ENDBRANCH   4  11
ENDBRANCH   2   4
TORSDOF 2
ENDMDL
MODEL       88
REMARK 921   NORMALIZED FREE ENERGY PREDICTED BY IDOCK:   -3.73 KCAL/MOL
REMARK 922        TOTAL FREE ENERGY PREDICTED BY IDOCK:   -4.42 KCAL/MOL
REMARK 923 INTER-LIGAND FREE ENERGY PREDICTED BY IDOCK:   -4.17 KCAL/MOL
REMARK 924 INTRA-LIGAND FREE ENERGY PREDICTED BY IDOCK:   -0.25 KCAL/MOL
REMARK 927      BINDING AFFINITY PREDICTED BY RF-SCORE:    0.00 PKD
ROOT
HETATM    1  C   UNL     1     -11.073  15.418  64.901  1.00  0.00    -0.423 C  
HETATM    2  N   UNL     1     -10.030  15.653  65.879  1.00  0.00    -0.323 NA 
HETATM    3  H   UNL     1      -9.239  16.265  65.681  1.00  0.00     0.000 HD 
ENDROOT
BRANCH   2   4
HETATM    4  C   UNL     1     -10.169  14.956  67.190  1.00  0.00    -0.245 C  
HETATM    5  C   UNL     1     -11.627  14.431  67.354  1.00  0.00    -0.398 C  
HETATM    6  O   UNL     1      -9.962  17.299  68.004  1.00  0.00    -0.278 OA 
HETATM    7  C   UNL     1     -10.122  16.106  68.278  1.00  0.00    -0.232 C  
HETATM    8  C   UNL     1     -11.993  13.992  68.781  1.00  0.00    -0.382 C  
HETATM    9  C   UNL     1     -10.389  15.690  69.707  1.00  0.00    -0.309 C  
HETATM   10  C   UNL     1     -11.792  15.114  69.795  1.00  0.00    -0.364 C  
BRANCH   4  11
HETATM   11  C   UNL     1      -8.962  14.006  67.382  1.00  0.00    -0.208 A  
HETATM   12  C   UNL     1      -8.292  11.672  67.889  1.00  0.00    -0.143 A  
HETATM   13  C   UNL     1      -6.608  13.345  67.581  1.00  0.00    -0.174 A  
HETATM   14  C   UNL     1      -9.271  12.645  67.663  1.00  0.00    -0.191 A  
HETATM   15  C   UNL     1      -6.952  12.020  67.828  1.00  0.00    -0.103 A  
HETATM   16  C   UNL     1      -7.592  14.335  67.392  1.00  0.00    -0.163 A  
HETATM   17 CL   UNL     1      -6.946  15.933  67.279  1.00  0.00    -0.230 Cl 
ENDBRANCH   4  11
ENDBRANCH   2   4
TORSDOF 2
ENDMDL
MODEL       89
REMARK 921   NORMALIZED FREE ENERGY PREDICTED BY IDOCK:   -3.73 KCAL/MOL
REMARK 922        TOTAL FREE ENERGY PREDICTED BY IDOCK:   -4.42 KCAL/MOL
REMARK 923 INTER-LIGAND FREE ENERGY PREDICTED BY IDOCK:   -4.25 KCAL/MOL
REMARK 924 INTRA-LIGAND FREE ENERGY PREDICTED BY IDOCK:   -0.17 KCAL/MOL
REMARK 927      BINDING AFFINITY PREDICTED BY RF-SCORE:    0.00 PKD
ROOT
HETATM    1  C   UNL     1     -12.126  14.118  69.683  1.00  0.00    -0.349 C  
HETATM    2  N   UNL     1     -10.892  13.489  69.253  1.00  0.00    -0.433 NA 
HETATM    3  H   UNL     1     -10.436  12.769  69.813  1.00  0.00     0.000 HD 
ENDROOT
BRANCH   2   4
HETATM    4  C   UNL     1     -10.323  13.947  67.954  1.00  0.00    -0.240 C  
HETATM    5  C   UNL     1     -10.829  15.386  67.635  1.00  0.00    -0.304 C  
HETATM    6  O   UNL     1     -11.914  12.228  67.109  1.00  0.00    -0.564 OA 
HETATM    7  C   UNL     1     -11.073  13.094  66.849  1.00  0.00    -0.282 C  
HETATM    8  C   UNL     1     -10.590  15.842  66.186  1.00  0.00    -0.310 C  
HETATM    9  C   UNL     1     -10.790  13.462  65.410  1.00  0.00    -0.303 C  
HETATM   10  C   UNL     1     -11.229  14.896  65.174  1.00  0.00    -0.389 C  
BRANCH   4  11
HETATM   11  C   UNL     1      -8.809  13.618  67.926  1.00  0.00    -0.188 A  
HETATM   12  C   UNL     1      -7.135  11.865  67.403  1.00  0.00    -0.129 A  
HETATM   13  C   UNL     1      -6.408  13.970  68.282  1.00  0.00    -0.114 A  
HETATM   14  C   UNL     1      -8.456  12.321  67.461  1.00  0.00    -0.172 A  
HETATM   15  C   UNL     1      -6.103  12.702  67.797  1.00  0.00    -0.127 A  
HETATM   16  C   UNL     1      -7.740  14.417  68.378  1.00  0.00    -0.132 A  
HETATM   17 CL   UNL     1      -7.897  15.944  69.170  1.00  0.00    -0.216 Cl 
ENDBRANCH   4  11
ENDBRANCH   2   4
TORSDOF 2
ENDMDL
MODEL       90
REMARK 921   NORMALIZED FREE ENERGY PREDICTED BY IDOCK:   -3.72 KCAL/MOL
REMARK 922        TOTAL FREE ENERGY PREDICTED BY IDOCK:   -4.41 KCAL/MOL
REMARK 923 INTER-LIGAND FREE ENERGY PREDICTED BY IDOCK:   -4.50 KCAL/MOL
REMARK 924 INTRA-LIGAND FREE ENERGY PREDICTED BY IDOCK:    0.09 KCAL/MOL
REMARK 927      BINDING AFFINITY PREDICTED BY RF-SCORE:    0.00 PKD
ROOT
HETATM    1  C   UNL     1     -10.754   5.400  69.896  1.00  0.00    -0.221 C  
HETATM    2  N   UNL     1     -11.415   6.670  69.668  1.00  0.00    -0.584 NA 
HETATM    3  H   UNL     1     -11.728   6.951  68.740  1.00  0.00     0.000 HD 
ENDROOT
BRANCH   2   4
HETATM    4  C   UNL     1     -11.616   7.544  70.859  1.00  0.00    -0.286 C  
HETATM    5  C   UNL     1     -13.124   7.567  71.247  1.00  0.00    -0.316 C  
HETATM    6  O   UNL     1     -11.100   9.292  69.162  1.00  0.00    -0.124 OA 
HETATM    7  C   UNL     1     -11.402   9.022  70.328  1.00  0.00    -0.178 C  
HETATM    8  C   UNL     1     -13.515   8.677  72.237  1.00  0.00    -0.414 C  
HETATM    9  C   UNL     1     -11.693  10.136  71.309  1.00  0.00    -0.426 C  
HETATM   10  C   UNL     1     -13.155  10.064  71.713  1.00  0.00    -0.562 C  
BRANCH   4  11
HETATM   11  C   UNL     1     -10.534   7.209  71.915  1.00  0.00    -0.220 A  
HETATM   12  C   UNL     1     -10.157   6.456  74.248  1.00  0.00    -0.365 A  
HETATM   13  C   UNL     1      -8.281   7.005  72.865  1.00  0.00    -0.119 A  
HETATM   14  C   UNL     1     -11.008   6.770  73.183  1.00  0.00    -0.279 A  
HETATM   15  C   UNL     1      -8.784   6.555  74.081  1.00  0.00    -0.153 A  
HETATM   16  C   UNL     1      -9.137   7.359  71.804  1.00  0.00    -0.129 A  
HETATM   17 CL   UNL     1      -8.310   8.057  70.457  1.00  0.00    -0.121 Cl 
ENDBRANCH   4  11
ENDBRANCH   2   4
TORSDOF 2
ENDMDL
MODEL       91
REMARK 921   NORMALIZED FREE ENERGY PREDICTED BY IDOCK:   -3.72 KCAL/MOL
REMARK 922        TOTAL FREE ENERGY PREDICTED BY IDOCK:   -4.41 KCAL/MOL
REMARK 923 INTER-LIGAND FREE ENERGY PREDICTED BY IDOCK:   -4.43 KCAL/MOL
REMARK 924 INTRA-LIGAND FREE ENERGY PREDICTED BY IDOCK:    0.03 KCAL/MOL
REMARK 927      BINDING AFFINITY PREDICTED BY RF-SCORE:    0.00 PKD
ROOT
HETATM    1  C   UNL     1      -7.935   9.879  70.176  1.00  0.00    -0.162 C  
HETATM    2  N   UNL     1      -8.603   8.723  70.740  1.00  0.00    -0.168 NA 
HETATM    3  H   UNL     1      -8.107   8.049  71.323  1.00  0.00     0.000 HD 
ENDROOT
BRANCH   2   4
HETATM    4  C   UNL     1     -10.052   8.565  70.424  1.00  0.00    -0.189 C  
HETATM    5  C   UNL     1     -10.907   8.976  71.660  1.00  0.00    -0.437 C  
HETATM    6  O   UNL     1      -9.405   6.164  70.539  1.00  0.00    -0.159 OA 
HETATM    7  C   UNL     1     -10.297   7.000  70.375  1.00  0.00    -0.202 C  
HETATM    8  C   UNL     1     -12.383   8.550  71.589  1.00  0.00    -0.371 C  
HETATM    9  C   UNL     1     -11.732   6.550  70.214  1.00  0.00    -0.430 C  
HETATM   10  C   UNL     1     -12.536   7.043  71.405  1.00  0.00    -0.428 C  
BRANCH   4  11
HETATM   11  C   UNL     1     -10.332   9.180  69.031  1.00  0.00    -0.229 A  
HETATM   12  C   UNL     1      -9.969   8.903  66.593  1.00  0.00    -0.346 A  
HETATM   13  C   UNL     1     -11.142  10.827  67.403  1.00  0.00    -0.363 A  
HETATM   14  C   UNL     1      -9.823   8.462  67.913  1.00  0.00    -0.208 A  
HETATM   15  C   UNL     1     -10.650  10.082  66.335  1.00  0.00    -0.138 A  
HETATM   16  C   UNL     1     -10.961  10.406  68.735  1.00  0.00    -0.245 A  
HETATM   17 CL   UNL     1     -11.491  11.566  69.900  1.00  0.00    -0.360 Cl 
ENDBRANCH   4  11
ENDBRANCH   2   4
TORSDOF 2
ENDMDL
MODEL       92
REMARK 921   NORMALIZED FREE ENERGY PREDICTED BY IDOCK:   -3.72 KCAL/MOL
REMARK 922        TOTAL FREE ENERGY PREDICTED BY IDOCK:   -4.41 KCAL/MOL
REMARK 923 INTER-LIGAND FREE ENERGY PREDICTED BY IDOCK:   -4.23 KCAL/MOL
REMARK 924 INTRA-LIGAND FREE ENERGY PREDICTED BY IDOCK:   -0.17 KCAL/MOL
REMARK 927      BINDING AFFINITY PREDICTED BY RF-SCORE:    0.00 PKD
ROOT
HETATM    1  C   UNL     1     -10.821   6.907  67.026  1.00  0.00    -0.366 C  
HETATM    2  N   UNL     1     -10.581   7.965  67.986  1.00  0.00    -0.385 NA 
HETATM    3  H   UNL     1     -10.813   7.854  68.973  1.00  0.00     0.000 HD 
ENDROOT
BRANCH   2   4
HETATM    4  C   UNL     1      -9.979   9.224  67.462  1.00  0.00    -0.202 C  
HETATM    5  C   UNL     1      -9.765   9.103  65.923  1.00  0.00    -0.336 C  
HETATM    6  O   UNL     1      -8.018   8.335  68.713  1.00  0.00    -0.110 OA 
HETATM    7  C   UNL     1      -8.486   9.221  67.991  1.00  0.00    -0.120 C  
HETATM    8  C   UNL     1      -8.856  10.185  65.317  1.00  0.00    -0.201 C  
HETATM    9  C   UNL     1      -7.590  10.328  67.481  1.00  0.00    -0.094 C  
HETATM   10  C   UNL     1      -7.479  10.211  65.971  1.00  0.00    -0.118 C  
BRANCH   4  11
HETATM   11  C   UNL     1     -10.742  10.432  68.061  1.00  0.00    -0.292 A  
HETATM   12  C   UNL     1     -11.758  12.634  67.542  1.00  0.00    -0.429 A  
HETATM   13  C   UNL     1     -11.769  11.828  69.796  1.00  0.00    -0.408 A  
HETATM   14  C   UNL     1     -11.092  11.468  67.150  1.00  0.00    -0.355 A  
HETATM   15  C   UNL     1     -12.116  12.806  68.870  1.00  0.00    -0.175 A  
HETATM   16  C   UNL     1     -11.065  10.671  69.411  1.00  0.00    -0.260 A  
HETATM   17 CL   UNL     1     -10.584   9.683  70.745  1.00  0.00    -0.380 Cl 
ENDBRANCH   4  11
ENDBRANCH   2   4
TORSDOF 2
ENDMDL
MODEL       93
REMARK 921   NORMALIZED FREE ENERGY PREDICTED BY IDOCK:   -3.70 KCAL/MOL
REMARK 922        TOTAL FREE ENERGY PREDICTED BY IDOCK:   -4.39 KCAL/MOL
REMARK 923 INTER-LIGAND FREE ENERGY PREDICTED BY IDOCK:   -4.02 KCAL/MOL
REMARK 924 INTRA-LIGAND FREE ENERGY PREDICTED BY IDOCK:   -0.36 KCAL/MOL
REMARK 927      BINDING AFFINITY PREDICTED BY RF-SCORE:    0.00 PKD
ROOT
HETATM    1  C   UNL     1     -10.263   8.227  66.964  1.00  0.00    -0.310 C  
HETATM    2  N   UNL     1     -10.275   9.672  67.077  1.00  0.00    -0.230 NA 
HETATM    3  H   UNL     1     -10.273  10.273  66.254  1.00  0.00     0.000 HD 
ENDROOT
BRANCH   2   4
HETATM    4  C   UNL     1     -10.291  10.237  68.457  1.00  0.00    -0.178 C  
HETATM    5  C   UNL     1     -10.892   9.193  69.446  1.00  0.00    -0.165 C  
HETATM    6  O   UNL     1     -12.078  11.635  67.433  1.00  0.00    -0.605 OA 
HETATM    7  C   UNL     1     -11.423  11.345  68.438  1.00  0.00    -0.299 C  
HETATM    8  C   UNL     1     -11.271   9.761  70.823  1.00  0.00    -0.419 C  
HETATM    9  C   UNL     1     -11.756  11.987  69.767  1.00  0.00    -0.390 C  
HETATM   10  C   UNL     1     -12.262  10.915  70.716  1.00  0.00    -0.483 C  
BRANCH   4  11
HETATM   11  C   UNL     1      -8.920  10.897  68.744  1.00  0.00    -0.166 A  
HETATM   12  C   UNL     1      -7.491  12.867  68.267  1.00  0.00    -0.125 A  
HETATM   13  C   UNL     1      -6.649  11.102  69.649  1.00  0.00    -0.139 A  
HETATM   14  C   UNL     1      -8.688  12.159  68.127  1.00  0.00    -0.185 A  
HETATM   15  C   UNL     1      -6.472  12.345  69.049  1.00  0.00    -0.097 A  
HETATM   16  C   UNL     1      -7.839  10.369  69.478  1.00  0.00    -0.155 A  
HETATM   17 CL   UNL     1      -7.773   8.783  70.160  1.00  0.00    -0.078 Cl 
ENDBRANCH   4  11
ENDBRANCH   2   4
TORSDOF 2
ENDMDL
MODEL       94
REMARK 921   NORMALIZED FREE ENERGY PREDICTED BY IDOCK:   -3.69 KCAL/MOL
REMARK 922        TOTAL FREE ENERGY PREDICTED BY IDOCK:   -4.38 KCAL/MOL
REMARK 923 INTER-LIGAND FREE ENERGY PREDICTED BY IDOCK:   -4.10 KCAL/MOL
REMARK 924 INTRA-LIGAND FREE ENERGY PREDICTED BY IDOCK:   -0.27 KCAL/MOL
REMARK 927      BINDING AFFINITY PREDICTED BY RF-SCORE:    0.00 PKD
ROOT
HETATM    1  C   UNL     1      -6.740  14.638  69.033  1.00  0.00    -0.103 C  
HETATM    2  N   UNL     1      -8.060  14.118  69.329  1.00  0.00    -0.344 NA 
HETATM    3  H   UNL     1      -8.287  13.721  70.240  1.00  0.00     0.000 HD 
ENDROOT
BRANCH   2   4
HETATM    4  C   UNL     1      -9.071  14.191  68.235  1.00  0.00    -0.190 C  
HETATM    5  C   UNL     1      -8.457  14.911  66.998  1.00  0.00    -0.260 C  
HETATM    6  O   UNL     1     -10.076  15.829  69.818  1.00  0.00    -0.275 OA 
HETATM    7  C   UNL     1     -10.136  15.257  68.726  1.00  0.00    -0.219 C  
HETATM    8  C   UNL     1      -9.480  15.345  65.936  1.00  0.00    -0.369 C  
HETATM    9  C   UNL     1     -11.211  15.639  67.733  1.00  0.00    -0.297 C  
HETATM   10  C   UNL     1     -10.552  16.263  66.515  1.00  0.00    -0.256 C  
BRANCH   4  11
HETATM   11  C   UNL     1      -9.750  12.807  68.087  1.00  0.00    -0.223 A  
HETATM   12  C   UNL     1     -11.748  11.465  68.687  1.00  0.00    -0.394 A  
HETATM   13  C   UNL     1      -9.981  10.456  67.425  1.00  0.00    -0.226 A  
HETATM   14  C   UNL     1     -11.022  12.660  68.709  1.00  0.00    -0.289 A  
HETATM   15  C   UNL     1     -11.233  10.362  68.024  1.00  0.00    -0.340 A  
HETATM   16  C   UNL     1      -9.231  11.647  67.478  1.00  0.00    -0.172 A  
HETATM   17 CL   UNL     1      -7.639  11.486  66.827  1.00  0.00    -0.146 Cl 
ENDBRANCH   4  11
ENDBRANCH   2   4
TORSDOF 2
ENDMDL
MODEL       95
REMARK 921   NORMALIZED FREE ENERGY PREDICTED BY IDOCK:   -3.69 KCAL/MOL
REMARK 922        TOTAL FREE ENERGY PREDICTED BY IDOCK:   -4.38 KCAL/MOL
REMARK 923 INTER-LIGAND FREE ENERGY PREDICTED BY IDOCK:   -4.07 KCAL/MOL
REMARK 924 INTRA-LIGAND FREE ENERGY PREDICTED BY IDOCK:   -0.31 KCAL/MOL
REMARK 927      BINDING AFFINITY PREDICTED BY RF-SCORE:    0.00 PKD
ROOT
HETATM    1  C   UNL     1     -10.526  12.512  64.310  1.00  0.00    -0.378 C  
HETATM    2  N   UNL     1      -9.990  13.285  65.413  1.00  0.00    -0.468 NA 
HETATM    3  H   UNL     1      -9.592  14.213  65.272  1.00  0.00     0.000 HD 
ENDROOT
BRANCH   2   4
HETATM    4  C   UNL     1     -10.051  12.657  66.764  1.00  0.00    -0.237 C  
HETATM    5  C   UNL     1     -10.457  11.159  66.631  1.00  0.00    -0.298 C  
HETATM    6  O   UNL     1     -12.059  14.121  66.914  1.00  0.00    -0.430 OA 
HETATM    7  C   UNL     1     -11.338  13.275  67.450  1.00  0.00    -0.303 C  
HETATM    8  C   UNL     1     -10.877  10.490  67.950  1.00  0.00    -0.333 C  
HETATM    9  C   UNL     1     -11.726  12.697  68.794  1.00  0.00    -0.364 C  
HETATM   10  C   UNL     1     -12.035  11.221  68.621  1.00  0.00    -0.314 C  
BRANCH   4  11
HETATM   11  C   UNL     1      -8.788  13.065  67.563  1.00  0.00    -0.195 A  
HETATM   12  C   UNL     1      -7.718  14.897  68.847  1.00  0.00    -0.148 A  
HETATM   13  C   UNL     1      -6.533  12.845  68.502  1.00  0.00    -0.083 A  
HETATM   14  C   UNL     1      -8.794  14.373  68.123  1.00  0.00    -0.180 A  
HETATM   15  C   UNL     1      -6.588  14.121  69.055  1.00  0.00    -0.104 A  
HETATM   16  C   UNL     1      -7.599  12.330  67.740  1.00  0.00    -0.131 A  
HETATM   17 CL   UNL     1      -7.245  10.808  67.004  1.00  0.00    -0.103 Cl 
ENDBRANCH   4  11
ENDBRANCH   2   4
TORSDOF 2
ENDMDL
MODEL       96
REMARK 921   NORMALIZED FREE ENERGY PREDICTED BY IDOCK:   -3.67 KCAL/MOL
REMARK 922        TOTAL FREE ENERGY PREDICTED BY IDOCK:   -4.35 KCAL/MOL
REMARK 923 INTER-LIGAND FREE ENERGY PREDICTED BY IDOCK:   -3.98 KCAL/MOL
REMARK 924 INTRA-LIGAND FREE ENERGY PREDICTED BY IDOCK:   -0.38 KCAL/MOL
REMARK 927      BINDING AFFINITY PREDICTED BY RF-SCORE:    0.00 PKD
ROOT
HETATM    1  C   UNL     1      -7.670   9.877  69.864  1.00  0.00    -0.171 C  
HETATM    2  N   UNL     1      -8.014   8.555  70.349  1.00  0.00    -0.093 NA 
HETATM    3  H   UNL     1      -7.298   7.879  70.613  1.00  0.00     0.000 HD 
ENDROOT
BRANCH   2   4
HETATM    4  C   UNL     1      -9.466   8.232  70.443  1.00  0.00    -0.167 C  
HETATM    5  C   UNL     1     -10.267   9.513  70.826  1.00  0.00    -0.363 C  
HETATM    6  O   UNL     1      -8.659   7.037  72.472  1.00  0.00    -0.119 OA 
HETATM    7  C   UNL     1      -9.613   7.361  71.758  1.00  0.00    -0.149 C  
HETATM    8  C   UNL     1     -11.713   9.253  71.278  1.00  0.00    -0.416 C  
HETATM    9  C   UNL     1     -11.023   7.012  72.179  1.00  0.00    -0.267 C  
HETATM   10  C   UNL     1     -11.781   8.297  72.465  1.00  0.00    -0.451 C  
BRANCH   4  11
HETATM   11  C   UNL     1      -9.873   7.387  69.210  1.00  0.00    -0.168 A  
HETATM   12  C   UNL     1      -9.781   5.125  68.196  1.00  0.00    -0.190 A  
HETATM   13  C   UNL     1     -10.797   6.924  66.985  1.00  0.00    -0.436 A  
HETATM   14  C   UNL     1      -9.510   6.011  69.244  1.00  0.00    -0.152 A  
HETATM   15  C   UNL     1     -10.447   5.580  67.069  1.00  0.00    -0.336 A  
HETATM   16  C   UNL     1     -10.490   7.826  68.022  1.00  0.00    -0.185 A  
HETATM   17 CL   UNL     1     -10.854   9.470  67.633  1.00  0.00    -0.313 Cl 
ENDBRANCH   4  11
ENDBRANCH   2   4
TORSDOF 2
ENDMDL
MODEL       97
REMARK 921   NORMALIZED FREE ENERGY PREDICTED BY IDOCK:   -3.67 KCAL/MOL
REMARK 922        TOTAL FREE ENERGY PREDICTED BY IDOCK:   -4.35 KCAL/MOL
REMARK 923 INTER-LIGAND FREE ENERGY PREDICTED BY IDOCK:   -4.25 KCAL/MOL
REMARK 924 INTRA-LIGAND FREE ENERGY PREDICTED BY IDOCK:   -0.10 KCAL/MOL
REMARK 927      BINDING AFFINITY PREDICTED BY RF-SCORE:    0.00 PKD
ROOT
HETATM    1  C   UNL     1     -11.522  11.233  67.780  1.00  0.00    -0.275 C  
HETATM    2  N   UNL     1     -11.382   9.802  67.965  1.00  0.00    -0.499 NA 
HETATM    3  H   UNL     1     -12.062   9.144  67.585  1.00  0.00     0.000 HD 
ENDROOT
BRANCH   2   4
HETATM    4  C   UNL     1     -10.195   9.338  68.739  1.00  0.00    -0.205 C  
HETATM    5  C   UNL     1      -9.250  10.543  69.024  1.00  0.00    -0.193 C  
HETATM    6  O   UNL     1      -9.674   8.289  66.542  1.00  0.00    -0.225 OA 
HETATM    7  C   UNL     1      -9.334   8.495  67.711  1.00  0.00    -0.137 C  
HETATM    8  C   UNL     1      -7.846  10.153  69.516  1.00  0.00    -0.165 C  
HETATM    9  C   UNL     1      -7.983   8.020  68.197  1.00  0.00    -0.128 C  
HETATM   10  C   UNL     1      -7.130   9.231  68.535  1.00  0.00    -0.071 C  
BRANCH   4  11
HETATM   11  C   UNL     1     -10.675   8.421  69.891  1.00  0.00    -0.227 A  
HETATM   12  C   UNL     1     -10.955   8.250  72.350  1.00  0.00    -0.438 A  
HETATM   13  C   UNL     1     -11.523   6.383  70.962  1.00  0.00    -0.394 A  
HETATM   14  C   UNL     1     -10.587   8.963  71.204  1.00  0.00    -0.335 A  
HETATM   15  C   UNL     1     -11.445   6.959  72.226  1.00  0.00    -0.313 A  
HETATM   16  C   UNL     1     -11.116   7.085  69.811  1.00  0.00    -0.241 A  
HETATM   17 CL   UNL     1     -11.130   6.121  68.377  1.00  0.00    -0.404 Cl 
ENDBRANCH   4  11
ENDBRANCH   2   4
TORSDOF 2
ENDMDL
MODEL       98
REMARK 921   NORMALIZED FREE ENERGY PREDICTED BY IDOCK:   -3.66 KCAL/MOL
REMARK 922        TOTAL FREE ENERGY PREDICTED BY IDOCK:   -4.35 KCAL/MOL
REMARK 923 INTER-LIGAND FREE ENERGY PREDICTED BY IDOCK:   -3.97 KCAL/MOL
REMARK 924 INTRA-LIGAND FREE ENERGY PREDICTED BY IDOCK:   -0.38 KCAL/MOL
REMARK 927      BINDING AFFINITY PREDICTED BY RF-SCORE:    0.00 PKD
ROOT
HETATM    1  C   UNL     1     -10.485  12.916  65.036  1.00  0.00    -0.318 C  
HETATM    2  N   UNL     1      -9.464  12.241  65.812  1.00  0.00    -0.409 NA 
HETATM    3  H   UNL     1      -9.001  11.399  65.471  1.00  0.00     0.000 HD 
ENDROOT
BRANCH   2   4
HETATM    4  C   UNL     1      -9.124  12.838  67.136  1.00  0.00    -0.219 C  
HETATM    5  C   UNL     1      -8.946  14.379  66.988  1.00  0.00    -0.257 C  
HETATM    6  O   UNL     1      -6.990  11.640  66.677  1.00  0.00    -0.115 OA 
HETATM    7  C   UNL     1      -7.638  12.373  67.429  1.00  0.00    -0.160 C  
HETATM    8  C   UNL     1      -8.275  15.064  68.190  1.00  0.00    -0.140 C  
HETATM    9  C   UNL     1      -6.981  12.963  68.658  1.00  0.00    -0.101 C  
HETATM   10  C   UNL     1      -6.903  14.471  68.496  1.00  0.00    -0.096 C  
BRANCH   4  11
HETATM   11  C   UNL     1     -10.075  12.252  68.209  1.00  0.00    -0.218 A  
HETATM   12  C   UNL     1     -10.545  10.269  69.621  1.00  0.00    -0.288 A  
HETATM   13  C   UNL     1     -12.014  12.158  69.709  1.00  0.00    -0.372 A  
HETATM   14  C   UNL     1      -9.767  10.943  68.675  1.00  0.00    -0.188 A  
HETATM   15  C   UNL     1     -11.664  10.888  70.157  1.00  0.00    -0.433 A  
HETATM   16  C   UNL     1     -11.254  12.823  68.727  1.00  0.00    -0.283 A  
HETATM   17 CL   UNL     1     -11.967  14.304  68.194  1.00  0.00    -0.368 Cl 
ENDBRANCH   4  11
ENDBRANCH   2   4
TORSDOF 2
ENDMDL
MODEL       99
REMARK 921   NORMALIZED FREE ENERGY PREDICTED BY IDOCK:   -3.65 KCAL/MOL
REMARK 922        TOTAL FREE ENERGY PREDICTED BY IDOCK:   -4.33 KCAL/MOL
REMARK 923 INTER-LIGAND FREE ENERGY PREDICTED BY IDOCK:   -4.11 KCAL/MOL
REMARK 924 INTRA-LIGAND FREE ENERGY PREDICTED BY IDOCK:   -0.22 KCAL/MOL
REMARK 927      BINDING AFFINITY PREDICTED BY RF-SCORE:    0.00 PKD
ROOT
HETATM    1  C   UNL     1     -11.019   6.433  67.905  1.00  0.00    -0.325 C  
HETATM    2  N   UNL     1     -11.676   6.616  69.183  1.00  0.00    -0.589 NA 
HETATM    3  H   UNL     1     -12.691   6.563  69.275  1.00  0.00     0.000 HD 
ENDROOT
BRANCH   2   4
HETATM    4  C   UNL     1     -10.798   6.886  70.357  1.00  0.00    -0.261 C  
HETATM    5  C   UNL     1     -10.291   5.539  70.955  1.00  0.00    -0.307 C  
HETATM    6  O   UNL     1     -12.991   7.535  71.341  1.00  0.00    -0.351 OA 
HETATM    7  C   UNL     1     -11.775   7.392  71.497  1.00  0.00    -0.284 C  
HETATM    8  C   UNL     1      -9.657   5.657  72.351  1.00  0.00    -0.167 C  
HETATM    9  C   UNL     1     -11.160   7.603  72.863  1.00  0.00    -0.448 C  
HETATM   10  C   UNL     1     -10.613   6.278  73.364  1.00  0.00    -0.293 C  
BRANCH   4  11
HETATM   11  C   UNL     1      -9.800   8.012  69.989  1.00  0.00    -0.185 A  
HETATM   12  C   UNL     1      -9.568  10.446  69.578  1.00  0.00    -0.182 A  
HETATM   13  C   UNL     1      -7.664   9.017  69.322  1.00  0.00    -0.090 A  
HETATM   14  C   UNL     1     -10.334   9.329  69.924  1.00  0.00    -0.241 A  
HETATM   15  C   UNL     1      -8.220  10.292  69.295  1.00  0.00    -0.164 A  
HETATM   16  C   UNL     1      -8.443   7.885  69.632  1.00  0.00    -0.132 A  
HETATM   17 CL   UNL     1      -7.596   6.393  69.432  1.00  0.00    -0.093 Cl 
ENDBRANCH   4  11
ENDBRANCH   2   4
TORSDOF 2
ENDMDL
MODEL      100
REMARK 921   NORMALIZED FREE ENERGY PREDICTED BY IDOCK:   -3.64 KCAL/MOL
REMARK 922        TOTAL FREE ENERGY PREDICTED BY IDOCK:   -4.32 KCAL/MOL
REMARK 923 INTER-LIGAND FREE ENERGY PREDICTED BY IDOCK:   -4.78 KCAL/MOL
REMARK 924 INTRA-LIGAND FREE ENERGY PREDICTED BY IDOCK:    0.46 KCAL/MOL
REMARK 927      BINDING AFFINITY PREDICTED BY RF-SCORE:    0.00 PKD
ROOT
HETATM    1  C   UNL     1     -12.079  13.344  63.807  1.00  0.00    -0.456 C  
HETATM    2  N   UNL     1     -10.840  13.449  64.550  1.00  0.00    -0.387 NA 
HETATM    3  H   UNL     1      -9.978  13.774  64.111  1.00  0.00     0.000 HD 
ENDROOT
BRANCH   2   4
HETATM    4  C   UNL     1     -10.884  13.061  65.989  1.00  0.00    -0.272 C  
HETATM    5  C   UNL     1     -12.156  13.664  66.657  1.00  0.00    -0.459 C  
HETATM    6  O   UNL     1      -8.982  14.665  66.068  1.00  0.00    -0.106 OA 
HETATM    7  C   UNL     1      -9.733  13.901  66.681  1.00  0.00    -0.289 C  
HETATM    8  C   UNL     1     -12.153  13.621  68.194  1.00  0.00    -0.310 C  
HETATM    9  C   UNL     1      -9.648  13.808  68.188  1.00  0.00    -0.216 C  
HETATM   10  C   UNL     1     -10.942  14.335  68.785  1.00  0.00    -0.271 C  
BRANCH   4  11
HETATM   11  C   UNL     1     -10.571  11.549  66.109  1.00  0.00    -0.314 A  
HETATM   12  C   UNL     1     -10.758   9.561  67.581  1.00  0.00    -0.314 A  
HETATM   13  C   UNL     1      -9.651   9.367  65.466  1.00  0.00    -0.328 A  
HETATM   14  C   UNL     1     -10.992  10.913  67.311  1.00  0.00    -0.355 A  
HETATM   15  C   UNL     1     -10.101   8.778  66.644  1.00  0.00    -0.358 A  
HETATM   16  C   UNL     1      -9.851  10.737  65.210  1.00  0.00    -0.272 A  
HETATM   17 CL   UNL     1      -9.058  11.291  63.778  1.00  0.00    -0.075 Cl 
ENDBRANCH   4  11
ENDBRANCH   2   4
TORSDOF 2
ENDMDL
MODEL      101
REMARK 921   NORMALIZED FREE ENERGY PREDICTED BY IDOCK:   -3.63 KCAL/MOL
REMARK 922        TOTAL FREE ENERGY PREDICTED BY IDOCK:   -4.31 KCAL/MOL
REMARK 923 INTER-LIGAND FREE ENERGY PREDICTED BY IDOCK:   -4.07 KCAL/MOL
REMARK 924 INTRA-LIGAND FREE ENERGY PREDICTED BY IDOCK:   -0.24 KCAL/MOL
REMARK 927      BINDING AFFINITY PREDICTED BY RF-SCORE:    0.00 PKD
ROOT
HETATM    1  C   UNL     1     -10.132  19.824  69.185  1.00  0.00    -0.285 C  
HETATM    2  N   UNL     1      -9.676  18.705  68.385  1.00  0.00    -0.347 NA 
HETATM    3  H   UNL     1     -10.308  17.956  68.103  1.00  0.00     0.000 HD 
ENDROOT
BRANCH   2   4
HETATM    4  C   UNL     1      -8.237  18.702  67.994  1.00  0.00    -0.272 C  
HETATM    5  C   UNL     1      -7.666  20.149  68.077  1.00  0.00    -0.267 C  
HETATM    6  O   UNL     1      -9.258  18.268  65.765  1.00  0.00    -0.450 OA 
HETATM    7  C   UNL     1      -8.234  18.449  66.430  1.00  0.00    -0.257 C  
HETATM    8  C   UNL     1      -6.304  20.341  67.390  1.00  0.00    -0.249 C  
HETATM    9  C   UNL     1      -6.892  18.543  65.737  1.00  0.00    -0.310 C  
HETATM   10  C   UNL     1      -6.346  19.948  65.916  1.00  0.00    -0.222 C  
BRANCH   4  11
HETATM   11  C   UNL     1      -7.525  17.529  68.712  1.00  0.00    -0.258 A  
HETATM   12  C   UNL     1      -5.574  16.908  70.112  1.00  0.00    -0.222 A  
HETATM   13  C   UNL     1      -7.103  15.211  69.393  1.00  0.00    -0.189 A  
HETATM   14  C   UNL     1      -6.344  17.859  69.434  1.00  0.00    -0.239 A  
HETATM   15  C   UNL     1      -5.967  15.578  70.108  1.00  0.00    -0.137 A  
HETATM   16  C   UNL     1      -7.857  16.160  68.678  1.00  0.00    -0.188 A  
HETATM   17 CL   UNL     1      -9.115  15.460  67.722  1.00  0.00    -0.177 Cl 
ENDBRANCH   4  11
ENDBRANCH   2   4
TORSDOF 2
ENDMDL
MODEL      102
REMARK 921   NORMALIZED FREE ENERGY PREDICTED BY IDOCK:   -3.63 KCAL/MOL
REMARK 922        TOTAL FREE ENERGY PREDICTED BY IDOCK:   -4.31 KCAL/MOL
REMARK 923 INTER-LIGAND FREE ENERGY PREDICTED BY IDOCK:   -4.38 KCAL/MOL
REMARK 924 INTRA-LIGAND FREE ENERGY PREDICTED BY IDOCK:    0.07 KCAL/MOL
REMARK 927      BINDING AFFINITY PREDICTED BY RF-SCORE:    0.00 PKD
ROOT
HETATM    1  C   UNL     1      -7.080  10.372  65.477  1.00  0.00    -0.133 C  
HETATM    2  N   UNL     1      -8.282  11.170  65.340  1.00  0.00    -0.365 NA 
HETATM    3  H   UNL     1      -8.474  11.709  64.496  1.00  0.00     0.000 HD 
ENDROOT
BRANCH   2   4
HETATM    4  C   UNL     1      -9.227  11.164  66.494  1.00  0.00    -0.179 C  
HETATM    5  C   UNL     1      -8.425  11.181  67.830  1.00  0.00    -0.131 C  
HETATM    6  O   UNL     1      -9.574   8.836  65.684  1.00  0.00    -0.184 OA 
HETATM    7  C   UNL     1      -9.848   9.707  66.514  1.00  0.00    -0.235 C  
HETATM    8  C   UNL     1      -9.255  10.844  69.079  1.00  0.00    -0.128 C  
HETATM    9  C   UNL     1     -10.743   9.375  67.688  1.00  0.00    -0.295 C  
HETATM   10  C   UNL     1      -9.933   9.482  68.968  1.00  0.00    -0.185 C  
BRANCH   4  11
HETATM   11  C   UNL     1     -10.344  12.204  66.232  1.00  0.00    -0.250 A  
HETATM   12  C   UNL     1     -12.353  12.705  64.867  1.00  0.00    -0.563 A  
HETATM   13  C   UNL     1     -11.571  14.316  66.455  1.00  0.00    -0.390 A  
HETATM   14  C   UNL     1     -11.302  11.860  65.236  1.00  0.00    -0.333 A  
HETATM   15  C   UNL     1     -12.501  13.932  65.494  1.00  0.00    -0.541 A  
HETATM   16  C   UNL     1     -10.489  13.485  66.801  1.00  0.00    -0.273 A  
HETATM   17 CL   UNL     1      -9.365  14.233  67.880  1.00  0.00    -0.192 Cl 
ENDBRANCH   4  11
ENDBRANCH   2   4
TORSDOF 2
ENDMDL
MODEL      103
REMARK 921   NORMALIZED FREE ENERGY PREDICTED BY IDOCK:   -3.63 KCAL/MOL
REMARK 922        TOTAL FREE ENERGY PREDICTED BY IDOCK:   -4.30 KCAL/MOL
REMARK 923 INTER-LIGAND FREE ENERGY PREDICTED BY IDOCK:   -4.34 KCAL/MOL
REMARK 924 INTRA-LIGAND FREE ENERGY PREDICTED BY IDOCK:    0.03 KCAL/MOL
REMARK 927      BINDING AFFINITY PREDICTED BY RF-SCORE:    0.00 PKD
ROOT
HETATM    1  C   UNL     1      -9.500  14.412  68.480  1.00  0.00    -0.212 C  
HETATM    2  N   UNL     1     -10.562  13.442  68.660  1.00  0.00    -0.248 NA 
HETATM    3  H   UNL     1     -11.463  13.703  69.059  1.00  0.00     0.000 HD 
ENDROOT
BRANCH   2   4
HETATM    4  C   UNL     1     -10.273  12.043  68.233  1.00  0.00    -0.206 C  
HETATM    5  C   UNL     1      -8.851  11.969  67.601  1.00  0.00    -0.172 C  
HETATM    6  O   UNL     1     -11.986  12.634  66.526  1.00  0.00    -0.467 OA 
HETATM    7  C   UNL     1     -11.196  11.796  66.970  1.00  0.00    -0.322 C  
HETATM    8  C   UNL     1      -8.562  10.673  66.826  1.00  0.00    -0.129 C  
HETATM    9  C   UNL     1     -10.997  10.487  66.238  1.00  0.00     0.031 C  
HETATM   10  C   UNL     1      -9.574  10.433  65.710  1.00  0.00    -0.269 C  
BRANCH   4  11
HETATM   11  C   UNL     1     -10.681  11.077  69.374  1.00  0.00    -0.247 A  
HETATM   12  C   UNL     1     -12.531  10.405  70.883  1.00  0.00    -0.478 A  
HETATM   13  C   UNL     1     -10.395   9.341  71.083  1.00  0.00    -0.392 A  
HETATM   14  C   UNL     1     -12.020  11.187  69.841  1.00  0.00    -0.439 A  
HETATM   15  C   UNL     1     -11.719   9.462  71.494  1.00  0.00    -0.465 A  
HETATM   16  C   UNL     1      -9.868  10.154  70.061  1.00  0.00    -0.128 A  
HETATM   17 CL   UNL     1      -8.166   9.960  69.837  1.00  0.00    -0.193 Cl 
ENDBRANCH   4  11
ENDBRANCH   2   4
TORSDOF 2
ENDMDL
MODEL      104
REMARK 921   NORMALIZED FREE ENERGY PREDICTED BY IDOCK:   -3.62 KCAL/MOL
REMARK 922        TOTAL FREE ENERGY PREDICTED BY IDOCK:   -4.30 KCAL/MOL
REMARK 923 INTER-LIGAND FREE ENERGY PREDICTED BY IDOCK:   -4.01 KCAL/MOL
REMARK 924 INTRA-LIGAND FREE ENERGY PREDICTED BY IDOCK:   -0.29 KCAL/MOL
REMARK 927      BINDING AFFINITY PREDICTED BY RF-SCORE:    0.00 PKD
ROOT
HETATM    1  C   UNL     1      -7.161  11.310  66.812  1.00  0.00    -0.142 C  
HETATM    2  N   UNL     1      -8.090  12.149  66.081  1.00  0.00    -0.247 NA 
HETATM    3  H   UNL     1      -7.924  12.408  65.108  1.00  0.00     0.000 HD 
ENDROOT
BRANCH   2   4
HETATM    4  C   UNL     1      -9.299  12.614  66.818  1.00  0.00    -0.232 C  
HETATM    5  C   UNL     1      -9.298  12.019  68.258  1.00  0.00    -0.197 C  
HETATM    6  O   UNL     1     -10.388  11.062  65.206  1.00  0.00    -0.264 OA 
HETATM    7  C   UNL     1     -10.512  11.841  66.155  1.00  0.00    -0.245 C  
HETATM    8  C   UNL     1     -10.636  12.145  69.004  1.00  0.00    -0.117 C  
HETATM    9  C   UNL     1     -11.861  12.017  66.815  1.00  0.00    -0.244 C  
HETATM   10  C   UNL     1     -11.783  11.493  68.238  1.00  0.00    -0.371 C  
BRANCH   4  11
HETATM   11  C   UNL     1      -9.467  14.137  66.594  1.00  0.00    -0.303 A  
HETATM   12  C   UNL     1     -10.624  15.861  65.237  1.00  0.00    -0.441 A  
HETATM   13  C   UNL     1      -9.041  16.533  66.903  1.00  0.00    -0.241 A  
HETATM   14  C   UNL     1     -10.383  14.526  65.577  1.00  0.00    -0.379 A  
HETATM   15  C   UNL     1      -9.963  16.872  65.918  1.00  0.00    -0.274 A  
HETATM   16  C   UNL     1      -8.768  15.189  67.220  1.00  0.00    -0.202 A  
HETATM   17 CL   UNL     1      -7.466  14.997  68.339  1.00  0.00    -0.108 Cl 
ENDBRANCH   4  11
ENDBRANCH   2   4
TORSDOF 2
ENDMDL
MODEL      105
REMARK 921   NORMALIZED FREE ENERGY PREDICTED BY IDOCK:   -3.61 KCAL/MOL
REMARK 922        TOTAL FREE ENERGY PREDICTED BY IDOCK:   -4.29 KCAL/MOL
REMARK 923 INTER-LIGAND FREE ENERGY PREDICTED BY IDOCK:   -4.35 KCAL/MOL
REMARK 924 INTRA-LIGAND FREE ENERGY PREDICTED BY IDOCK:    0.07 KCAL/MOL
REMARK 927      BINDING AFFINITY PREDICTED BY RF-SCORE:    0.00 PKD
ROOT
HETATM    1  C   UNL     1     -10.148   8.716  66.501  1.00  0.00    -0.269 C  
HETATM    2  N   UNL     1     -10.828   8.768  67.780  1.00  0.00    -0.491 NA 
HETATM    3  H   UNL     1     -11.754   8.361  67.911  1.00  0.00     0.000 HD 
ENDROOT
BRANCH   2   4
HETATM    4  C   UNL     1     -10.108   9.447  68.895  1.00  0.00    -0.190 C  
HETATM    5  C   UNL     1      -8.593   9.089  68.839  1.00  0.00    -0.131 C  
HETATM    6  O   UNL     1     -11.381   7.759  70.210  1.00  0.00    -0.252 OA 
HETATM    7  C   UNL     1     -10.566   8.686  70.207  1.00  0.00    -0.223 C  
HETATM    8  C   UNL     1      -7.802   9.446  70.108  1.00  0.00    -0.148 C  
HETATM    9  C   UNL     1      -9.867   9.080  71.490  1.00  0.00    -0.381 C  
HETATM   10  C   UNL     1      -8.384   8.783  71.352  1.00  0.00    -0.222 C  
BRANCH   4  11
HETATM   11  C   UNL     1     -10.568  10.924  68.963  1.00  0.00    -0.248 A  
HETATM   12  C   UNL     1      -9.936  13.260  68.420  1.00  0.00    -0.226 A  
HETATM   13  C   UNL     1     -12.003  12.826  69.548  1.00  0.00    -0.338 A  
HETATM   14  C   UNL     1      -9.677  11.886  68.410  1.00  0.00    -0.201 A  
HETATM   15  C   UNL     1     -11.116  13.732  68.974  1.00  0.00    -0.296 A  
HETATM   16  C   UNL     1     -11.725  11.446  69.575  1.00  0.00    -0.348 A  
HETATM   17 CL   UNL     1     -12.871  10.532  70.490  1.00  0.00    -0.390 Cl 
ENDBRANCH   4  11
ENDBRANCH   2   4
TORSDOF 2
ENDMDL
MODEL      106
REMARK 921   NORMALIZED FREE ENERGY PREDICTED BY IDOCK:   -3.61 KCAL/MOL
REMARK 922        TOTAL FREE ENERGY PREDICTED BY IDOCK:   -4.29 KCAL/MOL
REMARK 923 INTER-LIGAND FREE ENERGY PREDICTED BY IDOCK:   -4.30 KCAL/MOL
REMARK 924 INTRA-LIGAND FREE ENERGY PREDICTED BY IDOCK:    0.02 KCAL/MOL
REMARK 927      BINDING AFFINITY PREDICTED BY RF-SCORE:    0.00 PKD
ROOT
HETATM    1  C   UNL     1     -12.130  13.386  69.268  1.00  0.00    -0.264 C  
HETATM    2  N   UNL     1     -10.709  13.636  69.411  1.00  0.00    -0.446 NA 
HETATM    3  H   UNL     1     -10.321  14.048  70.259  1.00  0.00     0.000 HD 
ENDROOT
BRANCH   2   4
HETATM    4  C   UNL     1      -9.843  13.261  68.257  1.00  0.00    -0.231 C  
HETATM    5  C   UNL     1      -9.162  11.887  68.535  1.00  0.00    -0.136 C  
HETATM    6  O   UNL     1      -8.489  15.136  69.180  1.00  0.00    -0.199 OA 
HETATM    7  C   UNL     1      -8.606  14.248  68.330  1.00  0.00    -0.175 C  
HETATM    8  C   UNL     1      -7.999  11.546  67.589  1.00  0.00    -0.126 C  
HETATM    9  C   UNL     1      -7.483  13.992  67.349  1.00  0.00    -0.147 C  
HETATM   10  C   UNL     1      -6.908  12.611  67.613  1.00  0.00    -0.144 C  
BRANCH   4  11
HETATM   11  C   UNL     1     -10.626  13.502  66.943  1.00  0.00    -0.270 A  
HETATM   12  C   UNL     1     -11.606  12.402  64.948  1.00  0.00    -0.392 A  
HETATM   13  C   UNL     1     -11.723  14.784  65.163  1.00  0.00    -0.337 A  
HETATM   14  C   UNL     1     -10.930  12.346  66.171  1.00  0.00    -0.321 A  
HETATM   15  C   UNL     1     -12.023  13.627  64.451  1.00  0.00    -0.476 A  
HETATM   16  C   UNL     1     -11.008  14.734  66.375  1.00  0.00    -0.331 A  
HETATM   17 CL   UNL     1     -10.593  16.292  66.993  1.00  0.00    -0.308 Cl 
ENDBRANCH   4  11
ENDBRANCH   2   4
TORSDOF 2
ENDMDL
MODEL      107
REMARK 921   NORMALIZED FREE ENERGY PREDICTED BY IDOCK:   -3.60 KCAL/MOL
REMARK 922        TOTAL FREE ENERGY PREDICTED BY IDOCK:   -4.28 KCAL/MOL
REMARK 923 INTER-LIGAND FREE ENERGY PREDICTED BY IDOCK:   -4.07 KCAL/MOL
REMARK 924 INTRA-LIGAND FREE ENERGY PREDICTED BY IDOCK:   -0.20 KCAL/MOL
REMARK 927      BINDING AFFINITY PREDICTED BY RF-SCORE:    0.00 PKD
ROOT
HETATM    1  C   UNL     1      -6.643  16.451  66.735  1.00  0.00    -0.060 C  
HETATM    2  N   UNL     1      -7.914  15.825  67.043  1.00  0.00    -0.215 NA 
HETATM    3  H   UNL     1      -7.966  14.880  67.423  1.00  0.00     0.000 HD 
ENDROOT
BRANCH   2   4
HETATM    4  C   UNL     1      -9.140  16.630  66.778  1.00  0.00    -0.237 C  
HETATM    5  C   UNL     1      -8.772  17.890  65.938  1.00  0.00     0.136 C  
HETATM    6  O   UNL     1      -8.894  17.072  69.215  1.00  0.00    -0.094 OA 
HETATM    7  C   UNL     1      -9.521  17.278  68.172  1.00  0.00    -0.278 C  
HETATM    8  C   UNL     1      -9.870  18.964  65.879  1.00  0.00    -0.097 C  
HETATM    9  C   UNL     1     -10.659  18.274  68.161  1.00  0.00    -0.304 C  
HETATM   10  C   UNL     1     -10.280  19.442  67.268  1.00  0.00    -0.525 C  
BRANCH   4  11
HETATM   11  C   UNL     1     -10.273  15.679  66.318  1.00  0.00    -0.312 A  
HETATM   12  C   UNL     1     -11.991  15.283  64.573  1.00  0.00    -0.276 A  
HETATM   13  C   UNL     1     -11.830  13.787  66.435  1.00  0.00    -0.434 A  
HETATM   14  C   UNL     1     -10.931  16.025  65.104  1.00  0.00    -0.360 A  
HETATM   15  C   UNL     1     -12.429  14.145  65.232  1.00  0.00    -0.474 A  
HETATM   16  C   UNL     1     -10.789  14.554  66.992  1.00  0.00    -0.297 A  
HETATM   17 CL   UNL     1     -10.317  14.030  68.569  1.00  0.00    -0.243 Cl 
ENDBRANCH   4  11
ENDBRANCH   2   4
TORSDOF 2
ENDMDL
MODEL      108
REMARK 921   NORMALIZED FREE ENERGY PREDICTED BY IDOCK:   -3.60 KCAL/MOL
REMARK 922        TOTAL FREE ENERGY PREDICTED BY IDOCK:   -4.27 KCAL/MOL
REMARK 923 INTER-LIGAND FREE ENERGY PREDICTED BY IDOCK:   -4.38 KCAL/MOL
REMARK 924 INTRA-LIGAND FREE ENERGY PREDICTED BY IDOCK:    0.11 KCAL/MOL
REMARK 927      BINDING AFFINITY PREDICTED BY RF-SCORE:    0.00 PKD
ROOT
HETATM    1  C   UNL     1      -7.199  18.418  65.642  1.00  0.00    -0.113 C  
HETATM    2  N   UNL     1      -8.603  18.158  65.885  1.00  0.00    -0.490 NA 
HETATM    3  H   UNL     1      -9.335  18.701  65.428  1.00  0.00     0.000 HD 
ENDROOT
BRANCH   2   4
HETATM    4  C   UNL     1      -8.927  17.057  66.837  1.00  0.00    -0.229 C  
HETATM    5  C   UNL     1      -9.496  15.836  66.055  1.00  0.00    -0.392 C  
HETATM    6  O   UNL     1     -10.737  18.655  67.445  1.00  0.00    -0.431 OA 
HETATM    7  C   UNL     1     -10.209  17.555  67.625  1.00  0.00    -0.343 C  
HETATM    8  C   UNL     1     -10.173  14.772  66.934  1.00  0.00    -0.257 C  
HETATM    9  C   UNL     1     -10.846  16.558  68.567  1.00  0.00    -0.349 C  
HETATM   10  C   UNL     1     -11.312  15.354  67.765  1.00  0.00    -0.308 C  
BRANCH   4  11
HETATM   11  C   UNL     1      -7.745  16.883  67.823  1.00  0.00    -0.184 A  
HETATM   12  C   UNL     1      -6.092  15.269  68.725  1.00  0.00    -0.087 A  
HETATM   13  C   UNL     1      -6.143  17.507  69.573  1.00  0.00    -0.252 A  
HETATM   14  C   UNL     1      -7.150  15.591  67.868  1.00  0.00    -0.155 A  
HETATM   15  C   UNL     1      -5.573  16.239  69.568  1.00  0.00    -0.143 A  
HETATM   16  C   UNL     1      -7.233  17.823  68.739  1.00  0.00    -0.271 A  
HETATM   17 CL   UNL     1      -7.894  19.392  69.036  1.00  0.00    -0.376 Cl 
ENDBRANCH   4  11
ENDBRANCH   2   4
TORSDOF 2
ENDMDL
MODEL      109
REMARK 921   NORMALIZED FREE ENERGY PREDICTED BY IDOCK:   -3.56 KCAL/MOL
REMARK 922        TOTAL FREE ENERGY PREDICTED BY IDOCK:   -4.23 KCAL/MOL
REMARK 923 INTER-LIGAND FREE ENERGY PREDICTED BY IDOCK:   -4.69 KCAL/MOL
REMARK 924 INTRA-LIGAND FREE ENERGY PREDICTED BY IDOCK:    0.46 KCAL/MOL
REMARK 927      BINDING AFFINITY PREDICTED BY RF-SCORE:    0.00 PKD
ROOT
HETATM    1  C   UNL     1     -12.267  14.662  69.894  1.00  0.00    -0.316 C  
HETATM    2  N   UNL     1     -12.343  13.642  68.868  1.00  0.00    -0.319 NA 
HETATM    3  H   UNL     1     -13.194  13.102  68.713  1.00  0.00     0.000 HD 
ENDROOT
BRANCH   2   4
HETATM    4  C   UNL     1     -11.117  13.420  68.050  1.00  0.00    -0.255 C  
HETATM    5  C   UNL     1      -9.994  14.398  68.508  1.00  0.00    -0.237 C  
HETATM    6  O   UNL     1     -12.568  14.465  66.318  1.00  0.00    -0.355 OA 
HETATM    7  C   UNL     1     -11.468  13.989  66.614  1.00  0.00    -0.364 C  
HETATM    8  C   UNL     1      -8.804  14.505  67.540  1.00  0.00    -0.193 C  
HETATM    9  C   UNL     1     -10.337  14.024  65.610  1.00  0.00    -0.342 C  
HETATM   10  C   UNL     1      -9.238  14.928  66.141  1.00  0.00    -0.268 C  
BRANCH   4  11
HETATM   11  C   UNL     1     -10.847  11.898  67.955  1.00  0.00    -0.256 A  
HETATM   12  C   UNL     1     -10.206  10.054  66.425  1.00  0.00    -0.290 A  
HETATM   13  C   UNL     1     -10.721   9.568  68.712  1.00  0.00    -0.218 A  
HETATM   14  C   UNL     1     -10.458  11.406  66.677  1.00  0.00    -0.285 A  
HETATM   15  C   UNL     1     -10.318   9.132  67.453  1.00  0.00    -0.330 A  
HETATM   16  C   UNL     1     -11.013  10.923  68.959  1.00  0.00    -0.235 A  
HETATM   17 CL   UNL     1     -11.662  11.210  70.534  1.00  0.00    -0.428 Cl 
ENDBRANCH   4  11
ENDBRANCH   2   4
TORSDOF 2
ENDMDL
MODEL      110
REMARK 921   NORMALIZED FREE ENERGY PREDICTED BY IDOCK:   -3.55 KCAL/MOL
REMARK 922        TOTAL FREE ENERGY PREDICTED BY IDOCK:   -4.22 KCAL/MOL
REMARK 923 INTER-LIGAND FREE ENERGY PREDICTED BY IDOCK:   -3.97 KCAL/MOL
REMARK 924 INTRA-LIGAND FREE ENERGY PREDICTED BY IDOCK:   -0.25 KCAL/MOL
REMARK 927      BINDING AFFINITY PREDICTED BY RF-SCORE:    0.00 PKD
ROOT
HETATM    1  C   UNL     1      -8.250  10.471  69.405  1.00  0.00    -0.119 C  
HETATM    2  N   UNL     1      -8.324   9.576  70.543  1.00  0.00    -0.189 NA 
HETATM    3  H   UNL     1      -7.535   9.449  71.176  1.00  0.00     0.000 HD 
ENDROOT
BRANCH   2   4
HETATM    4  C   UNL     1      -9.611   8.850  70.743  1.00  0.00    -0.229 C  
HETATM    5  C   UNL     1     -10.803   9.841  70.590  1.00  0.00    -0.396 C  
HETATM    6  O   UNL     1      -8.766   8.818  73.085  1.00  0.00    -0.341 OA 
HETATM    7  C   UNL     1      -9.665   8.524  72.293  1.00  0.00    -0.310 C  
HETATM    8  C   UNL     1     -12.152   9.302  71.095  1.00  0.00    -0.389 C  
HETATM    9  C   UNL     1     -10.949   7.910  72.804  1.00  0.00    -0.456 C  
HETATM   10  C   UNL     1     -12.090   8.882  72.560  1.00  0.00    -0.266 C  
BRANCH   4  11
HETATM   11  C   UNL     1      -9.572   7.530  69.934  1.00  0.00    -0.160 A  
HETATM   12  C   UNL     1     -10.814   6.119  68.316  1.00  0.00    -0.387 A  
HETATM   13  C   UNL     1      -8.715   5.358  69.182  1.00  0.00    -0.104 A  
HETATM   14  C   UNL     1     -10.688   7.278  69.088  1.00  0.00    -0.201 A  
HETATM   15  C   UNL     1      -9.811   5.162  68.348  1.00  0.00    -0.211 A  
HETATM   16  C   UNL     1      -8.605   6.506  69.990  1.00  0.00    -0.140 A  
HETATM   17 CL   UNL     1      -7.260   6.458  71.073  1.00  0.00    -0.077 Cl 
ENDBRANCH   4  11
ENDBRANCH   2   4
TORSDOF 2
ENDMDL
MODEL      111
REMARK 921   NORMALIZED FREE ENERGY PREDICTED BY IDOCK:   -3.55 KCAL/MOL
REMARK 922        TOTAL FREE ENERGY PREDICTED BY IDOCK:   -4.22 KCAL/MOL
REMARK 923 INTER-LIGAND FREE ENERGY PREDICTED BY IDOCK:   -3.84 KCAL/MOL
REMARK 924 INTRA-LIGAND FREE ENERGY PREDICTED BY IDOCK:   -0.37 KCAL/MOL
REMARK 927      BINDING AFFINITY PREDICTED BY RF-SCORE:    0.00 PKD
ROOT
HETATM    1  C   UNL     1     -11.031   6.070  66.686  1.00  0.00    -0.152 C  
HETATM    2  N   UNL     1     -11.250   7.121  67.659  1.00  0.00    -0.548 NA 
HETATM    3  H   UNL     1     -12.144   7.230  68.137  1.00  0.00     0.000 HD 
ENDROOT
BRANCH   2   4
HETATM    4  C   UNL     1     -10.104   8.037  67.927  1.00  0.00    -0.194 C  
HETATM    5  C   UNL     1      -8.761   7.267  67.745  1.00  0.00    -0.126 C  
HETATM    6  O   UNL     1     -10.971   7.793  70.248  1.00  0.00    -0.249 OA 
HETATM    7  C   UNL     1     -10.122   8.276  69.493  1.00  0.00    -0.197 C  
HETATM    8  C   UNL     1      -7.527   7.990  68.308  1.00  0.00    -0.100 C  
HETATM    9  C   UNL     1      -8.965   9.064  70.066  1.00  0.00    -0.184 C  
HETATM   10  C   UNL     1      -7.676   8.308  69.792  1.00  0.00    -0.098 C  
BRANCH   4  11
HETATM   11  C   UNL     1     -10.351   9.378  67.192  1.00  0.00    -0.326 A  
HETATM   12  C   UNL     1     -11.567  11.537  67.289  1.00  0.00    -0.280 A  
HETATM   13  C   UNL     1     -10.197  11.035  65.391  1.00  0.00    -0.333 A  
HETATM   14  C   UNL     1     -11.224  10.297  67.838  1.00  0.00    -0.290 A  
HETATM   15  C   UNL     1     -11.034  11.917  66.067  1.00  0.00    -0.355 A  
HETATM   16  C   UNL     1      -9.881   9.771  65.923  1.00  0.00    -0.282 A  
HETATM   17 CL   UNL     1      -8.975   8.776  64.840  1.00  0.00    -0.131 Cl 
ENDBRANCH   4  11
ENDBRANCH   2   4
TORSDOF 2
ENDMDL
MODEL      112
REMARK 921   NORMALIZED FREE ENERGY PREDICTED BY IDOCK:   -3.53 KCAL/MOL
REMARK 922        TOTAL FREE ENERGY PREDICTED BY IDOCK:   -4.19 KCAL/MOL
REMARK 923 INTER-LIGAND FREE ENERGY PREDICTED BY IDOCK:   -3.85 KCAL/MOL
REMARK 924 INTRA-LIGAND FREE ENERGY PREDICTED BY IDOCK:   -0.34 KCAL/MOL
REMARK 927      BINDING AFFINITY PREDICTED BY RF-SCORE:    0.00 PKD
ROOT
HETATM    1  C   UNL     1     -10.276  15.846  65.604  1.00  0.00    -0.379 C  
HETATM    2  N   UNL     1      -9.468  16.114  66.777  1.00  0.00    -0.227 NA 
HETATM    3  H   UNL     1      -8.742  16.830  66.775  1.00  0.00     0.000 HD 
ENDROOT
BRANCH   2   4
HETATM    4  C   UNL     1      -9.750  15.292  67.989  1.00  0.00    -0.211 C  
HETATM    5  C   UNL     1     -10.935  14.322  67.702  1.00  0.00    -0.286 C  
HETATM    6  O   UNL     1     -10.572  17.497  68.802  1.00  0.00    -0.330 OA 
HETATM    7  C   UNL     1     -10.405  16.295  69.026  1.00  0.00    -0.264 C  
HETATM    8  C   UNL     1     -11.540  13.663  68.953  1.00  0.00    -0.362 C  
HETATM    9  C   UNL     1     -10.929  15.687  70.308  1.00  0.00    -0.363 C  
HETATM   10  C   UNL     1     -12.026  14.694  69.967  1.00  0.00    -0.376 C  
BRANCH   4  11
HETATM   11  C   UNL     1      -8.411  14.758  68.555  1.00  0.00    -0.159 A  
HETATM   12  C   UNL     1      -6.457  15.314  69.977  1.00  0.00    -0.138 A  
HETATM   13  C   UNL     1      -6.549  13.193  68.870  1.00  0.00    -0.104 A  
HETATM   14  C   UNL     1      -7.693  15.640  69.410  1.00  0.00    -0.218 A  
HETATM   15  C   UNL     1      -5.891  14.074  69.721  1.00  0.00    -0.115 A  
HETATM   16  C   UNL     1      -7.774  13.534  68.267  1.00  0.00    -0.137 A  
HETATM   17 CL   UNL     1      -8.321  12.370  67.113  1.00  0.00    -0.181 Cl 
ENDBRANCH   4  11
ENDBRANCH   2   4
TORSDOF 2
ENDMDL
MODEL      113
REMARK 921   NORMALIZED FREE ENERGY PREDICTED BY IDOCK:   -3.52 KCAL/MOL
REMARK 922        TOTAL FREE ENERGY PREDICTED BY IDOCK:   -4.18 KCAL/MOL
REMARK 923 INTER-LIGAND FREE ENERGY PREDICTED BY IDOCK:   -4.08 KCAL/MOL
REMARK 924 INTRA-LIGAND FREE ENERGY PREDICTED BY IDOCK:   -0.10 KCAL/MOL
REMARK 927      BINDING AFFINITY PREDICTED BY RF-SCORE:    0.00 PKD
ROOT
HETATM    1  C   UNL     1      -6.718  15.640  67.944  1.00  0.00    -0.150 C  
HETATM    2  N   UNL     1      -7.910  15.161  68.615  1.00  0.00    -0.132 NA 
HETATM    3  H   UNL     1      -7.862  14.689  69.518  1.00  0.00     0.000 HD 
ENDROOT
BRANCH   2   4
HETATM    4  C   UNL     1      -9.210  15.393  67.923  1.00  0.00    -0.180 C  
HETATM    5  C   UNL     1      -8.981  15.455  66.383  1.00  0.00    -0.351 C  
HETATM    6  O   UNL     1      -8.909  17.633  68.966  1.00  0.00    -0.170 OA 
HETATM    7  C   UNL     1      -9.590  16.896  68.248  1.00  0.00    -0.258 C  
HETATM    8  C   UNL     1     -10.168  16.015  65.581  1.00  0.00    -0.412 C  
HETATM    9  C   UNL     1     -10.809  17.448  67.542  1.00  0.00    -0.203 C  
HETATM   10  C   UNL     1     -10.564  17.414  66.044  1.00  0.00    -0.210 C  
BRANCH   4  11
HETATM   11  C   UNL     1     -10.275  14.443  68.525  1.00  0.00    -0.243 A  
HETATM   12  C   UNL     1     -11.986  14.201  70.304  1.00  0.00    -0.404 A  
HETATM   13  C   UNL     1     -11.564  12.376  68.811  1.00  0.00    -0.373 A  
HETATM   14  C   UNL     1     -11.011  14.947  69.634  1.00  0.00    -0.294 A  
HETATM   15  C   UNL     1     -12.279  12.915  69.877  1.00  0.00    -0.258 A  
HETATM   16  C   UNL     1     -10.555  13.111  68.161  1.00  0.00    -0.245 A  
HETATM   17 CL   UNL     1      -9.680  12.190  66.990  1.00  0.00    -0.201 Cl 
ENDBRANCH   4  11
ENDBRANCH   2   4
TORSDOF 2
ENDMDL
MODEL      114
REMARK 921   NORMALIZED FREE ENERGY PREDICTED BY IDOCK:   -3.50 KCAL/MOL
REMARK 922        TOTAL FREE ENERGY PREDICTED BY IDOCK:   -4.17 KCAL/MOL
REMARK 923 INTER-LIGAND FREE ENERGY PREDICTED BY IDOCK:   -3.84 KCAL/MOL
REMARK 924 INTRA-LIGAND FREE ENERGY PREDICTED BY IDOCK:   -0.32 KCAL/MOL
REMARK 927      BINDING AFFINITY PREDICTED BY RF-SCORE:    0.00 PKD
ROOT
HETATM    1  C   UNL     1      -8.151  13.630  68.032  1.00  0.00    -0.161 C  
HETATM    2  N   UNL     1      -8.044  12.594  67.025  1.00  0.00    -0.345 NA 
HETATM    3  H   UNL     1      -7.237  12.531  66.405  1.00  0.00     0.000 HD 
ENDROOT
BRANCH   2   4
HETATM    4  C   UNL     1      -9.172  11.622  66.939  1.00  0.00    -0.184 C  
HETATM    5  C   UNL     1     -10.337  12.086  67.863  1.00  0.00    -0.209 C  
HETATM    6  O   UNL     1      -7.536  10.224  68.190  1.00  0.00    -0.084 OA 
HETATM    7  C   UNL     1      -8.662  10.327  67.696  1.00  0.00    -0.121 C  
HETATM    8  C   UNL     1     -11.412  11.018  68.123  1.00  0.00    -0.374 C  
HETATM    9  C   UNL     1      -9.674   9.220  67.888  1.00  0.00    -0.180 C  
HETATM   10  C   UNL     1     -10.824   9.747  68.728  1.00  0.00    -0.219 C  
BRANCH   4  11
HETATM   11  C   UNL     1      -9.432  11.287  65.449  1.00  0.00    -0.251 A  
HETATM   12  C   UNL     1      -8.593  10.016  63.492  1.00  0.00    -0.209 A  
HETATM   13  C   UNL     1     -10.529  11.405  63.258  1.00  0.00    -0.397 A  
HETATM   14  C   UNL     1      -8.509  10.393  64.836  1.00  0.00    -0.179 A  
HETATM   15  C   UNL     1      -9.621  10.508  62.703  1.00  0.00    -0.285 A  
HETATM   16  C   UNL     1     -10.424  11.817  64.601  1.00  0.00    -0.299 A  
HETATM   17 CL   UNL     1     -11.542  13.063  65.027  1.00  0.00    -0.344 Cl 
ENDBRANCH   4  11
ENDBRANCH   2   4
TORSDOF 2
ENDMDL
MODEL      115
REMARK 921   NORMALIZED FREE ENERGY PREDICTED BY IDOCK:   -3.50 KCAL/MOL
REMARK 922        TOTAL FREE ENERGY PREDICTED BY IDOCK:   -4.16 KCAL/MOL
REMARK 923 INTER-LIGAND FREE ENERGY PREDICTED BY IDOCK:   -3.94 KCAL/MOL
REMARK 924 INTRA-LIGAND FREE ENERGY PREDICTED BY IDOCK:   -0.22 KCAL/MOL
REMARK 927      BINDING AFFINITY PREDICTED BY RF-SCORE:    0.00 PKD
ROOT
HETATM    1  C   UNL     1     -13.343   7.186  71.418  1.00  0.00    -0.307 C  
HETATM    2  N   UNL     1     -12.025   7.787  71.453  1.00  0.00    -0.299 NA 
HETATM    3  H   UNL     1     -11.866   8.705  71.867  1.00  0.00     0.000 HD 
ENDROOT
BRANCH   2   4
HETATM    4  C   UNL     1     -10.911   6.998  70.854  1.00  0.00    -0.241 C  
HETATM    5  C   UNL     1     -11.126   5.482  71.142  1.00  0.00    -0.125 C  
HETATM    6  O   UNL     1      -9.668   8.097  72.709  1.00  0.00    -0.249 OA 
HETATM    7  C   UNL     1      -9.647   7.316  71.753  1.00  0.00    -0.150 C  
HETATM    8  C   UNL     1      -9.896   4.598  70.875  1.00  0.00    -0.272 C  
HETATM    9  C   UNL     1      -8.393   6.525  71.454  1.00  0.00    -0.125 C  
HETATM   10  C   UNL     1      -8.680   5.050  71.676  1.00  0.00    -0.141 C  
BRANCH   4  11
HETATM   11  C   UNL     1     -10.662   7.498  69.409  1.00  0.00    -0.200 A  
HETATM   12  C   UNL     1     -10.670   6.842  67.017  1.00  0.00    -0.432 A  
HETATM   13  C   UNL     1     -10.001   9.057  67.634  1.00  0.00    -0.252 A  
HETATM   14  C   UNL     1     -10.878   6.551  68.369  1.00  0.00    -0.357 A  
HETATM   15  C   UNL     1     -10.249   8.109  66.646  1.00  0.00    -0.329 A  
HETATM   16  C   UNL     1     -10.173   8.754  68.998  1.00  0.00    -0.207 A  
HETATM   17 CL   UNL     1      -9.640  10.014  70.054  1.00  0.00    -0.253 Cl 
ENDBRANCH   4  11
ENDBRANCH   2   4
TORSDOF 2
ENDMDL
MODEL      116
REMARK 921   NORMALIZED FREE ENERGY PREDICTED BY IDOCK:   -3.48 KCAL/MOL
REMARK 922        TOTAL FREE ENERGY PREDICTED BY IDOCK:   -4.14 KCAL/MOL
REMARK 923 INTER-LIGAND FREE ENERGY PREDICTED BY IDOCK:   -3.87 KCAL/MOL
REMARK 924 INTRA-LIGAND FREE ENERGY PREDICTED BY IDOCK:   -0.27 KCAL/MOL
REMARK 927      BINDING AFFINITY PREDICTED BY RF-SCORE:    0.00 PKD
ROOT
HETATM    1  C   UNL     1     -10.879   6.432  67.277  1.00  0.00    -0.385 C  
HETATM    2  N   UNL     1     -10.961   7.642  68.071  1.00  0.00    -0.469 NA 
HETATM    3  H   UNL     1     -11.229   8.535  67.659  1.00  0.00     0.000 HD 
ENDROOT
BRANCH   2   4
HETATM    4  C   UNL     1     -10.632   7.518  69.520  1.00  0.00    -0.236 C  
HETATM    5  C   UNL     1     -11.702   6.633  70.228  1.00  0.00    -0.432 C  
HETATM    6  O   UNL     1     -11.332   9.906  69.474  1.00  0.00    -0.209 OA 
HETATM    7  C   UNL     1     -10.940   8.943  70.139  1.00  0.00    -0.227 C  
HETATM    8  C   UNL     1     -11.672   6.697  71.764  1.00  0.00    -0.363 C  
HETATM    9  C   UNL     1     -10.831   9.060  71.643  1.00  0.00    -0.437 C  
HETATM   10  C   UNL     1     -11.840   8.121  72.282  1.00  0.00    -0.441 C  
BRANCH   4  11
HETATM   11  C   UNL     1      -9.123   7.201  69.667  1.00  0.00    -0.140 A  
HETATM   12  C   UNL     1      -7.479   5.633  70.661  1.00  0.00    -0.085 A  
HETATM   13  C   UNL     1      -6.705   7.535  69.430  1.00  0.00    -0.041 A  
HETATM   14  C   UNL     1      -8.796   6.036  70.417  1.00  0.00    -0.148 A  
HETATM   15  C   UNL     1      -6.427   6.375  70.147  1.00  0.00    -0.040 A  
HETATM   16  C   UNL     1      -8.029   7.965  69.216  1.00  0.00    -0.117 A  
HETATM   17 CL   UNL     1      -8.134   9.515  68.460  1.00  0.00    -0.100 Cl 
ENDBRANCH   4  11
ENDBRANCH   2   4
TORSDOF 2
ENDMDL
MODEL      117
REMARK 921   NORMALIZED FREE ENERGY PREDICTED BY IDOCK:   -3.44 KCAL/MOL
REMARK 922        TOTAL FREE ENERGY PREDICTED BY IDOCK:   -4.09 KCAL/MOL
REMARK 923 INTER-LIGAND FREE ENERGY PREDICTED BY IDOCK:   -4.24 KCAL/MOL
REMARK 924 INTRA-LIGAND FREE ENERGY PREDICTED BY IDOCK:    0.15 KCAL/MOL
REMARK 927      BINDING AFFINITY PREDICTED BY RF-SCORE:    0.00 PKD
ROOT
HETATM    1  C   UNL     1     -10.936   6.399  67.952  1.00  0.00    -0.325 C  
HETATM    2  N   UNL     1     -11.659   6.573  69.196  1.00  0.00    -0.624 NA 
HETATM    3  H   UNL     1     -12.617   6.240  69.309  1.00  0.00     0.000 HD 
ENDROOT
BRANCH   2   4
HETATM    4  C   UNL     1     -10.935   7.262  70.302  1.00  0.00    -0.260 C  
HETATM    5  C   UNL     1     -10.039   6.238  71.062  1.00  0.00    -0.221 C  
HETATM    6  O   UNL     1     -13.240   7.309  71.243  1.00  0.00    -0.372 OA 
HETATM    7  C   UNL     1     -12.045   7.580  71.387  1.00  0.00    -0.327 C  
HETATM    8  C   UNL     1      -9.503   6.737  72.414  1.00  0.00    -0.153 C  
HETATM    9  C   UNL     1     -11.556   8.157  72.698  1.00  0.00    -0.441 C  
HETATM   10  C   UNL     1     -10.627   7.153  73.358  1.00  0.00    -0.424 C  
BRANCH   4  11
HETATM   11  C   UNL     1     -10.339   8.585  69.763  1.00  0.00    -0.212 A  
HETATM   12  C   UNL     1      -8.245   9.718  69.066  1.00  0.00    -0.121 A  
HETATM   13  C   UNL     1     -10.308  10.932  69.049  1.00  0.00    -0.230 A  
HETATM   14  C   UNL     1      -8.935   8.592  69.526  1.00  0.00    -0.149 A  
HETATM   15  C   UNL     1      -8.939  10.889  68.807  1.00  0.00    -0.166 A  
HETATM   16  C   UNL     1     -10.999   9.812  69.549  1.00  0.00    -0.227 A  
HETATM   17 CL   UNL     1     -12.649  10.141  69.943  1.00  0.00     0.010 Cl 
ENDBRANCH   4  11
ENDBRANCH   2   4
TORSDOF 2
ENDMDL
MODEL      118
REMARK 921   NORMALIZED FREE ENERGY PREDICTED BY IDOCK:   -3.43 KCAL/MOL
REMARK 922        TOTAL FREE ENERGY PREDICTED BY IDOCK:   -4.09 KCAL/MOL
REMARK 923 INTER-LIGAND FREE ENERGY PREDICTED BY IDOCK:   -3.87 KCAL/MOL
REMARK 924 INTRA-LIGAND FREE ENERGY PREDICTED BY IDOCK:   -0.21 KCAL/MOL
REMARK 927      BINDING AFFINITY PREDICTED BY RF-SCORE:    0.00 PKD
ROOT
HETATM    1  C   UNL     1     -10.026   5.050  69.332  1.00  0.00    -0.220 C  
HETATM    2  N   UNL     1     -10.738   5.253  70.578  1.00  0.00    -0.200 NA 
HETATM    3  H   UNL     1     -11.582   4.728  70.804  1.00  0.00     0.000 HD 
ENDROOT
BRANCH   2   4
HETATM    4  C   UNL     1     -10.175   6.268  71.515  1.00  0.00    -0.200 C  
HETATM    5  C   UNL     1      -8.674   5.955  71.789  1.00  0.00    -0.139 C  
HETATM    6  O   UNL     1     -11.652   5.039  73.098  1.00  0.00    -0.328 OA 
HETATM    7  C   UNL     1     -10.830   5.942  72.920  1.00  0.00    -0.258 C  
HETATM    8  C   UNL     1      -8.069   6.715  72.981  1.00  0.00    -0.107 C  
HETATM    9  C   UNL     1     -10.318   6.738  74.100  1.00  0.00    -0.322 C  
HETATM   10  C   UNL     1      -8.836   6.457  74.275  1.00  0.00    -0.158 C  
BRANCH   4  11
HETATM   11  C   UNL     1     -10.615   7.678  71.049  1.00  0.00    -0.226 A  
HETATM   12  C   UNL     1      -9.808   9.873  70.223  1.00  0.00    -0.236 A  
HETATM   13  C   UNL     1     -12.150   9.536  70.591  1.00  0.00    -0.230 A  
HETATM   14  C   UNL     1      -9.574   8.559  70.642  1.00  0.00    -0.203 A  
HETATM   15  C   UNL     1     -11.106  10.358  70.177  1.00  0.00    -0.383 A  
HETATM   16  C   UNL     1     -11.913   8.227  71.051  1.00  0.00    -0.241 A  
HETATM   17 CL   UNL     1     -13.325   7.453  71.679  1.00  0.00    -0.423 Cl 
ENDBRANCH   4  11
ENDBRANCH   2   4
TORSDOF 2
ENDMDL
MODEL      119
REMARK 921   NORMALIZED FREE ENERGY PREDICTED BY IDOCK:   -3.43 KCAL/MOL
REMARK 922        TOTAL FREE ENERGY PREDICTED BY IDOCK:   -4.08 KCAL/MOL
REMARK 923 INTER-LIGAND FREE ENERGY PREDICTED BY IDOCK:   -3.80 KCAL/MOL
REMARK 924 INTRA-LIGAND FREE ENERGY PREDICTED BY IDOCK:   -0.28 KCAL/MOL
REMARK 927      BINDING AFFINITY PREDICTED BY RF-SCORE:    0.00 PKD
ROOT
HETATM    1  C   UNL     1      -9.449   9.974  68.651  1.00  0.00    -0.156 C  
HETATM    2  N   UNL     1      -9.502   9.971  70.099  1.00  0.00    -0.396 NA 
HETATM    3  H   UNL     1      -9.252  10.796  70.645  1.00  0.00     0.000 HD 
ENDROOT
BRANCH   2   4
HETATM    4  C   UNL     1      -9.940   8.705  70.753  1.00  0.00    -0.197 C  
HETATM    5  C   UNL     1     -10.534   7.739  69.684  1.00  0.00    -0.229 C  
HETATM    6  O   UNL     1     -11.686  10.238  71.645  1.00  0.00    -0.255 OA 
HETATM    7  C   UNL     1     -11.232   9.092  71.583  1.00  0.00    -0.377 C  
HETATM    8  C   UNL     1     -11.318   6.549  70.261  1.00  0.00    -0.456 C  
HETATM    9  C   UNL     1     -11.976   7.950  72.239  1.00  0.00    -0.387 C  
HETATM   10  C   UNL     1     -12.465   7.000  71.159  1.00  0.00    -0.407 C  
BRANCH   4  11
HETATM   11  C   UNL     1      -8.825   8.227  71.716  1.00  0.00    -0.230 A  
HETATM   12  C   UNL     1      -8.081   8.194  74.082  1.00  0.00    -0.312 A  
HETATM   13  C   UNL     1      -6.694   7.217  72.392  1.00  0.00    -0.059 A  
HETATM   14  C   UNL     1      -9.011   8.534  73.093  1.00  0.00    -0.091 A  
HETATM   15  C   UNL     1      -6.925   7.514  73.732  1.00  0.00    -0.099 A  
HETATM   16  C   UNL     1      -7.610   7.593  71.390  1.00  0.00    -0.080 A  
HETATM   17 CL   UNL     1      -7.041   7.285  69.788  1.00  0.00    -0.070 Cl 
ENDBRANCH   4  11
ENDBRANCH   2   4
TORSDOF 2
ENDMDL
MODEL      120
REMARK 921   NORMALIZED FREE ENERGY PREDICTED BY IDOCK:   -3.40 KCAL/MOL
REMARK 922        TOTAL FREE ENERGY PREDICTED BY IDOCK:   -4.05 KCAL/MOL
REMARK 923 INTER-LIGAND FREE ENERGY PREDICTED BY IDOCK:   -3.93 KCAL/MOL
REMARK 924 INTRA-LIGAND FREE ENERGY PREDICTED BY IDOCK:   -0.12 KCAL/MOL
REMARK 927      BINDING AFFINITY PREDICTED BY RF-SCORE:    0.00 PKD
ROOT
HETATM    1  C   UNL     1     -10.728  16.067  64.925  1.00  0.00    -0.316 C  
HETATM    2  N   UNL     1     -10.769  16.059  66.373  1.00  0.00    -0.275 NA 
HETATM    3  H   UNL     1     -11.030  16.889  66.906  1.00  0.00     0.000 HD 
ENDROOT
BRANCH   2   4
HETATM    4  C   UNL     1     -10.412  14.778  67.048  1.00  0.00    -0.270 C  
HETATM    5  C   UNL     1     -10.987  13.578  66.237  1.00  0.00    -0.293 C  
HETATM    6  O   UNL     1     -12.081  15.638  68.683  1.00  0.00    -0.270 OA 
HETATM    7  C   UNL     1     -11.306  14.735  68.355  1.00  0.00    -0.299 C  
HETATM    8  C   UNL     1     -10.980  12.236  66.987  1.00  0.00    -0.314 C  
HETATM    9  C   UNL     1     -11.251  13.458  69.164  1.00  0.00    -0.300 C  
HETATM   10  C   UNL     1     -11.748  12.311  68.303  1.00  0.00    -0.392 C  
BRANCH   4  11
HETATM   11  C   UNL     1      -8.915  14.819  67.442  1.00  0.00    -0.200 A  
HETATM   12  C   UNL     1      -6.823  13.492  67.559  1.00  0.00    -0.156 A  
HETATM   13  C   UNL     1      -6.837  15.751  68.353  1.00  0.00    -0.116 A  
HETATM   14  C   UNL     1      -8.176  13.622  67.229  1.00  0.00    -0.164 A  
HETATM   15  C   UNL     1      -6.144  14.570  68.105  1.00  0.00    -0.146 A  
HETATM   16  C   UNL     1      -8.208  15.871  68.058  1.00  0.00    -0.148 A  
HETATM   17 CL   UNL     1      -8.903  17.354  68.609  1.00  0.00    -0.273 Cl 
ENDBRANCH   4  11
ENDBRANCH   2   4
TORSDOF 2
ENDMDL
MODEL      121
REMARK 921   NORMALIZED FREE ENERGY PREDICTED BY IDOCK:   -3.39 KCAL/MOL
REMARK 922        TOTAL FREE ENERGY PREDICTED BY IDOCK:   -4.04 KCAL/MOL
REMARK 923 INTER-LIGAND FREE ENERGY PREDICTED BY IDOCK:   -3.95 KCAL/MOL
REMARK 924 INTRA-LIGAND FREE ENERGY PREDICTED BY IDOCK:   -0.09 KCAL/MOL
REMARK 927      BINDING AFFINITY PREDICTED BY RF-SCORE:    0.00 PKD
ROOT
HETATM    1  C   UNL     1      -7.019  10.504  65.858  1.00  0.00    -0.131 C  
HETATM    2  N   UNL     1      -7.711  11.636  66.441  1.00  0.00    -0.376 NA 
HETATM    3  H   UNL     1      -7.231  12.516  66.633  1.00  0.00     0.000 HD 
ENDROOT
BRANCH   2   4
HETATM    4  C   UNL     1      -9.158  11.454  66.747  1.00  0.00    -0.176 C  
HETATM    5  C   UNL     1     -10.017  11.960  65.549  1.00  0.00    -0.266 C  
HETATM    6  O   UNL     1      -8.647  13.305  68.331  1.00  0.00    -0.173 OA 
HETATM    7  C   UNL     1      -9.488  12.537  67.855  1.00  0.00    -0.196 C  
HETATM    8  C   UNL     1     -11.512  12.138  65.863  1.00  0.00    -0.418 C  
HETATM    9  C   UNL     1     -10.942  12.673  68.250  1.00  0.00    -0.275 C  
HETATM   10  C   UNL     1     -11.744  13.092  67.030  1.00  0.00    -0.441 C  
BRANCH   4  11
HETATM   11  C   UNL     1      -9.373  10.034  67.326  1.00  0.00    -0.170 A  
HETATM   12  C   UNL     1     -10.597   7.897  67.029  1.00  0.00    -0.381 A  
HETATM   13  C   UNL     1      -9.136   8.172  68.906  1.00  0.00    -0.147 A  
HETATM   14  C   UNL     1     -10.278   9.195  66.617  1.00  0.00    -0.328 A  
HETATM   15  C   UNL     1     -10.007   7.375  68.170  1.00  0.00    -0.190 A  
HETATM   16  C   UNL     1      -8.843   9.492  68.515  1.00  0.00    -0.124 A  
HETATM   17 CL   UNL     1      -7.884  10.354  69.665  1.00  0.00    -0.159 Cl 
ENDBRANCH   4  11
ENDBRANCH   2   4
TORSDOF 2
ENDMDL
MODEL      122
REMARK 921   NORMALIZED FREE ENERGY PREDICTED BY IDOCK:   -3.38 KCAL/MOL
REMARK 922        TOTAL FREE ENERGY PREDICTED BY IDOCK:   -4.03 KCAL/MOL
REMARK 923 INTER-LIGAND FREE ENERGY PREDICTED BY IDOCK:   -4.86 KCAL/MOL
REMARK 924 INTRA-LIGAND FREE ENERGY PREDICTED BY IDOCK:    0.84 KCAL/MOL
REMARK 927      BINDING AFFINITY PREDICTED BY RF-SCORE:    0.00 PKD
ROOT
HETATM    1  C   UNL     1     -11.515  13.380  65.151  1.00  0.00    -0.296 C  
HETATM    2  N   UNL     1     -11.319  13.270  66.583  1.00  0.00    -0.310 NA 
HETATM    3  H   UNL     1     -11.692  12.484  67.115  1.00  0.00     0.000 HD 
ENDROOT
BRANCH   2   4
HETATM    4  C   UNL     1     -10.545  14.361  67.240  1.00  0.00    -0.279 C  
HETATM    5  C   UNL     1     -10.454  15.590  66.287  1.00  0.00    -0.313 C  
HETATM    6  O   UNL     1      -8.690  12.756  66.816  1.00  0.00    -0.197 OA 
HETATM    7  C   UNL     1      -9.043  13.856  67.251  1.00  0.00    -0.228 C  
HETATM    8  C   UNL     1      -9.414  16.645  66.699  1.00  0.00    -0.271 C  
HETATM    9  C   UNL     1      -8.006  14.843  67.738  1.00  0.00    -0.161 C  
HETATM   10  C   UNL     1      -8.013  16.054  66.820  1.00  0.00    -0.302 C  
BRANCH   4  11
HETATM   11  C   UNL     1     -11.049  14.527  68.695  1.00  0.00    -0.272 A  
HETATM   12  C   UNL     1     -12.183  13.381  70.580  1.00  0.00    -0.427 A  
HETATM   13  C   UNL     1     -11.552  15.680  70.801  1.00  0.00    -0.412 A  
HETATM   14  C   UNL     1     -11.654  13.382  69.285  1.00  0.00    -0.365 A  
HETATM   15  C   UNL     1     -12.113  14.531  71.350  1.00  0.00    -0.420 A  
HETATM   16  C   UNL     1     -11.055  15.695  69.484  1.00  0.00    -0.298 A  
HETATM   17 CL   UNL     1     -10.570  17.265  68.950  1.00  0.00    -0.314 Cl 
ENDBRANCH   4  11
ENDBRANCH   2   4
TORSDOF 2
ENDMDL
MODEL      123
REMARK 921   NORMALIZED FREE ENERGY PREDICTED BY IDOCK:   -3.38 KCAL/MOL
REMARK 922        TOTAL FREE ENERGY PREDICTED BY IDOCK:   -4.03 KCAL/MOL
REMARK 923 INTER-LIGAND FREE ENERGY PREDICTED BY IDOCK:   -3.73 KCAL/MOL
REMARK 924 INTRA-LIGAND FREE ENERGY PREDICTED BY IDOCK:   -0.29 KCAL/MOL
REMARK 927      BINDING AFFINITY PREDICTED BY RF-SCORE:    0.00 PKD
ROOT
HETATM    1  C   UNL     1     -10.137  10.429  65.008  1.00  0.00    -0.309 C  
HETATM    2  N   UNL     1     -10.304   9.941  66.363  1.00  0.00    -0.208 NA 
HETATM    3  H   UNL     1     -10.917   9.154  66.576  1.00  0.00     0.000 HD 
ENDROOT
BRANCH   2   4
HETATM    4  C   UNL     1      -9.538  10.646  67.430  1.00  0.00    -0.158 C  
HETATM    5  C   UNL     1      -8.809  11.883  66.825  1.00  0.00    -0.193 C  
HETATM    6  O   UNL     1      -8.144   8.594  67.227  1.00  0.00    -0.101 OA 
HETATM    7  C   UNL     1      -8.319   9.691  67.764  1.00  0.00    -0.121 C  
HETATM    8  C   UNL     1      -7.730  12.497  67.731  1.00  0.00    -0.142 C  
HETATM    9  C   UNL     1      -7.285  10.234  68.725  1.00  0.00    -0.083 C  
HETATM   10  C   UNL     1      -6.662  11.481  68.122  1.00  0.00    -0.062 C  
BRANCH   4  11
HETATM   11  C   UNL     1     -10.441  10.796  68.679  1.00  0.00    -0.213 A  
HETATM   12  C   UNL     1     -11.114   9.738  70.819  1.00  0.00    -0.415 A  
HETATM   13  C   UNL     1     -12.150  11.786  70.134  1.00  0.00    -0.398 A  
HETATM   14  C   UNL     1     -10.345   9.761  69.652  1.00  0.00    -0.259 A  
HETATM   15  C   UNL     1     -12.008  10.768  71.072  1.00  0.00    -0.409 A  
HETATM   16  C   UNL     1     -11.405  11.790  68.939  1.00  0.00    -0.267 A  
HETATM   17 CL   UNL     1     -11.869  13.044  67.845  1.00  0.00    -0.396 Cl 
ENDBRANCH   4  11
ENDBRANCH   2   4
TORSDOF 2
ENDMDL
MODEL      124
REMARK 921   NORMALIZED FREE ENERGY PREDICTED BY IDOCK:   -3.36 KCAL/MOL
REMARK 922        TOTAL FREE ENERGY PREDICTED BY IDOCK:   -4.01 KCAL/MOL
REMARK 923 INTER-LIGAND FREE ENERGY PREDICTED BY IDOCK:   -4.18 KCAL/MOL
REMARK 924 INTRA-LIGAND FREE ENERGY PREDICTED BY IDOCK:    0.17 KCAL/MOL
REMARK 927      BINDING AFFINITY PREDICTED BY RF-SCORE:    0.00 PKD
ROOT
HETATM    1  C   UNL     1      -8.910  16.297  66.298  1.00  0.00    -0.331 C  
HETATM    2  N   UNL     1      -8.666  14.891  66.042  1.00  0.00    -0.340 NA 
HETATM    3  H   UNL     1      -7.811  14.570  65.589  1.00  0.00     0.000 HD 
ENDROOT
BRANCH   2   4
HETATM    4  C   UNL     1      -9.727  13.937  66.475  1.00  0.00    -0.294 C  
HETATM    5  C   UNL     1     -11.026  14.720  66.832  1.00  0.00    -0.328 C  
HETATM    6  O   UNL     1      -8.212  13.767  68.442  1.00  0.00    -0.148 OA 
HETATM    7  C   UNL     1      -9.265  13.422  67.900  1.00  0.00    -0.216 C  
HETATM    8  C   UNL     1     -12.076  13.902  67.600  1.00  0.00    -0.342 C  
HETATM    9  C   UNL     1     -10.243  12.539  68.644  1.00  0.00    -0.166 C  
HETATM   10  C   UNL     1     -11.518  13.325  68.897  1.00  0.00    -0.342 C  
BRANCH   4  11
HETATM   11  C   UNL     1      -9.769  12.750  65.480  1.00  0.00    -0.089 A  
HETATM   12  C   UNL     1     -10.974  11.789  63.536  1.00  0.00    -0.499 A  
HETATM   13  C   UNL     1      -9.136  10.593  64.499  1.00  0.00    -0.243 A  
HETATM   14  C   UNL     1     -10.788  12.798  64.488  1.00  0.00    -0.373 A  
HETATM   15  C   UNL     1     -10.129  10.690  63.529  1.00  0.00    -0.288 A  
HETATM   16  C   UNL     1      -8.973  11.588  65.482  1.00  0.00    -0.031 A  
HETATM   17 CL   UNL     1      -7.803  11.179  66.686  1.00  0.00    -0.152 Cl 
ENDBRANCH   4  11
ENDBRANCH   2   4
TORSDOF 2
ENDMDL
MODEL      125
REMARK 921   NORMALIZED FREE ENERGY PREDICTED BY IDOCK:   -3.33 KCAL/MOL
REMARK 922        TOTAL FREE ENERGY PREDICTED BY IDOCK:   -3.98 KCAL/MOL
REMARK 923 INTER-LIGAND FREE ENERGY PREDICTED BY IDOCK:   -3.95 KCAL/MOL
REMARK 924 INTRA-LIGAND FREE ENERGY PREDICTED BY IDOCK:   -0.03 KCAL/MOL
REMARK 927      BINDING AFFINITY PREDICTED BY RF-SCORE:    0.00 PKD
ROOT
HETATM    1  C   UNL     1     -11.573  14.929  64.550  1.00  0.00    -0.352 C  
HETATM    2  N   UNL     1     -10.439  14.332  65.225  1.00  0.00    -0.364 NA 
HETATM    3  H   UNL     1      -9.570  14.126  64.732  1.00  0.00     0.000 HD 
ENDROOT
BRANCH   2   4
HETATM    4  C   UNL     1     -10.603  14.032  66.676  1.00  0.00    -0.274 C  
HETATM    5  C   UNL     1     -12.027  14.457  67.143  1.00  0.00    -0.419 C  
HETATM    6  O   UNL     1      -9.001  15.930  66.840  1.00  0.00    -0.202 OA 
HETATM    7  C   UNL     1      -9.694  15.092  67.424  1.00  0.00    -0.209 C  
HETATM    8  C   UNL     1     -12.211  14.511  68.669  1.00  0.00    -0.158 C  
HETATM    9  C   UNL     1      -9.786  15.109  68.934  1.00  0.00    -0.224 C  
HETATM   10  C   UNL     1     -11.210  15.451  69.334  1.00  0.00    -0.300 C  
BRANCH   4  11
HETATM   11  C   UNL     1     -10.074  12.603  66.955  1.00  0.00    -0.228 A  
HETATM   12  C   UNL     1     -10.741  10.268  67.462  1.00  0.00    -0.348 A  
HETATM   13  C   UNL     1      -8.418  10.838  67.353  1.00  0.00    -0.119 A  
HETATM   14  C   UNL     1     -11.059  11.599  67.171  1.00  0.00    -0.354 A  
HETATM   15  C   UNL     1      -9.412   9.881  67.533  1.00  0.00    -0.173 A  
HETATM   16  C   UNL     1      -8.736  12.186  67.100  1.00  0.00    -0.190 A  
HETATM   17 CL   UNL     1      -7.357  13.227  67.088  1.00  0.00    -0.030 Cl 
ENDBRANCH   4  11
ENDBRANCH   2   4
TORSDOF 2
ENDMDL
MODEL      126
REMARK 921   NORMALIZED FREE ENERGY PREDICTED BY IDOCK:   -3.32 KCAL/MOL
REMARK 922        TOTAL FREE ENERGY PREDICTED BY IDOCK:   -3.96 KCAL/MOL
REMARK 923 INTER-LIGAND FREE ENERGY PREDICTED BY IDOCK:   -4.68 KCAL/MOL
REMARK 924 INTRA-LIGAND FREE ENERGY PREDICTED BY IDOCK:    0.72 KCAL/MOL
REMARK 927      BINDING AFFINITY PREDICTED BY RF-SCORE:    0.00 PKD
ROOT
HETATM    1  C   UNL     1     -12.540  12.818  64.908  1.00  0.00    -0.470 C  
HETATM    2  N   UNL     1     -12.044  12.782  66.269  1.00  0.00    -0.527 NA 
HETATM    3  H   UNL     1     -12.497  13.307  67.017  1.00  0.00     0.000 HD 
ENDROOT
BRANCH   2   4
HETATM    4  C   UNL     1     -10.840  11.940  66.524  1.00  0.00    -0.278 C  
HETATM    5  C   UNL     1     -10.717  10.850  65.418  1.00  0.00    -0.189 C  
HETATM    6  O   UNL     1     -12.278  11.158  68.400  1.00  0.00    -0.610 OA 
HETATM    7  C   UNL     1     -11.207  11.066  67.793  1.00  0.00    -0.308 C  
HETATM    8  C   UNL     1      -9.725   9.721  65.740  1.00  0.00    -0.340 C  
HETATM    9  C   UNL     1     -10.206  10.004  68.189  1.00  0.00    -0.205 C  
HETATM   10  C   UNL     1     -10.066   9.012  67.047  1.00  0.00    -0.318 C  
BRANCH   4  11
HETATM   11  C   UNL     1      -9.644  12.865  66.857  1.00  0.00    -0.240 A  
HETATM   12  C   UNL     1      -7.196  12.934  67.251  1.00  0.00    -0.075 A  
HETATM   13  C   UNL     1      -8.483  14.943  67.452  1.00  0.00    -0.212 A  
HETATM   14  C   UNL     1      -8.368  12.240  66.934  1.00  0.00    -0.137 A  
HETATM   15  C   UNL     1      -7.251  14.298  67.492  1.00  0.00    -0.197 A  
HETATM   16  C   UNL     1      -9.670  14.239  67.171  1.00  0.00    -0.254 A  
HETATM   17 CL   UNL     1     -11.096  15.197  67.349  1.00  0.00    -0.319 Cl 
ENDBRANCH   4  11
ENDBRANCH   2   4
TORSDOF 2
ENDMDL
MODEL      127
REMARK 921   NORMALIZED FREE ENERGY PREDICTED BY IDOCK:   -3.28 KCAL/MOL
REMARK 922        TOTAL FREE ENERGY PREDICTED BY IDOCK:   -3.92 KCAL/MOL
REMARK 923 INTER-LIGAND FREE ENERGY PREDICTED BY IDOCK:   -3.57 KCAL/MOL
REMARK 924 INTRA-LIGAND FREE ENERGY PREDICTED BY IDOCK:   -0.35 KCAL/MOL
REMARK 927      BINDING AFFINITY PREDICTED BY RF-SCORE:    0.00 PKD
ROOT
HETATM    1  C   UNL     1     -10.604   8.941  66.873  1.00  0.00    -0.184 C  
HETATM    2  N   UNL     1     -10.489  10.381  66.753  1.00  0.00    -0.237 NA 
HETATM    3  H   UNL     1     -10.448  10.840  65.843  1.00  0.00     0.000 HD 
ENDROOT
BRANCH   2   4
HETATM    4  C   UNL     1     -10.435  11.158  68.024  1.00  0.00    -0.188 C  
HETATM    5  C   UNL     1     -11.758  10.955  68.822  1.00  0.00    -0.355 C  
HETATM    6  O   UNL     1     -10.641  13.044  66.411  1.00  0.00    -0.278 OA 
HETATM    7  C   UNL     1     -10.558  12.676  67.586  1.00  0.00    -0.218 C  
HETATM    8  C   UNL     1     -11.969  11.949  69.975  1.00  0.00    -0.409 C  
HETATM    9  C   UNL     1     -10.678  13.689  68.703  1.00  0.00    -0.272 C  
HETATM   10  C   UNL     1     -11.941  13.397  69.496  1.00  0.00    -0.377 C  
BRANCH   4  11
HETATM   11  C   UNL     1      -9.061  10.920  68.698  1.00  0.00    -0.175 A  
HETATM   12  C   UNL     1      -6.639  11.441  68.581  1.00  0.00    -0.062 A  
HETATM   13  C   UNL     1      -7.451   9.965  70.283  1.00  0.00    -0.173 A  
HETATM   14  C   UNL     1      -7.947  11.578  68.105  1.00  0.00    -0.136 A  
HETATM   15  C   UNL     1      -6.393  10.646  69.690  1.00  0.00    -0.085 A  
HETATM   16  C   UNL     1      -8.763  10.071  69.782  1.00  0.00    -0.179 A  
HETATM   17 CL   UNL     1      -9.882   9.008  70.558  1.00  0.00    -0.239 Cl 
ENDBRANCH   4  11
ENDBRANCH   2   4
TORSDOF 2
ENDMDL
MODEL      128
REMARK 921   NORMALIZED FREE ENERGY PREDICTED BY IDOCK:   -3.26 KCAL/MOL
REMARK 922        TOTAL FREE ENERGY PREDICTED BY IDOCK:   -3.89 KCAL/MOL
REMARK 923 INTER-LIGAND FREE ENERGY PREDICTED BY IDOCK:   -3.55 KCAL/MOL
REMARK 924 INTRA-LIGAND FREE ENERGY PREDICTED BY IDOCK:   -0.35 KCAL/MOL
REMARK 927      BINDING AFFINITY PREDICTED BY RF-SCORE:    0.00 PKD
ROOT
HETATM    1  C   UNL     1      -7.014   8.377  69.559  1.00  0.00    -0.045 C  
HETATM    2  N   UNL     1      -8.130   8.500  68.643  1.00  0.00    -0.120 NA 
HETATM    3  H   UNL     1      -8.221   9.299  68.016  1.00  0.00     0.000 HD 
ENDROOT
BRANCH   2   4
HETATM    4  C   UNL     1      -9.140   7.403  68.663  1.00  0.00    -0.134 C  
HETATM    5  C   UNL     1      -8.463   6.059  68.257  1.00  0.00    -0.112 C  
HETATM    6  O   UNL     1      -9.939   8.646  66.659  1.00  0.00    -0.241 OA 
HETATM    7  C   UNL     1     -10.074   7.678  67.413  1.00  0.00    -0.222 C  
HETATM    8  C   UNL     1      -9.445   4.926  67.916  1.00  0.00    -0.172 C  
HETATM    9  C   UNL     1     -11.112   6.621  67.106  1.00  0.00    -0.427 C  
HETATM   10  C   UNL     1     -10.403   5.314  66.795  1.00  0.00    -0.320 C  
BRANCH   4  11
HETATM   11  C   UNL     1      -9.968   7.508  69.967  1.00  0.00    -0.186 A  
HETATM   12  C   UNL     1     -11.674   8.847  71.171  1.00  0.00    -0.356 A  
HETATM   13  C   UNL     1     -10.713   6.926  72.231  1.00  0.00    -0.253 A  
HETATM   14  C   UNL     1     -10.876   8.601  70.049  1.00  0.00    -0.226 A  
HETATM   15  C   UNL     1     -11.607   7.992  72.261  1.00  0.00    -0.424 A  
HETATM   16  C   UNL     1      -9.881   6.700  71.118  1.00  0.00    -0.181 A  
HETATM   17 CL   UNL     1      -8.730   5.435  71.367  1.00  0.00    -0.131 Cl 
ENDBRANCH   4  11
ENDBRANCH   2   4
TORSDOF 2
ENDMDL
MODEL      129
REMARK 921   NORMALIZED FREE ENERGY PREDICTED BY IDOCK:   -3.23 KCAL/MOL
REMARK 922        TOTAL FREE ENERGY PREDICTED BY IDOCK:   -3.86 KCAL/MOL
REMARK 923 INTER-LIGAND FREE ENERGY PREDICTED BY IDOCK:   -3.52 KCAL/MOL
REMARK 924 INTRA-LIGAND FREE ENERGY PREDICTED BY IDOCK:   -0.34 KCAL/MOL
REMARK 927      BINDING AFFINITY PREDICTED BY RF-SCORE:    0.00 PKD
ROOT
HETATM    1  C   UNL     1      -7.385   5.918  71.135  1.00  0.00    -0.083 C  
HETATM    2  N   UNL     1      -7.863   6.960  70.248  1.00  0.00    -0.107 NA 
HETATM    3  H   UNL     1      -7.310   7.795  70.057  1.00  0.00     0.000 HD 
ENDROOT
BRANCH   2   4
HETATM    4  C   UNL     1      -9.203   6.751  69.628  1.00  0.00    -0.145 C  
HETATM    5  C   UNL     1      -9.312   5.294  69.088  1.00  0.00    -0.166 C  
HETATM    6  O   UNL     1      -8.207   8.268  67.924  1.00  0.00    -0.125 OA 
HETATM    7  C   UNL     1      -9.172   7.587  68.283  1.00  0.00    -0.138 C  
HETATM    8  C   UNL     1     -10.498   5.049  68.141  1.00  0.00    -0.018 C  
HETATM    9  C   UNL     1     -10.369   7.435  67.370  1.00  0.00    -0.340 C  
HETATM   10  C   UNL     1     -10.473   5.984  66.937  1.00  0.00    -0.344 C  
BRANCH   4  11
HETATM   11  C   UNL     1     -10.287   7.325  70.573  1.00  0.00    -0.215 A  
HETATM   12  C   UNL     1     -11.485   9.389  71.251  1.00  0.00    -0.433 A  
HETATM   13  C   UNL     1     -11.953   7.327  72.374  1.00  0.00    -0.202 A  
HETATM   14  C   UNL     1     -10.555   8.718  70.450  1.00  0.00    -0.251 A  
HETATM   15  C   UNL     1     -12.204   8.685  72.205  1.00  0.00    -0.453 A  
HETATM   16  C   UNL     1     -10.989   6.657  71.596  1.00  0.00    -0.241 A  
HETATM   17 CL   UNL     1     -10.717   5.025  72.094  1.00  0.00    -0.258 Cl 
ENDBRANCH   4  11
ENDBRANCH   2   4
TORSDOF 2
ENDMDL
MODEL      130
REMARK 921   NORMALIZED FREE ENERGY PREDICTED BY IDOCK:   -3.19 KCAL/MOL
REMARK 922        TOTAL FREE ENERGY PREDICTED BY IDOCK:   -3.81 KCAL/MOL
REMARK 923 INTER-LIGAND FREE ENERGY PREDICTED BY IDOCK:   -3.56 KCAL/MOL
REMARK 924 INTRA-LIGAND FREE ENERGY PREDICTED BY IDOCK:   -0.25 KCAL/MOL
REMARK 927      BINDING AFFINITY PREDICTED BY RF-SCORE:    0.00 PKD
ROOT
HETATM    1  C   UNL     1      -7.212   8.057  70.429  1.00  0.00    -0.049 C  
HETATM    2  N   UNL     1      -8.509   7.780  71.013  1.00  0.00    -0.120 NA 
HETATM    3  H   UNL     1      -8.865   8.316  71.804  1.00  0.00     0.000 HD 
ENDROOT
BRANCH   2   4
HETATM    4  C   UNL     1      -9.297   6.671  70.403  1.00  0.00    -0.159 C  
HETATM    5  C   UNL     1      -8.495   6.042  69.224  1.00  0.00    -0.115 C  
HETATM    6  O   UNL     1     -10.663   8.603  69.631  1.00  0.00    -0.229 OA 
HETATM    7  C   UNL     1     -10.487   7.381  69.636  1.00  0.00    -0.232 C  
HETATM    8  C   UNL     1      -9.320   5.124  68.307  1.00  0.00    -0.152 C  
HETATM    9  C   UNL     1     -11.371   6.488  68.794  1.00  0.00    -0.237 C  
HETATM   10  C   UNL     1     -10.526   5.842  67.711  1.00  0.00    -0.289 C  
BRANCH   4  11
HETATM   11  C   UNL     1      -9.866   5.779  71.535  1.00  0.00    -0.209 A  
HETATM   12  C   UNL     1     -10.027   3.453  72.382  1.00  0.00    -0.235 A  
HETATM   13  C   UNL     1     -11.145   5.218  73.551  1.00  0.00    -0.316 A  
HETATM   14  C   UNL     1      -9.564   4.390  71.453  1.00  0.00    -0.234 A  
HETATM   15  C   UNL     1     -10.806   3.873  73.449  1.00  0.00    -0.318 A  
HETATM   16  C   UNL     1     -10.712   6.158  72.595  1.00  0.00    -0.229 A  
HETATM   17 CL   UNL     1     -11.395   7.729  72.818  1.00  0.00    -0.444 Cl 
ENDBRANCH   4  11
ENDBRANCH   2   4
TORSDOF 2
ENDMDL
MODEL      131
REMARK 921   NORMALIZED FREE ENERGY PREDICTED BY IDOCK:   -3.19 KCAL/MOL
REMARK 922        TOTAL FREE ENERGY PREDICTED BY IDOCK:   -3.81 KCAL/MOL
REMARK 923 INTER-LIGAND FREE ENERGY PREDICTED BY IDOCK:   -4.29 KCAL/MOL
REMARK 924 INTRA-LIGAND FREE ENERGY PREDICTED BY IDOCK:    0.48 KCAL/MOL
REMARK 927      BINDING AFFINITY PREDICTED BY RF-SCORE:    0.00 PKD
ROOT
HETATM    1  C   UNL     1     -10.586  19.522  67.092  1.00  0.00    -0.487 C  
HETATM    2  N   UNL     1     -10.360  18.207  66.526  1.00  0.00    -0.385 NA 
HETATM    3  H   UNL     1     -10.906  17.864  65.736  1.00  0.00     0.000 HD 
ENDROOT
BRANCH   2   4
HETATM    4  C   UNL     1      -9.289  17.381  67.153  1.00  0.00    -0.245 C  
HETATM    5  C   UNL     1      -9.020  16.118  66.281  1.00  0.00    -0.379 C  
HETATM    6  O   UNL     1     -11.121  16.970  68.789  1.00  0.00    -0.245 OA 
HETATM    7  C   UNL     1      -9.959  16.743  68.439  1.00  0.00    -0.268 C  
HETATM    8  C   UNL     1      -8.189  15.026  66.975  1.00  0.00    -0.246 C  
HETATM    9  C   UNL     1      -9.129  15.729  69.195  1.00  0.00    -0.262 C  
HETATM   10  C   UNL     1      -8.830  14.557  68.277  1.00  0.00    -0.179 C  
BRANCH   4  11
HETATM   11  C   UNL     1      -8.124  18.309  67.579  1.00  0.00    -0.241 A  
HETATM   12  C   UNL     1      -7.324  19.867  69.335  1.00  0.00    -0.143 A  
HETATM   13  C   UNL     1      -5.991  19.504  67.379  1.00  0.00    -0.199 A  
HETATM   14  C   UNL     1      -8.275  18.976  68.827  1.00  0.00    -0.369 A  
HETATM   15  C   UNL     1      -6.166  20.117  68.617  1.00  0.00    -0.327 A  
HETATM   16  C   UNL     1      -6.965  18.637  66.848  1.00  0.00    -0.197 A  
HETATM   17 CL   UNL     1      -6.627  18.133  65.230  1.00  0.00    -0.121 Cl 
ENDBRANCH   4  11
ENDBRANCH   2   4
TORSDOF 2
ENDMDL
MODEL      132
REMARK 921   NORMALIZED FREE ENERGY PREDICTED BY IDOCK:   -3.16 KCAL/MOL
REMARK 922        TOTAL FREE ENERGY PREDICTED BY IDOCK:   -3.78 KCAL/MOL
REMARK 923 INTER-LIGAND FREE ENERGY PREDICTED BY IDOCK:   -3.57 KCAL/MOL
REMARK 924 INTRA-LIGAND FREE ENERGY PREDICTED BY IDOCK:   -0.22 KCAL/MOL
REMARK 927      BINDING AFFINITY PREDICTED BY RF-SCORE:    0.00 PKD
ROOT
HETATM    1  C   UNL     1     -10.489   8.597  66.856  1.00  0.00    -0.258 C  
HETATM    2  N   UNL     1      -9.403   9.557  66.856  1.00  0.00    -0.142 NA 
HETATM    3  H   UNL     1      -8.635   9.496  66.187  1.00  0.00     0.000 HD 
ENDROOT
BRANCH   2   4
HETATM    4  C   UNL     1      -9.463  10.638  67.880  1.00  0.00    -0.159 C  
HETATM    5  C   UNL     1     -10.483  11.728  67.435  1.00  0.00    -0.238 C  
HETATM    6  O   UNL     1      -7.200  11.095  66.948  1.00  0.00    -0.122 OA 
HETATM    7  C   UNL     1      -8.089  11.415  67.742  1.00  0.00    -0.121 C  
HETATM    8  C   UNL     1     -10.398  13.045  68.224  1.00  0.00    -0.256 C  
HETATM    9  C   UNL     1      -7.940  12.669  68.576  1.00  0.00    -0.093 C  
HETATM   10  C   UNL     1      -9.006  13.665  68.156  1.00  0.00    -0.191 C  
BRANCH   4  11
HETATM   11  C   UNL     1      -9.558   9.994  69.285  1.00  0.00    -0.227 A  
HETATM   12  C   UNL     1      -8.358   8.605  70.953  1.00  0.00    -0.182 A  
HETATM   13  C   UNL     1     -10.591   9.337  71.410  1.00  0.00    -0.417 A  
HETATM   14  C   UNL     1      -8.416   9.266  69.722  1.00  0.00    -0.152 A  
HETATM   15  C   UNL     1      -9.445   8.657  71.811  1.00  0.00    -0.354 A  
HETATM   16  C   UNL     1     -10.666   9.971  70.155  1.00  0.00    -0.307 A  
HETATM   17 CL   UNL     1     -12.235  10.596  69.794  1.00  0.00    -0.350 Cl 
ENDBRANCH   4  11
ENDBRANCH   2   4
TORSDOF 2
ENDMDL
MODEL      133
REMARK 921   NORMALIZED FREE ENERGY PREDICTED BY IDOCK:   -3.14 KCAL/MOL
REMARK 922        TOTAL FREE ENERGY PREDICTED BY IDOCK:   -3.77 KCAL/MOL
REMARK 923 INTER-LIGAND FREE ENERGY PREDICTED BY IDOCK:   -3.43 KCAL/MOL
REMARK 924 INTRA-LIGAND FREE ENERGY PREDICTED BY IDOCK:   -0.33 KCAL/MOL
REMARK 927      BINDING AFFINITY PREDICTED BY RF-SCORE:    0.00 PKD
ROOT
HETATM    1  C   UNL     1      -9.563   3.862  70.449  1.00  0.00    -0.196 C  
HETATM    2  N   UNL     1     -10.373   4.873  71.099  1.00  0.00    -0.189 NA 
HETATM    3  H   UNL     1     -11.390   4.811  71.122  1.00  0.00     0.000 HD 
ENDROOT
BRANCH   2   4
HETATM    4  C   UNL     1      -9.646   6.010  71.734  1.00  0.00    -0.151 C  
HETATM    5  C   UNL     1      -8.124   5.903  71.416  1.00  0.00    -0.115 C  
HETATM    6  O   UNL     1     -10.228   4.717  73.780  1.00  0.00    -0.158 OA 
HETATM    7  C   UNL     1      -9.668   5.700  73.287  1.00  0.00    -0.151 C  
HETATM    8  C   UNL     1      -7.226   6.810  72.274  1.00  0.00    -0.086 C  
HETATM    9  C   UNL     1      -8.865   6.631  74.169  1.00  0.00    -0.178 C  
HETATM   10  C   UNL     1      -7.403   6.547  73.766  1.00  0.00    -0.084 C  
BRANCH   4  11
HETATM   11  C   UNL     1     -10.421   7.321  71.452  1.00  0.00    -0.219 A  
HETATM   12  C   UNL     1     -12.395   8.675  72.099  1.00  0.00    -0.452 A  
HETATM   13  C   UNL     1     -10.975   9.427  70.324  1.00  0.00    -0.305 A  
HETATM   14  C   UNL     1     -11.575   7.552  72.251  1.00  0.00    -0.354 A  
HETATM   15  C   UNL     1     -12.082   9.629  71.143  1.00  0.00    -0.448 A  
HETATM   16  C   UNL     1     -10.171   8.278  70.449  1.00  0.00    -0.201 A  
HETATM   17 CL   UNL     1      -8.964   8.146  69.219  1.00  0.00    -0.147 Cl 
ENDBRANCH   4  11
ENDBRANCH   2   4
TORSDOF 2
ENDMDL
MODEL      134
REMARK 921   NORMALIZED FREE ENERGY PREDICTED BY IDOCK:   -3.14 KCAL/MOL
REMARK 922        TOTAL FREE ENERGY PREDICTED BY IDOCK:   -3.76 KCAL/MOL
REMARK 923 INTER-LIGAND FREE ENERGY PREDICTED BY IDOCK:   -3.69 KCAL/MOL
REMARK 924 INTRA-LIGAND FREE ENERGY PREDICTED BY IDOCK:   -0.07 KCAL/MOL
REMARK 927      BINDING AFFINITY PREDICTED BY RF-SCORE:    0.00 PKD
ROOT
HETATM    1  C   UNL     1     -10.768  13.220  64.621  1.00  0.00    -0.400 C  
HETATM    2  N   UNL     1      -9.741  12.884  65.586  1.00  0.00    -0.444 NA 
HETATM    3  H   UNL     1      -8.786  12.669  65.298  1.00  0.00     0.000 HD 
ENDROOT
BRANCH   2   4
HETATM    4  C   UNL     1     -10.146  12.869  67.021  1.00  0.00    -0.245 C  
HETATM    5  C   UNL     1     -11.680  12.615  67.131  1.00  0.00    -0.438 C  
HETATM    6  O   UNL     1      -9.654  15.297  66.772  1.00  0.00    -0.223 OA 
HETATM    7  C   UNL     1     -10.038  14.376  67.498  1.00  0.00    -0.232 C  
HETATM    8  C   UNL     1     -12.278  12.904  68.518  1.00  0.00    -0.003 C  
HETATM    9  C   UNL     1     -10.538  14.675  68.894  1.00  0.00    -0.253 C  
HETATM   10  C   UNL     1     -12.016  14.337  68.969  1.00  0.00    -0.360 C  
BRANCH   4  11
HETATM   11  C   UNL     1      -9.143  11.997  67.816  1.00  0.00    -0.187 A  
HETATM   12  C   UNL     1      -8.911   9.986  69.249  1.00  0.00    -0.186 A  
HETATM   13  C   UNL     1      -6.990  11.339  68.790  1.00  0.00    -0.091 A  
HETATM   14  C   UNL     1      -9.683  10.855  68.471  1.00  0.00    -0.183 A  
HETATM   15  C   UNL     1      -7.552  10.218  69.393  1.00  0.00    -0.137 A  
HETATM   16  C   UNL     1      -7.772  12.237  68.038  1.00  0.00    -0.132 A  
HETATM   17 CL   UNL     1      -6.908  13.645  67.533  1.00  0.00    -0.180 Cl 
ENDBRANCH   4  11
ENDBRANCH   2   4
TORSDOF 2
ENDMDL
MODEL      135
REMARK 921   NORMALIZED FREE ENERGY PREDICTED BY IDOCK:   -3.13 KCAL/MOL
REMARK 922        TOTAL FREE ENERGY PREDICTED BY IDOCK:   -3.75 KCAL/MOL
REMARK 923 INTER-LIGAND FREE ENERGY PREDICTED BY IDOCK:   -3.42 KCAL/MOL
REMARK 924 INTRA-LIGAND FREE ENERGY PREDICTED BY IDOCK:   -0.33 KCAL/MOL
REMARK 927      BINDING AFFINITY PREDICTED BY RF-SCORE:    0.00 PKD
ROOT
HETATM    1  C   UNL     1      -6.317   7.852  70.259  1.00  0.00    -0.037 C  
HETATM    2  N   UNL     1      -7.258   8.004  71.350  1.00  0.00    -0.064 NA 
HETATM    3  H   UNL     1      -6.946   8.132  72.312  1.00  0.00     0.000 HD 
ENDROOT
BRANCH   2   4
HETATM    4  C   UNL     1      -8.706   7.966  70.997  1.00  0.00    -0.133 C  
HETATM    5  C   UNL     1      -9.078   9.227  70.162  1.00  0.00    -0.248 C  
HETATM    6  O   UNL     1      -8.902   8.415  73.438  1.00  0.00    -0.253 OA 
HETATM    7  C   UNL     1      -9.471   8.247  72.356  1.00  0.00    -0.287 C  
HETATM    8  C   UNL     1     -10.588   9.479  70.020  1.00  0.00    -0.280 C  
HETATM    9  C   UNL     1     -10.972   8.410  72.260  1.00  0.00    -0.431 C  
HETATM   10  C   UNL     1     -11.279   9.604  71.374  1.00  0.00    -0.426 C  
BRANCH   4  11
HETATM   11  C   UNL     1      -9.060   6.547  70.485  1.00  0.00    -0.152 A  
HETATM   12  C   UNL     1      -9.389   4.183  71.158  1.00  0.00    -0.219 A  
HETATM   13  C   UNL     1      -9.580   4.794  68.850  1.00  0.00    -0.229 A  
HETATM   14  C   UNL     1      -9.111   5.519  71.467  1.00  0.00    -0.153 A  
HETATM   15  C   UNL     1      -9.645   3.822  69.844  1.00  0.00    -0.255 A  
HETATM   16  C   UNL     1      -9.261   6.131  69.154  1.00  0.00    -0.127 A  
HETATM   17 CL   UNL     1      -9.061   7.124  67.754  1.00  0.00    -0.128 Cl 
ENDBRANCH   4  11
ENDBRANCH   2   4
TORSDOF 2
ENDMDL
MODEL      136
REMARK 921   NORMALIZED FREE ENERGY PREDICTED BY IDOCK:   -3.13 KCAL/MOL
REMARK 922        TOTAL FREE ENERGY PREDICTED BY IDOCK:   -3.74 KCAL/MOL
REMARK 923 INTER-LIGAND FREE ENERGY PREDICTED BY IDOCK:   -3.67 KCAL/MOL
REMARK 924 INTRA-LIGAND FREE ENERGY PREDICTED BY IDOCK:   -0.07 KCAL/MOL
REMARK 927      BINDING AFFINITY PREDICTED BY RF-SCORE:    0.00 PKD
ROOT
HETATM    1  C   UNL     1      -6.239  10.123  65.100  1.00  0.00    -0.121 C  
HETATM    2  N   UNL     1      -7.474  10.857  64.912  1.00  0.00    -0.330 NA 
HETATM    3  H   UNL     1      -7.648  11.403  64.068  1.00  0.00     0.000 HD 
ENDROOT
BRANCH   2   4
HETATM    4  C   UNL     1      -8.477  10.777  66.012  1.00  0.00    -0.169 C  
HETATM    5  C   UNL     1      -7.760  10.449  67.355  1.00  0.00    -0.095 C  
HETATM    6  O   UNL     1      -9.070   8.698  64.779  1.00  0.00    -0.001 OA 
HETATM    7  C   UNL     1      -9.279   9.438  65.744  1.00  0.00    -0.219 C  
HETATM    8  C   UNL     1      -8.699  10.013  68.492  1.00  0.00    -0.123 C  
HETATM    9  C   UNL     1     -10.277   9.030  66.805  1.00  0.00    -0.341 C  
HETATM   10  C   UNL     1      -9.537   8.798  68.110  1.00  0.00    -0.162 C  
BRANCH   4  11
HETATM   11  C   UNL     1      -9.436  11.989  65.905  1.00  0.00    -0.207 A  
HETATM   12  C   UNL     1     -10.308  13.983  67.095  1.00  0.00    -0.265 A  
HETATM   13  C   UNL     1     -11.145  13.446  64.917  1.00  0.00    -0.348 A  
HETATM   14  C   UNL     1      -9.474  12.862  67.028  1.00  0.00    -0.235 A  
HETATM   15  C   UNL     1     -11.133  14.288  66.025  1.00  0.00    -0.319 A  
HETATM   16  C   UNL     1     -10.335  12.295  64.864  1.00  0.00    -0.290 A  
HETATM   17 CL   UNL     1     -10.639  11.304  63.482  1.00  0.00    -0.446 Cl 
ENDBRANCH   4  11
ENDBRANCH   2   4
TORSDOF 2
ENDMDL
MODEL      137
REMARK 921   NORMALIZED FREE ENERGY PREDICTED BY IDOCK:   -3.11 KCAL/MOL
REMARK 922        TOTAL FREE ENERGY PREDICTED BY IDOCK:   -3.73 KCAL/MOL
REMARK 923 INTER-LIGAND FREE ENERGY PREDICTED BY IDOCK:   -4.15 KCAL/MOL
REMARK 924 INTRA-LIGAND FREE ENERGY PREDICTED BY IDOCK:    0.42 KCAL/MOL
REMARK 927      BINDING AFFINITY PREDICTED BY RF-SCORE:    0.00 PKD
ROOT
HETATM    1  C   UNL     1      -7.998   7.160  69.917  1.00  0.00    -0.122 C  
HETATM    2  N   UNL     1      -8.882   7.441  71.031  1.00  0.00    -0.143 NA 
HETATM    3  H   UNL     1      -8.619   7.221  71.991  1.00  0.00     0.000 HD 
ENDROOT
BRANCH   2   4
HETATM    4  C   UNL     1     -10.194   8.069  70.705  1.00  0.00    -0.196 C  
HETATM    5  C   UNL     1     -10.505   9.201  71.730  1.00  0.00    -0.361 C  
HETATM    6  O   UNL     1     -11.001   5.864  71.531  1.00  0.00    -0.259 OA 
HETATM    7  C   UNL     1     -11.281   6.983  71.092  1.00  0.00    -0.270 C  
HETATM    8  C   UNL     1     -11.959   9.700  71.712  1.00  0.00    -0.421 C  
HETATM    9  C   UNL     1     -12.727   7.417  70.998  1.00  0.00    -0.247 C  
HETATM   10  C   UNL     1     -12.955   8.571  71.958  1.00  0.00    -0.406 C  
BRANCH   4  11
HETATM   11  C   UNL     1     -10.253   8.345  69.182  1.00  0.00    -0.217 A  
HETATM   12  C   UNL     1     -10.183  10.118  67.449  1.00  0.00    -0.267 A  
HETATM   13  C   UNL     1     -10.519   7.839  66.796  1.00  0.00    -0.318 A  
HETATM   14  C   UNL     1     -10.123   9.706  68.784  1.00  0.00    -0.193 A  
HETATM   15  C   UNL     1     -10.361   9.177  66.448  1.00  0.00    -0.235 A  
HETATM   16  C   UNL     1     -10.498   7.426  68.142  1.00  0.00    -0.193 A  
HETATM   17 CL   UNL     1     -10.889   5.757  68.355  1.00  0.00    -0.297 Cl 
ENDBRANCH   4  11
ENDBRANCH   2   4
TORSDOF 2
ENDMDL
MODEL      138
REMARK 921   NORMALIZED FREE ENERGY PREDICTED BY IDOCK:   -3.08 KCAL/MOL
REMARK 922        TOTAL FREE ENERGY PREDICTED BY IDOCK:   -3.69 KCAL/MOL
REMARK 923 INTER-LIGAND FREE ENERGY PREDICTED BY IDOCK:   -3.69 KCAL/MOL
REMARK 924 INTRA-LIGAND FREE ENERGY PREDICTED BY IDOCK:   -0.01 KCAL/MOL
REMARK 927      BINDING AFFINITY PREDICTED BY RF-SCORE:    0.00 PKD
ROOT
HETATM    1  C   UNL     1     -10.344  12.315  68.863  1.00  0.00    -0.059 C  
HETATM    2  N   UNL     1     -10.770  11.146  69.607  1.00  0.00    -0.447 NA 
HETATM    3  H   UNL     1     -11.665  11.120  70.095  1.00  0.00     0.000 HD 
ENDROOT
BRANCH   2   4
HETATM    4  C   UNL     1      -9.836   9.984  69.625  1.00  0.00    -0.235 C  
HETATM    5  C   UNL     1      -8.420  10.440  69.160  1.00  0.00    -0.168 C  
HETATM    6  O   UNL     1     -11.250   9.330  67.683  1.00  0.00     0.019 OA 
HETATM    7  C   UNL     1     -10.289   9.071  68.412  1.00  0.00    -0.205 C  
HETATM    8  C   UNL     1      -7.458   9.291  68.816  1.00  0.00    -0.076 C  
HETATM    9  C   UNL     1      -9.410   7.879  68.105  1.00  0.00    -0.146 C  
HETATM   10  C   UNL     1      -8.023   8.375  67.735  1.00  0.00    -0.111 C  
BRANCH   4  11
HETATM   11  C   UNL     1     -10.020   9.214  70.955  1.00  0.00    -0.367 A  
HETATM   12  C   UNL     1      -8.834   7.991  72.758  1.00  0.00    -0.277 A  
HETATM   13  C   UNL     1     -11.222   8.156  72.814  1.00  0.00    -0.407 A  
HETATM   14  C   UNL     1      -8.831   8.728  71.570  1.00  0.00    -0.295 A  
HETATM   15  C   UNL     1     -10.036   7.721  73.395  1.00  0.00    -0.348 A  
HETATM   16  C   UNL     1     -11.225   8.865  71.597  1.00  0.00    -0.345 A  
HETATM   17 CL   UNL     1     -12.810   9.149  70.970  1.00  0.00    -0.220 Cl 
ENDBRANCH   4  11
ENDBRANCH   2   4
TORSDOF 2
ENDMDL
MODEL      139
REMARK 921   NORMALIZED FREE ENERGY PREDICTED BY IDOCK:   -3.08 KCAL/MOL
REMARK 922        TOTAL FREE ENERGY PREDICTED BY IDOCK:   -3.69 KCAL/MOL
REMARK 923 INTER-LIGAND FREE ENERGY PREDICTED BY IDOCK:   -4.65 KCAL/MOL
REMARK 924 INTRA-LIGAND FREE ENERGY PREDICTED BY IDOCK:    0.96 KCAL/MOL
REMARK 927      BINDING AFFINITY PREDICTED BY RF-SCORE:    0.00 PKD
ROOT
HETATM    1  C   UNL     1      -7.752  14.527  68.198  1.00  0.00    -0.128 C  
HETATM    2  N   UNL     1      -8.513  14.836  69.392  1.00  0.00    -0.397 NA 
HETATM    3  H   UNL     1      -8.080  14.843  70.316  1.00  0.00     0.000 HD 
ENDROOT
BRANCH   2   4
HETATM    4  C   UNL     1      -9.960  15.144  69.205  1.00  0.00    -0.242 C  
HETATM    5  C   UNL     1     -10.619  15.431  70.588  1.00  0.00    -0.165 C  
HETATM    6  O   UNL     1      -9.999  12.711  68.679  1.00  0.00    -0.194 OA 
HETATM    7  C   UNL     1     -10.630  13.763  68.814  1.00  0.00    -0.239 C  
HETATM    8  C   UNL     1     -12.157  15.433  70.575  1.00  0.00    -0.411 C  
HETATM    9  C   UNL     1     -12.139  13.756  68.706  1.00  0.00    -0.344 C  
HETATM   10  C   UNL     1     -12.729  14.117  70.058  1.00  0.00    -0.155 C  
BRANCH   4  11
HETATM   11  C   UNL     1     -10.111  16.148  68.036  1.00  0.00    -0.242 A  
HETATM   12  C   UNL     1     -10.497  18.529  67.458  1.00  0.00    -0.453 A  
HETATM   13  C   UNL     1     -10.295  16.905  65.710  1.00  0.00    -0.298 A  
HETATM   14  C   UNL     1     -10.315  17.509  68.397  1.00  0.00    -0.378 A  
HETATM   15  C   UNL     1     -10.466  18.228  66.105  1.00  0.00    -0.403 A  
HETATM   16  C   UNL     1     -10.151  15.871  66.655  1.00  0.00    -0.279 A  
HETATM   17 CL   UNL     1     -10.131  14.294  65.950  1.00  0.00    -0.327 Cl 
ENDBRANCH   4  11
ENDBRANCH   2   4
TORSDOF 2
ENDMDL
MODEL      140
REMARK 921   NORMALIZED FREE ENERGY PREDICTED BY IDOCK:   -3.07 KCAL/MOL
REMARK 922        TOTAL FREE ENERGY PREDICTED BY IDOCK:   -3.68 KCAL/MOL
REMARK 923 INTER-LIGAND FREE ENERGY PREDICTED BY IDOCK:   -3.43 KCAL/MOL
REMARK 924 INTRA-LIGAND FREE ENERGY PREDICTED BY IDOCK:   -0.25 KCAL/MOL
REMARK 927      BINDING AFFINITY PREDICTED BY RF-SCORE:    0.00 PKD
ROOT
HETATM    1  C   UNL     1     -10.101   9.724  65.840  1.00  0.00    -0.243 C  
HETATM    2  N   UNL     1      -9.361   9.622  67.081  1.00  0.00    -0.137 NA 
HETATM    3  H   UNL     1      -8.975   8.734  67.403  1.00  0.00     0.000 HD 
ENDROOT
BRANCH   2   4
HETATM    4  C   UNL     1      -9.191  10.878  67.866  1.00  0.00    -0.152 C  
HETATM    5  C   UNL     1      -8.967  12.077  66.898  1.00  0.00    -0.199 C  
HETATM    6  O   UNL     1      -7.037   9.762  68.427  1.00  0.00    -0.072 OA 
HETATM    7  C   UNL     1      -7.767  10.750  68.549  1.00  0.00    -0.118 C  
HETATM    8  C   UNL     1      -8.451  13.358  67.574  1.00  0.00    -0.192 C  
HETATM    9  C   UNL     1      -7.270  11.966  69.299  1.00  0.00     0.039 C  
HETATM   10  C   UNL     1      -7.144  13.125  68.325  1.00  0.00    -0.105 C  
BRANCH   4  11
HETATM   11  C   UNL     1     -10.288  10.939  68.958  1.00  0.00    -0.230 A  
HETATM   12  C   UNL     1     -12.156  12.294  69.866  1.00  0.00    -0.319 A  
HETATM   13  C   UNL     1     -11.554  10.240  70.939  1.00  0.00    -0.454 A  
HETATM   14  C   UNL     1     -11.137  12.080  68.932  1.00  0.00    -0.298 A  
HETATM   15  C   UNL     1     -12.379  11.357  70.864  1.00  0.00    -0.483 A  
HETATM   16  C   UNL     1     -10.503  10.042  70.024  1.00  0.00    -0.287 A  
HETATM   17 CL   UNL     1      -9.500   8.689  70.410  1.00  0.00    -0.178 Cl 
ENDBRANCH   4  11
ENDBRANCH   2   4
TORSDOF 2
ENDMDL
MODEL      141
REMARK 921   NORMALIZED FREE ENERGY PREDICTED BY IDOCK:   -3.05 KCAL/MOL
REMARK 922        TOTAL FREE ENERGY PREDICTED BY IDOCK:   -3.66 KCAL/MOL
REMARK 923 INTER-LIGAND FREE ENERGY PREDICTED BY IDOCK:   -4.25 KCAL/MOL
REMARK 924 INTRA-LIGAND FREE ENERGY PREDICTED BY IDOCK:    0.59 KCAL/MOL
REMARK 927      BINDING AFFINITY PREDICTED BY RF-SCORE:    0.00 PKD
ROOT
HETATM    1  C   UNL     1      -9.743  20.408  67.127  1.00  0.00    -0.460 C  
HETATM    2  N   UNL     1     -10.260  19.080  66.862  1.00  0.00    -0.360 NA 
HETATM    3  H   UNL     1     -11.232  18.928  66.594  1.00  0.00     0.000 HD 
ENDROOT
BRANCH   2   4
HETATM    4  C   UNL     1      -9.301  17.947  67.000  1.00  0.00    -0.267 C  
HETATM    5  C   UNL     1      -9.745  16.767  66.084  1.00  0.00    -0.315 C  
HETATM    6  O   UNL     1     -10.399  17.814  69.230  1.00  0.00    -0.318 OA 
HETATM    7  C   UNL     1      -9.572  17.348  68.441  1.00  0.00    -0.292 C  
HETATM    8  C   UNL     1      -9.044  15.430  66.376  1.00  0.00    -0.350 C  
HETATM    9  C   UNL     1      -8.826  16.080  68.792  1.00  0.00    -0.227 C  
HETATM   10  C   UNL     1      -9.237  14.986  67.822  1.00  0.00    -0.181 C  
BRANCH   4  11
HETATM   11  C   UNL     1      -7.856  18.501  66.928  1.00  0.00    -0.245 A  
HETATM   12  C   UNL     1      -5.828  18.667  65.511  1.00  0.00    -0.252 A  
HETATM   13  C   UNL     1      -5.810  19.600  67.717  1.00  0.00    -0.211 A  
HETATM   14  C   UNL     1      -7.148  18.255  65.719  1.00  0.00    -0.260 A  
HETATM   15  C   UNL     1      -5.161  19.362  66.509  1.00  0.00    -0.164 A  
HETATM   16  C   UNL     1      -7.126  19.152  67.942  1.00  0.00    -0.231 A  
HETATM   17 CL   UNL     1      -7.667  19.399  69.564  1.00  0.00    -0.111 Cl 
ENDBRANCH   4  11
ENDBRANCH   2   4
TORSDOF 2
ENDMDL
MODEL      142
REMARK 921   NORMALIZED FREE ENERGY PREDICTED BY IDOCK:   -3.04 KCAL/MOL
REMARK 922        TOTAL FREE ENERGY PREDICTED BY IDOCK:   -3.65 KCAL/MOL
REMARK 923 INTER-LIGAND FREE ENERGY PREDICTED BY IDOCK:   -4.42 KCAL/MOL
REMARK 924 INTRA-LIGAND FREE ENERGY PREDICTED BY IDOCK:    0.77 KCAL/MOL
REMARK 927      BINDING AFFINITY PREDICTED BY RF-SCORE:    0.00 PKD
ROOT
HETATM    1  C   UNL     1     -10.484  14.486  64.852  1.00  0.00    -0.409 C  
HETATM    2  N   UNL     1      -9.904  13.218  65.245  1.00  0.00    -0.513 NA 
HETATM    3  H   UNL     1      -9.654  12.507  64.557  1.00  0.00     0.000 HD 
ENDROOT
BRANCH   2   4
HETATM    4  C   UNL     1      -9.688  13.002  66.704  1.00  0.00    -0.256 C  
HETATM    5  C   UNL     1      -8.691  11.824  66.920  1.00  0.00    -0.189 C  
HETATM    6  O   UNL     1     -12.028  12.173  66.520  1.00  0.00    -0.618 OA 
HETATM    7  C   UNL     1     -11.042  12.372  67.234  1.00  0.00    -0.281 C  
HETATM    8  C   UNL     1      -8.639  11.284  68.359  1.00  0.00    -0.155 C  
HETATM    9  C   UNL     1     -11.050  11.913  68.676  1.00  0.00    -0.295 C  
HETATM   10  C   UNL     1     -10.007  10.822  68.848  1.00  0.00    -0.213 C  
BRANCH   4  11
HETATM   11  C   UNL     1      -9.449  14.373  67.384  1.00  0.00    -0.207 A  
HETATM   12  C   UNL     1      -7.712  15.969  68.149  1.00  0.00    -0.136 A  
HETATM   13  C   UNL     1     -10.024  16.463  68.533  1.00  0.00    -0.239 A  
HETATM   14  C   UNL     1      -8.091  14.773  67.532  1.00  0.00    -0.199 A  
HETATM   15  C   UNL     1      -8.685  16.829  68.634  1.00  0.00    -0.255 A  
HETATM   16  C   UNL     1     -10.406  15.241  67.947  1.00  0.00    -0.246 A  
HETATM   17 CL   UNL     1     -12.096  14.910  68.086  1.00  0.00    -0.213 Cl 
ENDBRANCH   4  11
ENDBRANCH   2   4
TORSDOF 2
ENDMDL
MODEL      143
REMARK 921   NORMALIZED FREE ENERGY PREDICTED BY IDOCK:   -3.04 KCAL/MOL
REMARK 922        TOTAL FREE ENERGY PREDICTED BY IDOCK:   -3.64 KCAL/MOL
REMARK 923 INTER-LIGAND FREE ENERGY PREDICTED BY IDOCK:   -3.33 KCAL/MOL
REMARK 924 INTRA-LIGAND FREE ENERGY PREDICTED BY IDOCK:   -0.31 KCAL/MOL
REMARK 927      BINDING AFFINITY PREDICTED BY RF-SCORE:    0.00 PKD
ROOT
HETATM    1  C   UNL     1      -9.414   4.540  69.837  1.00  0.00    -0.175 C  
HETATM    2  N   UNL     1     -10.042   5.657  69.159  1.00  0.00    -0.188 NA 
HETATM    3  H   UNL     1     -10.627   5.522  68.334  1.00  0.00     0.000 HD 
ENDROOT
BRANCH   2   4
HETATM    4  C   UNL     1      -9.792   7.013  69.726  1.00  0.00    -0.169 C  
HETATM    5  C   UNL     1      -8.850   6.901  70.962  1.00  0.00    -0.140 C  
HETATM    6  O   UNL     1     -12.177   6.738  70.386  1.00  0.00    -0.324 OA 
HETATM    7  C   UNL     1     -11.159   7.437  70.405  1.00  0.00    -0.265 C  
HETATM    8  C   UNL     1      -8.781   8.168  71.831  1.00  0.00    -0.206 C  
HETATM    9  C   UNL     1     -11.145   8.727  71.194  1.00  0.00    -0.340 C  
HETATM   10  C   UNL     1     -10.155   8.591  72.338  1.00  0.00    -0.365 C  
BRANCH   4  11
HETATM   11  C   UNL     1      -9.462   7.987  68.568  1.00  0.00    -0.143 A  
HETATM   12  C   UNL     1     -10.398   9.172  66.600  1.00  0.00    -0.289 A  
HETATM   13  C   UNL     1      -8.072   9.401  67.123  1.00  0.00    -0.102 A  
HETATM   14  C   UNL     1     -10.542   8.327  67.705  1.00  0.00    -0.264 A  
HETATM   15  C   UNL     1      -9.160   9.728  66.319  1.00  0.00    -0.192 A  
HETATM   16  C   UNL     1      -8.207   8.520  68.213  1.00  0.00    -0.123 A  
HETATM   17 CL   UNL     1      -6.702   8.117  68.961  1.00  0.00    -0.048 Cl 
ENDBRANCH   4  11
ENDBRANCH   2   4
TORSDOF 2
ENDMDL
MODEL      144
REMARK 921   NORMALIZED FREE ENERGY PREDICTED BY IDOCK:   -3.01 KCAL/MOL
REMARK 922        TOTAL FREE ENERGY PREDICTED BY IDOCK:   -3.62 KCAL/MOL
REMARK 923 INTER-LIGAND FREE ENERGY PREDICTED BY IDOCK:   -3.36 KCAL/MOL
REMARK 924 INTRA-LIGAND FREE ENERGY PREDICTED BY IDOCK:   -0.26 KCAL/MOL
REMARK 927      BINDING AFFINITY PREDICTED BY RF-SCORE:    0.00 PKD
ROOT
HETATM    1  C   UNL     1      -9.152   8.860  65.976  1.00  0.00    -0.214 C  
HETATM    2  N   UNL     1      -9.308  10.295  66.103  1.00  0.00    -0.163 NA 
HETATM    3  H   UNL     1      -9.157  10.922  65.313  1.00  0.00     0.000 HD 
ENDROOT
BRANCH   2   4
HETATM    4  C   UNL     1      -9.702  10.812  67.445  1.00  0.00    -0.171 C  
HETATM    5  C   UNL     1     -11.158  10.367  67.774  1.00  0.00    -0.365 C  
HETATM    6  O   UNL     1      -9.683  12.957  66.181  1.00  0.00    -0.266 OA 
HETATM    7  C   UNL     1      -9.883  12.374  67.250  1.00  0.00    -0.207 C  
HETATM    8  C   UNL     1     -11.799  11.101  68.963  1.00  0.00    -0.418 C  
HETATM    9  C   UNL     1     -10.429  13.139  68.436  1.00  0.00    -0.261 C  
HETATM   10  C   UNL     1     -11.816  12.613  68.762  1.00  0.00    -0.341 C  
BRANCH   4  11
HETATM   11  C   UNL     1      -8.549  10.542  68.444  1.00  0.00    -0.132 A  
HETATM   12  C   UNL     1      -7.953   9.444  70.586  1.00  0.00    -0.189 A  
HETATM   13  C   UNL     1      -6.296  10.702  69.400  1.00  0.00    -0.060 A  
HETATM   14  C   UNL     1      -8.876   9.752  69.582  1.00  0.00    -0.224 A  
HETATM   15  C   UNL     1      -6.649   9.905  70.484  1.00  0.00    -0.120 A  
HETATM   16  C   UNL     1      -7.234  11.046  68.407  1.00  0.00    -0.085 A  
HETATM   17 CL   UNL     1      -6.630  12.183  67.256  1.00  0.00    -0.143 Cl 
ENDBRANCH   4  11
ENDBRANCH   2   4
TORSDOF 2
ENDMDL
MODEL      145
REMARK 921   NORMALIZED FREE ENERGY PREDICTED BY IDOCK:   -2.99 KCAL/MOL
REMARK 922        TOTAL FREE ENERGY PREDICTED BY IDOCK:   -3.60 KCAL/MOL
REMARK 923 INTER-LIGAND FREE ENERGY PREDICTED BY IDOCK:   -3.76 KCAL/MOL
REMARK 924 INTRA-LIGAND FREE ENERGY PREDICTED BY IDOCK:    0.16 KCAL/MOL
REMARK 927      BINDING AFFINITY PREDICTED BY RF-SCORE:    0.00 PKD
ROOT
HETATM    1  C   UNL     1      -7.087  10.612  65.735  1.00  0.00    -0.096 C  
HETATM    2  N   UNL     1      -7.942  11.758  65.971  1.00  0.00    -0.338 NA 
HETATM    3  H   UNL     1      -7.561  12.661  66.252  1.00  0.00     0.000 HD 
ENDROOT
BRANCH   2   4
HETATM    4  C   UNL     1      -9.407  11.553  65.783  1.00  0.00    -0.221 C  
HETATM    5  C   UNL     1      -9.684  11.029  64.342  1.00  0.00    -0.330 C  
HETATM    6  O   UNL     1      -9.357  14.041  65.840  1.00  0.00    -0.137 OA 
HETATM    7  C   UNL     1     -10.024  13.010  65.716  1.00  0.00    -0.254 C  
HETATM    8  C   UNL     1     -11.158  11.093  63.910  1.00  0.00    -0.168 C  
HETATM    9  C   UNL     1     -11.496  13.101  65.381  1.00  0.00    -0.331 C  
HETATM   10  C   UNL     1     -11.722  12.507  64.001  1.00  0.00    -0.499 C  
BRANCH   4  11
HETATM   11  C   UNL     1      -9.970  10.805  67.017  1.00  0.00    -0.236 A  
HETATM   12  C   UNL     1     -10.730   8.602  67.866  1.00  0.00    -0.158 A  
HETATM   13  C   UNL     1     -10.857  10.525  69.287  1.00  0.00    -0.284 A  
HETATM   14  C   UNL     1     -10.199   9.409  66.855  1.00  0.00    -0.318 A  
HETATM   15  C   UNL     1     -11.042   9.159  69.096  1.00  0.00     0.036 A  
HETATM   16  C   UNL     1     -10.359  11.347  68.257  1.00  0.00    -0.194 A  
HETATM   17 CL   UNL     1     -10.379  13.029  68.651  1.00  0.00    -0.231 Cl 
ENDBRANCH   4  11
ENDBRANCH   2   4
TORSDOF 2
ENDMDL
MODEL      146
REMARK 921   NORMALIZED FREE ENERGY PREDICTED BY IDOCK:   -2.99 KCAL/MOL
REMARK 922        TOTAL FREE ENERGY PREDICTED BY IDOCK:   -3.60 KCAL/MOL
REMARK 923 INTER-LIGAND FREE ENERGY PREDICTED BY IDOCK:   -3.92 KCAL/MOL
REMARK 924 INTRA-LIGAND FREE ENERGY PREDICTED BY IDOCK:    0.32 KCAL/MOL
REMARK 927      BINDING AFFINITY PREDICTED BY RF-SCORE:    0.00 PKD
ROOT
HETATM    1  C   UNL     1      -7.473  14.884  69.645  1.00  0.00    -0.126 C  
HETATM    2  N   UNL     1      -8.189  13.767  69.063  1.00  0.00    -0.345 NA 
HETATM    3  H   UNL     1      -7.812  12.820  69.084  1.00  0.00     0.000 HD 
ENDROOT
BRANCH   2   4
HETATM    4  C   UNL     1      -9.506  14.070  68.432  1.00  0.00    -0.213 C  
HETATM    5  C   UNL     1     -10.627  13.247  69.133  1.00  0.00    -0.011 C  
HETATM    6  O   UNL     1      -8.464  12.772  66.580  1.00  0.00    -0.094 OA 
HETATM    7  C   UNL     1      -9.450  13.380  67.006  1.00  0.00    -0.247 C  
HETATM    8  C   UNL     1     -11.964  13.210  68.375  1.00  0.00    -0.324 C  
HETATM    9  C   UNL     1     -10.728  13.407  66.197  1.00  0.00    -0.288 C  
HETATM   10  C   UNL     1     -11.807  12.659  66.961  1.00  0.00    -0.415 C  
BRANCH   4  11
HETATM   11  C   UNL     1      -9.640  15.604  68.263  1.00  0.00    -0.200 A  
HETATM   12  C   UNL     1      -8.765  17.585  67.055  1.00  0.00    -0.254 A  
HETATM   13  C   UNL     1     -10.461  17.870  68.721  1.00  0.00    -0.217 A  
HETATM   14  C   UNL     1      -8.782  16.208  67.302  1.00  0.00    -0.202 A  
HETATM   15  C   UNL     1      -9.624  18.418  67.754  1.00  0.00    -0.300 A  
HETATM   16  C   UNL     1     -10.452  16.489  68.999  1.00  0.00    -0.303 A  
HETATM   17 CL   UNL     1     -11.435  16.055  70.352  1.00  0.00    -0.380 Cl 
ENDBRANCH   4  11
ENDBRANCH   2   4
TORSDOF 2
ENDMDL
MODEL      147
REMARK 921   NORMALIZED FREE ENERGY PREDICTED BY IDOCK:   -2.99 KCAL/MOL
REMARK 922        TOTAL FREE ENERGY PREDICTED BY IDOCK:   -3.59 KCAL/MOL
REMARK 923 INTER-LIGAND FREE ENERGY PREDICTED BY IDOCK:   -3.84 KCAL/MOL
REMARK 924 INTRA-LIGAND FREE ENERGY PREDICTED BY IDOCK:    0.25 KCAL/MOL
REMARK 927      BINDING AFFINITY PREDICTED BY RF-SCORE:    0.00 PKD
ROOT
HETATM    1  C   UNL     1     -10.885  17.504  65.282  1.00  0.00     0.125 C  
HETATM    2  N   UNL     1     -10.579  16.100  65.469  1.00  0.00    -0.388 NA 
HETATM    3  H   UNL     1     -10.857  15.396  64.786  1.00  0.00     0.000 HD 
ENDROOT
BRANCH   2   4
HETATM    4  C   UNL     1      -9.838  15.734  66.710  1.00  0.00    -0.245 C  
HETATM    5  C   UNL     1      -8.830  14.587  66.402  1.00  0.00    -0.068 C  
HETATM    6  O   UNL     1     -12.079  14.825  67.301  1.00  0.00    -0.307 OA 
HETATM    7  C   UNL     1     -10.898  14.989  67.621  1.00  0.00    -0.291 C  
HETATM    8  C   UNL     1      -8.248  13.894  67.645  1.00  0.00    -0.181 C  
HETATM    9  C   UNL     1     -10.371  14.373  68.898  1.00  0.00    -0.233 C  
HETATM   10  C   UNL     1      -9.337  13.319  68.544  1.00  0.00    -0.091 C  
BRANCH   4  11
HETATM   11  C   UNL     1      -9.366  17.031  67.413  1.00  0.00    -0.239 A  
HETATM   12  C   UNL     1     -10.046  18.851  68.954  1.00  0.00    -0.372 A  
HETATM   13  C   UNL     1      -7.864  18.889  67.969  1.00  0.00    -0.305 A  
HETATM   14  C   UNL     1     -10.312  17.660  68.271  1.00  0.00    -0.384 A  
HETATM   15  C   UNL     1      -8.807  19.458  68.819  1.00  0.00    -0.385 A  
HETATM   16  C   UNL     1      -8.143  17.711  67.250  1.00  0.00    -0.209 A  
HETATM   17 CL   UNL     1      -6.903  17.282  66.126  1.00  0.00    -0.273 Cl 
ENDBRANCH   4  11
ENDBRANCH   2   4
TORSDOF 2
ENDMDL
MODEL      148
REMARK 921   NORMALIZED FREE ENERGY PREDICTED BY IDOCK:   -2.99 KCAL/MOL
REMARK 922        TOTAL FREE ENERGY PREDICTED BY IDOCK:   -3.59 KCAL/MOL
REMARK 923 INTER-LIGAND FREE ENERGY PREDICTED BY IDOCK:   -3.53 KCAL/MOL
REMARK 924 INTRA-LIGAND FREE ENERGY PREDICTED BY IDOCK:   -0.06 KCAL/MOL
REMARK 927      BINDING AFFINITY PREDICTED BY RF-SCORE:    0.00 PKD
ROOT
HETATM    1  C   UNL     1      -8.065  10.225  69.313  1.00  0.00    -0.155 C  
HETATM    2  N   UNL     1      -8.424  11.366  68.494  1.00  0.00    -0.154 NA 
HETATM    3  H   UNL     1      -8.312  12.322  68.830  1.00  0.00     0.000 HD 
ENDROOT
BRANCH   2   4
HETATM    4  C   UNL     1      -8.967  11.074  67.137  1.00  0.00    -0.143 C  
HETATM    5  C   UNL     1      -9.487   9.606  67.083  1.00  0.00    -0.185 C  
HETATM    6  O   UNL     1      -6.542  11.187  66.582  1.00  0.00    -0.119 OA 
HETATM    7  C   UNL     1      -7.698  10.996  66.191  1.00  0.00    -0.102 C  
HETATM    8  C   UNL     1      -9.762   9.076  65.666  1.00  0.00    -0.178 C  
HETATM    9  C   UNL     1      -7.949  10.563  64.764  1.00  0.00    -0.046 C  
HETATM   10  C   UNL     1      -8.528   9.158  64.773  1.00  0.00    -0.194 C  
BRANCH   4  11
HETATM   11  C   UNL     1      -9.873  12.250  66.696  1.00  0.00    -0.230 A  
HETATM   12  C   UNL     1     -12.033  12.842  65.630  1.00  0.00    -0.503 A  
HETATM   13  C   UNL     1     -10.526  14.580  66.293  1.00  0.00    -0.303 A  
HETATM   14  C   UNL     1     -11.118  11.896  66.104  1.00  0.00    -0.374 A  
HETATM   15  C   UNL     1     -11.744  14.193  65.744  1.00  0.00    -0.360 A  
HETATM   16  C   UNL     1      -9.586  13.629  66.735  1.00  0.00    -0.275 A  
HETATM   17 CL   UNL     1      -8.078  14.323  67.214  1.00  0.00    -0.210 Cl 
ENDBRANCH   4  11
ENDBRANCH   2   4
TORSDOF 2
ENDMDL
MODEL      149
REMARK 921   NORMALIZED FREE ENERGY PREDICTED BY IDOCK:   -2.98 KCAL/MOL
REMARK 922        TOTAL FREE ENERGY PREDICTED BY IDOCK:   -3.59 KCAL/MOL
REMARK 923 INTER-LIGAND FREE ENERGY PREDICTED BY IDOCK:   -3.63 KCAL/MOL
REMARK 924 INTRA-LIGAND FREE ENERGY PREDICTED BY IDOCK:    0.05 KCAL/MOL
REMARK 927      BINDING AFFINITY PREDICTED BY RF-SCORE:    0.00 PKD
ROOT
HETATM    1  C   UNL     1      -7.085  17.663  65.850  1.00  0.00    -0.215 C  
HETATM    2  N   UNL     1      -8.374  17.850  66.484  1.00  0.00    -0.258 NA 
HETATM    3  H   UNL     1      -9.012  18.591  66.193  1.00  0.00     0.000 HD 
ENDROOT
BRANCH   2   4
HETATM    4  C   UNL     1      -8.724  16.907  67.585  1.00  0.00    -0.209 C  
HETATM    5  C   UNL     1      -9.411  15.640  66.993  1.00  0.00    -0.236 C  
HETATM    6  O   UNL     1     -10.391  18.697  68.049  1.00  0.00    -0.366 OA 
HETATM    7  C   UNL     1      -9.930  17.593  68.351  1.00  0.00    -0.356 C  
HETATM    8  C   UNL     1     -10.115  14.749  68.030  1.00  0.00    -0.218 C  
HETATM    9  C   UNL     1     -10.586  16.774  69.440  1.00  0.00    -0.318 C  
HETATM   10  C   UNL     1     -11.170  15.515  68.822  1.00  0.00    -0.316 C  
BRANCH   4  11
HETATM   11  C   UNL     1      -7.510  16.774  68.536  1.00  0.00    -0.213 A  
HETATM   12  C   UNL     1      -5.990  18.017  70.052  1.00  0.00    -0.169 A  
HETATM   13  C   UNL     1      -5.641  15.677  69.685  1.00  0.00    -0.117 A  
HETATM   14  C   UNL     1      -7.087  17.968  69.186  1.00  0.00    -0.189 A  
HETATM   15  C   UNL     1      -5.275  16.859  70.319  1.00  0.00    -0.210 A  
HETATM   16  C   UNL     1      -6.720  15.633  68.782  1.00  0.00    -0.116 A  
HETATM   17 CL   UNL     1      -6.884  14.112  67.979  1.00  0.00    -0.127 Cl 
ENDBRANCH   4  11
ENDBRANCH   2   4
TORSDOF 2
ENDMDL
MODEL      150
REMARK 921   NORMALIZED FREE ENERGY PREDICTED BY IDOCK:   -2.97 KCAL/MOL
REMARK 922        TOTAL FREE ENERGY PREDICTED BY IDOCK:   -3.57 KCAL/MOL
REMARK 923 INTER-LIGAND FREE ENERGY PREDICTED BY IDOCK:   -3.26 KCAL/MOL
REMARK 924 INTRA-LIGAND FREE ENERGY PREDICTED BY IDOCK:   -0.31 KCAL/MOL
REMARK 927      BINDING AFFINITY PREDICTED BY RF-SCORE:    0.00 PKD
ROOT
HETATM    1  C   UNL     1     -11.017  10.150  69.224  1.00  0.00    -0.240 C  
HETATM    2  N   UNL     1     -11.048   8.709  69.072  1.00  0.00    -0.421 NA 
HETATM    3  H   UNL     1     -11.927   8.199  68.985  1.00  0.00     0.000 HD 
ENDROOT
BRANCH   2   4
HETATM    4  C   UNL     1      -9.732   8.008  69.049  1.00  0.00    -0.159 C  
HETATM    5  C   UNL     1      -8.583   9.051  68.911  1.00  0.00    -0.131 C  
HETATM    6  O   UNL     1     -10.590   7.320  66.815  1.00  0.00    -0.298 OA 
HETATM    7  C   UNL     1      -9.673   7.284  67.641  1.00  0.00    -0.142 C  
HETATM    8  C   UNL     1      -7.215   8.452  68.544  1.00  0.00    -0.081 C  
HETATM    9  C   UNL     1      -8.367   6.607  67.288  1.00  0.00    -0.120 C  
HETATM   10  C   UNL     1      -7.269   7.655  67.245  1.00  0.00    -0.090 C  
BRANCH   4  11
HETATM   11  C   UNL     1      -9.708   6.951  70.180  1.00  0.00    -0.175 A  
HETATM   12  C   UNL     1     -10.119   4.565  70.721  1.00  0.00    -0.233 A  
HETATM   13  C   UNL     1      -9.465   6.077  72.459  1.00  0.00    -0.153 A  
HETATM   14  C   UNL     1     -10.067   5.624  69.809  1.00  0.00    -0.286 A  
HETATM   15  C   UNL     1      -9.797   4.789  72.050  1.00  0.00    -0.234 A  
HETATM   16  C   UNL     1      -9.450   7.152  71.550  1.00  0.00    -0.157 A  
HETATM   17 CL   UNL     1      -9.188   8.685  72.304  1.00  0.00    -0.338 Cl 
ENDBRANCH   4  11
ENDBRANCH   2   4
TORSDOF 2
ENDMDL
MODEL      151
REMARK 921   NORMALIZED FREE ENERGY PREDICTED BY IDOCK:   -2.97 KCAL/MOL
REMARK 922        TOTAL FREE ENERGY PREDICTED BY IDOCK:   -3.57 KCAL/MOL
REMARK 923 INTER-LIGAND FREE ENERGY PREDICTED BY IDOCK:   -3.87 KCAL/MOL
REMARK 924 INTRA-LIGAND FREE ENERGY PREDICTED BY IDOCK:    0.30 KCAL/MOL
REMARK 927      BINDING AFFINITY PREDICTED BY RF-SCORE:    0.00 PKD
ROOT
HETATM    1  C   UNL     1      -7.482  11.441  68.366  1.00  0.00    -0.111 C  
HETATM    2  N   UNL     1      -8.242  10.931  69.489  1.00  0.00    -0.385 NA 
HETATM    3  H   UNL     1      -7.955  11.104  70.452  1.00  0.00     0.000 HD 
ENDROOT
BRANCH   2   4
HETATM    4  C   UNL     1      -9.466  10.142  69.169  1.00  0.00    -0.206 C  
HETATM    5  C   UNL     1     -10.251   9.834  70.479  1.00  0.00    -0.321 C  
HETATM    6  O   UNL     1      -7.741   8.402  68.725  1.00  0.00    -0.098 OA 
HETATM    7  C   UNL     1      -8.938   8.703  68.769  1.00  0.00    -0.138 C  
HETATM    8  C   UNL     1     -11.339   8.757  70.335  1.00  0.00    -0.213 C  
HETATM    9  C   UNL     1      -9.991   7.643  68.533  1.00  0.00    -0.190 C  
HETATM   10  C   UNL     1     -10.776   7.438  69.817  1.00  0.00    -0.252 C  
BRANCH   4  11
HETATM   11  C   UNL     1     -10.178  10.791  67.957  1.00  0.00    -0.203 A  
HETATM   12  C   UNL     1     -10.507  10.658  65.502  1.00  0.00    -0.246 A  
HETATM   13  C   UNL     1     -11.542  12.427  66.740  1.00  0.00    -0.444 A  
HETATM   14  C   UNL     1      -9.957  10.174  66.693  1.00  0.00    -0.272 A  
HETATM   15  C   UNL     1     -11.321  11.780  65.528  1.00  0.00    -0.283 A  
HETATM   16  C   UNL     1     -10.957  11.965  67.935  1.00  0.00    -0.222 A  
HETATM   17 CL   UNL     1     -11.218  13.018  69.280  1.00  0.00    -0.286 Cl 
ENDBRANCH   4  11
ENDBRANCH   2   4
TORSDOF 2
ENDMDL
MODEL      152
REMARK 921   NORMALIZED FREE ENERGY PREDICTED BY IDOCK:   -2.96 KCAL/MOL
REMARK 922        TOTAL FREE ENERGY PREDICTED BY IDOCK:   -3.56 KCAL/MOL
REMARK 923 INTER-LIGAND FREE ENERGY PREDICTED BY IDOCK:   -3.32 KCAL/MOL
REMARK 924 INTRA-LIGAND FREE ENERGY PREDICTED BY IDOCK:   -0.24 KCAL/MOL
REMARK 927      BINDING AFFINITY PREDICTED BY RF-SCORE:    0.00 PKD
ROOT
HETATM    1  C   UNL     1      -7.520   6.423  69.148  1.00  0.00    -0.095 C  
HETATM    2  N   UNL     1      -8.027   7.256  70.220  1.00  0.00    -0.113 NA 
HETATM    3  H   UNL     1      -7.592   8.147  70.457  1.00  0.00     0.000 HD 
ENDROOT
BRANCH   2   4
HETATM    4  C   UNL     1      -9.217   6.746  70.960  1.00  0.00    -0.156 C  
HETATM    5  C   UNL     1     -10.500   6.953  70.100  1.00  0.00    -0.233 C  
HETATM    6  O   UNL     1      -8.724   8.761  72.336  1.00  0.00    -0.392 OA 
HETATM    7  C   UNL     1      -9.450   7.784  72.134  1.00  0.00    -0.164 C  
HETATM    8  C   UNL     1     -11.820   6.781  70.869  1.00  0.00    -0.438 C  
HETATM    9  C   UNL     1     -10.698   7.586  72.966  1.00  0.00    -0.438 C  
HETATM   10  C   UNL     1     -11.914   7.721  72.066  1.00  0.00    -0.350 C  
BRANCH   4  11
HETATM   11  C   UNL     1      -8.880   5.356  71.553  1.00  0.00    -0.143 A  
HETATM   12  C   UNL     1      -9.619   2.993  71.699  1.00  0.00    -0.221 A  
HETATM   13  C   UNL     1      -7.668   3.698  72.896  1.00  0.00    -0.066 A  
HETATM   14  C   UNL     1      -9.772   4.298  71.220  1.00  0.00    -0.256 A  
HETATM   15  C   UNL     1      -8.549   2.687  72.526  1.00  0.00    -0.081 A  
HETATM   16  C   UNL     1      -7.843   5.021  72.446  1.00  0.00    -0.100 A  
HETATM   17 CL   UNL     1      -6.744   6.143  73.167  1.00  0.00    -0.073 Cl 
ENDBRANCH   4  11
ENDBRANCH   2   4
TORSDOF 2
ENDMDL
MODEL      153
REMARK 921   NORMALIZED FREE ENERGY PREDICTED BY IDOCK:   -2.94 KCAL/MOL
REMARK 922        TOTAL FREE ENERGY PREDICTED BY IDOCK:   -3.54 KCAL/MOL
REMARK 923 INTER-LIGAND FREE ENERGY PREDICTED BY IDOCK:   -3.47 KCAL/MOL
REMARK 924 INTRA-LIGAND FREE ENERGY PREDICTED BY IDOCK:   -0.07 KCAL/MOL
REMARK 927      BINDING AFFINITY PREDICTED BY RF-SCORE:    0.00 PKD
ROOT
HETATM    1  C   UNL     1      -7.674  10.269  66.920  1.00  0.00    -0.105 C  
HETATM    2  N   UNL     1      -8.812  10.182  67.813  1.00  0.00    -0.125 NA 
HETATM    3  H   UNL     1      -9.221  11.012  68.242  1.00  0.00     0.000 HD 
ENDROOT
BRANCH   2   4
HETATM    4  C   UNL     1      -9.355   8.819  68.077  1.00  0.00    -0.142 C  
HETATM    5  C   UNL     1      -8.257   7.751  67.793  1.00  0.00    -0.126 C  
HETATM    6  O   UNL     1     -10.631   9.365  66.010  1.00  0.00    -0.012 OA 
HETATM    7  C   UNL     1     -10.377   8.545  66.897  1.00  0.00    -0.297 C  
HETATM    8  C   UNL     1      -8.776   6.306  67.703  1.00  0.00    -0.113 C  
HETATM    9  C   UNL     1     -10.974   7.157  66.835  1.00  0.00    -0.208 C  
HETATM   10  C   UNL     1      -9.855   6.150  66.636  1.00  0.00    -0.202 C  
BRANCH   4  11
HETATM   11  C   UNL     1     -10.111   8.833  69.428  1.00  0.00    -0.203 A  
HETATM   12  C   UNL     1     -10.426   7.634  71.576  1.00  0.00    -0.231 A  
HETATM   13  C   UNL     1     -11.715   9.600  71.119  1.00  0.00    -0.450 A  
HETATM   14  C   UNL     1      -9.808   7.775  70.330  1.00  0.00    -0.184 A  
HETATM   15  C   UNL     1     -11.371   8.564  71.982  1.00  0.00    -0.425 A  
HETATM   16  C   UNL     1     -11.122   9.721  69.848  1.00  0.00    -0.254 A  
HETATM   17 CL   UNL     1     -11.823  10.968  68.878  1.00  0.00    -0.391 Cl 
ENDBRANCH   4  11
ENDBRANCH   2   4
TORSDOF 2
ENDMDL
MODEL      154
REMARK 921   NORMALIZED FREE ENERGY PREDICTED BY IDOCK:   -2.93 KCAL/MOL
REMARK 922        TOTAL FREE ENERGY PREDICTED BY IDOCK:   -3.53 KCAL/MOL
REMARK 923 INTER-LIGAND FREE ENERGY PREDICTED BY IDOCK:   -3.23 KCAL/MOL
REMARK 924 INTRA-LIGAND FREE ENERGY PREDICTED BY IDOCK:   -0.30 KCAL/MOL
REMARK 927      BINDING AFFINITY PREDICTED BY RF-SCORE:    0.00 PKD
ROOT
HETATM    1  C   UNL     1      -8.540  10.347  69.214  1.00  0.00    -0.150 C  
HETATM    2  N   UNL     1      -8.587   9.760  70.538  1.00  0.00    -0.345 NA 
HETATM    3  H   UNL     1      -8.101  10.183  71.328  1.00  0.00     0.000 HD 
ENDROOT
BRANCH   2   4
HETATM    4  C   UNL     1      -9.381   8.507  70.690  1.00  0.00    -0.174 C  
HETATM    5  C   UNL     1     -10.902   8.835  70.611  1.00  0.00    -0.273 C  
HETATM    6  O   UNL     1      -8.535   8.728  73.021  1.00  0.00    -0.402 OA 
HETATM    7  C   UNL     1      -9.222   8.098  72.212  1.00  0.00    -0.201 C  
HETATM    8  C   UNL     1     -11.827   7.700  71.080  1.00  0.00    -0.306 C  
HETATM    9  C   UNL     1     -10.054   6.926  72.682  1.00  0.00    -0.195 C  
HETATM   10  C   UNL     1     -11.524   7.268  72.511  1.00  0.00    -0.322 C  
BRANCH   4  11
HETATM   11  C   UNL     1      -8.762   7.410  69.789  1.00  0.00    -0.141 A  
HETATM   12  C   UNL     1      -6.792   5.938  69.467  1.00  0.00    -0.062 A  
HETATM   13  C   UNL     1      -8.576   5.893  67.870  1.00  0.00    -0.105 A  
HETATM   14  C   UNL     1      -7.492   6.909  70.190  1.00  0.00    -0.090 A  
HETATM   15  C   UNL     1      -7.347   5.411  68.311  1.00  0.00    -0.072 A  
HETATM   16  C   UNL     1      -9.264   6.899  68.575  1.00  0.00    -0.129 A  
HETATM   17 CL   UNL     1     -10.675   7.469  67.758  1.00  0.00    -0.266 Cl 
ENDBRANCH   4  11
ENDBRANCH   2   4
TORSDOF 2
ENDMDL
MODEL      155
REMARK 921   NORMALIZED FREE ENERGY PREDICTED BY IDOCK:   -2.92 KCAL/MOL
REMARK 922        TOTAL FREE ENERGY PREDICTED BY IDOCK:   -3.51 KCAL/MOL
REMARK 923 INTER-LIGAND FREE ENERGY PREDICTED BY IDOCK:   -3.82 KCAL/MOL
REMARK 924 INTRA-LIGAND FREE ENERGY PREDICTED BY IDOCK:    0.31 KCAL/MOL
REMARK 927      BINDING AFFINITY PREDICTED BY RF-SCORE:    0.00 PKD
ROOT
HETATM    1  C   UNL     1     -10.568   7.286  67.094  1.00  0.00    -0.346 C  
HETATM    2  N   UNL     1     -11.356   7.046  68.286  1.00  0.00    -0.468 NA 
HETATM    3  H   UNL     1     -12.352   6.835  68.236  1.00  0.00     0.000 HD 
ENDROOT
BRANCH   2   4
HETATM    4  C   UNL     1     -10.639   7.122  69.591  1.00  0.00    -0.234 C  
HETATM    5  C   UNL     1     -11.527   6.511  70.716  1.00  0.00    -0.419 C  
HETATM    6  O   UNL     1     -11.137   9.540  69.269  1.00  0.00    -0.190 OA 
HETATM    7  C   UNL     1     -10.647   8.658  69.980  1.00  0.00    -0.227 C  
HETATM    8  C   UNL     1     -11.056   6.823  72.146  1.00  0.00    -0.284 C  
HETATM    9  C   UNL     1     -10.105   9.007  71.348  1.00  0.00    -0.399 C  
HETATM   10  C   UNL     1     -10.959   8.324  72.402  1.00  0.00    -0.438 C  
BRANCH   4  11
HETATM   11  C   UNL     1      -9.179   6.643  69.390  1.00  0.00    -0.142 A  
HETATM   12  C   UNL     1      -6.878   7.371  68.820  1.00  0.00    -0.072 A  
HETATM   13  C   UNL     1      -7.321   5.052  69.215  1.00  0.00    -0.057 A  
HETATM   14  C   UNL     1      -8.228   7.648  69.059  1.00  0.00    -0.127 A  
HETATM   15  C   UNL     1      -6.418   6.067  68.918  1.00  0.00    -0.049 A  
HETATM   16  C   UNL     1      -8.688   5.323  69.418  1.00  0.00    -0.100 A  
HETATM   17 CL   UNL     1      -9.652   3.900  69.595  1.00  0.00    -0.267 Cl 
ENDBRANCH   4  11
ENDBRANCH   2   4
TORSDOF 2
ENDMDL
MODEL      156
REMARK 921   NORMALIZED FREE ENERGY PREDICTED BY IDOCK:   -2.89 KCAL/MOL
REMARK 922        TOTAL FREE ENERGY PREDICTED BY IDOCK:   -3.48 KCAL/MOL
REMARK 923 INTER-LIGAND FREE ENERGY PREDICTED BY IDOCK:   -3.24 KCAL/MOL
REMARK 924 INTRA-LIGAND FREE ENERGY PREDICTED BY IDOCK:   -0.24 KCAL/MOL
REMARK 927      BINDING AFFINITY PREDICTED BY RF-SCORE:    0.00 PKD
ROOT
HETATM    1  C   UNL     1      -9.152   7.236  66.117  1.00  0.00    -0.122 C  
HETATM    2  N   UNL     1      -9.577   8.542  66.580  1.00  0.00    -0.216 NA 
HETATM    3  H   UNL     1     -10.364   8.653  67.220  1.00  0.00     0.000 HD 
ENDROOT
BRANCH   2   4
HETATM    4  C   UNL     1      -8.810   9.716  66.074  1.00  0.00    -0.152 C  
HETATM    5  C   UNL     1      -7.996   9.308  64.810  1.00  0.00    -0.123 C  
HETATM    6  O   UNL     1      -7.521   9.262  68.155  1.00  0.00    -0.082 OA 
HETATM    7  C   UNL     1      -7.655   9.943  67.135  1.00  0.00    -0.092 C  
HETATM    8  C   UNL     1      -6.916  10.318  64.390  1.00  0.00    -0.060 C  
HETATM    9  C   UNL     1      -6.625  10.996  66.790  1.00  0.00    -0.124 C  
HETATM   10  C   UNL     1      -5.917  10.588  65.510  1.00  0.00    -0.134 C  
BRANCH   4  11
HETATM   11  C   UNL     1      -9.743  10.951  66.048  1.00  0.00    -0.268 A  
HETATM   12  C   UNL     1     -10.943  12.604  67.455  1.00  0.00    -0.280 A  
HETATM   13  C   UNL     1     -11.187  12.679  65.074  1.00  0.00    -0.331 A  
HETATM   14  C   UNL     1     -10.089  11.506  67.312  1.00  0.00    -0.223 A  
HETATM   15  C   UNL     1     -11.479  13.207  66.328  1.00  0.00    -0.372 A  
HETATM   16  C   UNL     1     -10.358  11.550  64.930  1.00  0.00    -0.289 A  
HETATM   17 CL   UNL     1     -10.275  10.961  63.308  1.00  0.00    -0.375 Cl 
ENDBRANCH   4  11
ENDBRANCH   2   4
TORSDOF 2
ENDMDL
MODEL      157
REMARK 921   NORMALIZED FREE ENERGY PREDICTED BY IDOCK:   -2.89 KCAL/MOL
REMARK 922        TOTAL FREE ENERGY PREDICTED BY IDOCK:   -3.48 KCAL/MOL
REMARK 923 INTER-LIGAND FREE ENERGY PREDICTED BY IDOCK:   -4.18 KCAL/MOL
REMARK 924 INTRA-LIGAND FREE ENERGY PREDICTED BY IDOCK:    0.70 KCAL/MOL
REMARK 927      BINDING AFFINITY PREDICTED BY RF-SCORE:    0.00 PKD
ROOT
HETATM    1  C   UNL     1      -7.846  16.881  66.132  1.00  0.00    -0.242 C  
HETATM    2  N   UNL     1      -9.186  17.205  66.581  1.00  0.00    -0.250 NA 
HETATM    3  H   UNL     1      -9.620  18.101  66.363  1.00  0.00     0.000 HD 
ENDROOT
BRANCH   2   4
HETATM    4  C   UNL     1      -9.898  16.164  67.376  1.00  0.00    -0.238 C  
HETATM    5  C   UNL     1     -11.141  16.794  68.073  1.00  0.00    -0.220 C  
HETATM    6  O   UNL     1      -7.858  16.414  68.781  1.00  0.00    -0.195 OA 
HETATM    7  C   UNL     1      -8.954  15.871  68.614  1.00  0.00    -0.203 C  
HETATM    8  C   UNL     1     -11.765  15.924  69.177  1.00  0.00    -0.369 C  
HETATM    9  C   UNL     1      -9.506  14.945  69.675  1.00  0.00     0.060 C  
HETATM   10  C   UNL     1     -10.758  15.569  70.266  1.00  0.00    -0.352 C  
BRANCH   4  11
HETATM   11  C   UNL     1     -10.040  14.885  66.514  1.00  0.00    -0.279 A  
HETATM   12  C   UNL     1      -9.328  12.521  66.281  1.00  0.00    -0.177 A  
HETATM   13  C   UNL     1     -10.764  13.492  64.629  1.00  0.00    -0.429 A  
HETATM   14  C   UNL     1      -9.323  13.741  66.965  1.00  0.00    -0.250 A  
HETATM   15  C   UNL     1     -10.069  12.389  65.117  1.00  0.00    -0.276 A  
HETATM   16  C   UNL     1     -10.729  14.733  65.295  1.00  0.00    -0.390 A  
HETATM   17 CL   UNL     1     -11.511  16.002  64.422  1.00  0.00    -0.372 Cl 
ENDBRANCH   4  11
ENDBRANCH   2   4
TORSDOF 2
ENDMDL
MODEL      158
REMARK 921   NORMALIZED FREE ENERGY PREDICTED BY IDOCK:   -2.86 KCAL/MOL
REMARK 922        TOTAL FREE ENERGY PREDICTED BY IDOCK:   -3.44 KCAL/MOL
REMARK 923 INTER-LIGAND FREE ENERGY PREDICTED BY IDOCK:   -3.20 KCAL/MOL
REMARK 924 INTRA-LIGAND FREE ENERGY PREDICTED BY IDOCK:   -0.24 KCAL/MOL
REMARK 927      BINDING AFFINITY PREDICTED BY RF-SCORE:    0.00 PKD
ROOT
HETATM    1  C   UNL     1     -10.370  10.750  69.293  1.00  0.00    -0.205 C  
HETATM    2  N   UNL     1     -10.367   9.743  70.335  1.00  0.00    -0.283 NA 
HETATM    3  H   UNL     1     -11.051   9.753  71.091  1.00  0.00     0.000 HD 
ENDROOT
BRANCH   2   4
HETATM    4  C   UNL     1      -9.315   8.690  70.248  1.00  0.00    -0.167 C  
HETATM    5  C   UNL     1      -8.416   8.946  69.001  1.00  0.00    -0.133 C  
HETATM    6  O   UNL     1     -11.304   7.316  69.653  1.00  0.00    -0.144 OA 
HETATM    7  C   UNL     1     -10.082   7.372  69.820  1.00  0.00    -0.193 C  
HETATM    8  C   UNL     1      -7.513   7.765  68.609  1.00  0.00    -0.100 C  
HETATM    9  C   UNL     1      -9.224   6.164  69.514  1.00  0.00    -0.143 C  
HETATM   10  C   UNL     1      -8.314   6.495  68.343  1.00  0.00    -0.117 C  
BRANCH   4  11
HETATM   11  C   UNL     1      -8.684   8.494  71.649  1.00  0.00    -0.262 A  
HETATM   12  C   UNL     1      -6.546   8.380  72.900  1.00  0.00    -0.106 A  
HETATM   13  C   UNL     1      -8.614   8.033  74.057  1.00  0.00    -0.296 A  
HETATM   14  C   UNL     1      -7.264   8.563  71.714  1.00  0.00    -0.112 A  
HETATM   15  C   UNL     1      -7.226   8.134  74.083  1.00  0.00    -0.208 A  
HETATM   16  C   UNL     1      -9.336   8.179  72.858  1.00  0.00    -0.273 A  
HETATM   17 CL   UNL     1     -11.022   7.840  73.025  1.00  0.00    -0.461 Cl 
ENDBRANCH   4  11
ENDBRANCH   2   4
TORSDOF 2
ENDMDL
MODEL      159
REMARK 921   NORMALIZED FREE ENERGY PREDICTED BY IDOCK:   -2.82 KCAL/MOL
REMARK 922        TOTAL FREE ENERGY PREDICTED BY IDOCK:   -3.40 KCAL/MOL
REMARK 923 INTER-LIGAND FREE ENERGY PREDICTED BY IDOCK:   -3.48 KCAL/MOL
REMARK 924 INTRA-LIGAND FREE ENERGY PREDICTED BY IDOCK:    0.08 KCAL/MOL
REMARK 927      BINDING AFFINITY PREDICTED BY RF-SCORE:    0.00 PKD
ROOT
HETATM    1  C   UNL     1     -11.501  15.196  69.513  1.00  0.00    -0.296 C  
HETATM    2  N   UNL     1     -10.059  15.340  69.531  1.00  0.00    -0.273 NA 
HETATM    3  H   UNL     1      -9.485  14.893  70.246  1.00  0.00     0.000 HD 
ENDROOT
BRANCH   2   4
HETATM    4  C   UNL     1      -9.454  16.175  68.454  1.00  0.00    -0.210 C  
HETATM    5  C   UNL     1     -10.421  17.340  68.086  1.00  0.00    -0.382 C  
HETATM    6  O   UNL     1      -9.968  14.130  67.132  1.00  0.00    -0.248 OA 
HETATM    7  C   UNL     1      -9.522  15.281  67.149  1.00  0.00    -0.214 C  
HETATM    8  C   UNL     1     -10.075  18.070  66.777  1.00  0.00    -0.357 C  
HETATM    9  C   UNL     1      -9.102  15.945  65.856  1.00  0.00    -0.304 C  
HETATM   10  C   UNL     1     -10.027  17.119  65.586  1.00  0.00    -0.041 C  
BRANCH   4  11
HETATM   11  C   UNL     1      -7.974  16.461  68.813  1.00  0.00    -0.233 A  
HETATM   12  C   UNL     1      -6.323  18.250  69.287  1.00  0.00    -0.259 A  
HETATM   13  C   UNL     1      -5.613  15.964  69.251  1.00  0.00    -0.114 A  
HETATM   14  C   UNL     1      -7.623  17.829  68.988  1.00  0.00    -0.153 A  
HETATM   15  C   UNL     1      -5.316  17.310  69.439  1.00  0.00    -0.170 A  
HETATM   16  C   UNL     1      -6.912  15.541  68.912  1.00  0.00    -0.130 A  
HETATM   17 CL   UNL     1      -7.014  13.854  68.552  1.00  0.00    -0.093 Cl 
ENDBRANCH   4  11
ENDBRANCH   2   4
TORSDOF 2
ENDMDL
MODEL      160
REMARK 921   NORMALIZED FREE ENERGY PREDICTED BY IDOCK:   -2.80 KCAL/MOL
REMARK 922        TOTAL FREE ENERGY PREDICTED BY IDOCK:   -3.38 KCAL/MOL
REMARK 923 INTER-LIGAND FREE ENERGY PREDICTED BY IDOCK:   -3.04 KCAL/MOL
REMARK 924 INTRA-LIGAND FREE ENERGY PREDICTED BY IDOCK:   -0.34 KCAL/MOL
REMARK 927      BINDING AFFINITY PREDICTED BY RF-SCORE:    0.00 PKD
ROOT
HETATM    1  C   UNL     1      -9.980  11.564  68.284  1.00  0.00    -0.202 C  
HETATM    2  N   UNL     1     -10.449  10.525  69.179  1.00  0.00    -0.214 NA 
HETATM    3  H   UNL     1     -11.068  10.733  69.962  1.00  0.00     0.000 HD 
ENDROOT
BRANCH   2   4
HETATM    4  C   UNL     1      -9.982   9.137  68.899  1.00  0.00    -0.180 C  
HETATM    5  C   UNL     1     -10.523   8.669  67.515  1.00  0.00    -0.335 C  
HETATM    6  O   UNL     1     -11.617   8.651  70.712  1.00  0.00    -0.278 OA 
HETATM    7  C   UNL     1     -10.806   8.216  69.890  1.00  0.00    -0.215 C  
HETATM    8  C   UNL     1     -10.397   7.159  67.256  1.00  0.00    -0.342 C  
HETATM    9  C   UNL     1     -10.634   6.723  69.718  1.00  0.00    -0.263 C  
HETATM   10  C   UNL     1     -11.102   6.333  68.327  1.00  0.00    -0.364 C  
BRANCH   4  11
HETATM   11  C   UNL     1      -8.472   9.040  69.231  1.00  0.00    -0.128 A  
HETATM   12  C   UNL     1      -6.807   9.033  71.069  1.00  0.00    -0.092 A  
HETATM   13  C   UNL     1      -6.062   8.903  68.798  1.00  0.00    -0.045 A  
HETATM   14  C   UNL     1      -8.128   9.082  70.611  1.00  0.00    -0.184 A  
HETATM   15  C   UNL     1      -5.769   8.922  70.158  1.00  0.00    -0.030 A  
HETATM   16  C   UNL     1      -7.388   8.992  68.333  1.00  0.00    -0.078 A  
HETATM   17 CL   UNL     1      -7.506   9.130  66.614  1.00  0.00    -0.086 Cl 
ENDBRANCH   4  11
ENDBRANCH   2   4
TORSDOF 2
ENDMDL
MODEL      161
REMARK 921   NORMALIZED FREE ENERGY PREDICTED BY IDOCK:   -2.74 KCAL/MOL
REMARK 922        TOTAL FREE ENERGY PREDICTED BY IDOCK:   -3.31 KCAL/MOL
REMARK 923 INTER-LIGAND FREE ENERGY PREDICTED BY IDOCK:   -3.15 KCAL/MOL
REMARK 924 INTRA-LIGAND FREE ENERGY PREDICTED BY IDOCK:   -0.16 KCAL/MOL
REMARK 927      BINDING AFFINITY PREDICTED BY RF-SCORE:    0.00 PKD
ROOT
HETATM    1  C   UNL     1      -8.578   7.310  65.226  1.00  0.00     0.014 C  
HETATM    2  N   UNL     1      -8.977   8.436  64.405  1.00  0.00    -0.296 NA 
HETATM    3  H   UNL     1      -9.162   8.332  63.408  1.00  0.00     0.000 HD 
ENDROOT
BRANCH   2   4
HETATM    4  C   UNL     1      -9.102   9.754  65.089  1.00  0.00    -0.222 C  
HETATM    5  C   UNL     1     -10.225   9.683  66.167  1.00  0.00    -0.276 C  
HETATM    6  O   UNL     1     -10.032  10.370  62.864  1.00  0.00    -0.226 OA 
HETATM    7  C   UNL     1      -9.754  10.718  64.015  1.00  0.00    -0.313 C  
HETATM    8  C   UNL     1     -10.681  11.048  66.708  1.00  0.00    -0.319 C  
HETATM    9  C   UNL     1     -10.132  12.102  64.496  1.00  0.00    -0.286 C  
HETATM   10  C   UNL     1     -11.170  11.971  65.597  1.00  0.00    -0.377 C  
BRANCH   4  11
HETATM   11  C   UNL     1      -7.687  10.265  65.457  1.00  0.00    -0.149 A  
HETATM   12  C   UNL     1      -6.333  11.357  67.225  1.00  0.00    -0.097 A  
HETATM   13  C   UNL     1      -5.318  10.811  65.126  1.00  0.00    -0.134 A  
HETATM   14  C   UNL     1      -7.539  10.828  66.756  1.00  0.00    -0.129 A  
HETATM   15  C   UNL     1      -5.210  11.329  66.412  1.00  0.00    -0.131 A  
HETATM   16  C   UNL     1      -6.542  10.314  64.637  1.00  0.00    -0.092 A  
HETATM   17 CL   UNL     1      -6.491   9.887  62.964  1.00  0.00    -0.117 Cl 
ENDBRANCH   4  11
ENDBRANCH   2   4
TORSDOF 2
ENDMDL
MODEL      162
REMARK 921   NORMALIZED FREE ENERGY PREDICTED BY IDOCK:   -2.73 KCAL/MOL
REMARK 922        TOTAL FREE ENERGY PREDICTED BY IDOCK:   -3.30 KCAL/MOL
REMARK 923 INTER-LIGAND FREE ENERGY PREDICTED BY IDOCK:   -3.19 KCAL/MOL
REMARK 924 INTRA-LIGAND FREE ENERGY PREDICTED BY IDOCK:   -0.11 KCAL/MOL
REMARK 927      BINDING AFFINITY PREDICTED BY RF-SCORE:    0.00 PKD
ROOT
HETATM    1  C   UNL     1      -8.547  20.403  65.961  1.00  0.00     0.091 C  
HETATM    2  N   UNL     1      -8.643  18.971  66.165  1.00  0.00    -0.458 NA 
HETATM    3  H   UNL     1      -8.965  18.346  65.426  1.00  0.00     0.000 HD 
ENDROOT
BRANCH   2   4
HETATM    4  C   UNL     1      -8.250  18.456  67.507  1.00  0.00    -0.248 C  
HETATM    5  C   UNL     1      -7.818  19.643  68.420  1.00  0.00    -0.362 C  
HETATM    6  O   UNL     1      -6.328  17.604  66.173  1.00  0.00    -0.212 OA 
HETATM    7  C   UNL     1      -6.869  17.714  67.277  1.00  0.00    -0.162 C  
HETATM    8  C   UNL     1      -7.080  19.228  69.703  1.00  0.00    -0.120 C  
HETATM    9  C   UNL     1      -6.161  17.213  68.517  1.00  0.00    -0.151 C  
HETATM   10  C   UNL     1      -5.834  18.400  69.406  1.00  0.00    -0.236 C  
BRANCH   4  11
HETATM   11  C   UNL     1      -9.315  17.439  67.986  1.00  0.00    -0.276 A  
HETATM   12  C   UNL     1     -11.139  17.049  69.620  1.00  0.00     0.263 A  
HETATM   13  C   UNL     1     -10.534  15.313  68.085  1.00  0.00    -0.246 A  
HETATM   14  C   UNL     1     -10.150  17.862  69.058  1.00  0.00    -0.292 A  
HETATM   15  C   UNL     1     -11.347  15.774  69.117  1.00  0.00    -0.349 A  
HETATM   16  C   UNL     1      -9.512  16.116  67.544  1.00  0.00    -0.223 A  
HETATM   17 CL   UNL     1      -8.516  15.284  66.403  1.00  0.00    -0.209 Cl 
ENDBRANCH   4  11
ENDBRANCH   2   4
TORSDOF 2
ENDMDL
MODEL      163
REMARK 921   NORMALIZED FREE ENERGY PREDICTED BY IDOCK:   -2.72 KCAL/MOL
REMARK 922        TOTAL FREE ENERGY PREDICTED BY IDOCK:   -3.30 KCAL/MOL
REMARK 923 INTER-LIGAND FREE ENERGY PREDICTED BY IDOCK:   -3.12 KCAL/MOL
REMARK 924 INTRA-LIGAND FREE ENERGY PREDICTED BY IDOCK:   -0.18 KCAL/MOL
REMARK 927      BINDING AFFINITY PREDICTED BY RF-SCORE:    0.00 PKD
ROOT
HETATM    1  C   UNL     1      -9.067   4.791  69.232  1.00  0.00    -0.105 C  
HETATM    2  N   UNL     1     -10.011   5.719  69.820  1.00  0.00    -0.176 NA 
HETATM    3  H   UNL     1     -10.919   5.902  69.393  1.00  0.00     0.000 HD 
ENDROOT
BRANCH   2   4
HETATM    4  C   UNL     1      -9.591   6.396  71.081  1.00  0.00    -0.174 C  
HETATM    5  C   UNL     1      -9.051   5.339  72.090  1.00  0.00    -0.148 C  
HETATM    6  O   UNL     1     -12.058   6.658  71.291  1.00  0.00    -0.348 OA 
HETATM    7  C   UNL     1     -10.940   6.842  71.781  1.00  0.00    -0.230 C  
HETATM    8  C   UNL     1      -8.898   5.849  73.532  1.00  0.00    -0.125 C  
HETATM    9  C   UNL     1     -10.814   7.433  73.168  1.00  0.00    -0.435 C  
HETATM   10  C   UNL     1     -10.211   6.389  74.091  1.00  0.00    -0.361 C  
BRANCH   4  11
HETATM   11  C   UNL     1      -8.751   7.647  70.723  1.00  0.00    -0.139 A  
HETATM   12  C   UNL     1      -6.497   8.671  70.866  1.00  0.00    -0.047 A  
HETATM   13  C   UNL     1      -8.296   9.904  69.877  1.00  0.00    -0.200 A  
HETATM   14  C   UNL     1      -7.378   7.609  71.095  1.00  0.00    -0.073 A  
HETATM   15  C   UNL     1      -6.954   9.817  70.234  1.00  0.00    -0.135 A  
HETATM   16  C   UNL     1      -9.193   8.852  70.142  1.00  0.00    -0.180 A  
HETATM   17 CL   UNL     1     -10.837   9.242  69.778  1.00  0.00    -0.241 Cl 
ENDBRANCH   4  11
ENDBRANCH   2   4
TORSDOF 2
ENDMDL
MODEL      164
REMARK 921   NORMALIZED FREE ENERGY PREDICTED BY IDOCK:   -2.72 KCAL/MOL
REMARK 922        TOTAL FREE ENERGY PREDICTED BY IDOCK:   -3.30 KCAL/MOL
REMARK 923 INTER-LIGAND FREE ENERGY PREDICTED BY IDOCK:   -3.06 KCAL/MOL
REMARK 924 INTRA-LIGAND FREE ENERGY PREDICTED BY IDOCK:   -0.23 KCAL/MOL
REMARK 927      BINDING AFFINITY PREDICTED BY RF-SCORE:    0.00 PKD
ROOT
HETATM    1  C   UNL     1     -11.055   5.680  71.776  1.00  0.00    -0.199 C  
HETATM    2  N   UNL     1     -10.109   6.237  70.830  1.00  0.00    -0.186 NA 
HETATM    3  H   UNL     1      -9.532   5.641  70.236  1.00  0.00     0.000 HD 
ENDROOT
BRANCH   2   4
HETATM    4  C   UNL     1     -10.019   7.724  70.767  1.00  0.00    -0.181 C  
HETATM    5  C   UNL     1     -11.296   8.356  71.396  1.00  0.00    -0.317 C  
HETATM    6  O   UNL     1     -10.354   7.242  68.347  1.00  0.00    -0.176 OA 
HETATM    7  C   UNL     1     -10.207   8.086  69.236  1.00  0.00    -0.213 C  
HETATM    8  C   UNL     1     -11.484   9.853  71.099  1.00  0.00    -0.459 C  
HETATM    9  C   UNL     1     -10.304   9.558  68.901  1.00  0.00    -0.225 C  
HETATM   10  C   UNL     1     -11.520  10.140  69.601  1.00  0.00    -0.256 C  
BRANCH   4  11
HETATM   11  C   UNL     1      -8.609   8.161  71.236  1.00  0.00    -0.162 A  
HETATM   12  C   UNL     1      -6.380   8.939  70.474  1.00  0.00    -0.044 A  
HETATM   13  C   UNL     1      -6.775   8.585  72.809  1.00  0.00    -0.074 A  
HETATM   14  C   UNL     1      -7.697   8.546  70.214  1.00  0.00    -0.077 A  
HETATM   15  C   UNL     1      -5.923   8.978  71.782  1.00  0.00    -0.077 A  
HETATM   16  C   UNL     1      -8.089   8.151  72.546  1.00  0.00    -0.150 A  
HETATM   17 CL   UNL     1      -8.905   7.543  73.942  1.00  0.00    -0.267 Cl 
ENDBRANCH   4  11
ENDBRANCH   2   4
TORSDOF 2
ENDMDL
MODEL      165
REMARK 921   NORMALIZED FREE ENERGY PREDICTED BY IDOCK:   -2.72 KCAL/MOL
REMARK 922        TOTAL FREE ENERGY PREDICTED BY IDOCK:   -3.29 KCAL/MOL
REMARK 923 INTER-LIGAND FREE ENERGY PREDICTED BY IDOCK:   -3.15 KCAL/MOL
REMARK 924 INTRA-LIGAND FREE ENERGY PREDICTED BY IDOCK:   -0.15 KCAL/MOL
REMARK 927      BINDING AFFINITY PREDICTED BY RF-SCORE:    0.00 PKD
ROOT
HETATM    1  C   UNL     1      -9.670   3.786  69.847  1.00  0.00    -0.130 C  
HETATM    2  N   UNL     1     -10.098   4.873  70.704  1.00  0.00    -0.238 NA 
HETATM    3  H   UNL     1     -10.923   4.792  71.299  1.00  0.00     0.000 HD 
ENDROOT
BRANCH   2   4
HETATM    4  C   UNL     1      -9.276   6.116  70.673  1.00  0.00    -0.154 C  
HETATM    5  C   UNL     1      -8.290   6.065  69.468  1.00  0.00    -0.115 C  
HETATM    6  O   UNL     1      -8.289   5.033  72.686  1.00  0.00    -0.114 OA 
HETATM    7  C   UNL     1      -8.283   5.986  71.901  1.00  0.00    -0.115 C  
HETATM    8  C   UNL     1      -7.168   7.116  69.513  1.00  0.00    -0.080 C  
HETATM    9  C   UNL     1      -7.222   7.057  72.023  1.00  0.00    -0.081 C  
HETATM   10  C   UNL     1      -6.338   7.015  70.789  1.00  0.00    -0.043 C  
BRANCH   4  11
HETATM   11  C   UNL     1     -10.205   7.337  70.882  1.00  0.00    -0.203 A  
HETATM   12  C   UNL     1     -11.090   9.401  69.829  1.00  0.00    -0.193 A  
HETATM   13  C   UNL     1     -11.710   8.861  72.077  1.00  0.00    -0.438 A  
HETATM   14  C   UNL     1     -10.313   8.239  69.786  1.00  0.00    -0.216 A  
HETATM   15  C   UNL     1     -11.809   9.703  70.975  1.00  0.00    -0.428 A  
HETATM   16  C   UNL     1     -10.898   7.711  72.050  1.00  0.00    -0.238 A  
HETATM   17 CL   UNL     1     -10.784   6.914  73.579  1.00  0.00    -0.359 Cl 
ENDBRANCH   4  11
ENDBRANCH   2   4
TORSDOF 2
ENDMDL
MODEL      166
REMARK 921   NORMALIZED FREE ENERGY PREDICTED BY IDOCK:   -2.71 KCAL/MOL
REMARK 922        TOTAL FREE ENERGY PREDICTED BY IDOCK:   -3.28 KCAL/MOL
REMARK 923 INTER-LIGAND FREE ENERGY PREDICTED BY IDOCK:   -2.92 KCAL/MOL
REMARK 924 INTRA-LIGAND FREE ENERGY PREDICTED BY IDOCK:   -0.36 KCAL/MOL
REMARK 927      BINDING AFFINITY PREDICTED BY RF-SCORE:    0.00 PKD
ROOT
HETATM    1  C   UNL     1      -9.209   4.914  69.438  1.00  0.00    -0.109 C  
HETATM    2  N   UNL     1     -10.122   5.789  70.146  1.00  0.00    -0.196 NA 
HETATM    3  H   UNL     1     -11.130   5.640  70.126  1.00  0.00     0.000 HD 
ENDROOT
BRANCH   2   4
HETATM    4  C   UNL     1      -9.514   6.920  70.904  1.00  0.00    -0.157 C  
HETATM    5  C   UNL     1      -8.059   6.552  71.322  1.00  0.00    -0.113 C  
HETATM    6  O   UNL     1     -11.160   6.139  72.601  1.00  0.00    -0.247 OA 
HETATM    7  C   UNL     1     -10.255   6.925  72.305  1.00  0.00    -0.186 C  
HETATM    8  C   UNL     1      -7.443   7.479  72.382  1.00  0.00    -0.082 C  
HETATM    9  C   UNL     1      -9.728   7.893  73.340  1.00  0.00    -0.318 C  
HETATM   10  C   UNL     1      -8.285   7.537  73.653  1.00  0.00    -0.190 C  
BRANCH   4  11
HETATM   11  C   UNL     1      -9.809   8.243  70.154  1.00  0.00    -0.184 A  
HETATM   12  C   UNL     1     -11.484  10.041  69.820  1.00  0.00    -0.240 A  
HETATM   13  C   UNL     1      -9.437  10.084  68.577  1.00  0.00    -0.150 A  
HETATM   14  C   UNL     1     -11.060   8.860  70.436  1.00  0.00    -0.270 A  
HETATM   15  C   UNL     1     -10.658  10.669  68.899  1.00  0.00    -0.241 A  
HETATM   16  C   UNL     1      -9.026   8.874  69.167  1.00  0.00    -0.140 A  
HETATM   17 CL   UNL     1      -7.567   8.241  68.493  1.00  0.00    -0.098 Cl 
ENDBRANCH   4  11
ENDBRANCH   2   4
TORSDOF 2
ENDMDL
MODEL      167
REMARK 921   NORMALIZED FREE ENERGY PREDICTED BY IDOCK:   -2.68 KCAL/MOL
REMARK 922        TOTAL FREE ENERGY PREDICTED BY IDOCK:   -3.25 KCAL/MOL
REMARK 923 INTER-LIGAND FREE ENERGY PREDICTED BY IDOCK:   -3.23 KCAL/MOL
REMARK 924 INTRA-LIGAND FREE ENERGY PREDICTED BY IDOCK:   -0.02 KCAL/MOL
REMARK 927      BINDING AFFINITY PREDICTED BY RF-SCORE:    0.00 PKD
ROOT
HETATM    1  C   UNL     1      -8.608   9.385  69.586  1.00  0.00    -0.168 C  
HETATM    2  N   UNL     1      -8.368   9.938  68.268  1.00  0.00    -0.109 NA 
HETATM    3  H   UNL     1      -7.868  10.817  68.140  1.00  0.00     0.000 HD 
ENDROOT
BRANCH   2   4
HETATM    4  C   UNL     1      -8.886   9.158  67.108  1.00  0.00    -0.119 C  
HETATM    5  C   UNL     1      -9.582   7.860  67.616  1.00  0.00    -0.183 C  
HETATM    6  O   UNL     1      -6.446   8.796  66.773  1.00  0.00    -0.059 OA 
HETATM    7  C   UNL     1      -7.599   8.570  66.395  1.00  0.00    -0.091 C  
HETATM    8  C   UNL     1      -9.863   6.814  66.524  1.00  0.00    -0.167 C  
HETATM    9  C   UNL     1      -7.844   7.606  65.256  1.00  0.00    -0.122 C  
HETATM   10  C   UNL     1      -8.593   6.397  65.790  1.00  0.00    -0.152 C  
BRANCH   4  11
HETATM   11  C   UNL     1      -9.622  10.122  66.144  1.00  0.00    -0.256 A  
HETATM   12  C   UNL     1      -9.600  11.100  63.865  1.00  0.00    -0.286 A  
HETATM   13  C   UNL     1     -11.284  11.777  65.427  1.00  0.00    -0.310 A  
HETATM   14  C   UNL     1      -9.068  10.249  64.839  1.00  0.00    -0.250 A  
HETATM   15  C   UNL     1     -10.728  11.853  64.155  1.00  0.00    -0.402 A  
HETATM   16  C   UNL     1     -10.727  10.950  66.422  1.00  0.00    -0.194 A  
HETATM   17 CL   UNL     1     -11.467  11.145  67.971  1.00  0.00    -0.366 Cl 
ENDBRANCH   4  11
ENDBRANCH   2   4
TORSDOF 2
ENDMDL
MODEL      168
REMARK 921   NORMALIZED FREE ENERGY PREDICTED BY IDOCK:   -2.66 KCAL/MOL
REMARK 922        TOTAL FREE ENERGY PREDICTED BY IDOCK:   -3.22 KCAL/MOL
REMARK 923 INTER-LIGAND FREE ENERGY PREDICTED BY IDOCK:   -4.80 KCAL/MOL
REMARK 924 INTRA-LIGAND FREE ENERGY PREDICTED BY IDOCK:    1.58 KCAL/MOL
REMARK 927      BINDING AFFINITY PREDICTED BY RF-SCORE:    0.00 PKD
ROOT
HETATM    1  C   UNL     1     -11.425  12.232  65.748  1.00  0.00    -0.367 C  
HETATM    2  N   UNL     1     -11.997  12.030  67.064  1.00  0.00    -0.606 NA 
HETATM    3  H   UNL     1     -12.873  11.524  67.195  1.00  0.00     0.000 HD 
ENDROOT
BRANCH   2   4
HETATM    4  C   UNL     1     -11.244  12.598  68.219  1.00  0.00    -0.272 C  
HETATM    5  C   UNL     1     -12.081  13.728  68.889  1.00  0.00    -0.348 C  
HETATM    6  O   UNL     1      -9.855  13.493  66.356  1.00  0.00    -0.281 OA 
HETATM    7  C   UNL     1     -10.056  13.423  67.572  1.00  0.00    -0.227 C  
HETATM    8  C   UNL     1     -11.294  14.613  69.869  1.00  0.00    -0.302 C  
HETATM    9  C   UNL     1      -9.206  14.235  68.525  1.00  0.00    -0.197 C  
HETATM   10  C   UNL     1     -10.086  15.268  69.207  1.00  0.00    -0.252 C  
BRANCH   4  11
HETATM   11  C   UNL     1     -10.670  11.434  69.064  1.00  0.00    -0.245 A  
HETATM   12  C   UNL     1      -8.727   9.920  69.356  1.00  0.00    -0.186 A  
HETATM   13  C   UNL     1     -10.642   9.674  70.772  1.00  0.00    -0.392 A  
HETATM   14  C   UNL     1      -9.369  10.979  68.707  1.00  0.00    -0.185 A  
HETATM   15  C   UNL     1      -9.359   9.277  70.409  1.00  0.00    -0.295 A  
HETATM   16  C   UNL     1     -11.306  10.714  70.095  1.00  0.00    -0.323 A  
HETATM   17 CL   UNL     1     -12.948  10.920  70.592  1.00  0.00    -0.326 Cl 
ENDBRANCH   4  11
ENDBRANCH   2   4
TORSDOF 2
ENDMDL
MODEL      169
REMARK 921   NORMALIZED FREE ENERGY PREDICTED BY IDOCK:   -2.65 KCAL/MOL
REMARK 922        TOTAL FREE ENERGY PREDICTED BY IDOCK:   -3.22 KCAL/MOL
REMARK 923 INTER-LIGAND FREE ENERGY PREDICTED BY IDOCK:   -2.97 KCAL/MOL
REMARK 924 INTRA-LIGAND FREE ENERGY PREDICTED BY IDOCK:   -0.25 KCAL/MOL
REMARK 927      BINDING AFFINITY PREDICTED BY RF-SCORE:    0.00 PKD
ROOT
HETATM    1  C   UNL     1      -9.727   3.594  71.865  1.00  0.00    -0.166 C  
HETATM    2  N   UNL     1     -10.251   4.939  71.992  1.00  0.00    -0.195 NA 
HETATM    3  H   UNL     1     -11.252   5.119  72.059  1.00  0.00     0.000 HD 
ENDROOT
BRANCH   2   4
HETATM    4  C   UNL     1      -9.255   6.048  72.019  1.00  0.00    -0.146 C  
HETATM    5  C   UNL     1      -7.865   5.496  72.457  1.00  0.00    -0.103 C  
HETATM    6  O   UNL     1     -10.626   6.695  73.994  1.00  0.00    -0.323 OA 
HETATM    7  C   UNL     1      -9.654   6.932  73.271  1.00  0.00    -0.166 C  
HETATM    8  C   UNL     1      -6.841   6.575  72.845  1.00  0.00    -0.073 C  
HETATM    9  C   UNL     1      -8.710   8.060  73.625  1.00  0.00    -0.332 C  
HETATM   10  C   UNL     1      -7.351   7.473  73.966  1.00  0.00    -0.135 C  
BRANCH   4  11
HETATM   11  C   UNL     1      -9.399   6.884  70.723  1.00  0.00    -0.161 A  
HETATM   12  C   UNL     1      -8.182   7.795  68.764  1.00  0.00    -0.128 A  
HETATM   13  C   UNL     1     -10.507   8.292  69.048  1.00  0.00    -0.212 A  
HETATM   14  C   UNL     1      -8.219   7.046  69.945  1.00  0.00    -0.130 A  
HETATM   15  C   UNL     1      -9.338   8.405  68.302  1.00  0.00    -0.139 A  
HETATM   16  C   UNL     1     -10.538   7.571  70.257  1.00  0.00    -0.229 A  
HETATM   17 CL   UNL     1     -12.038   7.710  71.102  1.00  0.00    -0.331 Cl 
ENDBRANCH   4  11
ENDBRANCH   2   4
TORSDOF 2
ENDMDL
MODEL      170
REMARK 921   NORMALIZED FREE ENERGY PREDICTED BY IDOCK:   -2.63 KCAL/MOL
REMARK 922        TOTAL FREE ENERGY PREDICTED BY IDOCK:   -3.20 KCAL/MOL
REMARK 923 INTER-LIGAND FREE ENERGY PREDICTED BY IDOCK:   -3.40 KCAL/MOL
REMARK 924 INTRA-LIGAND FREE ENERGY PREDICTED BY IDOCK:    0.21 KCAL/MOL
REMARK 927      BINDING AFFINITY PREDICTED BY RF-SCORE:    0.00 PKD
ROOT
HETATM    1  C   UNL     1     -10.972  12.336  64.700  1.00  0.00    -0.306 C  
HETATM    2  N   UNL     1     -10.203  11.126  64.911  1.00  0.00    -0.283 NA 
HETATM    3  H   UNL     1     -10.165  10.387  64.210  1.00  0.00     0.000 HD 
ENDROOT
BRANCH   2   4
HETATM    4  C   UNL     1      -9.470  11.014  66.204  1.00  0.00    -0.203 C  
HETATM    5  C   UNL     1      -7.938  11.142  65.953  1.00  0.00     0.010 C  
HETATM    6  O   UNL     1     -10.225   8.653  65.967  1.00  0.00    -0.114 OA 
HETATM    7  C   UNL     1      -9.598   9.491  66.622  1.00  0.00    -0.188 C  
HETATM    8  C   UNL     1      -7.057  10.716  67.139  1.00  0.00    -0.093 C  
HETATM    9  C   UNL     1      -8.811   9.061  67.841  1.00  0.00    -0.129 C  
HETATM   10  C   UNL     1      -7.332   9.279  67.572  1.00  0.00    -0.087 C  
BRANCH   4  11
HETATM   11  C   UNL     1     -10.174  11.904  67.259  1.00  0.00    -0.220 A  
HETATM   12  C   UNL     1     -11.945  11.958  68.994  1.00  0.00    -0.321 A  
HETATM   13  C   UNL     1     -10.706  13.948  68.507  1.00  0.00    -0.268 A  
HETATM   14  C   UNL     1     -11.199  11.281  68.024  1.00  0.00    -0.351 A  
HETATM   15  C   UNL     1     -11.683  13.295  69.251  1.00  0.00    -0.380 A  
HETATM   16  C   UNL     1      -9.980  13.278  67.502  1.00  0.00    -0.223 A  
HETATM   17 CL   UNL     1      -8.950  14.321  66.588  1.00  0.00    -0.247 Cl 
ENDBRANCH   4  11
ENDBRANCH   2   4
TORSDOF 2
ENDMDL
MODEL      171
REMARK 921   NORMALIZED FREE ENERGY PREDICTED BY IDOCK:   -2.61 KCAL/MOL
REMARK 922        TOTAL FREE ENERGY PREDICTED BY IDOCK:   -3.17 KCAL/MOL
REMARK 923 INTER-LIGAND FREE ENERGY PREDICTED BY IDOCK:   -2.90 KCAL/MOL
REMARK 924 INTRA-LIGAND FREE ENERGY PREDICTED BY IDOCK:   -0.27 KCAL/MOL
REMARK 927      BINDING AFFINITY PREDICTED BY RF-SCORE:    0.00 PKD
ROOT
HETATM    1  C   UNL     1      -6.019  10.775  65.750  1.00  0.00    -0.126 C  
HETATM    2  N   UNL     1      -7.466  10.772  65.839  1.00  0.00    -0.259 NA 
HETATM    3  H   UNL     1      -8.031  11.493  65.390  1.00  0.00     0.000 HD 
ENDROOT
BRANCH   2   4
HETATM    4  C   UNL     1      -8.088   9.663  66.618  1.00  0.00    -0.119 C  
HETATM    5  C   UNL     1      -6.976   8.804  67.290  1.00  0.00    -0.075 C  
HETATM    6  O   UNL     1      -8.577   8.855  64.314  1.00  0.00    -0.176 OA 
HETATM    7  C   UNL     1      -8.652   8.659  65.530  1.00  0.00    -0.175 C  
HETATM    8  C   UNL     1      -7.457   7.451  67.841  1.00  0.00    -0.101 C  
HETATM    9  C   UNL     1      -9.215   7.354  66.050  1.00  0.00    -0.092 C  
HETATM   10  C   UNL     1      -8.111   6.593  66.763  1.00  0.00    -0.113 C  
BRANCH   4  11
HETATM   11  C   UNL     1      -9.259  10.235  67.455  1.00  0.00    -0.153 A  
HETATM   12  C   UNL     1     -11.513  11.262  67.334  1.00  0.00    -0.300 A  
HETATM   13  C   UNL     1     -10.462  10.966  69.465  1.00  0.00    -0.176 A  
HETATM   14  C   UNL     1     -10.389  10.695  66.724  1.00  0.00    -0.299 A  
HETATM   15  C   UNL     1     -11.558  11.380  68.714  1.00  0.00    -0.378 A  
HETATM   16  C   UNL     1      -9.313  10.430  68.850  1.00  0.00    -0.186 A  
HETATM   17 CL   UNL     1      -8.011  10.151  69.951  1.00  0.00    -0.175 Cl 
ENDBRANCH   4  11
ENDBRANCH   2   4
TORSDOF 2
ENDMDL
MODEL      172
REMARK 921   NORMALIZED FREE ENERGY PREDICTED BY IDOCK:   -2.59 KCAL/MOL
REMARK 922        TOTAL FREE ENERGY PREDICTED BY IDOCK:   -3.15 KCAL/MOL
REMARK 923 INTER-LIGAND FREE ENERGY PREDICTED BY IDOCK:   -2.95 KCAL/MOL
REMARK 924 INTRA-LIGAND FREE ENERGY PREDICTED BY IDOCK:   -0.20 KCAL/MOL
REMARK 927      BINDING AFFINITY PREDICTED BY RF-SCORE:    0.00 PKD
ROOT
HETATM    1  C   UNL     1      -8.922   8.722  70.576  1.00  0.00    -0.177 C  
HETATM    2  N   UNL     1      -8.171   8.427  69.373  1.00  0.00    -0.114 NA 
HETATM    3  H   UNL     1      -7.163   8.572  69.323  1.00  0.00     0.000 HD 
ENDROOT
BRANCH   2   4
HETATM    4  C   UNL     1      -8.944   7.903  68.210  1.00  0.00    -0.132 C  
HETATM    5  C   UNL     1     -10.351   7.431  68.684  1.00  0.00    -0.215 C  
HETATM    6  O   UNL     1      -7.264   6.078  68.429  1.00  0.00    -0.079 OA 
HETATM    7  C   UNL     1      -8.254   6.525  67.842  1.00  0.00    -0.116 C  
HETATM    8  C   UNL     1     -11.115   6.572  67.664  1.00  0.00    -0.380 C  
HETATM    9  C   UNL     1      -8.935   5.698  66.775  1.00  0.00    -0.116 C  
HETATM   10  C   UNL     1     -10.329   5.331  67.254  1.00  0.00    -0.254 C  
BRANCH   4  11
HETATM   11  C   UNL     1      -8.800   8.891  67.026  1.00  0.00    -0.138 A  
HETATM   12  C   UNL     1     -10.034  10.100  65.247  1.00  0.00    -0.381 A  
HETATM   13  C   UNL     1      -7.654  10.321  65.395  1.00  0.00    -0.146 A  
HETATM   14  C   UNL     1     -10.002   9.242  66.351  1.00  0.00    -0.356 A  
HETATM   15  C   UNL     1      -8.855  10.659  64.779  1.00  0.00    -0.196 A  
HETATM   16  C   UNL     1      -7.616   9.427  66.482  1.00  0.00    -0.093 A  
HETATM   17 CL   UNL     1      -6.012   9.013  66.975  1.00  0.00    -0.055 Cl 
ENDBRANCH   4  11
ENDBRANCH   2   4
TORSDOF 2
ENDMDL
MODEL      173
REMARK 921   NORMALIZED FREE ENERGY PREDICTED BY IDOCK:   -2.57 KCAL/MOL
REMARK 922        TOTAL FREE ENERGY PREDICTED BY IDOCK:   -3.12 KCAL/MOL
REMARK 923 INTER-LIGAND FREE ENERGY PREDICTED BY IDOCK:   -3.63 KCAL/MOL
REMARK 924 INTRA-LIGAND FREE ENERGY PREDICTED BY IDOCK:    0.51 KCAL/MOL
REMARK 927      BINDING AFFINITY PREDICTED BY RF-SCORE:    0.00 PKD
ROOT
HETATM    1  C   UNL     1      -6.760  12.914  67.701  1.00  0.00    -0.153 C  
HETATM    2  N   UNL     1      -8.051  13.331  67.193  1.00  0.00    -0.348 NA 
HETATM    3  H   UNL     1      -8.134  13.985  66.415  1.00  0.00     0.000 HD 
ENDROOT
BRANCH   2   4
HETATM    4  C   UNL     1      -9.253  12.758  67.862  1.00  0.00    -0.205 C  
HETATM    5  C   UNL     1      -8.842  11.516  68.709  1.00  0.00    -0.047 C  
HETATM    6  O   UNL     1      -9.760  12.113  65.511  1.00  0.00    -0.237 OA 
HETATM    7  C   UNL     1     -10.093  12.085  66.699  1.00  0.00    -0.198 C  
HETATM    8  C   UNL     1     -10.018  10.642  69.176  1.00  0.00    -0.228 C  
HETATM    9  C   UNL     1     -11.310  11.291  67.122  1.00  0.00    -0.295 C  
HETATM   10  C   UNL     1     -10.861  10.142  68.007  1.00  0.00    -0.320 C  
BRANCH   4  11
HETATM   11  C   UNL     1     -10.071  13.910  68.496  1.00  0.00    -0.234 A  
HETATM   12  C   UNL     1     -12.342  14.879  68.734  1.00  0.00    -0.007 A  
HETATM   13  C   UNL     1     -10.472  15.988  69.737  1.00  0.00    -0.300 A  
HETATM   14  C   UNL     1     -11.473  13.894  68.253  1.00  0.00    -0.346 A  
HETATM   15  C   UNL     1     -11.841  15.921  69.498  1.00  0.00    -0.310 A  
HETATM   16  C   UNL     1      -9.590  15.019  69.221  1.00  0.00    -0.180 A  
HETATM   17 CL   UNL     1      -7.925  15.393  69.488  1.00  0.00    -0.228 Cl 
ENDBRANCH   4  11
ENDBRANCH   2   4
TORSDOF 2
ENDMDL
MODEL      174
REMARK 921   NORMALIZED FREE ENERGY PREDICTED BY IDOCK:   -2.57 KCAL/MOL
REMARK 922        TOTAL FREE ENERGY PREDICTED BY IDOCK:   -3.12 KCAL/MOL
REMARK 923 INTER-LIGAND FREE ENERGY PREDICTED BY IDOCK:   -2.85 KCAL/MOL
REMARK 924 INTRA-LIGAND FREE ENERGY PREDICTED BY IDOCK:   -0.27 KCAL/MOL
REMARK 927      BINDING AFFINITY PREDICTED BY RF-SCORE:    0.00 PKD
ROOT
HETATM    1  C   UNL     1     -10.550   9.843  67.937  1.00  0.00    -0.254 C  
HETATM    2  N   UNL     1     -10.110   8.469  67.806  1.00  0.00    -0.198 NA 
HETATM    3  H   UNL     1     -10.589   7.810  67.193  1.00  0.00     0.000 HD 
ENDROOT
BRANCH   2   4
HETATM    4  C   UNL     1      -8.923   8.064  68.613  1.00  0.00    -0.134 C  
HETATM    5  C   UNL     1      -7.693   8.930  68.209  1.00  0.00    -0.096 C  
HETATM    6  O   UNL     1      -9.122   6.053  67.159  1.00  0.00    -0.114 OA 
HETATM    7  C   UNL     1      -8.508   6.641  68.053  1.00  0.00    -0.116 C  
HETATM    8  C   UNL     1      -6.342   8.399  68.717  1.00  0.00    -0.049 C  
HETATM    9  C   UNL     1      -7.228   6.052  68.602  1.00  0.00    -0.084 C  
HETATM   10  C   UNL     1      -6.073   6.973  68.248  1.00  0.00    -0.034 C  
BRANCH   4  11
HETATM   11  C   UNL     1      -9.346   7.937  70.098  1.00  0.00    -0.156 A  
HETATM   12  C   UNL     1      -8.827   8.664  72.411  1.00  0.00    -0.181 A  
HETATM   13  C   UNL     1     -10.606   7.106  72.031  1.00  0.00    -0.237 A  
HETATM   14  C   UNL     1      -8.587   8.693  71.034  1.00  0.00    -0.211 A  
HETATM   15  C   UNL     1      -9.857   7.881  72.911  1.00  0.00    -0.348 A  
HETATM   16  C   UNL     1     -10.340   7.105  70.649  1.00  0.00    -0.204 A  
HETATM   17 CL   UNL     1     -11.269   5.941  69.772  1.00  0.00    -0.433 Cl 
ENDBRANCH   4  11
ENDBRANCH   2   4
TORSDOF 2
ENDMDL
MODEL      175
REMARK 921   NORMALIZED FREE ENERGY PREDICTED BY IDOCK:   -2.56 KCAL/MOL
REMARK 922        TOTAL FREE ENERGY PREDICTED BY IDOCK:   -3.12 KCAL/MOL
REMARK 923 INTER-LIGAND FREE ENERGY PREDICTED BY IDOCK:   -2.95 KCAL/MOL
REMARK 924 INTRA-LIGAND FREE ENERGY PREDICTED BY IDOCK:   -0.17 KCAL/MOL
REMARK 927      BINDING AFFINITY PREDICTED BY RF-SCORE:    0.00 PKD
ROOT
HETATM    1  C   UNL     1      -6.104  10.368  65.109  1.00  0.00    -0.124 C  
HETATM    2  N   UNL     1      -7.434  10.924  65.257  1.00  0.00    -0.359 NA 
HETATM    3  H   UNL     1      -7.925  11.354  64.473  1.00  0.00     0.000 HD 
ENDROOT
BRANCH   2   4
HETATM    4  C   UNL     1      -8.050  10.838  66.612  1.00  0.00    -0.142 C  
HETATM    5  C   UNL     1      -7.403   9.667  67.411  1.00  0.00    -0.087 C  
HETATM    6  O   UNL     1      -9.973  10.039  65.248  1.00  0.00    -0.315 OA 
HETATM    7  C   UNL     1      -9.514  10.284  66.367  1.00  0.00    -0.174 C  
HETATM    8  C   UNL     1      -8.166   9.260  68.682  1.00  0.00    -0.113 C  
HETATM    9  C   UNL     1     -10.324   9.959  67.602  1.00  0.00    -0.275 C  
HETATM   10  C   UNL     1      -9.610   8.869  68.383  1.00  0.00    -0.157 C  
BRANCH   4  11
HETATM   11  C   UNL     1      -8.126  12.261  67.219  1.00  0.00    -0.182 A  
HETATM   12  C   UNL     1      -7.283  13.727  69.033  1.00  0.00    -0.063 A  
HETATM   13  C   UNL     1      -8.912  14.568  67.493  1.00  0.00    -0.191 A  
HETATM   14  C   UNL     1      -7.305  12.504  68.357  1.00  0.00    -0.114 A  
HETATM   15  C   UNL     1      -8.076  14.773  68.586  1.00  0.00    -0.153 A  
HETATM   16  C   UNL     1      -8.965  13.325  66.834  1.00  0.00    -0.207 A  
HETATM   17 CL   UNL     1     -10.194  13.241  65.623  1.00  0.00    -0.290 Cl 
ENDBRANCH   4  11
ENDBRANCH   2   4
TORSDOF 2
ENDMDL
MODEL      176
REMARK 921   NORMALIZED FREE ENERGY PREDICTED BY IDOCK:   -2.56 KCAL/MOL
REMARK 922        TOTAL FREE ENERGY PREDICTED BY IDOCK:   -3.11 KCAL/MOL
REMARK 923 INTER-LIGAND FREE ENERGY PREDICTED BY IDOCK:   -2.87 KCAL/MOL
REMARK 924 INTRA-LIGAND FREE ENERGY PREDICTED BY IDOCK:   -0.24 KCAL/MOL
REMARK 927      BINDING AFFINITY PREDICTED BY RF-SCORE:    0.00 PKD
ROOT
HETATM    1  C   UNL     1      -7.141  10.315  65.819  1.00  0.00    -0.132 C  
HETATM    2  N   UNL     1      -7.258  11.677  66.302  1.00  0.00    -0.366 NA 
HETATM    3  H   UNL     1      -6.711  12.437  65.899  1.00  0.00     0.000 HD 
ENDROOT
BRANCH   2   4
HETATM    4  C   UNL     1      -8.218  11.912  67.419  1.00  0.00    -0.164 C  
HETATM    5  C   UNL     1      -8.596  10.554  68.082  1.00  0.00    -0.123 C  
HETATM    6  O   UNL     1      -9.713  12.418  65.494  1.00  0.00    -0.225 OA 
HETATM    7  C   UNL     1      -9.580  12.313  66.716  1.00  0.00    -0.218 C  
HETATM    8  C   UNL     1      -9.817  10.615  69.015  1.00  0.00    -0.218 C  
HETATM    9  C   UNL     1     -10.782  12.469  67.622  1.00  0.00    -0.242 C  
HETATM   10  C   UNL     1     -11.059  11.139  68.301  1.00  0.00    -0.310 C  
BRANCH   4  11
HETATM   11  C   UNL     1      -7.707  13.095  68.278  1.00  0.00    -0.141 A  
HETATM   12  C   UNL     1      -7.773  15.558  68.562  1.00  0.00    -0.132 A  
HETATM   13  C   UNL     1      -6.417  14.234  70.026  1.00  0.00    -0.126 A  
HETATM   14  C   UNL     1      -8.166  14.389  67.903  1.00  0.00    -0.157 A  
HETATM   15  C   UNL     1      -6.909  15.478  69.644  1.00  0.00    -0.178 A  
HETATM   16  C   UNL     1      -6.780  13.060  69.339  1.00  0.00    -0.018 A  
HETATM   17 CL   UNL     1      -5.917  11.659  69.867  1.00  0.00    -0.121 Cl 
ENDBRANCH   4  11
ENDBRANCH   2   4
TORSDOF 2
ENDMDL
MODEL      177
REMARK 921   NORMALIZED FREE ENERGY PREDICTED BY IDOCK:   -2.55 KCAL/MOL
REMARK 922        TOTAL FREE ENERGY PREDICTED BY IDOCK:   -3.10 KCAL/MOL
REMARK 923 INTER-LIGAND FREE ENERGY PREDICTED BY IDOCK:   -3.93 KCAL/MOL
REMARK 924 INTRA-LIGAND FREE ENERGY PREDICTED BY IDOCK:    0.84 KCAL/MOL
REMARK 927      BINDING AFFINITY PREDICTED BY RF-SCORE:    0.00 PKD
ROOT
HETATM    1  C   UNL     1     -11.288  14.804  68.664  1.00  0.00    -0.285 C  
HETATM    2  N   UNL     1     -11.599  14.509  67.279  1.00  0.00    -0.371 NA 
HETATM    3  H   UNL     1     -12.456  14.846  66.840  1.00  0.00     0.000 HD 
ENDROOT
BRANCH   2   4
HETATM    4  C   UNL     1     -10.606  13.689  66.528  1.00  0.00    -0.282 C  
HETATM    5  C   UNL     1     -10.788  13.915  64.997  1.00  0.00    -0.389 C  
HETATM    6  O   UNL     1     -12.088  11.866  67.350  1.00  0.00    -0.577 OA 
HETATM    7  C   UNL     1     -11.098  12.192  66.690  1.00  0.00    -0.306 C  
HETATM    8  C   UNL     1     -10.062  12.891  64.109  1.00  0.00    -0.212 C  
HETATM    9  C   UNL     1     -10.344  11.149  65.896  1.00  0.00    -0.314 C  
HETATM   10  C   UNL     1     -10.489  11.460  64.416  1.00  0.00    -0.388 C  
BRANCH   4  11
HETATM   11  C   UNL     1      -9.216  13.855  67.191  1.00  0.00    -0.242 A  
HETATM   12  C   UNL     1      -7.106  15.159  67.154  1.00  0.00    -0.043 A  
HETATM   13  C   UNL     1      -7.344  13.337  68.689  1.00  0.00    -0.101 A  
HETATM   14  C   UNL     1      -8.396  14.901  66.680  1.00  0.00    -0.059 A  
HETATM   15  C   UNL     1      -6.584  14.386  68.179  1.00  0.00    -0.133 A  
HETATM   16  C   UNL     1      -8.627  13.050  68.187  1.00  0.00    -0.188 A  
HETATM   17 CL   UNL     1      -9.313  11.604  68.838  1.00  0.00    -0.044 Cl 
ENDBRANCH   4  11
ENDBRANCH   2   4
TORSDOF 2
ENDMDL
MODEL      178
REMARK 921   NORMALIZED FREE ENERGY PREDICTED BY IDOCK:   -2.52 KCAL/MOL
REMARK 922        TOTAL FREE ENERGY PREDICTED BY IDOCK:   -3.07 KCAL/MOL
REMARK 923 INTER-LIGAND FREE ENERGY PREDICTED BY IDOCK:   -2.82 KCAL/MOL
REMARK 924 INTRA-LIGAND FREE ENERGY PREDICTED BY IDOCK:   -0.25 KCAL/MOL
REMARK 927      BINDING AFFINITY PREDICTED BY RF-SCORE:    0.00 PKD
ROOT
HETATM    1  C   UNL     1     -10.079   7.629  67.064  1.00  0.00    -0.268 C  
HETATM    2  N   UNL     1      -9.050   7.118  67.948  1.00  0.00    -0.129 NA 
HETATM    3  H   UNL     1      -8.159   6.774  67.590  1.00  0.00     0.000 HD 
ENDROOT
BRANCH   2   4
HETATM    4  C   UNL     1      -9.358   7.116  69.407  1.00  0.00    -0.147 C  
HETATM    5  C   UNL     1     -10.779   7.710  69.645  1.00  0.00    -0.230 C  
HETATM    6  O   UNL     1      -7.632   8.910  69.364  1.00  0.00    -0.078 OA 
HETATM    7  C   UNL     1      -8.435   8.245  70.026  1.00  0.00    -0.123 C  
HETATM    8  C   UNL     1     -11.085   8.072  71.108  1.00  0.00    -0.278 C  
HETATM    9  C   UNL     1      -8.651   8.562  71.489  1.00  0.00    -0.236 C  
HETATM   10  C   UNL     1     -10.073   9.061  71.677  1.00  0.00    -0.405 C  
BRANCH   4  11
HETATM   11  C   UNL     1      -8.968   5.740  70.000  1.00  0.00    -0.147 A  
HETATM   12  C   UNL     1      -9.784   3.812  71.330  1.00  0.00    -0.245 A  
HETATM   13  C   UNL     1      -7.511   3.853  70.578  1.00  0.00    -0.041 A  
HETATM   14  C   UNL     1      -9.988   5.050  70.713  1.00  0.00    -0.291 A  
HETATM   15  C   UNL     1      -8.543   3.200  71.244  1.00  0.00    -0.106 A  
HETATM   16  C   UNL     1      -7.703   5.118  69.990  1.00  0.00    -0.067 A  
HETATM   17 CL   UNL     1      -6.249   5.819  69.375  1.00  0.00    -0.031 Cl 
ENDBRANCH   4  11
ENDBRANCH   2   4
TORSDOF 2
ENDMDL
MODEL      179
REMARK 921   NORMALIZED FREE ENERGY PREDICTED BY IDOCK:   -2.52 KCAL/MOL
REMARK 922        TOTAL FREE ENERGY PREDICTED BY IDOCK:   -3.07 KCAL/MOL
REMARK 923 INTER-LIGAND FREE ENERGY PREDICTED BY IDOCK:   -2.70 KCAL/MOL
REMARK 924 INTRA-LIGAND FREE ENERGY PREDICTED BY IDOCK:   -0.37 KCAL/MOL
REMARK 927      BINDING AFFINITY PREDICTED BY RF-SCORE:    0.00 PKD
ROOT
HETATM    1  C   UNL     1      -9.726   7.676  73.230  1.00  0.00    -0.288 C  
HETATM    2  N   UNL     1      -8.817   7.137  72.238  1.00  0.00    -0.128 NA 
HETATM    3  H   UNL     1      -7.883   6.814  72.488  1.00  0.00     0.000 HD 
ENDROOT
BRANCH   2   4
HETATM    4  C   UNL     1      -9.315   7.077  70.834  1.00  0.00    -0.157 C  
HETATM    5  C   UNL     1     -10.843   6.775  70.829  1.00  0.00    -0.291 C  
HETATM    6  O   UNL     1      -7.984   4.973  70.876  1.00  0.00    -0.087 OA 
HETATM    7  C   UNL     1      -8.723   5.732  70.242  1.00  0.00    -0.137 C  
HETATM    8  C   UNL     1     -11.410   6.361  69.462  1.00  0.00    -0.460 C  
HETATM    9  C   UNL     1      -9.194   5.343  68.858  1.00  0.00    -0.147 C  
HETATM   10  C   UNL     1     -10.699   5.137  68.893  1.00  0.00     0.107 C  
BRANCH   4  11
HETATM   11  C   UNL     1      -8.747   8.286  70.049  1.00  0.00    -0.133 A  
HETATM   12  C   UNL     1      -6.778   9.137  68.804  1.00  0.00    -0.053 A  
HETATM   13  C   UNL     1      -8.682  10.554  69.118  1.00  0.00    -0.155 A  
HETATM   14  C   UNL     1      -7.438   8.128  69.513  1.00  0.00    -0.087 A  
HETATM   15  C   UNL     1      -7.412  10.351  68.588  1.00  0.00    -0.088 A  
HETATM   16  C   UNL     1      -9.333   9.554  69.865  1.00  0.00    -0.223 A  
HETATM   17 CL   UNL     1     -10.817  10.082  70.575  1.00  0.00    -0.373 Cl 
ENDBRANCH   4  11
ENDBRANCH   2   4
TORSDOF 2
ENDMDL
MODEL      180
REMARK 921   NORMALIZED FREE ENERGY PREDICTED BY IDOCK:   -2.51 KCAL/MOL
REMARK 922        TOTAL FREE ENERGY PREDICTED BY IDOCK:   -3.06 KCAL/MOL
REMARK 923 INTER-LIGAND FREE ENERGY PREDICTED BY IDOCK:   -2.99 KCAL/MOL
REMARK 924 INTRA-LIGAND FREE ENERGY PREDICTED BY IDOCK:   -0.07 KCAL/MOL
REMARK 927      BINDING AFFINITY PREDICTED BY RF-SCORE:    0.00 PKD
ROOT
HETATM    1  C   UNL     1     -10.518   8.921  66.661  1.00  0.00    -0.161 C  
HETATM    2  N   UNL     1     -11.009   7.763  67.381  1.00  0.00    -0.531 NA 
HETATM    3  H   UNL     1     -11.997   7.510  67.378  1.00  0.00     0.000 HD 
ENDROOT
BRANCH   2   4
HETATM    4  C   UNL     1      -9.999   6.960  68.128  1.00  0.00    -0.155 C  
HETATM    5  C   UNL     1      -9.554   5.741  67.266  1.00  0.00    -0.122 C  
HETATM    6  O   UNL     1     -12.020   6.415  69.477  1.00  0.00    -0.128 OA 
HETATM    7  C   UNL     1     -10.811   6.249  69.288  1.00  0.00    -0.342 C  
HETATM    8  C   UNL     1      -8.778   4.660  68.037  1.00  0.00    -0.112 C  
HETATM    9  C   UNL     1     -10.049   5.244  70.123  1.00  0.00    -0.333 C  
HETATM   10  C   UNL     1      -9.572   4.119  69.222  1.00  0.00    -0.256 C  
BRANCH   4  11
HETATM   11  C   UNL     1      -8.948   7.919  68.740  1.00  0.00    -0.141 A  
HETATM   12  C   UNL     1      -8.496   9.491  70.605  1.00  0.00    -0.166 A  
HETATM   13  C   UNL     1      -6.848   9.177  68.896  1.00  0.00    -0.056 A  
HETATM   14  C   UNL     1      -9.323   8.575  69.946  1.00  0.00    -0.159 A  
HETATM   15  C   UNL     1      -7.242   9.778  70.087  1.00  0.00    -0.146 A  
HETATM   16  C   UNL     1      -7.695   8.285  68.211  1.00  0.00    -0.106 A  
HETATM   17 CL   UNL     1      -7.079   7.799  66.671  1.00  0.00    -0.077 Cl 
ENDBRANCH   4  11
ENDBRANCH   2   4
TORSDOF 2
ENDMDL
MODEL      181
REMARK 921   NORMALIZED FREE ENERGY PREDICTED BY IDOCK:   -2.51 KCAL/MOL
REMARK 922        TOTAL FREE ENERGY PREDICTED BY IDOCK:   -3.06 KCAL/MOL
REMARK 923 INTER-LIGAND FREE ENERGY PREDICTED BY IDOCK:   -3.20 KCAL/MOL
REMARK 924 INTRA-LIGAND FREE ENERGY PREDICTED BY IDOCK:    0.14 KCAL/MOL
REMARK 927      BINDING AFFINITY PREDICTED BY RF-SCORE:    0.00 PKD
ROOT
HETATM    1  C   UNL     1      -7.767  16.674  66.445  1.00  0.00    -0.293 C  
HETATM    2  N   UNL     1      -6.809  15.722  66.969  1.00  0.00    -0.263 NA 
HETATM    3  H   UNL     1      -5.909  15.563  66.516  1.00  0.00     0.000 HD 
ENDROOT
BRANCH   2   4
HETATM    4  C   UNL     1      -7.203  14.984  68.204  1.00  0.00    -0.117 C  
HETATM    5  C   UNL     1      -6.326  15.458  69.401  1.00  0.00    -0.134 C  
HETATM    6  O   UNL     1      -6.100  13.128  66.964  1.00  0.00    -0.214 OA 
HETATM    7  C   UNL     1      -6.675  13.506  67.989  1.00  0.00    -0.138 C  
HETATM    8  C   UNL     1      -6.397  14.554  70.643  1.00  0.00    -0.081 C  
HETATM    9  C   UNL     1      -6.813  12.566  69.166  1.00  0.00    -0.062 C  
HETATM   10  C   UNL     1      -6.004  13.115  70.329  1.00  0.00    -0.131 C  
BRANCH   4  11
HETATM   11  C   UNL     1      -8.748  14.975  68.311  1.00  0.00    -0.166 A  
HETATM   12  C   UNL     1     -10.682  15.778  69.640  1.00  0.00    -0.292 A  
HETATM   13  C   UNL     1     -11.055  14.364  67.744  1.00  0.00    -0.299 A  
HETATM   14  C   UNL     1      -9.307  15.712  69.393  1.00  0.00    -0.279 A  
HETATM   15  C   UNL     1     -11.562  15.116  68.798  1.00  0.00    -0.369 A  
HETATM   16  C   UNL     1      -9.669  14.264  67.516  1.00  0.00    -0.223 A  
HETATM   17 CL   UNL     1      -9.256  13.141  66.270  1.00  0.00    -0.141 Cl 
ENDBRANCH   4  11
ENDBRANCH   2   4
TORSDOF 2
ENDMDL
MODEL      182
REMARK 921   NORMALIZED FREE ENERGY PREDICTED BY IDOCK:   -2.50 KCAL/MOL
REMARK 922        TOTAL FREE ENERGY PREDICTED BY IDOCK:   -3.04 KCAL/MOL
REMARK 923 INTER-LIGAND FREE ENERGY PREDICTED BY IDOCK:   -2.74 KCAL/MOL
REMARK 924 INTRA-LIGAND FREE ENERGY PREDICTED BY IDOCK:   -0.30 KCAL/MOL
REMARK 927      BINDING AFFINITY PREDICTED BY RF-SCORE:    0.00 PKD
ROOT
HETATM    1  C   UNL     1      -9.752  10.671  63.951  1.00  0.00    -0.321 C  
HETATM    2  N   UNL     1     -10.068   9.729  65.006  1.00  0.00    -0.334 NA 
HETATM    3  H   UNL     1     -11.032   9.500  65.248  1.00  0.00     0.000 HD 
ENDROOT
BRANCH   2   4
HETATM    4  C   UNL     1      -8.916   9.111  65.722  1.00  0.00    -0.193 C  
HETATM    5  C   UNL     1      -8.164   8.138  64.765  1.00  0.00    -0.137 C  
HETATM    6  O   UNL     1     -10.782   7.953  66.894  1.00  0.00    -0.333 OA 
HETATM    7  C   UNL     1      -9.564   8.101  66.756  1.00  0.00    -0.217 C  
HETATM    8  C   UNL     1      -7.171   7.194  65.463  1.00  0.00    -0.070 C  
HETATM    9  C   UNL     1      -8.605   7.220  67.525  1.00  0.00    -0.122 C  
HETATM   10  C   UNL     1      -7.843   6.349  66.541  1.00  0.00    -0.104 C  
BRANCH   4  11
HETATM   11  C   UNL     1      -8.148  10.218  66.485  1.00  0.00    -0.121 A  
HETATM   12  C   UNL     1      -8.274  11.831  68.365  1.00  0.00    -0.154 A  
HETATM   13  C   UNL     1      -6.325  11.784  66.976  1.00  0.00    -0.150 A  
HETATM   14  C   UNL     1      -8.824  10.802  67.593  1.00  0.00    -0.132 A  
HETATM   15  C   UNL     1      -7.008  12.311  68.067  1.00  0.00    -0.093 A  
HETATM   16  C   UNL     1      -6.892  10.775  66.174  1.00  0.00    -0.126 A  
HETATM   17 CL   UNL     1      -5.949  10.397  64.776  1.00  0.00    -0.134 Cl 
ENDBRANCH   4  11
ENDBRANCH   2   4
TORSDOF 2
ENDMDL
MODEL      183
REMARK 921   NORMALIZED FREE ENERGY PREDICTED BY IDOCK:   -2.49 KCAL/MOL
REMARK 922        TOTAL FREE ENERGY PREDICTED BY IDOCK:   -3.04 KCAL/MOL
REMARK 923 INTER-LIGAND FREE ENERGY PREDICTED BY IDOCK:   -2.67 KCAL/MOL
REMARK 924 INTRA-LIGAND FREE ENERGY PREDICTED BY IDOCK:   -0.37 KCAL/MOL
REMARK 927      BINDING AFFINITY PREDICTED BY RF-SCORE:    0.00 PKD
ROOT
HETATM    1  C   UNL     1      -7.281   4.401  67.827  1.00  0.00    -0.065 C  
HETATM    2  N   UNL     1      -7.117   5.207  66.635  1.00  0.00    -0.068 NA 
HETATM    3  H   UNL     1      -6.231   5.664  66.415  1.00  0.00     0.000 HD 
ENDROOT
BRANCH   2   4
HETATM    4  C   UNL     1      -8.305   5.338  65.743  1.00  0.00    -0.123 C  
HETATM    5  C   UNL     1      -9.189   4.061  65.855  1.00  0.00    -0.152 C  
HETATM    6  O   UNL     1      -6.537   5.057  64.013  1.00  0.00    -0.039 OA 
HETATM    7  C   UNL     1      -7.735   5.202  64.271  1.00  0.00    -0.088 C  
HETATM    8  C   UNL     1     -10.254   3.921  64.755  1.00  0.00    -0.196 C  
HETATM    9  C   UNL     1      -8.758   5.153  63.158  1.00  0.00    -0.048 C  
HETATM   10  C   UNL     1      -9.642   3.934  63.358  1.00  0.00    -0.149 C  
BRANCH   4  11
HETATM   11  C   UNL     1      -8.923   6.745  65.935  1.00  0.00    -0.095 A  
HETATM   12  C   UNL     1      -8.713   9.141  65.326  1.00  0.00    -0.219 A  
HETATM   13  C   UNL     1     -10.435   8.451  66.841  1.00  0.00    -0.359 A  
HETATM   14  C   UNL     1      -8.291   7.811  65.234  1.00  0.00    -0.128 A  
HETATM   15  C   UNL     1      -9.805   9.460  66.119  1.00  0.00    -0.356 A  
HETATM   16  C   UNL     1      -9.987   7.118  66.780  1.00  0.00    -0.208 A  
HETATM   17 CL   UNL     1     -10.798   6.069  67.888  1.00  0.00    -0.373 Cl 
ENDBRANCH   4  11
ENDBRANCH   2   4
TORSDOF 2
ENDMDL
MODEL      184
REMARK 921   NORMALIZED FREE ENERGY PREDICTED BY IDOCK:   -2.45 KCAL/MOL
REMARK 922        TOTAL FREE ENERGY PREDICTED BY IDOCK:   -2.99 KCAL/MOL
REMARK 923 INTER-LIGAND FREE ENERGY PREDICTED BY IDOCK:   -2.63 KCAL/MOL
REMARK 924 INTRA-LIGAND FREE ENERGY PREDICTED BY IDOCK:   -0.36 KCAL/MOL
REMARK 927      BINDING AFFINITY PREDICTED BY RF-SCORE:    0.00 PKD
ROOT
HETATM    1  C   UNL     1      -8.732   3.351  69.500  1.00  0.00    -0.076 C  
HETATM    2  N   UNL     1      -9.576   4.453  69.084  1.00  0.00    -0.174 NA 
HETATM    3  H   UNL     1      -9.958   4.508  68.139  1.00  0.00     0.000 HD 
ENDROOT
BRANCH   2   4
HETATM    4  C   UNL     1      -9.859   5.505  70.102  1.00  0.00    -0.198 C  
HETATM    5  C   UNL     1     -10.555   4.864  71.340  1.00  0.00    -0.104 C  
HETATM    6  O   UNL     1     -11.527   6.163  68.375  1.00  0.00    -0.152 OA 
HETATM    7  C   UNL     1     -11.036   6.370  69.489  1.00  0.00    -0.359 C  
HETATM    8  C   UNL     1     -11.195   5.872  72.308  1.00  0.00    -0.343 C  
HETATM    9  C   UNL     1     -11.627   7.433  70.388  1.00  0.00    -0.210 C  
HETATM   10  C   UNL     1     -12.222   6.762  71.614  1.00  0.00    -0.410 C  
BRANCH   4  11
HETATM   11  C   UNL     1      -8.598   6.388  70.275  1.00  0.00    -0.135 A  
HETATM   12  C   UNL     1      -7.235   8.182  69.239  1.00  0.00    -0.072 A  
HETATM   13  C   UNL     1      -6.527   7.202  71.306  1.00  0.00    -0.041 A  
HETATM   14  C   UNL     1      -8.347   7.333  69.242  1.00  0.00    -0.132 A  
HETATM   15  C   UNL     1      -6.331   8.131  70.289  1.00  0.00    -0.036 A  
HETATM   16  C   UNL     1      -7.624   6.319  71.290  1.00  0.00    -0.094 A  
HETATM   17 CL   UNL     1      -7.573   5.138  72.550  1.00  0.00    -0.095 Cl 
ENDBRANCH   4  11
ENDBRANCH   2   4
TORSDOF 2
ENDMDL
MODEL      185
REMARK 921   NORMALIZED FREE ENERGY PREDICTED BY IDOCK:   -2.43 KCAL/MOL
REMARK 922        TOTAL FREE ENERGY PREDICTED BY IDOCK:   -2.97 KCAL/MOL
REMARK 923 INTER-LIGAND FREE ENERGY PREDICTED BY IDOCK:   -3.16 KCAL/MOL
REMARK 924 INTRA-LIGAND FREE ENERGY PREDICTED BY IDOCK:    0.19 KCAL/MOL
REMARK 927      BINDING AFFINITY PREDICTED BY RF-SCORE:    0.00 PKD
ROOT
HETATM    1  C   UNL     1      -8.066   6.620  65.469  1.00  0.00    -0.124 C  
HETATM    2  N   UNL     1      -9.125   7.536  65.843  1.00  0.00    -0.359 NA 
HETATM    3  H   UNL     1      -9.604   8.110  65.150  1.00  0.00     0.000 HD 
ENDROOT
BRANCH   2   4
HETATM    4  C   UNL     1      -9.479   7.598  67.290  1.00  0.00    -0.148 C  
HETATM    5  C   UNL     1      -8.452   6.770  68.119  1.00  0.00    -0.121 C  
HETATM    6  O   UNL     1     -11.346   6.162  66.483  1.00  0.00    -0.054 OA 
HETATM    7  C   UNL     1     -10.788   6.716  67.434  1.00  0.00    -0.363 C  
HETATM    8  C   UNL     1      -8.885   6.477  69.565  1.00  0.00    -0.138 C  
HETATM    9  C   UNL     1     -11.290   6.485  68.842  1.00  0.00    -0.267 C  
HETATM   10  C   UNL     1     -10.221   5.745  69.628  1.00  0.00    -0.299 C  
BRANCH   4  11
HETATM   11  C   UNL     1      -9.797   9.066  67.666  1.00  0.00    -0.220 A  
HETATM   12  C   UNL     1     -11.081  11.084  67.010  1.00  0.00    -0.311 A  
HETATM   13  C   UNL     1      -9.630  11.173  68.912  1.00  0.00    -0.154 A  
HETATM   14  C   UNL     1     -10.715   9.748  66.819  1.00  0.00    -0.143 A  
HETATM   15  C   UNL     1     -10.551  11.795  68.075  1.00  0.00    -0.235 A  
HETATM   16  C   UNL     1      -9.230   9.839  68.698  1.00  0.00    -0.137 A  
HETATM   17 CL   UNL     1      -7.952   9.330  69.743  1.00  0.00    -0.091 Cl 
ENDBRANCH   4  11
ENDBRANCH   2   4
TORSDOF 2
ENDMDL
MODEL      186
REMARK 921   NORMALIZED FREE ENERGY PREDICTED BY IDOCK:   -2.42 KCAL/MOL
REMARK 922        TOTAL FREE ENERGY PREDICTED BY IDOCK:   -2.96 KCAL/MOL
REMARK 923 INTER-LIGAND FREE ENERGY PREDICTED BY IDOCK:   -2.72 KCAL/MOL
REMARK 924 INTRA-LIGAND FREE ENERGY PREDICTED BY IDOCK:   -0.24 KCAL/MOL
REMARK 927      BINDING AFFINITY PREDICTED BY RF-SCORE:    0.00 PKD
ROOT
HETATM    1  C   UNL     1      -8.784  11.486  67.751  1.00  0.00    -0.142 C  
HETATM    2  N   UNL     1      -8.431  10.121  67.415  1.00  0.00    -0.122 NA 
HETATM    3  H   UNL     1      -8.062   9.875  66.497  1.00  0.00     0.000 HD 
ENDROOT
BRANCH   2   4
HETATM    4  C   UNL     1      -8.634   9.094  68.476  1.00  0.00    -0.129 C  
HETATM    5  C   UNL     1      -9.351   9.738  69.701  1.00  0.00    -0.237 C  
HETATM    6  O   UNL     1      -6.164   9.357  68.643  1.00  0.00    -0.044 OA 
HETATM    7  C   UNL     1      -7.190   8.815  69.065  1.00  0.00    -0.072 C  
HETATM    8  C   UNL     1      -9.323   8.886  70.980  1.00  0.00    -0.313 C  
HETATM    9  C   UNL     1      -7.121   7.907  70.272  1.00  0.00    -0.049 C  
HETATM   10  C   UNL     1      -7.900   8.544  71.410  1.00  0.00    -0.153 C  
BRANCH   4  11
HETATM   11  C   UNL     1      -9.190   7.803  67.825  1.00  0.00    -0.143 A  
HETATM   12  C   UNL     1     -11.024   6.136  67.898  1.00  0.00    -0.399 A  
HETATM   13  C   UNL     1      -9.236   5.859  66.330  1.00  0.00    -0.171 A  
HETATM   14  C   UNL     1     -10.411   7.305  68.359  1.00  0.00    -0.228 A  
HETATM   15  C   UNL     1     -10.444   5.420  66.862  1.00  0.00    -0.337 A  
HETATM   16  C   UNL     1      -8.597   7.014  66.819  1.00  0.00    -0.120 A  
HETATM   17 CL   UNL     1      -7.030   7.273  66.139  1.00  0.00    -0.064 Cl 
ENDBRANCH   4  11
ENDBRANCH   2   4
TORSDOF 2
ENDMDL
MODEL      187
REMARK 921   NORMALIZED FREE ENERGY PREDICTED BY IDOCK:   -2.42 KCAL/MOL
REMARK 922        TOTAL FREE ENERGY PREDICTED BY IDOCK:   -2.96 KCAL/MOL
REMARK 923 INTER-LIGAND FREE ENERGY PREDICTED BY IDOCK:   -3.17 KCAL/MOL
REMARK 924 INTRA-LIGAND FREE ENERGY PREDICTED BY IDOCK:    0.21 KCAL/MOL
REMARK 927      BINDING AFFINITY PREDICTED BY RF-SCORE:    0.00 PKD
ROOT
HETATM    1  C   UNL     1      -8.371   7.698  71.659  1.00  0.00    -0.108 C  
HETATM    2  N   UNL     1      -8.522   9.059  71.185  1.00  0.00    -0.248 NA 
HETATM    3  H   UNL     1      -8.136   9.851  71.698  1.00  0.00     0.000 HD 
ENDROOT
BRANCH   2   4
HETATM    4  C   UNL     1      -9.270   9.246  69.908  1.00  0.00    -0.195 C  
HETATM    5  C   UNL     1      -8.743  10.513  69.171  1.00  0.00    -0.155 C  
HETATM    6  O   UNL     1     -11.076   9.831  71.519  1.00  0.00    -0.343 OA 
HETATM    7  C   UNL     1     -10.721   9.711  70.343  1.00  0.00    -0.298 C  
HETATM    8  C   UNL     1      -9.640  11.005  68.023  1.00  0.00    -0.175 C  
HETATM    9  C   UNL     1     -11.658  10.117  69.227  1.00  0.00    -0.120 C  
HETATM   10  C   UNL     1     -11.060  11.305  68.492  1.00  0.00    -0.288 C  
BRANCH   4  11
HETATM   11  C   UNL     1      -9.357   7.885  69.175  1.00  0.00    -0.154 A  
HETATM   12  C   UNL     1     -10.765   5.875  68.813  1.00  0.00    -0.354 A  
HETATM   13  C   UNL     1      -8.608   6.009  67.782  1.00  0.00    -0.106 A  
HETATM   14  C   UNL     1     -10.548   7.133  69.383  1.00  0.00    -0.246 A  
HETATM   15  C   UNL     1      -9.797   5.318  67.991  1.00  0.00    -0.193 A  
HETATM   16  C   UNL     1      -8.371   7.259  68.387  1.00  0.00    -0.125 A  
HETATM   17 CL   UNL     1      -6.767   7.851  68.136  1.00  0.00    -0.062 Cl 
ENDBRANCH   4  11
ENDBRANCH   2   4
TORSDOF 2
ENDMDL
MODEL      188
REMARK 921   NORMALIZED FREE ENERGY PREDICTED BY IDOCK:   -2.41 KCAL/MOL
REMARK 922        TOTAL FREE ENERGY PREDICTED BY IDOCK:   -2.95 KCAL/MOL
REMARK 923 INTER-LIGAND FREE ENERGY PREDICTED BY IDOCK:   -2.62 KCAL/MOL
REMARK 924 INTRA-LIGAND FREE ENERGY PREDICTED BY IDOCK:   -0.33 KCAL/MOL
REMARK 927      BINDING AFFINITY PREDICTED BY RF-SCORE:    0.00 PKD
ROOT
HETATM    1  C   UNL     1      -9.691  10.407  64.186  1.00  0.00    -0.324 C  
HETATM    2  N   UNL     1      -9.343  11.073  65.425  1.00  0.00    -0.210 NA 
HETATM    3  H   UNL     1      -9.299  12.089  65.492  1.00  0.00     0.000 HD 
ENDROOT
BRANCH   2   4
HETATM    4  C   UNL     1      -9.051  10.199  66.598  1.00  0.00    -0.144 C  
HETATM    5  C   UNL     1      -9.251   8.705  66.204  1.00  0.00    -0.271 C  
HETATM    6  O   UNL     1     -11.185  11.216  67.379  1.00  0.00    -0.289 OA 
HETATM    7  C   UNL     1     -10.259  10.429  67.597  1.00  0.00    -0.201 C  
HETATM    8  C   UNL     1      -9.308   7.732  67.392  1.00  0.00    -0.168 C  
HETATM    9  C   UNL     1     -10.293   9.545  68.824  1.00  0.00    -0.228 C  
HETATM   10  C   UNL     1     -10.410   8.097  68.381  1.00  0.00    -0.236 C  
BRANCH   4  11
HETATM   11  C   UNL     1      -7.731  10.671  67.258  1.00  0.00    -0.108 A  
HETATM   12  C   UNL     1      -6.755  12.215  68.935  1.00  0.00    -0.094 A  
HETATM   13  C   UNL     1      -5.312  10.817  67.634  1.00  0.00    -0.040 A  
HETATM   14  C   UNL     1      -7.854  11.668  68.266  1.00  0.00    -0.136 A  
HETATM   15  C   UNL     1      -5.477  11.772  68.631  1.00  0.00    -0.049 A  
HETATM   16  C   UNL     1      -6.414  10.293  66.931  1.00  0.00    -0.071 A  
HETATM   17 CL   UNL     1      -5.966   9.259  65.622  1.00  0.00    -0.054 Cl 
ENDBRANCH   4  11
ENDBRANCH   2   4
TORSDOF 2
ENDMDL
MODEL      189
REMARK 921   NORMALIZED FREE ENERGY PREDICTED BY IDOCK:   -2.41 KCAL/MOL
REMARK 922        TOTAL FREE ENERGY PREDICTED BY IDOCK:   -2.95 KCAL/MOL
REMARK 923 INTER-LIGAND FREE ENERGY PREDICTED BY IDOCK:   -2.81 KCAL/MOL
REMARK 924 INTRA-LIGAND FREE ENERGY PREDICTED BY IDOCK:   -0.13 KCAL/MOL
REMARK 927      BINDING AFFINITY PREDICTED BY RF-SCORE:    0.00 PKD
ROOT
HETATM    1  C   UNL     1     -10.857   6.796  67.068  1.00  0.00    -0.383 C  
HETATM    2  N   UNL     1     -10.740   8.236  67.184  1.00  0.00    -0.446 NA 
HETATM    3  H   UNL     1     -11.553   8.847  67.105  1.00  0.00     0.000 HD 
ENDROOT
BRANCH   2   4
HETATM    4  C   UNL     1      -9.373   8.781  67.425  1.00  0.00    -0.137 C  
HETATM    5  C   UNL     1      -8.909   8.418  68.868  1.00  0.00    -0.143 C  
HETATM    6  O   UNL     1     -10.656  10.914  67.406  1.00  0.00    -0.213 OA 
HETATM    7  C   UNL     1      -9.567  10.349  67.540  1.00  0.00    -0.156 C  
HETATM    8  C   UNL     1      -7.674   9.193  69.357  1.00  0.00    -0.080 C  
HETATM    9  C   UNL     1      -8.345  11.150  67.933  1.00  0.00    -0.129 C  
HETATM   10  C   UNL     1      -7.889  10.702  69.311  1.00  0.00    -0.140 C  
BRANCH   4  11
HETATM   11  C   UNL     1      -8.480   8.454  66.203  1.00  0.00    -0.139 A  
HETATM   12  C   UNL     1      -6.507   7.164  65.434  1.00  0.00    -0.047 A  
HETATM   13  C   UNL     1      -7.651   8.602  63.899  1.00  0.00    -0.127 A  
HETATM   14  C   UNL     1      -7.415   7.538  66.430  1.00  0.00    -0.084 A  
HETATM   15  C   UNL     1      -6.638   7.683  64.156  1.00  0.00    -0.052 A  
HETATM   16  C   UNL     1      -8.543   9.010  64.910  1.00  0.00    -0.180 A  
HETATM   17 CL   UNL     1      -9.601  10.283  64.418  1.00  0.00    -0.357 Cl 
ENDBRANCH   4  11
ENDBRANCH   2   4
TORSDOF 2
ENDMDL
MODEL      190
REMARK 921   NORMALIZED FREE ENERGY PREDICTED BY IDOCK:   -2.41 KCAL/MOL
REMARK 922        TOTAL FREE ENERGY PREDICTED BY IDOCK:   -2.94 KCAL/MOL
REMARK 923 INTER-LIGAND FREE ENERGY PREDICTED BY IDOCK:   -2.76 KCAL/MOL
REMARK 924 INTRA-LIGAND FREE ENERGY PREDICTED BY IDOCK:   -0.18 KCAL/MOL
REMARK 927      BINDING AFFINITY PREDICTED BY RF-SCORE:    0.00 PKD
ROOT
HETATM    1  C   UNL     1      -8.951  10.185  66.703  1.00  0.00    -0.140 C  
HETATM    2  N   UNL     1      -9.754   9.864  67.866  1.00  0.00    -0.139 NA 
HETATM    3  H   UNL     1     -10.344  10.563  68.318  1.00  0.00     0.000 HD 
ENDROOT
BRANCH   2   4
HETATM    4  C   UNL     1      -9.676   8.464  68.370  1.00  0.00    -0.156 C  
HETATM    5  C   UNL     1     -10.667   7.562  67.574  1.00  0.00    -0.296 C  
HETATM    6  O   UNL     1     -10.800   9.528  70.320  1.00  0.00    -0.232 OA 
HETATM    7  C   UNL     1     -10.358   8.499  69.800  1.00  0.00    -0.212 C  
HETATM    8  C   UNL     1     -10.929   6.185  68.206  1.00  0.00    -0.397 C  
HETATM    9  C   UNL     1     -10.548   7.165  70.487  1.00  0.00    -0.243 C  
HETATM   10  C   UNL     1     -11.457   6.299  69.632  1.00  0.00    -0.425 C  
BRANCH   4  11
HETATM   11  C   UNL     1      -8.187   8.064  68.513  1.00  0.00    -0.126 A  
HETATM   12  C   UNL     1      -6.469   6.409  67.836  1.00  0.00    -0.049 A  
HETATM   13  C   UNL     1      -5.883   8.169  69.350  1.00  0.00    -0.030 A  
HETATM   14  C   UNL     1      -7.773   6.912  67.788  1.00  0.00    -0.112 A  
HETATM   15  C   UNL     1      -5.513   7.053  68.605  1.00  0.00    -0.018 A  
HETATM   16  C   UNL     1      -7.205   8.654  69.334  1.00  0.00    -0.057 A  
HETATM   17 CL   UNL     1      -7.482   9.932  70.463  1.00  0.00    -0.130 Cl 
ENDBRANCH   4  11
ENDBRANCH   2   4
TORSDOF 2
ENDMDL
MODEL      191
REMARK 921   NORMALIZED FREE ENERGY PREDICTED BY IDOCK:   -2.40 KCAL/MOL
REMARK 922        TOTAL FREE ENERGY PREDICTED BY IDOCK:   -2.93 KCAL/MOL
REMARK 923 INTER-LIGAND FREE ENERGY PREDICTED BY IDOCK:   -2.63 KCAL/MOL
REMARK 924 INTRA-LIGAND FREE ENERGY PREDICTED BY IDOCK:   -0.30 KCAL/MOL
REMARK 927      BINDING AFFINITY PREDICTED BY RF-SCORE:    0.00 PKD
ROOT
HETATM    1  C   UNL     1      -9.826  10.005  66.876  1.00  0.00    -0.197 C  
HETATM    2  N   UNL     1      -9.627   8.652  67.357  1.00  0.00    -0.152 NA 
HETATM    3  H   UNL     1     -10.048   7.850  66.888  1.00  0.00     0.000 HD 
ENDROOT
BRANCH   2   4
HETATM    4  C   UNL     1      -8.776   8.489  68.570  1.00  0.00    -0.139 C  
HETATM    5  C   UNL     1      -8.491   9.884  69.204  1.00  0.00    -0.148 C  
HETATM    6  O   UNL     1      -7.090   7.935  66.824  1.00  0.00    -0.074 OA 
HETATM    7  C   UNL     1      -7.344   8.091  68.022  1.00  0.00    -0.096 C  
HETATM    8  C   UNL     1      -7.367   9.893  70.252  1.00  0.00    -0.166 C  
HETATM    9  C   UNL     1      -6.234   8.004  69.046  1.00  0.00    -0.039 C  
HETATM   10  C   UNL     1      -6.051   9.368  69.687  1.00  0.00    -0.039 C  
BRANCH   4  11
HETATM   11  C   UNL     1      -9.346   7.333  69.430  1.00  0.00    -0.151 A  
HETATM   12  C   UNL     1      -9.392   4.871  69.722  1.00  0.00    -0.200 A  
HETATM   13  C   UNL     1     -10.697   6.259  71.173  1.00  0.00    -0.301 A  
HETATM   14  C   UNL     1      -8.943   6.019  69.062  1.00  0.00    -0.124 A  
HETATM   15  C   UNL     1     -10.259   4.993  70.797  1.00  0.00    -0.299 A  
HETATM   16  C   UNL     1     -10.276   7.414  70.485  1.00  0.00    -0.193 A  
HETATM   17 CL   UNL     1     -11.079   8.853  71.003  1.00  0.00    -0.314 Cl 
ENDBRANCH   4  11
ENDBRANCH   2   4
TORSDOF 2
ENDMDL
MODEL      192
REMARK 921   NORMALIZED FREE ENERGY PREDICTED BY IDOCK:   -2.39 KCAL/MOL
REMARK 922        TOTAL FREE ENERGY PREDICTED BY IDOCK:   -2.92 KCAL/MOL
REMARK 923 INTER-LIGAND FREE ENERGY PREDICTED BY IDOCK:   -2.64 KCAL/MOL
REMARK 924 INTRA-LIGAND FREE ENERGY PREDICTED BY IDOCK:   -0.28 KCAL/MOL
REMARK 927      BINDING AFFINITY PREDICTED BY RF-SCORE:    0.00 PKD
ROOT
HETATM    1  C   UNL     1      -7.878   8.720  67.545  1.00  0.00    -0.102 C  
HETATM    2  N   UNL     1      -8.669   8.609  68.755  1.00  0.00    -0.134 NA 
HETATM    3  H   UNL     1      -9.132   9.419  69.167  1.00  0.00     0.000 HD 
ENDROOT
BRANCH   2   4
HETATM    4  C   UNL     1      -8.774   7.254  69.367  1.00  0.00    -0.137 C  
HETATM    5  C   UNL     1      -7.771   6.284  68.673  1.00  0.00    -0.101 C  
HETATM    6  O   UNL     1     -10.948   7.313  68.155  1.00  0.00    -0.115 OA 
HETATM    7  C   UNL     1     -10.165   6.681  68.869  1.00  0.00    -0.177 C  
HETATM    8  C   UNL     1      -8.007   4.795  68.974  1.00  0.00    -0.075 C  
HETATM    9  C   UNL     1     -10.465   5.242  69.228  1.00  0.00    -0.255 C  
HETATM   10  C   UNL     1      -9.414   4.349  68.592  1.00  0.00    -0.219 C  
BRANCH   4  11
HETATM   11  C   UNL     1      -8.793   7.400  70.908  1.00  0.00    -0.148 A  
HETATM   12  C   UNL     1     -10.254   7.718  72.887  1.00  0.00    -0.377 A  
HETATM   13  C   UNL     1      -7.879   7.615  73.175  1.00  0.00    -0.142 A  
HETATM   14  C   UNL     1     -10.074   7.548  71.511  1.00  0.00    -0.201 A  
HETATM   15  C   UNL     1      -9.151   7.731  73.727  1.00  0.00    -0.333 A  
HETATM   16  C   UNL     1      -7.693   7.483  71.785  1.00  0.00    -0.085 A  
HETATM   17 CL   UNL     1      -6.033   7.535  71.306  1.00  0.00    -0.035 Cl 
ENDBRANCH   4  11
ENDBRANCH   2   4
TORSDOF 2
ENDMDL
MODEL      193
REMARK 921   NORMALIZED FREE ENERGY PREDICTED BY IDOCK:   -2.36 KCAL/MOL
REMARK 922        TOTAL FREE ENERGY PREDICTED BY IDOCK:   -2.89 KCAL/MOL
REMARK 923 INTER-LIGAND FREE ENERGY PREDICTED BY IDOCK:   -2.62 KCAL/MOL
REMARK 924 INTRA-LIGAND FREE ENERGY PREDICTED BY IDOCK:   -0.26 KCAL/MOL
REMARK 927      BINDING AFFINITY PREDICTED BY RF-SCORE:    0.00 PKD
ROOT
HETATM    1  C   UNL     1     -10.307  10.547  68.649  1.00  0.00    -0.185 C  
HETATM    2  N   UNL     1     -10.570   9.253  69.248  1.00  0.00    -0.224 NA 
HETATM    3  H   UNL     1     -11.268   9.135  69.982  1.00  0.00     0.000 HD 
ENDROOT
BRANCH   2   4
HETATM    4  C   UNL     1      -9.771   8.102  68.738  1.00  0.00    -0.153 C  
HETATM    5  C   UNL     1      -9.929   7.996  67.192  1.00  0.00    -0.303 C  
HETATM    6  O   UNL     1     -11.572   6.848  69.913  1.00  0.00    -0.272 OA 
HETATM    7  C   UNL     1     -10.547   6.810  69.227  1.00  0.00    -0.231 C  
HETATM    8  C   UNL     1      -9.435   6.671  66.587  1.00  0.00    -0.201 C  
HETATM    9  C   UNL     1     -10.027   5.483  68.719  1.00  0.00    -0.231 C  
HETATM   10  C   UNL     1     -10.132   5.463  67.204  1.00  0.00    -0.231 C  
BRANCH   4  11
HETATM   11  C   UNL     1      -8.365   8.142  69.387  1.00  0.00    -0.123 A  
HETATM   12  C   UNL     1      -5.930   8.208  68.921  1.00  0.00    -0.039 A  
HETATM   13  C   UNL     1      -6.698   8.107  71.186  1.00  0.00    -0.044 A  
HETATM   14  C   UNL     1      -7.261   8.195  68.491  1.00  0.00    -0.088 A  
HETATM   15  C   UNL     1      -5.648   8.185  70.278  1.00  0.00    -0.022 A  
HETATM   16  C   UNL     1      -8.038   8.055  70.754  1.00  0.00    -0.101 A  
HETATM   17 CL   UNL     1      -9.163   7.782  72.037  1.00  0.00    -0.175 Cl 
ENDBRANCH   4  11
ENDBRANCH   2   4
TORSDOF 2
ENDMDL
MODEL      194
REMARK 921   NORMALIZED FREE ENERGY PREDICTED BY IDOCK:   -2.35 KCAL/MOL
REMARK 922        TOTAL FREE ENERGY PREDICTED BY IDOCK:   -2.88 KCAL/MOL
REMARK 923 INTER-LIGAND FREE ENERGY PREDICTED BY IDOCK:   -3.41 KCAL/MOL
REMARK 924 INTRA-LIGAND FREE ENERGY PREDICTED BY IDOCK:    0.53 KCAL/MOL
REMARK 927      BINDING AFFINITY PREDICTED BY RF-SCORE:    0.00 PKD
ROOT
HETATM    1  C   UNL     1     -11.397   9.922  69.880  1.00  0.00    -0.222 C  
HETATM    2  N   UNL     1     -11.210   8.493  70.040  1.00  0.00    -0.429 NA 
HETATM    3  H   UNL     1     -11.684   7.971  70.777  1.00  0.00     0.000 HD 
ENDROOT
BRANCH   2   4
HETATM    4  C   UNL     1     -10.292   7.824  69.075  1.00  0.00    -0.211 C  
HETATM    5  C   UNL     1     -10.900   6.462  68.628  1.00  0.00    -0.379 C  
HETATM    6  O   UNL     1      -8.944   7.567  71.152  1.00  0.00    -0.141 OA 
HETATM    7  C   UNL     1      -9.053   7.350  69.942  1.00  0.00    -0.141 C  
HETATM    8  C   UNL     1      -9.917   5.528  67.903  1.00  0.00    -0.185 C  
HETATM    9  C   UNL     1      -8.021   6.503  69.231  1.00  0.00    -0.111 C  
HETATM   10  C   UNL     1      -8.684   5.225  68.749  1.00  0.00    -0.093 C  
BRANCH   4  11
HETATM   11  C   UNL     1      -9.825   8.863  68.025  1.00  0.00    -0.199 A  
HETATM   12  C   UNL     1      -9.902   9.477  65.623  1.00  0.00    -0.343 A  
HETATM   13  C   UNL     1      -8.629  10.816  67.146  1.00  0.00    -0.128 A  
HETATM   14  C   UNL     1     -10.261   8.644  66.688  1.00  0.00    -0.343 A  
HETATM   15  C   UNL     1      -9.097  10.581  65.857  1.00  0.00    -0.192 A  
HETATM   16  C   UNL     1      -8.957   9.957  68.212  1.00  0.00    -0.119 A  
HETATM   17 CL   UNL     1      -8.126  10.334  69.679  1.00  0.00    -0.174 Cl 
ENDBRANCH   4  11
ENDBRANCH   2   4
TORSDOF 2
ENDMDL
MODEL      195
REMARK 921   NORMALIZED FREE ENERGY PREDICTED BY IDOCK:   -2.34 KCAL/MOL
REMARK 922        TOTAL FREE ENERGY PREDICTED BY IDOCK:   -2.87 KCAL/MOL
REMARK 923 INTER-LIGAND FREE ENERGY PREDICTED BY IDOCK:   -3.82 KCAL/MOL
REMARK 924 INTRA-LIGAND FREE ENERGY PREDICTED BY IDOCK:    0.95 KCAL/MOL
REMARK 927      BINDING AFFINITY PREDICTED BY RF-SCORE:    0.00 PKD
ROOT
HETATM    1  C   UNL     1      -6.850  15.006  67.336  1.00  0.00    -0.111 C  
HETATM    2  N   UNL     1      -6.211  16.190  67.875  1.00  0.00    -0.117 NA 
HETATM    3  H   UNL     1      -5.240  16.180  68.184  1.00  0.00     0.000 HD 
ENDROOT
BRANCH   2   4
HETATM    4  C   UNL     1      -7.044  17.424  67.955  1.00  0.00    -0.184 C  
HETATM    5  C   UNL     1      -6.679  18.383  66.783  1.00  0.00    -0.214 C  
HETATM    6  O   UNL     1      -5.569  17.809  69.924  1.00  0.00    -0.216 OA 
HETATM    7  C   UNL     1      -6.484  18.221  69.205  1.00  0.00    -0.261 C  
HETATM    8  C   UNL     1      -7.216  19.815  66.936  1.00  0.00    -0.241 C  
HETATM    9  C   UNL     1      -7.060  19.601  69.434  1.00  0.00    -0.326 C  
HETATM   10  C   UNL     1      -6.743  20.470  68.230  1.00  0.00    -0.286 C  
BRANCH   4  11
HETATM   11  C   UNL     1      -8.517  17.019  68.214  1.00  0.00    -0.233 A  
HETATM   12  C   UNL     1     -10.002  15.575  69.578  1.00  0.00    -0.280 A  
HETATM   13  C   UNL     1     -10.944  16.959  67.867  1.00  0.00    -0.251 A  
HETATM   14  C   UNL     1      -8.734  16.061  69.244  1.00  0.00    -0.224 A  
HETATM   15  C   UNL     1     -11.116  16.042  68.899  1.00  0.00    -0.331 A  
HETATM   16  C   UNL     1      -9.665  17.421  67.503  1.00  0.00    -0.266 A  
HETATM   17 CL   UNL     1      -9.669  18.412  66.087  1.00  0.00    -0.281 Cl 
ENDBRANCH   4  11
ENDBRANCH   2   4
TORSDOF 2
ENDMDL
MODEL      196
REMARK 921   NORMALIZED FREE ENERGY PREDICTED BY IDOCK:   -2.34 KCAL/MOL
REMARK 922        TOTAL FREE ENERGY PREDICTED BY IDOCK:   -2.87 KCAL/MOL
REMARK 923 INTER-LIGAND FREE ENERGY PREDICTED BY IDOCK:   -2.51 KCAL/MOL
REMARK 924 INTRA-LIGAND FREE ENERGY PREDICTED BY IDOCK:   -0.37 KCAL/MOL
REMARK 927      BINDING AFFINITY PREDICTED BY RF-SCORE:    0.00 PKD
ROOT
HETATM    1  C   UNL     1     -10.980   5.659  71.576  1.00  0.00    -0.200 C  
HETATM    2  N   UNL     1      -9.990   5.234  70.607  1.00  0.00    -0.203 NA 
HETATM    3  H   UNL     1      -9.623   4.282  70.600  1.00  0.00     0.000 HD 
ENDROOT
BRANCH   2   4
HETATM    4  C   UNL     1      -9.533   6.254  69.621  1.00  0.00    -0.146 C  
HETATM    5  C   UNL     1     -10.767   6.963  68.987  1.00  0.00    -0.259 C  
HETATM    6  O   UNL     1      -8.939   4.190  68.363  1.00  0.00    -0.103 OA 
HETATM    7  C   UNL     1      -8.978   5.424  68.392  1.00  0.00    -0.108 C  
HETATM    8  C   UNL     1     -10.454   7.791  67.730  1.00  0.00    -0.277 C  
HETATM    9  C   UNL     1      -8.576   6.220  67.170  1.00  0.00    -0.107 C  
HETATM   10  C   UNL     1      -9.797   6.951  66.639  1.00  0.00    -0.217 C  
BRANCH   4  11
HETATM   11  C   UNL     1      -8.385   7.082  70.252  1.00  0.00    -0.133 A  
HETATM   12  C   UNL     1      -5.960   7.098  70.772  1.00  0.00    -0.031 A  
HETATM   13  C   UNL     1      -7.327   8.945  71.445  1.00  0.00    -0.106 A  
HETATM   14  C   UNL     1      -7.092   6.489  70.220  1.00  0.00    -0.072 A  
HETATM   15  C   UNL     1      -6.075   8.343  71.371  1.00  0.00    -0.041 A  
HETATM   16  C   UNL     1      -8.474   8.317  70.925  1.00  0.00    -0.132 A  
HETATM   17 CL   UNL     1      -9.941   9.156  71.284  1.00  0.00    -0.372 Cl 
ENDBRANCH   4  11
ENDBRANCH   2   4
TORSDOF 2
ENDMDL
MODEL      197
REMARK 921   NORMALIZED FREE ENERGY PREDICTED BY IDOCK:   -2.32 KCAL/MOL
REMARK 922        TOTAL FREE ENERGY PREDICTED BY IDOCK:   -2.84 KCAL/MOL
REMARK 923 INTER-LIGAND FREE ENERGY PREDICTED BY IDOCK:   -2.68 KCAL/MOL
REMARK 924 INTRA-LIGAND FREE ENERGY PREDICTED BY IDOCK:   -0.16 KCAL/MOL
REMARK 927      BINDING AFFINITY PREDICTED BY RF-SCORE:    0.00 PKD
ROOT
HETATM    1  C   UNL     1      -7.543   5.056  67.995  1.00  0.00    -0.083 C  
HETATM    2  N   UNL     1      -7.336   6.290  68.725  1.00  0.00    -0.084 NA 
HETATM    3  H   UNL     1      -6.680   6.348  69.504  1.00  0.00     0.000 HD 
ENDROOT
BRANCH   2   4
HETATM    4  C   UNL     1      -8.130   7.472  68.283  1.00  0.00    -0.124 C  
HETATM    5  C   UNL     1      -8.439   7.359  66.760  1.00  0.00    -0.124 C  
HETATM    6  O   UNL     1      -5.939   8.587  68.674  1.00  0.00    -0.043 OA 
HETATM    7  C   UNL     1      -7.114   8.688  68.311  1.00  0.00    -0.078 C  
HETATM    8  C   UNL     1      -8.955   8.655  66.113  1.00  0.00    -0.221 C  
HETATM    9  C   UNL     1      -7.624  10.002  67.763  1.00  0.00    -0.090 C  
HETATM   10  C   UNL     1      -7.984   9.815  66.299  1.00  0.00    -0.109 C  
BRANCH   4  11
HETATM   11  C   UNL     1      -9.269   7.721  69.303  1.00  0.00    -0.145 A  
HETATM   12  C   UNL     1      -9.991   9.122  71.218  1.00  0.00    -0.373 A  
HETATM   13  C   UNL     1     -11.393   7.331  70.467  1.00  0.00    -0.308 A  
HETATM   14  C   UNL     1      -9.068   8.790  70.221  1.00  0.00    -0.185 A  
HETATM   15  C   UNL     1     -11.170   8.401  71.329  1.00  0.00    -0.309 A  
HETATM   16  C   UNL     1     -10.447   6.971  69.488  1.00  0.00    -0.220 A  
HETATM   17 CL   UNL     1     -10.845   5.512  68.653  1.00  0.00    -0.187 Cl 
ENDBRANCH   4  11
ENDBRANCH   2   4
TORSDOF 2
ENDMDL
MODEL      198
REMARK 921   NORMALIZED FREE ENERGY PREDICTED BY IDOCK:   -2.31 KCAL/MOL
REMARK 922        TOTAL FREE ENERGY PREDICTED BY IDOCK:   -2.84 KCAL/MOL
REMARK 923 INTER-LIGAND FREE ENERGY PREDICTED BY IDOCK:   -2.57 KCAL/MOL
REMARK 924 INTRA-LIGAND FREE ENERGY PREDICTED BY IDOCK:   -0.27 KCAL/MOL
REMARK 927      BINDING AFFINITY PREDICTED BY RF-SCORE:    0.00 PKD
ROOT
HETATM    1  C   UNL     1     -11.458   4.345  73.373  1.00  0.00    -0.203 C  
HETATM    2  N   UNL     1     -10.496   4.063  72.326  1.00  0.00    -0.108 NA 
HETATM    3  H   UNL     1     -10.188   3.112  72.126  1.00  0.00     0.000 HD 
ENDROOT
BRANCH   2   4
HETATM    4  C   UNL     1      -9.979   5.230  71.557  1.00  0.00    -0.182 C  
HETATM    5  C   UNL     1     -11.166   5.984  70.885  1.00  0.00    -0.335 C  
HETATM    6  O   UNL     1      -9.144   3.391  70.101  1.00  0.00    -0.104 OA 
HETATM    7  C   UNL     1      -9.246   4.606  70.299  1.00  0.00    -0.132 C  
HETATM    8  C   UNL     1     -10.751   6.996  69.804  1.00  0.00    -0.265 C  
HETATM    9  C   UNL     1      -8.747   5.584  69.259  1.00  0.00    -0.107 C  
HETATM   10  C   UNL     1      -9.933   6.345  68.693  1.00  0.00    -0.162 C  
BRANCH   4  11
HETATM   11  C   UNL     1      -8.954   5.993  72.432  1.00  0.00    -0.137 A  
HETATM   12  C   UNL     1      -8.344   8.214  73.352  1.00  0.00    -0.282 A  
HETATM   13  C   UNL     1      -6.936   6.327  73.786  1.00  0.00    -0.083 A  
HETATM   14  C   UNL     1      -9.193   7.384  72.612  1.00  0.00    -0.185 A  
HETATM   15  C   UNL     1      -7.219   7.678  73.959  1.00  0.00    -0.136 A  
HETATM   16  C   UNL     1      -7.768   5.497  73.010  1.00  0.00    -0.097 A  
HETATM   17 CL   UNL     1      -7.134   3.906  72.783  1.00  0.00    -0.051 Cl 
ENDBRANCH   4  11
ENDBRANCH   2   4
TORSDOF 2
ENDMDL
MODEL      199
REMARK 921   NORMALIZED FREE ENERGY PREDICTED BY IDOCK:   -2.31 KCAL/MOL
REMARK 922        TOTAL FREE ENERGY PREDICTED BY IDOCK:   -2.83 KCAL/MOL
REMARK 923 INTER-LIGAND FREE ENERGY PREDICTED BY IDOCK:   -3.19 KCAL/MOL
REMARK 924 INTRA-LIGAND FREE ENERGY PREDICTED BY IDOCK:    0.36 KCAL/MOL
REMARK 927      BINDING AFFINITY PREDICTED BY RF-SCORE:    0.00 PKD
ROOT
HETATM    1  C   UNL     1     -10.194  11.214  63.702  1.00  0.00    -0.387 C  
HETATM    2  N   UNL     1      -8.747  11.132  63.673  1.00  0.00    -0.394 NA 
HETATM    3  H   UNL     1      -8.187  11.753  63.090  1.00  0.00     0.000 HD 
ENDROOT
BRANCH   2   4
HETATM    4  C   UNL     1      -8.117  10.095  64.539  1.00  0.00    -0.160 C  
HETATM    5  C   UNL     1      -6.580  10.340  64.620  1.00  0.00    -0.092 C  
HETATM    6  O   UNL     1      -8.697   8.677  62.576  1.00  0.00    -0.182 OA 
HETATM    7  C   UNL     1      -8.180   8.756  63.695  1.00  0.00    -0.163 C  
HETATM    8  C   UNL     1      -5.774   9.166  65.199  1.00  0.00    -0.054 C  
HETATM    9  C   UNL     1      -7.470   7.557  64.283  1.00  0.00    -0.098 C  
HETATM   10  C   UNL     1      -5.991   7.878  64.413  1.00  0.00    -0.052 C  
BRANCH   4  11
HETATM   11  C   UNL     1      -8.960   9.938  65.829  1.00  0.00    -0.189 A  
HETATM   12  C   UNL     1     -10.498   8.434  67.062  1.00  0.00    -0.375 A  
HETATM   13  C   UNL     1      -9.973  10.588  67.966  1.00  0.00    -0.177 A  
HETATM   14  C   UNL     1      -9.673   8.714  65.969  1.00  0.00    -0.238 A  
HETATM   15  C   UNL     1     -10.633   9.369  68.077  1.00  0.00    -0.278 A  
HETATM   16  C   UNL     1      -9.172  10.888  66.847  1.00  0.00    -0.161 A  
HETATM   17 CL   UNL     1      -8.596  12.517  66.831  1.00  0.00    -0.186 Cl 
ENDBRANCH   4  11
ENDBRANCH   2   4
TORSDOF 2
ENDMDL
MODEL      200
REMARK 921   NORMALIZED FREE ENERGY PREDICTED BY IDOCK:   -2.29 KCAL/MOL
REMARK 922        TOTAL FREE ENERGY PREDICTED BY IDOCK:   -2.81 KCAL/MOL
REMARK 923 INTER-LIGAND FREE ENERGY PREDICTED BY IDOCK:   -2.66 KCAL/MOL
REMARK 924 INTRA-LIGAND FREE ENERGY PREDICTED BY IDOCK:   -0.16 KCAL/MOL
REMARK 927      BINDING AFFINITY PREDICTED BY RF-SCORE:    0.00 PKD
ROOT
HETATM    1  C   UNL     1      -9.409   9.967  64.413  1.00  0.00    -0.290 C  
HETATM    2  N   UNL     1      -8.376   9.920  65.428  1.00  0.00    -0.139 NA 
HETATM    3  H   UNL     1      -7.434  10.269  65.249  1.00  0.00     0.000 HD 
ENDROOT
BRANCH   2   4
HETATM    4  C   UNL     1      -8.756   9.337  66.746  1.00  0.00    -0.127 C  
HETATM    5  C   UNL     1     -10.220   9.737  67.097  1.00  0.00    -0.288 C  
HETATM    6  O   UNL     1      -7.142  11.065  67.525  1.00  0.00    -0.085 OA 
HETATM    7  C   UNL     1      -7.935  10.166  67.818  1.00  0.00    -0.102 C  
HETATM    8  C   UNL     1     -10.620   9.486  68.560  1.00  0.00    -0.247 C  
HETATM    9  C   UNL     1      -8.243   9.876  69.270  1.00  0.00    -0.138 C  
HETATM   10  C   UNL     1      -9.700  10.209  69.538  1.00  0.00    -0.251 C  
BRANCH   4  11
HETATM   11  C   UNL     1      -8.313   7.853  66.784  1.00  0.00    -0.120 A  
HETATM   12  C   UNL     1      -6.365   6.325  66.632  1.00  0.00    -0.041 A  
HETATM   13  C   UNL     1      -8.565   5.415  66.886  1.00  0.00    -0.109 A  
HETATM   14  C   UNL     1      -6.917   7.610  66.646  1.00  0.00    -0.078 A  
HETATM   15  C   UNL     1      -7.192   5.222  66.774  1.00  0.00    -0.078 A  
HETATM   16  C   UNL     1      -9.127   6.706  66.861  1.00  0.00    -0.136 A  
HETATM   17 CL   UNL     1     -10.855   6.703  66.835  1.00  0.00    -0.429 Cl 
ENDBRANCH   4  11
ENDBRANCH   2   4
TORSDOF 2
ENDMDL
MODEL      201
REMARK 921   NORMALIZED FREE ENERGY PREDICTED BY IDOCK:   -2.27 KCAL/MOL
REMARK 922        TOTAL FREE ENERGY PREDICTED BY IDOCK:   -2.79 KCAL/MOL
REMARK 923 INTER-LIGAND FREE ENERGY PREDICTED BY IDOCK:   -2.61 KCAL/MOL
REMARK 924 INTRA-LIGAND FREE ENERGY PREDICTED BY IDOCK:   -0.18 KCAL/MOL
REMARK 927      BINDING AFFINITY PREDICTED BY RF-SCORE:    0.00 PKD
ROOT
HETATM    1  C   UNL     1      -7.846   6.484  65.418  1.00  0.00    -0.106 C  
HETATM    2  N   UNL     1      -8.585   7.635  65.897  1.00  0.00    -0.145 NA 
HETATM    3  H   UNL     1      -9.012   8.302  65.255  1.00  0.00     0.000 HD 
ENDROOT
BRANCH   2   4
HETATM    4  C   UNL     1      -8.689   7.797  67.376  1.00  0.00    -0.128 C  
HETATM    5  C   UNL     1      -7.903   6.655  68.087  1.00  0.00    -0.110 C  
HETATM    6  O   UNL     1     -11.029   7.104  66.884  1.00  0.00    -0.363 OA 
HETATM    7  C   UNL     1     -10.187   7.419  67.729  1.00  0.00    -0.196 C  
HETATM    8  C   UNL     1      -8.201   6.511  69.588  1.00  0.00    -0.126 C  
HETATM    9  C   UNL     1     -10.534   7.357  69.200  1.00  0.00    -0.217 C  
HETATM   10  C   UNL     1      -9.685   6.284  69.859  1.00  0.00    -0.191 C  
BRANCH   4  11
HETATM   11  C   UNL     1      -8.427   9.280  67.737  1.00  0.00    -0.116 A  
HETATM   12  C   UNL     1      -7.234  10.795  69.296  1.00  0.00    -0.122 A  
HETATM   13  C   UNL     1      -8.663  11.718  67.611  1.00  0.00    -0.159 A  
HETATM   14  C   UNL     1      -7.548   9.514  68.832  1.00  0.00    -0.075 A  
HETATM   15  C   UNL     1      -7.778  11.905  68.669  1.00  0.00    -0.113 A  
HETATM   16  C   UNL     1      -9.011  10.428  67.167  1.00  0.00    -0.139 A  
HETATM   17 CL   UNL     1     -10.254  10.427  65.967  1.00  0.00    -0.306 Cl 
ENDBRANCH   4  11
ENDBRANCH   2   4
TORSDOF 2
ENDMDL
MODEL      202
REMARK 921   NORMALIZED FREE ENERGY PREDICTED BY IDOCK:   -2.26 KCAL/MOL
REMARK 922        TOTAL FREE ENERGY PREDICTED BY IDOCK:   -2.78 KCAL/MOL
REMARK 923 INTER-LIGAND FREE ENERGY PREDICTED BY IDOCK:   -2.90 KCAL/MOL
REMARK 924 INTRA-LIGAND FREE ENERGY PREDICTED BY IDOCK:    0.11 KCAL/MOL
REMARK 927      BINDING AFFINITY PREDICTED BY RF-SCORE:    0.00 PKD
ROOT
HETATM    1  C   UNL     1      -9.864   3.548  71.663  1.00  0.00    -0.157 C  
HETATM    2  N   UNL     1     -10.683   4.743  71.643  1.00  0.00    -0.021 NA 
HETATM    3  H   UNL     1     -11.685   4.709  71.831  1.00  0.00     0.000 HD 
ENDROOT
BRANCH   2   4
HETATM    4  C   UNL     1      -9.989   6.027  71.334  1.00  0.00    -0.186 C  
HETATM    5  C   UNL     1      -9.675   6.786  72.657  1.00  0.00    -0.164 C  
HETATM    6  O   UNL     1     -12.264   6.590  70.494  1.00  0.00    -0.325 OA 
HETATM    7  C   UNL     1     -11.101   6.954  70.691  1.00  0.00    -0.278 C  
HETATM    8  C   UNL     1      -9.267   8.257  72.470  1.00  0.00    -0.339 C  
HETATM    9  C   UNL     1     -10.702   8.386  70.412  1.00  0.00    -0.244 C  
HETATM   10  C   UNL     1     -10.331   9.056  71.724  1.00  0.00    -0.407 C  
BRANCH   4  11
HETATM   11  C   UNL     1      -8.873   5.756  70.295  1.00  0.00    -0.145 A  
HETATM   12  C   UNL     1      -6.419   5.646  69.953  1.00  0.00    -0.038 A  
HETATM   13  C   UNL     1      -7.889   5.283  68.098  1.00  0.00    -0.088 A  
HETATM   14  C   UNL     1      -7.535   5.837  70.773  1.00  0.00    -0.090 A  
HETATM   15  C   UNL     1      -6.597   5.347  68.611  1.00  0.00    -0.048 A  
HETATM   16  C   UNL     1      -9.013   5.514  68.914  1.00  0.00    -0.114 A  
HETATM   17 CL   UNL     1     -10.501   5.561  68.036  1.00  0.00    -0.252 Cl 
ENDBRANCH   4  11
ENDBRANCH   2   4
TORSDOF 2
ENDMDL
MODEL      203
REMARK 921   NORMALIZED FREE ENERGY PREDICTED BY IDOCK:   -2.26 KCAL/MOL
REMARK 922        TOTAL FREE ENERGY PREDICTED BY IDOCK:   -2.78 KCAL/MOL
REMARK 923 INTER-LIGAND FREE ENERGY PREDICTED BY IDOCK:   -2.57 KCAL/MOL
REMARK 924 INTRA-LIGAND FREE ENERGY PREDICTED BY IDOCK:   -0.21 KCAL/MOL
REMARK 927      BINDING AFFINITY PREDICTED BY RF-SCORE:    0.00 PKD
ROOT
HETATM    1  C   UNL     1      -7.096   3.978  67.333  1.00  0.00    -0.066 C  
HETATM    2  N   UNL     1      -7.010   4.197  65.903  1.00  0.00    -0.064 NA 
HETATM    3  H   UNL     1      -6.117   4.181  65.411  1.00  0.00     0.000 HD 
ENDROOT
BRANCH   2   4
HETATM    4  C   UNL     1      -8.292   4.449  65.184  1.00  0.00    -0.116 C  
HETATM    5  C   UNL     1      -9.035   3.100  64.947  1.00  0.00    -0.137 C  
HETATM    6  O   UNL     1      -6.697   4.932  63.335  1.00  0.00    -0.036 OA 
HETATM    7  C   UNL     1      -7.870   4.842  63.709  1.00  0.00    -0.085 C  
HETATM    8  C   UNL     1     -10.192   3.175  63.937  1.00  0.00    -0.194 C  
HETATM    9  C   UNL     1      -8.995   5.012  62.712  1.00  0.00    -0.030 C  
HETATM   10  C   UNL     1      -9.733   3.692  62.577  1.00  0.00    -0.113 C  
BRANCH   4  11
HETATM   11  C   UNL     1      -9.017   5.642  65.855  1.00  0.00    -0.160 A  
HETATM   12  C   UNL     1     -11.104   6.354  66.990  1.00  0.00    -0.405 A  
HETATM   13  C   UNL     1      -9.369   7.955  66.592  1.00  0.00    -0.244 A  
HETATM   14  C   UNL     1     -10.313   5.375  66.380  1.00  0.00    -0.298 A  
HETATM   15  C   UNL     1     -10.621   7.647  67.115  1.00  0.00    -0.410 A  
HETATM   16  C   UNL     1      -8.586   6.980  65.943  1.00  0.00    -0.145 A  
HETATM   17 CL   UNL     1      -7.155   7.620  65.217  1.00  0.00    -0.062 Cl 
ENDBRANCH   4  11
ENDBRANCH   2   4
TORSDOF 2
ENDMDL
MODEL      204
REMARK 921   NORMALIZED FREE ENERGY PREDICTED BY IDOCK:   -2.26 KCAL/MOL
REMARK 922        TOTAL FREE ENERGY PREDICTED BY IDOCK:   -2.77 KCAL/MOL
REMARK 923 INTER-LIGAND FREE ENERGY PREDICTED BY IDOCK:   -2.50 KCAL/MOL
REMARK 924 INTRA-LIGAND FREE ENERGY PREDICTED BY IDOCK:   -0.27 KCAL/MOL
REMARK 927      BINDING AFFINITY PREDICTED BY RF-SCORE:    0.00 PKD
ROOT
HETATM    1  C   UNL     1      -7.531   3.263  70.370  1.00  0.00    -0.040 C  
HETATM    2  N   UNL     1      -8.670   4.116  70.093  1.00  0.00    -0.072 NA 
HETATM    3  H   UNL     1      -9.076   4.180  69.160  1.00  0.00     0.000 HD 
ENDROOT
BRANCH   2   4
HETATM    4  C   UNL     1      -9.220   4.895  71.239  1.00  0.00    -0.145 C  
HETATM    5  C   UNL     1      -9.829   3.921  72.293  1.00  0.00    -0.228 C  
HETATM    6  O   UNL     1     -10.898   5.501  69.503  1.00  0.00    -0.311 OA 
HETATM    7  C   UNL     1     -10.519   5.603  70.673  1.00  0.00    -0.270 C  
HETATM    8  C   UNL     1     -10.716   4.597  73.351  1.00  0.00    -0.322 C  
HETATM    9  C   UNL     1     -11.367   6.353  71.677  1.00  0.00    -0.339 C  
HETATM   10  C   UNL     1     -11.869   5.373  72.723  1.00  0.00    -0.162 C  
BRANCH   4  11
HETATM   11  C   UNL     1      -8.184   5.966  71.660  1.00  0.00    -0.119 A  
HETATM   12  C   UNL     1      -6.867   6.860  73.562  1.00  0.00    -0.074 A  
HETATM   13  C   UNL     1      -6.710   7.911  71.416  1.00  0.00    -0.046 A  
HETATM   14  C   UNL     1      -7.774   5.942  73.023  1.00  0.00    -0.103 A  
HETATM   15  C   UNL     1      -6.316   7.838  72.749  1.00  0.00    -0.064 A  
HETATM   16  C   UNL     1      -7.653   7.013  70.881  1.00  0.00    -0.086 A  
HETATM   17 CL   UNL     1      -8.127   7.396  69.264  1.00  0.00    -0.121 Cl 
ENDBRANCH   4  11
ENDBRANCH   2   4
TORSDOF 2
ENDMDL
MODEL      205
REMARK 921   NORMALIZED FREE ENERGY PREDICTED BY IDOCK:   -2.24 KCAL/MOL
REMARK 922        TOTAL FREE ENERGY PREDICTED BY IDOCK:   -2.75 KCAL/MOL
REMARK 923 INTER-LIGAND FREE ENERGY PREDICTED BY IDOCK:   -2.96 KCAL/MOL
REMARK 924 INTRA-LIGAND FREE ENERGY PREDICTED BY IDOCK:    0.21 KCAL/MOL
REMARK 927      BINDING AFFINITY PREDICTED BY RF-SCORE:    0.00 PKD
ROOT
HETATM    1  C   UNL     1      -8.129   8.977  67.898  1.00  0.00    -0.106 C  
HETATM    2  N   UNL     1      -9.498   8.592  68.176  1.00  0.00    -0.140 NA 
HETATM    3  H   UNL     1     -10.225   8.644  67.462  1.00  0.00     0.000 HD 
ENDROOT
BRANCH   2   4
HETATM    4  C   UNL     1      -9.794   8.114  69.557  1.00  0.00    -0.181 C  
HETATM    5  C   UNL     1     -10.944   7.065  69.516  1.00  0.00    -0.251 C  
HETATM    6  O   UNL     1     -10.696  10.428  69.733  1.00  0.00    -0.251 OA 
HETATM    7  C   UNL     1     -10.504   9.336  70.275  1.00  0.00    -0.228 C  
HETATM    8  C   UNL     1     -11.567   6.744  70.885  1.00  0.00    -0.403 C  
HETATM    9  C   UNL     1     -11.049   9.075  71.661  1.00  0.00    -0.433 C  
HETATM   10  C   UNL     1     -12.109   7.991  71.575  1.00  0.00    -0.330 C  
BRANCH   4  11
HETATM   11  C   UNL     1      -8.458   7.794  70.274  1.00  0.00    -0.133 A  
HETATM   12  C   UNL     1      -6.686   8.716  71.743  1.00  0.00    -0.085 A  
HETATM   13  C   UNL     1      -6.484   6.482  70.904  1.00  0.00    -0.049 A  
HETATM   14  C   UNL     1      -7.899   8.841  71.059  1.00  0.00    -0.145 A  
HETATM   15  C   UNL     1      -5.984   7.522  71.682  1.00  0.00    -0.036 A  
HETATM   16  C   UNL     1      -7.685   6.619  70.183  1.00  0.00    -0.102 A  
HETATM   17 CL   UNL     1      -8.023   5.277  69.149  1.00  0.00    -0.088 Cl 
ENDBRANCH   4  11
ENDBRANCH   2   4
TORSDOF 2
ENDMDL
MODEL      206
REMARK 921   NORMALIZED FREE ENERGY PREDICTED BY IDOCK:   -2.23 KCAL/MOL
REMARK 922        TOTAL FREE ENERGY PREDICTED BY IDOCK:   -2.74 KCAL/MOL
REMARK 923 INTER-LIGAND FREE ENERGY PREDICTED BY IDOCK:   -2.40 KCAL/MOL
REMARK 924 INTRA-LIGAND FREE ENERGY PREDICTED BY IDOCK:   -0.34 KCAL/MOL
REMARK 927      BINDING AFFINITY PREDICTED BY RF-SCORE:    0.00 PKD
ROOT
HETATM    1  C   UNL     1      -9.823   4.190  66.442  1.00  0.00    -0.195 C  
HETATM    2  N   UNL     1      -9.771   3.651  67.786  1.00  0.00    -0.129 NA 
HETATM    3  H   UNL     1     -10.295   2.816  68.049  1.00  0.00     0.000 HD 
ENDROOT
BRANCH   2   4
HETATM    4  C   UNL     1      -8.913   4.374  68.767  1.00  0.00    -0.110 C  
HETATM    5  C   UNL     1      -7.423   4.305  68.315  1.00  0.00    -0.064 C  
HETATM    6  O   UNL     1      -9.523   2.398  70.153  1.00  0.00    -0.125 OA 
HETATM    7  C   UNL     1      -8.896   3.457  70.059  1.00  0.00    -0.089 C  
HETATM    8  C   UNL     1      -6.407   4.716  69.393  1.00  0.00    -0.028 C  
HETATM    9  C   UNL     1      -7.970   3.886  71.175  1.00  0.00    -0.063 C  
HETATM   10  C   UNL     1      -6.542   3.876  70.659  1.00  0.00    -0.032 C  
BRANCH   4  11
HETATM   11  C   UNL     1      -9.573   5.735  69.103  1.00  0.00    -0.171 A  
HETATM   12  C   UNL     1     -11.408   6.830  70.361  1.00  0.00    -0.399 A  
HETATM   13  C   UNL     1      -9.956   8.155  68.994  1.00  0.00    -0.191 A  
HETATM   14  C   UNL     1     -10.689   5.691  69.985  1.00  0.00    -0.390 A  
HETATM   15  C   UNL     1     -11.026   8.072  69.879  1.00  0.00    -0.172 A  
HETATM   16  C   UNL     1      -9.255   7.005  68.583  1.00  0.00    -0.131 A  
HETATM   17 CL   UNL     1      -8.085   7.317  67.351  1.00  0.00    -0.112 Cl 
ENDBRANCH   4  11
ENDBRANCH   2   4
TORSDOF 2
ENDMDL
MODEL      207
REMARK 921   NORMALIZED FREE ENERGY PREDICTED BY IDOCK:   -2.22 KCAL/MOL
REMARK 922        TOTAL FREE ENERGY PREDICTED BY IDOCK:   -2.74 KCAL/MOL
REMARK 923 INTER-LIGAND FREE ENERGY PREDICTED BY IDOCK:   -2.47 KCAL/MOL
REMARK 924 INTRA-LIGAND FREE ENERGY PREDICTED BY IDOCK:   -0.27 KCAL/MOL
REMARK 927      BINDING AFFINITY PREDICTED BY RF-SCORE:    0.00 PKD
ROOT
HETATM    1  C   UNL     1      -7.758   4.968  68.079  1.00  0.00    -0.083 C  
HETATM    2  N   UNL     1      -7.148   6.022  68.865  1.00  0.00    -0.078 NA 
HETATM    3  H   UNL     1      -6.162   5.996  69.122  1.00  0.00     0.000 HD 
ENDROOT
BRANCH   2   4
HETATM    4  C   UNL     1      -8.034   7.146  69.282  1.00  0.00    -0.119 C  
HETATM    5  C   UNL     1      -8.534   7.917  68.024  1.00  0.00    -0.123 C  
HETATM    6  O   UNL     1      -5.851   8.042  70.075  1.00  0.00    -0.023 OA 
HETATM    7  C   UNL     1      -7.067   8.212  69.944  1.00  0.00    -0.059 C  
HETATM    8  C   UNL     1      -9.175   9.282  68.321  1.00  0.00    -0.134 C  
HETATM    9  C   UNL     1      -7.689   9.535  70.331  1.00  0.00    -0.177 C  
HETATM   10  C   UNL     1      -8.229  10.207  69.080  1.00  0.00    -0.132 C  
BRANCH   4  11
HETATM   11  C   UNL     1      -9.039   6.627  70.340  1.00  0.00    -0.152 A  
HETATM   12  C   UNL     1     -11.444   6.424  70.908  1.00  0.00    -0.406 A  
HETATM   13  C   UNL     1      -9.794   5.635  72.453  1.00  0.00    -0.189 A  
HETATM   14  C   UNL     1     -10.418   6.813  70.042  1.00  0.00    -0.241 A  
HETATM   15  C   UNL     1     -11.131   5.813  72.113  1.00  0.00    -0.327 A  
HETATM   16  C   UNL     1      -8.758   6.062  71.600  1.00  0.00    -0.135 A  
HETATM   17 CL   UNL     1      -7.185   5.906  72.298  1.00  0.00    -0.088 Cl 
ENDBRANCH   4  11
ENDBRANCH   2   4
TORSDOF 2
ENDMDL
MODEL      208
REMARK 921   NORMALIZED FREE ENERGY PREDICTED BY IDOCK:   -2.22 KCAL/MOL
REMARK 922        TOTAL FREE ENERGY PREDICTED BY IDOCK:   -2.73 KCAL/MOL
REMARK 923 INTER-LIGAND FREE ENERGY PREDICTED BY IDOCK:   -2.70 KCAL/MOL
REMARK 924 INTRA-LIGAND FREE ENERGY PREDICTED BY IDOCK:   -0.04 KCAL/MOL
REMARK 927      BINDING AFFINITY PREDICTED BY RF-SCORE:    0.00 PKD
ROOT
HETATM    1  C   UNL     1      -5.288  16.548  66.288  1.00  0.00     0.877 C  
HETATM    2  N   UNL     1      -5.968  16.926  67.511  1.00  0.00    -0.130 NA 
HETATM    3  H   UNL     1      -5.586  16.696  68.429  1.00  0.00     0.000 HD 
ENDROOT
BRANCH   2   4
HETATM    4  C   UNL     1      -7.253  17.667  67.364  1.00  0.00    -0.181 C  
HETATM    5  C   UNL     1      -7.072  18.836  66.350  1.00  0.00    -0.258 C  
HETATM    6  O   UNL     1      -6.645  18.378  69.671  1.00  0.00    -0.210 OA 
HETATM    7  C   UNL     1      -7.436  18.454  68.727  1.00  0.00    -0.279 C  
HETATM    8  C   UNL     1      -8.210  19.871  66.357  1.00  0.00    -0.365 C  
HETATM    9  C   UNL     1      -8.602  19.415  68.795  1.00  0.00    -0.371 C  
HETATM   10  C   UNL     1      -8.416  20.488  67.737  1.00  0.00    -0.162 C  
BRANCH   4  11
HETATM   11  C   UNL     1      -8.404  16.645  67.193  1.00  0.00    -0.202 A  
HETATM   12  C   UNL     1     -10.561  16.209  66.048  1.00  0.00    -0.303 A  
HETATM   13  C   UNL     1      -9.703  14.606  67.606  1.00  0.00    -0.214 A  
HETATM   14  C   UNL     1      -9.441  17.011  66.289  1.00  0.00    -0.281 A  
HETATM   15  C   UNL     1     -10.682  14.989  66.696  1.00  0.00    -0.312 A  
HETATM   16  C   UNL     1      -8.594  15.430  67.880  1.00  0.00    -0.155 A  
HETATM   17 CL   UNL     1      -7.603  14.843  69.167  1.00  0.00    -0.151 Cl 
ENDBRANCH   4  11
ENDBRANCH   2   4
TORSDOF 2
ENDMDL
MODEL      209
REMARK 921   NORMALIZED FREE ENERGY PREDICTED BY IDOCK:   -2.22 KCAL/MOL
REMARK 922        TOTAL FREE ENERGY PREDICTED BY IDOCK:   -2.73 KCAL/MOL
REMARK 923 INTER-LIGAND FREE ENERGY PREDICTED BY IDOCK:   -2.63 KCAL/MOL
REMARK 924 INTRA-LIGAND FREE ENERGY PREDICTED BY IDOCK:   -0.10 KCAL/MOL
REMARK 927      BINDING AFFINITY PREDICTED BY RF-SCORE:    0.00 PKD
ROOT
HETATM    1  C   UNL     1     -10.125   5.402  71.667  1.00  0.00    -0.203 C  
HETATM    2  N   UNL     1      -9.630   4.586  70.577  1.00  0.00    -0.186 NA 
HETATM    3  H   UNL     1      -9.390   3.604  70.709  1.00  0.00     0.000 HD 
ENDROOT
BRANCH   2   4
HETATM    4  C   UNL     1      -9.487   5.253  69.251  1.00  0.00    -0.134 C  
HETATM    5  C   UNL     1     -10.807   5.999  68.893  1.00  0.00    -0.400 C  
HETATM    6  O   UNL     1      -9.566   2.881  68.498  1.00  0.00    -0.169 OA 
HETATM    7  C   UNL     1      -9.492   4.074  68.192  1.00  0.00    -0.158 C  
HETATM    8  C   UNL     1     -10.914   6.443  67.425  1.00  0.00    -0.463 C  
HETATM    9  C   UNL     1      -9.506   4.481  66.735  1.00  0.00    -0.187 C  
HETATM   10  C   UNL     1     -10.774   5.271  66.459  1.00  0.00    -0.290 C  
BRANCH   4  11
HETATM   11  C   UNL     1      -8.126   5.990  69.204  1.00  0.00    -0.111 A  
HETATM   12  C   UNL     1      -6.970   8.045  68.435  1.00  0.00    -0.072 A  
HETATM   13  C   UNL     1      -5.716   6.319  69.521  1.00  0.00    -0.013 A  
HETATM   14  C   UNL     1      -8.124   7.269  68.580  1.00  0.00    -0.125 A  
HETATM   15  C   UNL     1      -5.762   7.576  68.927  1.00  0.00    -0.023 A  
HETATM   16  C   UNL     1      -6.869   5.519  69.633  1.00  0.00    -0.060 A  
HETATM   17 CL   UNL     1      -6.549   3.932  70.238  1.00  0.00    -0.032 Cl 
ENDBRANCH   4  11
ENDBRANCH   2   4
TORSDOF 2
ENDMDL
MODEL      210
REMARK 921   NORMALIZED FREE ENERGY PREDICTED BY IDOCK:   -2.21 KCAL/MOL
REMARK 922        TOTAL FREE ENERGY PREDICTED BY IDOCK:   -2.72 KCAL/MOL
REMARK 923 INTER-LIGAND FREE ENERGY PREDICTED BY IDOCK:   -2.47 KCAL/MOL
REMARK 924 INTRA-LIGAND FREE ENERGY PREDICTED BY IDOCK:   -0.25 KCAL/MOL
REMARK 927      BINDING AFFINITY PREDICTED BY RF-SCORE:    0.00 PKD
ROOT
HETATM    1  C   UNL     1     -10.336  10.028  69.603  1.00  0.00    -0.247 C  
HETATM    2  N   UNL     1     -10.177   8.588  69.606  1.00  0.00    -0.203 NA 
HETATM    3  H   UNL     1     -10.881   7.970  69.201  1.00  0.00     0.000 HD 
ENDROOT
BRANCH   2   4
HETATM    4  C   UNL     1      -8.933   8.051  70.229  1.00  0.00    -0.147 C  
HETATM    5  C   UNL     1      -8.088   9.224  70.810  1.00  0.00    -0.194 C  
HETATM    6  O   UNL     1      -8.384   7.649  67.834  1.00  0.00    -0.121 OA 
HETATM    7  C   UNL     1      -8.031   7.580  69.015  1.00  0.00    -0.122 C  
HETATM    8  C   UNL     1      -6.643   8.850  71.178  1.00  0.00    -0.077 C  
HETATM    9  C   UNL     1      -6.631   7.121  69.357  1.00  0.00    -0.044 C  
HETATM   10  C   UNL     1      -5.877   8.277  69.990  1.00  0.00    -0.022 C  
BRANCH   4  11
HETATM   11  C   UNL     1      -9.300   6.831  71.110  1.00  0.00    -0.159 A  
HETATM   12  C   UNL     1      -9.122   5.859  73.385  1.00  0.00    -0.132 A  
HETATM   13  C   UNL     1     -10.190   4.609  71.644  1.00  0.00    -0.233 A  
HETATM   14  C   UNL     1      -8.890   6.893  72.471  1.00  0.00    -0.136 A  
HETATM   15  C   UNL     1      -9.794   4.719  72.974  1.00  0.00    -0.178 A  
HETATM   16  C   UNL     1      -9.922   5.631  70.713  1.00  0.00    -0.195 A  
HETATM   17 CL   UNL     1     -10.340   5.209  69.091  1.00  0.00    -0.265 Cl 
ENDBRANCH   4  11
ENDBRANCH   2   4
TORSDOF 2
ENDMDL
MODEL      211
REMARK 921   NORMALIZED FREE ENERGY PREDICTED BY IDOCK:   -2.21 KCAL/MOL
REMARK 922        TOTAL FREE ENERGY PREDICTED BY IDOCK:   -2.72 KCAL/MOL
REMARK 923 INTER-LIGAND FREE ENERGY PREDICTED BY IDOCK:   -3.18 KCAL/MOL
REMARK 924 INTRA-LIGAND FREE ENERGY PREDICTED BY IDOCK:    0.46 KCAL/MOL
REMARK 927      BINDING AFFINITY PREDICTED BY RF-SCORE:    0.00 PKD
ROOT
HETATM    1  C   UNL     1      -8.933  15.839  66.357  1.00  0.00    -0.331 C  
HETATM    2  N   UNL     1      -9.171  15.062  67.557  1.00  0.00    -0.185 NA 
HETATM    3  H   UNL     1      -9.191  15.496  68.480  1.00  0.00     0.000 HD 
ENDROOT
BRANCH   2   4
HETATM    4  C   UNL     1      -9.384  13.598  67.377  1.00  0.00    -0.227 C  
HETATM    5  C   UNL     1      -9.744  12.947  68.747  1.00  0.00     0.058 C  
HETATM    6  O   UNL     1      -6.919  13.685  67.044  1.00  0.00    -0.008 OA 
HETATM    7  C   UNL     1      -7.943  12.999  67.110  1.00  0.00    -0.087 C  
HETATM    8  C   UNL     1      -9.662  11.412  68.767  1.00  0.00    -0.155 C  
HETATM    9  C   UNL     1      -7.845  11.491  67.035  1.00  0.00    -0.161 C  
HETATM   10  C   UNL     1      -8.280  10.905  68.367  1.00  0.00    -0.133 C  
BRANCH   4  11
HETATM   11  C   UNL     1     -10.282  13.370  66.136  1.00  0.00    -0.301 A  
HETATM   12  C   UNL     1     -10.348  12.442  63.837  1.00  0.00    -0.450 A  
HETATM   13  C   UNL     1     -12.288  13.524  64.732  1.00  0.00    -0.435 A  
HETATM   14  C   UNL     1      -9.677  12.697  65.038  1.00  0.00     0.010 A  
HETATM   15  C   UNL     1     -11.668  12.840  63.691  1.00  0.00    -0.587 A  
HETATM   16  C   UNL     1     -11.602  13.816  65.927  1.00  0.00    -0.333 A  
HETATM   17 CL   UNL     1     -12.501  14.823  67.005  1.00  0.00     0.146 Cl 
ENDBRANCH   4  11
ENDBRANCH   2   4
TORSDOF 2
ENDMDL
MODEL      212
REMARK 921   NORMALIZED FREE ENERGY PREDICTED BY IDOCK:   -2.19 KCAL/MOL
REMARK 922        TOTAL FREE ENERGY PREDICTED BY IDOCK:   -2.71 KCAL/MOL
REMARK 923 INTER-LIGAND FREE ENERGY PREDICTED BY IDOCK:   -2.59 KCAL/MOL
REMARK 924 INTRA-LIGAND FREE ENERGY PREDICTED BY IDOCK:   -0.12 KCAL/MOL
REMARK 927      BINDING AFFINITY PREDICTED BY RF-SCORE:    0.00 PKD
ROOT
HETATM    1  C   UNL     1      -7.640   8.885  70.858  1.00  0.00    -0.110 C  
HETATM    2  N   UNL     1      -7.449   7.719  71.697  1.00  0.00    -0.071 NA 
HETATM    3  H   UNL     1      -6.546   7.504  72.118  1.00  0.00     0.000 HD 
ENDROOT
BRANCH   2   4
HETATM    4  C   UNL     1      -8.639   6.847  71.914  1.00  0.00    -0.118 C  
HETATM    5  C   UNL     1      -9.765   7.659  72.622  1.00  0.00    -0.251 C  
HETATM    6  O   UNL     1      -7.089   5.827  73.573  1.00  0.00    -0.084 OA 
HETATM    7  C   UNL     1      -8.209   5.837  73.056  1.00  0.00    -0.118 C  
HETATM    8  C   UNL     1     -10.905   6.804  73.198  1.00  0.00    -0.315 C  
HETATM    9  C   UNL     1      -9.290   4.919  73.583  1.00  0.00    -0.126 C  
HETATM   10  C   UNL     1     -10.397   5.763  74.191  1.00  0.00    -0.295 C  
BRANCH   4  11
HETATM   11  C   UNL     1      -8.931   6.064  70.610  1.00  0.00    -0.150 A  
HETATM   12  C   UNL     1     -10.538   5.787  68.741  1.00  0.00    -0.321 A  
HETATM   13  C   UNL     1      -8.605   4.379  68.857  1.00  0.00    -0.104 A  
HETATM   14  C   UNL     1     -10.123   6.420  69.917  1.00  0.00    -0.206 A  
HETATM   15  C   UNL     1      -9.764   4.774  68.196  1.00  0.00    -0.201 A  
HETATM   16  C   UNL     1      -8.205   4.988  70.062  1.00  0.00    -0.081 A  
HETATM   17 CL   UNL     1      -6.841   4.225  70.798  1.00  0.00    -0.035 Cl 
ENDBRANCH   4  11
ENDBRANCH   2   4
TORSDOF 2
ENDMDL
MODEL      213
REMARK 921   NORMALIZED FREE ENERGY PREDICTED BY IDOCK:   -2.19 KCAL/MOL
REMARK 922        TOTAL FREE ENERGY PREDICTED BY IDOCK:   -2.70 KCAL/MOL
REMARK 923 INTER-LIGAND FREE ENERGY PREDICTED BY IDOCK:   -2.44 KCAL/MOL
REMARK 924 INTRA-LIGAND FREE ENERGY PREDICTED BY IDOCK:   -0.26 KCAL/MOL
REMARK 927      BINDING AFFINITY PREDICTED BY RF-SCORE:    0.00 PKD
ROOT
HETATM    1  C   UNL     1      -7.853   3.759  72.996  1.00  0.00    -0.078 C  
HETATM    2  N   UNL     1      -8.706   4.930  73.011  1.00  0.00    -0.114 NA 
HETATM    3  H   UNL     1      -9.589   4.942  73.522  1.00  0.00     0.000 HD 
ENDROOT
BRANCH   2   4
HETATM    4  C   UNL     1      -8.231   6.117  72.245  1.00  0.00    -0.109 C  
HETATM    5  C   UNL     1      -7.125   5.684  71.237  1.00  0.00    -0.072 C  
HETATM    6  O   UNL     1      -7.255   6.662  74.469  1.00  0.00    -0.098 OA 
HETATM    7  C   UNL     1      -7.397   6.974  73.283  1.00  0.00    -0.073 C  
HETATM    8  C   UNL     1      -6.323   6.846  70.627  1.00  0.00    -0.046 C  
HETATM    9  C   UNL     1      -6.668   8.178  72.728  1.00  0.00    -0.097 C  
HETATM   10  C   UNL     1      -5.658   7.707  71.696  1.00  0.00    -0.035 C  
BRANCH   4  11
HETATM   11  C   UNL     1      -9.460   6.930  71.767  1.00  0.00    -0.155 A  
HETATM   12  C   UNL     1     -11.254   8.484  72.485  1.00  0.00    -0.336 A  
HETATM   13  C   UNL     1     -11.182   7.730  70.214  1.00  0.00    -0.215 A  
HETATM   14  C   UNL     1     -10.116   7.717  72.754  1.00  0.00    -0.344 A  
HETATM   15  C   UNL     1     -11.779   8.506  71.202  1.00  0.00    -0.322 A  
HETATM   16  C   UNL     1     -10.059   6.927  70.491  1.00  0.00    -0.187 A  
HETATM   17 CL   UNL     1      -9.595   5.915  69.170  1.00  0.00    -0.156 Cl 
ENDBRANCH   4  11
ENDBRANCH   2   4
TORSDOF 2
ENDMDL
MODEL      214
REMARK 921   NORMALIZED FREE ENERGY PREDICTED BY IDOCK:   -2.18 KCAL/MOL
REMARK 922        TOTAL FREE ENERGY PREDICTED BY IDOCK:   -2.69 KCAL/MOL
REMARK 923 INTER-LIGAND FREE ENERGY PREDICTED BY IDOCK:   -2.41 KCAL/MOL
REMARK 924 INTRA-LIGAND FREE ENERGY PREDICTED BY IDOCK:   -0.28 KCAL/MOL
REMARK 927      BINDING AFFINITY PREDICTED BY RF-SCORE:    0.00 PKD
ROOT
HETATM    1  C   UNL     1      -7.659   3.080  70.031  1.00  0.00    -0.044 C  
HETATM    2  N   UNL     1      -8.933   3.742  70.229  1.00  0.00    -0.093 NA 
HETATM    3  H   UNL     1      -9.638   3.777  69.493  1.00  0.00     0.000 HD 
ENDROOT
BRANCH   2   4
HETATM    4  C   UNL     1      -9.164   4.370  71.561  1.00  0.00    -0.136 C  
HETATM    5  C   UNL     1      -7.835   4.380  72.375  1.00  0.00    -0.092 C  
HETATM    6  O   UNL     1     -10.410   2.242  71.903  1.00  0.00    -0.112 OA 
HETATM    7  C   UNL     1     -10.025   3.317  72.372  1.00  0.00    -0.162 C  
HETATM    8  C   UNL     1      -8.003   4.690  73.872  1.00  0.00    -0.101 C  
HETATM    9  C   UNL     1     -10.284   3.640  73.827  1.00  0.00    -0.208 C  
HETATM   10  C   UNL     1      -8.954   3.714  74.557  1.00  0.00    -0.100 C  
BRANCH   4  11
HETATM   11  C   UNL     1      -9.980   5.672  71.367  1.00  0.00    -0.237 A  
HETATM   12  C   UNL     1     -12.269   6.616  71.227  1.00  0.00    -0.369 A  
HETATM   13  C   UNL     1     -10.377   8.052  70.925  1.00  0.00    -0.221 A  
HETATM   14  C   UNL     1     -11.396   5.539  71.412  1.00  0.00     0.021 A  
HETATM   15  C   UNL     1     -11.756   7.884  71.002  1.00  0.00    -0.293 A  
HETATM   16  C   UNL     1      -9.497   6.963  71.072  1.00  0.00    -0.163 A  
HETATM   17 CL   UNL     1      -7.846   7.367  70.763  1.00  0.00    -0.095 Cl 
ENDBRANCH   4  11
ENDBRANCH   2   4
TORSDOF 2
ENDMDL
MODEL      215
REMARK 921   NORMALIZED FREE ENERGY PREDICTED BY IDOCK:   -2.17 KCAL/MOL
REMARK 922        TOTAL FREE ENERGY PREDICTED BY IDOCK:   -2.68 KCAL/MOL
REMARK 923 INTER-LIGAND FREE ENERGY PREDICTED BY IDOCK:   -2.88 KCAL/MOL
REMARK 924 INTRA-LIGAND FREE ENERGY PREDICTED BY IDOCK:    0.21 KCAL/MOL
REMARK 927      BINDING AFFINITY PREDICTED BY RF-SCORE:    0.00 PKD
ROOT
HETATM    1  C   UNL     1      -8.736   9.217  70.824  1.00  0.00    -0.236 C  
HETATM    2  N   UNL     1      -8.144   9.557  69.546  1.00  0.00    -0.105 NA 
HETATM    3  H   UNL     1      -7.531  10.364  69.438  1.00  0.00     0.000 HD 
ENDROOT
BRANCH   2   4
HETATM    4  C   UNL     1      -8.477   8.669  68.395  1.00  0.00    -0.131 C  
HETATM    5  C   UNL     1      -7.269   8.606  67.413  1.00  0.00    -0.080 C  
HETATM    6  O   UNL     1      -9.968  10.590  67.861  1.00  0.00    -0.164 OA 
HETATM    7  C   UNL     1      -9.538   9.478  67.541  1.00  0.00    -0.144 C  
HETATM    8  C   UNL     1      -7.593   8.003  66.036  1.00  0.00    -0.085 C  
HETATM    9  C   UNL     1      -9.945   8.864  66.220  1.00  0.00    -0.337 C  
HETATM   10  C   UNL     1      -8.718   8.754  65.332  1.00  0.00    -0.217 C  
BRANCH   4  11
HETATM   11  C   UNL     1      -9.124   7.369  68.935  1.00  0.00    -0.136 A  
HETATM   12  C   UNL     1     -11.276   6.257  69.464  1.00  0.00    -0.500 A  
HETATM   13  C   UNL     1      -9.216   5.123  69.916  1.00  0.00    -0.173 A  
HETATM   14  C   UNL     1     -10.546   7.346  68.977  1.00  0.00    -0.203 A  
HETATM   15  C   UNL     1     -10.608   5.130  69.917  1.00  0.00    -0.196 A  
HETATM   16  C   UNL     1      -8.478   6.234  69.463  1.00  0.00    -0.129 A  
HETATM   17 CL   UNL     1      -6.777   6.078  69.716  1.00  0.00    -0.050 Cl 
ENDBRANCH   4  11
ENDBRANCH   2   4
TORSDOF 2
ENDMDL
MODEL      216
REMARK 921   NORMALIZED FREE ENERGY PREDICTED BY IDOCK:   -2.11 KCAL/MOL
REMARK 922        TOTAL FREE ENERGY PREDICTED BY IDOCK:   -2.61 KCAL/MOL
REMARK 923 INTER-LIGAND FREE ENERGY PREDICTED BY IDOCK:   -2.42 KCAL/MOL
REMARK 924 INTRA-LIGAND FREE ENERGY PREDICTED BY IDOCK:   -0.19 KCAL/MOL
REMARK 927      BINDING AFFINITY PREDICTED BY RF-SCORE:    0.00 PKD
ROOT
HETATM    1  C   UNL     1      -6.016   6.069  70.774  1.00  0.00    -0.030 C  
HETATM    2  N   UNL     1      -6.703   7.030  71.614  1.00  0.00    -0.055 NA 
HETATM    3  H   UNL     1      -6.202   7.594  72.301  1.00  0.00     0.000 HD 
ENDROOT
BRANCH   2   4
HETATM    4  C   UNL     1      -8.177   7.153  71.427  1.00  0.00    -0.107 C  
HETATM    5  C   UNL     1      -8.494   7.442  69.929  1.00  0.00    -0.139 C  
HETATM    6  O   UNL     1      -7.755   9.263  72.679  1.00  0.00     0.059 OA 
HETATM    7  C   UNL     1      -8.566   8.530  72.106  1.00  0.00    -0.173 C  
HETATM    8  C   UNL     1      -9.931   7.918  69.660  1.00  0.00    -0.191 C  
HETATM    9  C   UNL     1     -10.000   8.981  71.934  1.00  0.00    -0.304 C  
HETATM   10  C   UNL     1     -10.279   9.173  70.453  1.00  0.00    -0.268 C  
BRANCH   4  11
HETATM   11  C   UNL     1      -8.876   5.988  72.171  1.00  0.00    -0.135 A  
HETATM   12  C   UNL     1      -9.233   4.938  74.389  1.00  0.00    -0.118 A  
HETATM   13  C   UNL     1     -10.189   3.934  72.437  1.00  0.00    -0.227 A  
HETATM   14  C   UNL     1      -8.690   5.942  73.581  1.00  0.00    -0.125 A  
HETATM   15  C   UNL     1     -10.004   3.939  73.816  1.00  0.00    -0.165 A  
HETATM   16  C   UNL     1      -9.611   4.922  71.617  1.00  0.00    -0.159 A  
HETATM   17 CL   UNL     1      -9.819   4.622  69.928  1.00  0.00    -0.283 Cl 
ENDBRANCH   4  11
ENDBRANCH   2   4
TORSDOF 2
ENDMDL
MODEL      217
REMARK 921   NORMALIZED FREE ENERGY PREDICTED BY IDOCK:   -2.11 KCAL/MOL
REMARK 922        TOTAL FREE ENERGY PREDICTED BY IDOCK:   -2.61 KCAL/MOL
REMARK 923 INTER-LIGAND FREE ENERGY PREDICTED BY IDOCK:   -2.34 KCAL/MOL
REMARK 924 INTRA-LIGAND FREE ENERGY PREDICTED BY IDOCK:   -0.27 KCAL/MOL
REMARK 927      BINDING AFFINITY PREDICTED BY RF-SCORE:    0.00 PKD
ROOT
HETATM    1  C   UNL     1      -7.558   3.063  69.290  1.00  0.00    -0.047 C  
HETATM    2  N   UNL     1      -8.482   3.934  68.592  1.00  0.00    -0.085 NA 
HETATM    3  H   UNL     1      -8.785   3.739  67.638  1.00  0.00     0.000 HD 
ENDROOT
BRANCH   2   4
HETATM    4  C   UNL     1      -8.970   5.130  69.337  1.00  0.00    -0.099 C  
HETATM    5  C   UNL     1      -9.763   4.676  70.600  1.00  0.00    -0.277 C  
HETATM    6  O   UNL     1     -10.456   5.267  67.345  1.00  0.00    -0.199 OA 
HETATM    7  C   UNL     1     -10.124   5.736  68.438  1.00  0.00    -0.170 C  
HETATM    8  C   UNL     1     -10.594   5.784  71.266  1.00  0.00    -0.319 C  
HETATM    9  C   UNL     1     -10.903   6.889  69.032  1.00  0.00    -0.247 C  
HETATM   10  C   UNL     1     -11.592   6.414  70.299  1.00  0.00    -0.451 C  
BRANCH   4  11
HETATM   11  C   UNL     1      -7.812   6.152  69.458  1.00  0.00    -0.100 A  
HETATM   12  C   UNL     1      -6.514   7.552  71.040  1.00  0.00    -0.039 A  
HETATM   13  C   UNL     1      -6.038   7.665  68.696  1.00  0.00    -0.035 A  
HETATM   14  C   UNL     1      -7.512   6.610  70.771  1.00  0.00    -0.087 A  
HETATM   15  C   UNL     1      -5.758   8.067  69.999  1.00  0.00    -0.023 A  
HETATM   16  C   UNL     1      -7.068   6.746  68.419  1.00  0.00    -0.083 A  
HETATM   17 CL   UNL     1      -7.356   6.526  66.730  1.00  0.00    -0.077 Cl 
ENDBRANCH   4  11
ENDBRANCH   2   4
TORSDOF 2
ENDMDL
MODEL      218
REMARK 921   NORMALIZED FREE ENERGY PREDICTED BY IDOCK:   -2.11 KCAL/MOL
REMARK 922        TOTAL FREE ENERGY PREDICTED BY IDOCK:   -2.61 KCAL/MOL
REMARK 923 INTER-LIGAND FREE ENERGY PREDICTED BY IDOCK:   -3.01 KCAL/MOL
REMARK 924 INTRA-LIGAND FREE ENERGY PREDICTED BY IDOCK:    0.41 KCAL/MOL
REMARK 927      BINDING AFFINITY PREDICTED BY RF-SCORE:    0.00 PKD
ROOT
HETATM    1  C   UNL     1      -8.439   9.062  69.378  1.00  0.00    -0.117 C  
HETATM    2  N   UNL     1      -8.277  10.145  68.428  1.00  0.00    -0.109 NA 
HETATM    3  H   UNL     1      -7.769  10.996  68.668  1.00  0.00     0.000 HD 
ENDROOT
BRANCH   2   4
HETATM    4  C   UNL     1      -8.891   9.955  67.083  1.00  0.00    -0.138 C  
HETATM    5  C   UNL     1      -8.000  10.632  65.998  1.00  0.00    -0.159 C  
HETATM    6  O   UNL     1     -10.523  11.572  68.041  1.00  0.00    -0.179 OA 
HETATM    7  C   UNL     1     -10.169  10.892  67.074  1.00  0.00    -0.214 C  
HETATM    8  C   UNL     1      -8.676  10.799  64.628  1.00  0.00    -0.105 C  
HETATM    9  C   UNL     1     -10.908  11.006  65.760  1.00  0.00    -0.167 C  
HETATM   10  C   UNL     1      -9.972  11.598  64.720  1.00  0.00    -0.292 C  
BRANCH   4  11
HETATM   11  C   UNL     1      -9.327   8.477  66.935  1.00  0.00    -0.219 A  
HETATM   12  C   UNL     1     -11.015   6.794  67.622  1.00  0.00    -0.346 A  
HETATM   13  C   UNL     1      -9.192   6.136  66.215  1.00  0.00    -0.163 A  
HETATM   14  C   UNL     1     -10.508   8.097  67.634  1.00  0.00    -0.300 A  
HETATM   15  C   UNL     1     -10.364   5.811  66.892  1.00  0.00    -0.306 A  
HETATM   16  C   UNL     1      -8.659   7.438  66.258  1.00  0.00    -0.142 A  
HETATM   17 CL   UNL     1      -7.112   7.572  65.499  1.00  0.00    -0.060 Cl 
ENDBRANCH   4  11
ENDBRANCH   2   4
TORSDOF 2
ENDMDL
MODEL      219
REMARK 921   NORMALIZED FREE ENERGY PREDICTED BY IDOCK:   -2.07 KCAL/MOL
REMARK 922        TOTAL FREE ENERGY PREDICTED BY IDOCK:   -2.57 KCAL/MOL
REMARK 923 INTER-LIGAND FREE ENERGY PREDICTED BY IDOCK:   -2.70 KCAL/MOL
REMARK 924 INTRA-LIGAND FREE ENERGY PREDICTED BY IDOCK:    0.14 KCAL/MOL
REMARK 927      BINDING AFFINITY PREDICTED BY RF-SCORE:    0.00 PKD
ROOT
HETATM    1  C   UNL     1      -8.017   8.340  69.488  1.00  0.00    -0.112 C  
HETATM    2  N   UNL     1      -7.687   7.176  68.691  1.00  0.00    -0.117 NA 
HETATM    3  H   UNL     1      -7.061   7.237  67.888  1.00  0.00     0.000 HD 
ENDROOT
BRANCH   2   4
HETATM    4  C   UNL     1      -8.307   5.883  69.101  1.00  0.00    -0.106 C  
HETATM    5  C   UNL     1      -7.192   4.858  69.467  1.00  0.00    -0.056 C  
HETATM    6  O   UNL     1      -8.822   5.818  66.666  1.00  0.00    -0.117 OA 
HETATM    7  C   UNL     1      -8.886   5.259  67.765  1.00  0.00    -0.105 C  
HETATM    8  C   UNL     1      -7.674   3.403  69.583  1.00  0.00    -0.050 C  
HETATM    9  C   UNL     1      -9.450   3.860  67.867  1.00  0.00    -0.227 C  
HETATM   10  C   UNL     1      -8.342   2.916  68.302  1.00  0.00    -0.091 C  
BRANCH   4  11
HETATM   11  C   UNL     1      -9.467   6.174  70.086  1.00  0.00    -0.177 A  
HETATM   12  C   UNL     1     -11.861   6.798  70.255  1.00  0.00    -0.359 A  
HETATM   13  C   UNL     1     -10.567   6.521  72.250  1.00  0.00    -0.238 A  
HETATM   14  C   UNL     1     -10.726   6.486  69.500  1.00  0.00    -0.322 A  
HETATM   15  C   UNL     1     -11.786   6.796  71.639  1.00  0.00    -0.370 A  
HETATM   16  C   UNL     1      -9.413   6.245  71.492  1.00  0.00    -0.151 A  
HETATM   17 CL   UNL     1      -7.980   6.110  72.447  1.00  0.00    -0.104 Cl 
ENDBRANCH   4  11
ENDBRANCH   2   4
TORSDOF 2
ENDMDL
MODEL      220
REMARK 921   NORMALIZED FREE ENERGY PREDICTED BY IDOCK:   -2.07 KCAL/MOL
REMARK 922        TOTAL FREE ENERGY PREDICTED BY IDOCK:   -2.57 KCAL/MOL
REMARK 923 INTER-LIGAND FREE ENERGY PREDICTED BY IDOCK:   -2.31 KCAL/MOL
REMARK 924 INTRA-LIGAND FREE ENERGY PREDICTED BY IDOCK:   -0.25 KCAL/MOL
REMARK 927      BINDING AFFINITY PREDICTED BY RF-SCORE:    0.00 PKD
ROOT
HETATM    1  C   UNL     1      -7.344   5.731  69.687  1.00  0.00    -0.071 C  
HETATM    2  N   UNL     1      -7.050   6.096  68.315  1.00  0.00    -0.080 NA 
HETATM    3  H   UNL     1      -6.099   6.298  68.007  1.00  0.00     0.000 HD 
ENDROOT
BRANCH   2   4
HETATM    4  C   UNL     1      -8.206   6.161  67.375  1.00  0.00    -0.109 C  
HETATM    5  C   UNL     1      -9.219   5.025  67.707  1.00  0.00    -0.131 C  
HETATM    6  O   UNL     1      -6.452   5.368  65.797  1.00  0.00    -0.038 OA 
HETATM    7  C   UNL     1      -7.632   5.678  65.980  1.00  0.00    -0.087 C  
HETATM    8  C   UNL     1     -10.277   4.773  66.620  1.00  0.00    -0.274 C  
HETATM    9  C   UNL     1      -8.639   5.507  64.863  1.00  0.00    -0.111 C  
HETATM   10  C   UNL     1      -9.646   4.446  65.270  1.00  0.00    -0.186 C  
BRANCH   4  11
HETATM   11  C   UNL     1      -8.678   7.632  67.264  1.00  0.00    -0.124 A  
HETATM   12  C   UNL     1     -10.642   9.138  67.428  1.00  0.00    -0.315 A  
HETATM   13  C   UNL     1      -8.509  10.038  66.818  1.00  0.00    -0.125 A  
HETATM   14  C   UNL     1     -10.059   7.870  67.516  1.00  0.00    -0.276 A  
HETATM   15  C   UNL     1      -9.858  10.232  67.097  1.00  0.00    -0.228 A  
HETATM   16  C   UNL     1      -7.928   8.757  66.868  1.00  0.00    -0.098 A  
HETATM   17 CL   UNL     1      -6.291   8.723  66.314  1.00  0.00    -0.060 Cl 
ENDBRANCH   4  11
ENDBRANCH   2   4
TORSDOF 2
ENDMDL
MODEL      221
REMARK 921   NORMALIZED FREE ENERGY PREDICTED BY IDOCK:   -2.06 KCAL/MOL
REMARK 922        TOTAL FREE ENERGY PREDICTED BY IDOCK:   -2.56 KCAL/MOL
REMARK 923 INTER-LIGAND FREE ENERGY PREDICTED BY IDOCK:   -2.24 KCAL/MOL
REMARK 924 INTRA-LIGAND FREE ENERGY PREDICTED BY IDOCK:   -0.32 KCAL/MOL
REMARK 927      BINDING AFFINITY PREDICTED BY RF-SCORE:    0.00 PKD
ROOT
HETATM    1  C   UNL     1     -10.513   4.115  64.992  1.00  0.00    -0.167 C  
HETATM    2  N   UNL     1      -9.074   4.056  65.147  1.00  0.00    -0.131 NA 
HETATM    3  H   UNL     1      -8.524   3.294  64.749  1.00  0.00     0.000 HD 
ENDROOT
BRANCH   2   4
HETATM    4  C   UNL     1      -8.434   5.163  65.914  1.00  0.00    -0.121 C  
HETATM    5  C   UNL     1      -8.485   6.479  65.081  1.00  0.00    -0.052 C  
HETATM    6  O   UNL     1      -6.403   3.832  65.367  1.00  0.00    -0.030 OA 
HETATM    7  C   UNL     1      -6.884   4.837  65.898  1.00  0.00    -0.061 C  
HETATM    8  C   UNL     1      -7.577   7.604  65.605  1.00  0.00    -0.090 C  
HETATM    9  C   UNL     1      -5.971   5.887  66.490  1.00  0.00    -0.022 C  
HETATM   10  C   UNL     1      -6.117   7.170  65.690  1.00  0.00    -0.037 C  
BRANCH   4  11
HETATM   11  C   UNL     1      -8.959   5.130  67.371  1.00  0.00    -0.109 A  
HETATM   12  C   UNL     1      -8.846   3.913  69.529  1.00  0.00    -0.144 A  
HETATM   13  C   UNL     1     -10.308   5.797  69.309  1.00  0.00    -0.326 A  
HETATM   14  C   UNL     1      -8.449   4.092  68.200  1.00  0.00    -0.103 A  
HETATM   15  C   UNL     1      -9.766   4.784  70.093  1.00  0.00    -0.288 A  
HETATM   16  C   UNL     1      -9.939   5.955  67.959  1.00  0.00    -0.137 A  
HETATM   17 CL   UNL     1     -10.863   7.157  67.130  1.00  0.00    -0.417 Cl 
ENDBRANCH   4  11
ENDBRANCH   2   4
TORSDOF 2
ENDMDL
MODEL      222
REMARK 921   NORMALIZED FREE ENERGY PREDICTED BY IDOCK:   -2.05 KCAL/MOL
REMARK 922        TOTAL FREE ENERGY PREDICTED BY IDOCK:   -2.55 KCAL/MOL
REMARK 923 INTER-LIGAND FREE ENERGY PREDICTED BY IDOCK:   -2.58 KCAL/MOL
REMARK 924 INTRA-LIGAND FREE ENERGY PREDICTED BY IDOCK:    0.04 KCAL/MOL
REMARK 927      BINDING AFFINITY PREDICTED BY RF-SCORE:    0.00 PKD
ROOT
HETATM    1  C   UNL     1      -8.575   7.201  66.005  1.00  0.00    -0.152 C  
HETATM    2  N   UNL     1      -8.617   8.638  65.824  1.00  0.00    -0.153 NA 
HETATM    3  H   UNL     1      -8.278   9.079  64.969  1.00  0.00     0.000 HD 
ENDROOT
BRANCH   2   4
HETATM    4  C   UNL     1      -9.178   9.440  66.948  1.00  0.00    -0.140 C  
HETATM    5  C   UNL     1     -10.614   9.922  66.584  1.00  0.00    -0.186 C  
HETATM    6  O   UNL     1      -7.460  11.046  66.131  1.00  0.00    -0.141 OA 
HETATM    7  C   UNL     1      -8.371  10.803  66.927  1.00  0.00    -0.132 C  
HETATM    8  C   UNL     1     -11.172  11.023  67.502  1.00  0.00    -0.372 C  
HETATM    9  C   UNL     1      -8.841  11.876  67.884  1.00  0.00    -0.172 C  
HETATM   10  C   UNL     1     -10.271  12.252  67.535  1.00  0.00    -0.212 C  
BRANCH   4  11
HETATM   11  C   UNL     1      -8.908   8.695  68.279  1.00  0.00    -0.142 A  
HETATM   12  C   UNL     1      -9.977   7.659  70.263  1.00  0.00    -0.189 A  
HETATM   13  C   UNL     1      -7.589   7.723  70.103  1.00  0.00    -0.085 A  
HETATM   14  C   UNL     1     -10.056   8.313  69.029  1.00  0.00    -0.208 A  
HETATM   15  C   UNL     1      -8.736   7.344  70.794  1.00  0.00    -0.145 A  
HETATM   16  C   UNL     1      -7.665   8.416  68.880  1.00  0.00    -0.105 A  
HETATM   17 CL   UNL     1      -6.128   8.941  68.291  1.00  0.00    -0.053 Cl 
ENDBRANCH   4  11
ENDBRANCH   2   4
TORSDOF 2
ENDMDL
MODEL      223
REMARK 921   NORMALIZED FREE ENERGY PREDICTED BY IDOCK:   -2.03 KCAL/MOL
REMARK 922        TOTAL FREE ENERGY PREDICTED BY IDOCK:   -2.53 KCAL/MOL
REMARK 923 INTER-LIGAND FREE ENERGY PREDICTED BY IDOCK:   -2.15 KCAL/MOL
REMARK 924 INTRA-LIGAND FREE ENERGY PREDICTED BY IDOCK:   -0.37 KCAL/MOL
REMARK 927      BINDING AFFINITY PREDICTED BY RF-SCORE:    0.00 PKD
ROOT
HETATM    1  C   UNL     1     -11.023   6.540  66.940  1.00  0.00    -0.338 C  
HETATM    2  N   UNL     1     -10.077   5.470  67.188  1.00  0.00    -0.167 NA 
HETATM    3  H   UNL     1     -10.273   4.508  66.913  1.00  0.00     0.000 HD 
ENDROOT
BRANCH   2   4
HETATM    4  C   UNL     1      -8.803   5.843  67.866  1.00  0.00    -0.105 C  
HETATM    5  C   UNL     1      -8.201   7.113  67.192  1.00  0.00    -0.118 C  
HETATM    6  O   UNL     1      -8.047   3.771  66.711  1.00  0.00    -0.095 OA 
HETATM    7  C   UNL     1      -7.761   4.731  67.433  1.00  0.00    -0.090 C  
HETATM    8  C   UNL     1      -6.740   7.407  67.569  1.00  0.00    -0.069 C  
HETATM    9  C   UNL     1      -6.329   4.947  67.867  1.00  0.00    -0.036 C  
HETATM   10  C   UNL     1      -5.818   6.235  67.246  1.00  0.00    -0.017 C  
BRANCH   4  11
HETATM   11  C   UNL     1      -9.016   5.790  69.399  1.00  0.00    -0.121 A  
HETATM   12  C   UNL     1      -9.168   4.282  71.363  1.00  0.00    -0.194 A  
HETATM   13  C   UNL     1      -9.493   6.637  71.651  1.00  0.00    -0.160 A  
HETATM   14  C   UNL     1      -8.967   4.498  69.996  1.00  0.00    -0.145 A  
HETATM   15  C   UNL     1      -9.412   5.361  72.199  1.00  0.00    -0.164 A  
HETATM   16  C   UNL     1      -9.330   6.852  70.269  1.00  0.00    -0.162 A  
HETATM   17 CL   UNL     1      -9.647   8.481  69.786  1.00  0.00    -0.169 Cl 
ENDBRANCH   4  11
ENDBRANCH   2   4
TORSDOF 2
ENDMDL
MODEL      224
REMARK 921   NORMALIZED FREE ENERGY PREDICTED BY IDOCK:   -2.03 KCAL/MOL
REMARK 922        TOTAL FREE ENERGY PREDICTED BY IDOCK:   -2.52 KCAL/MOL
REMARK 923 INTER-LIGAND FREE ENERGY PREDICTED BY IDOCK:   -2.37 KCAL/MOL
REMARK 924 INTRA-LIGAND FREE ENERGY PREDICTED BY IDOCK:   -0.15 KCAL/MOL
REMARK 927      BINDING AFFINITY PREDICTED BY RF-SCORE:    0.00 PKD
ROOT
HETATM    1  C   UNL     1      -7.645   6.052  69.411  1.00  0.00    -0.097 C  
HETATM    2  N   UNL     1      -8.154   6.970  70.410  1.00  0.00    -0.117 NA 
HETATM    3  H   UNL     1      -8.183   6.722  71.399  1.00  0.00     0.000 HD 
ENDROOT
BRANCH   2   4
HETATM    4  C   UNL     1      -8.632   8.295  69.922  1.00  0.00    -0.125 C  
HETATM    5  C   UNL     1      -8.494   8.366  68.372  1.00  0.00    -0.135 C  
HETATM    6  O   UNL     1      -6.531   9.019  71.045  1.00  0.00    -0.054 OA 
HETATM    7  C   UNL     1      -7.528   9.331  70.387  1.00  0.00    -0.121 C  
HETATM    8  C   UNL     1      -8.636   9.778  67.781  1.00  0.00    -0.125 C  
HETATM    9  C   UNL     1      -7.690  10.752  69.894  1.00  0.00     0.200 C  
HETATM   10  C   UNL     1      -7.626  10.754  68.376  1.00  0.00    -0.102 C  
BRANCH   4  11
HETATM   11  C   UNL     1      -9.980   8.626  70.611  1.00  0.00    -0.230 A  
HETATM   12  C   UNL     1     -12.259   9.535  70.251  1.00  0.00     0.097 A  
HETATM   13  C   UNL     1     -11.582   8.876  72.451  1.00  0.00    -0.237 A  
HETATM   14  C   UNL     1     -10.999   9.161  69.774  1.00  0.00    -0.195 A  
HETATM   15  C   UNL     1     -12.560   9.372  71.595  1.00  0.00    -0.460 A  
HETATM   16  C   UNL     1     -10.300   8.535  71.980  1.00  0.00    -0.338 A  
HETATM   17 CL   UNL     1      -9.195   8.112  73.239  1.00  0.00    -0.334 Cl 
ENDBRANCH   4  11
ENDBRANCH   2   4
TORSDOF 2
ENDMDL
MODEL      225
REMARK 921   NORMALIZED FREE ENERGY PREDICTED BY IDOCK:   -2.03 KCAL/MOL
REMARK 922        TOTAL FREE ENERGY PREDICTED BY IDOCK:   -2.52 KCAL/MOL
REMARK 923 INTER-LIGAND FREE ENERGY PREDICTED BY IDOCK:   -2.32 KCAL/MOL
REMARK 924 INTRA-LIGAND FREE ENERGY PREDICTED BY IDOCK:   -0.20 KCAL/MOL
REMARK 927      BINDING AFFINITY PREDICTED BY RF-SCORE:    0.00 PKD
ROOT
HETATM    1  C   UNL     1      -9.742   4.526  67.331  1.00  0.00    -0.178 C  
HETATM    2  N   UNL     1      -9.719   4.358  68.770  1.00  0.00    -0.154 NA 
HETATM    3  H   UNL     1     -10.375   3.739  69.247  1.00  0.00     0.000 HD 
ENDROOT
BRANCH   2   4
HETATM    4  C   UNL     1      -8.691   5.135  69.521  1.00  0.00    -0.099 C  
HETATM    5  C   UNL     1      -7.266   4.672  69.093  1.00  0.00    -0.052 C  
HETATM    6  O   UNL     1      -9.569   3.732  71.381  1.00  0.00    -0.144 OA 
HETATM    7  C   UNL     1      -8.767   4.593  71.008  1.00  0.00    -0.115 C  
HETATM    8  C   UNL     1      -6.134   5.148  70.017  1.00  0.00    -0.021 C  
HETATM    9  C   UNL     1      -7.718   5.113  71.966  1.00  0.00    -0.099 C  
HETATM   10  C   UNL     1      -6.346   4.702  71.461  1.00  0.00    -0.019 C  
BRANCH   4  11
HETATM   11  C   UNL     1      -9.076   6.635  69.492  1.00  0.00    -0.144 A  
HETATM   12  C   UNL     1      -8.207   8.934  69.165  1.00  0.00    -0.118 A  
HETATM   13  C   UNL     1     -10.513   8.610  69.722  1.00  0.00    -0.220 A  
HETATM   14  C   UNL     1      -8.025   7.548  69.200  1.00  0.00    -0.121 A  
HETATM   15  C   UNL     1      -9.464   9.467  69.407  1.00  0.00    -0.182 A  
HETATM   16  C   UNL     1     -10.323   7.216  69.796  1.00  0.00    -0.214 A  
HETATM   17 CL   UNL     1     -11.710   6.364  70.374  1.00  0.00    -0.444 Cl 
ENDBRANCH   4  11
ENDBRANCH   2   4
TORSDOF 2
ENDMDL
MODEL      226
REMARK 921   NORMALIZED FREE ENERGY PREDICTED BY IDOCK:   -1.97 KCAL/MOL
REMARK 922        TOTAL FREE ENERGY PREDICTED BY IDOCK:   -2.46 KCAL/MOL
REMARK 923 INTER-LIGAND FREE ENERGY PREDICTED BY IDOCK:   -2.42 KCAL/MOL
REMARK 924 INTRA-LIGAND FREE ENERGY PREDICTED BY IDOCK:   -0.04 KCAL/MOL
REMARK 927      BINDING AFFINITY PREDICTED BY RF-SCORE:    0.00 PKD
ROOT
HETATM    1  C   UNL     1      -9.160  11.025  68.239  1.00  0.00    -0.158 C  
HETATM    2  N   UNL     1      -8.486   9.752  68.073  1.00  0.00    -0.117 NA 
HETATM    3  H   UNL     1      -7.920   9.551  67.249  1.00  0.00     0.000 HD 
ENDROOT
BRANCH   2   4
HETATM    4  C   UNL     1      -8.663   8.752  69.164  1.00  0.00    -0.136 C  
HETATM    5  C   UNL     1     -10.062   8.937  69.825  1.00  0.00    -0.205 C  
HETATM    6  O   UNL     1      -6.962  10.218  70.238  1.00  0.00    -0.149 OA 
HETATM    7  C   UNL     1      -7.697   9.230  70.325  1.00  0.00    -0.129 C  
HETATM    8  C   UNL     1     -10.238   8.202  71.164  1.00  0.00    -0.234 C  
HETATM    9  C   UNL     1      -7.784   8.468  71.628  1.00  0.00    -0.150 C  
HETATM   10  C   UNL     1      -9.188   8.616  72.189  1.00  0.00    -0.326 C  
BRANCH   4  11
HETATM   11  C   UNL     1      -8.211   7.363  68.648  1.00  0.00    -0.125 A  
HETATM   12  C   UNL     1      -6.258   6.024  67.910  1.00  0.00    -0.028 A  
HETATM   13  C   UNL     1      -8.447   5.053  67.858  1.00  0.00    -0.104 A  
HETATM   14  C   UNL     1      -6.818   7.207  68.403  1.00  0.00    -0.073 A  
HETATM   15  C   UNL     1      -7.076   4.933  67.656  1.00  0.00    -0.062 A  
HETATM   16  C   UNL     1      -9.017   6.256  68.317  1.00  0.00    -0.115 A  
HETATM   17 CL   UNL     1     -10.744   6.238  68.326  1.00  0.00    -0.313 Cl 
ENDBRANCH   4  11
ENDBRANCH   2   4
TORSDOF 2
ENDMDL
MODEL      227
REMARK 921   NORMALIZED FREE ENERGY PREDICTED BY IDOCK:   -1.93 KCAL/MOL
REMARK 922        TOTAL FREE ENERGY PREDICTED BY IDOCK:   -2.41 KCAL/MOL
REMARK 923 INTER-LIGAND FREE ENERGY PREDICTED BY IDOCK:   -2.31 KCAL/MOL
REMARK 924 INTRA-LIGAND FREE ENERGY PREDICTED BY IDOCK:   -0.09 KCAL/MOL
REMARK 927      BINDING AFFINITY PREDICTED BY RF-SCORE:    0.00 PKD
ROOT
HETATM    1  C   UNL     1     -10.404   5.018  69.824  1.00  0.00    -0.216 C  
HETATM    2  N   UNL     1      -9.997   6.018  68.857  1.00  0.00    -0.145 NA 
HETATM    3  H   UNL     1      -9.956   5.812  67.859  1.00  0.00     0.000 HD 
ENDROOT
BRANCH   2   4
HETATM    4  C   UNL     1      -9.641   7.363  69.392  1.00  0.00    -0.155 C  
HETATM    5  C   UNL     1     -10.871   8.313  69.287  1.00  0.00    -0.063 C  
HETATM    6  O   UNL     1      -8.298   7.399  67.295  1.00  0.00    -0.117 OA 
HETATM    7  C   UNL     1      -8.662   7.991  68.316  1.00  0.00    -0.130 C  
HETATM    8  C   UNL     1     -10.549   9.803  69.490  1.00  0.00    -0.253 C  
HETATM    9  C   UNL     1      -8.255   9.431  68.538  1.00  0.00    -0.113 C  
HETATM   10  C   UNL     1      -9.498  10.303  68.504  1.00  0.00    -0.158 C  
BRANCH   4  11
HETATM   11  C   UNL     1      -8.892   7.186  70.736  1.00  0.00    -0.148 A  
HETATM   12  C   UNL     1      -6.723   6.577  71.772  1.00  0.00    -0.063 A  
HETATM   13  C   UNL     1      -8.598   7.092  73.170  1.00  0.00    -0.147 A  
HETATM   14  C   UNL     1      -7.525   6.802  70.649  1.00  0.00    -0.083 A  
HETATM   15  C   UNL     1      -7.257   6.742  73.040  1.00  0.00    -0.076 A  
HETATM   16  C   UNL     1      -9.417   7.282  72.040  1.00  0.00    -0.132 A  
HETATM   17 CL   UNL     1     -11.081   7.534  72.433  1.00  0.00    -0.316 Cl 
ENDBRANCH   4  11
ENDBRANCH   2   4
TORSDOF 2
ENDMDL
MODEL      228
REMARK 921   NORMALIZED FREE ENERGY PREDICTED BY IDOCK:   -1.93 KCAL/MOL
REMARK 922        TOTAL FREE ENERGY PREDICTED BY IDOCK:   -2.41 KCAL/MOL
REMARK 923 INTER-LIGAND FREE ENERGY PREDICTED BY IDOCK:   -2.16 KCAL/MOL
REMARK 924 INTRA-LIGAND FREE ENERGY PREDICTED BY IDOCK:   -0.25 KCAL/MOL
REMARK 927      BINDING AFFINITY PREDICTED BY RF-SCORE:    0.00 PKD
ROOT
HETATM    1  C   UNL     1     -11.472   6.394  69.568  1.00  0.00    -0.343 C  
HETATM    2  N   UNL     1     -10.242   5.963  70.203  1.00  0.00    -0.203 NA 
HETATM    3  H   UNL     1     -10.005   6.243  71.155  1.00  0.00     0.000 HD 
ENDROOT
BRANCH   2   4
HETATM    4  C   UNL     1      -9.340   5.092  69.398  1.00  0.00    -0.124 C  
HETATM    5  C   UNL     1     -10.032   4.720  68.052  1.00  0.00    -0.154 C  
HETATM    6  O   UNL     1      -9.951   3.481  71.195  1.00  0.00    -0.158 OA 
HETATM    7  C   UNL     1      -9.335   3.696  70.147  1.00  0.00    -0.173 C  
HETATM    8  C   UNL     1      -9.360   3.571  67.283  1.00  0.00    -0.239 C  
HETATM    9  C   UNL     1      -8.604   2.566  69.457  1.00  0.00    -0.115 C  
HETATM   10  C   UNL     1      -9.269   2.298  68.118  1.00  0.00    -0.247 C  
BRANCH   4  11
HETATM   11  C   UNL     1      -7.915   5.697  69.412  1.00  0.00    -0.099 A  
HETATM   12  C   UNL     1      -6.033   6.460  67.988  1.00  0.00    -0.020 A  
HETATM   13  C   UNL     1      -5.812   6.519  70.371  1.00  0.00    -0.023 A  
HETATM   14  C   UNL     1      -7.324   5.943  68.141  1.00  0.00    -0.081 A  
HETATM   15  C   UNL     1      -5.281   6.770  69.110  1.00  0.00    -0.013 A  
HETATM   16  C   UNL     1      -7.096   5.962  70.528  1.00  0.00    -0.071 A  
HETATM   17 CL   UNL     1      -7.481   5.572  72.166  1.00  0.00    -0.097 Cl 
ENDBRANCH   4  11
ENDBRANCH   2   4
TORSDOF 2
ENDMDL
MODEL      229
REMARK 921   NORMALIZED FREE ENERGY PREDICTED BY IDOCK:   -1.90 KCAL/MOL
REMARK 922        TOTAL FREE ENERGY PREDICTED BY IDOCK:   -2.38 KCAL/MOL
REMARK 923 INTER-LIGAND FREE ENERGY PREDICTED BY IDOCK:   -2.98 KCAL/MOL
REMARK 924 INTRA-LIGAND FREE ENERGY PREDICTED BY IDOCK:    0.60 KCAL/MOL
REMARK 927      BINDING AFFINITY PREDICTED BY RF-SCORE:    0.00 PKD
ROOT
HETATM    1  C   UNL     1      -7.539  13.143  67.357  1.00  0.00    -0.131 C  
HETATM    2  N   UNL     1      -7.277  11.757  67.692  1.00  0.00    -0.102 NA 
HETATM    3  H   UNL     1      -6.360  11.448  68.012  1.00  0.00     0.000 HD 
ENDROOT
BRANCH   2   4
HETATM    4  C   UNL     1      -8.415  10.805  67.544  1.00  0.00    -0.119 C  
HETATM    5  C   UNL     1      -8.194   9.573  68.473  1.00  0.00    -0.113 C  
HETATM    6  O   UNL     1      -7.323  10.468  65.332  1.00  0.00    -0.142 OA 
HETATM    7  C   UNL     1      -8.230  10.158  66.110  1.00  0.00    -0.125 C  
HETATM    8  C   UNL     1      -9.110   8.375  68.176  1.00  0.00    -0.138 C  
HETATM    9  C   UNL     1      -9.178   9.034  65.753  1.00  0.00    -0.293 C  
HETATM   10  C   UNL     1      -8.976   7.893  66.735  1.00  0.00    -0.169 C  
BRANCH   4  11
HETATM   11  C   UNL     1      -9.743  11.600  67.590  1.00  0.00    -0.186 A  
HETATM   12  C   UNL     1     -11.674  12.221  69.018  1.00  0.00    -0.376 A  
HETATM   13  C   UNL     1     -11.598  12.964  66.743  1.00  0.00    -0.416 A  
HETATM   14  C   UNL     1     -10.448  11.575  68.826  1.00  0.00    -0.227 A  
HETATM   15  C   UNL     1     -12.243  12.936  67.976  1.00  0.00    -0.020 A  
HETATM   16  C   UNL     1     -10.383  12.283  66.536  1.00  0.00    -0.227 A  
HETATM   17 CL   UNL     1      -9.855  12.303  64.892  1.00  0.00    -0.192 Cl 
ENDBRANCH   4  11
ENDBRANCH   2   4
TORSDOF 2
ENDMDL
MODEL      230
REMARK 921   NORMALIZED FREE ENERGY PREDICTED BY IDOCK:   -1.87 KCAL/MOL
REMARK 922        TOTAL FREE ENERGY PREDICTED BY IDOCK:   -2.34 KCAL/MOL
REMARK 923 INTER-LIGAND FREE ENERGY PREDICTED BY IDOCK:   -2.87 KCAL/MOL
REMARK 924 INTRA-LIGAND FREE ENERGY PREDICTED BY IDOCK:    0.53 KCAL/MOL
REMARK 927      BINDING AFFINITY PREDICTED BY RF-SCORE:    0.00 PKD
ROOT
HETATM    1  C   UNL     1      -7.434   6.313  68.461  1.00  0.00    -0.088 C  
HETATM    2  N   UNL     1      -7.295   7.617  67.845  1.00  0.00    -0.100 NA 
HETATM    3  H   UNL     1      -6.601   8.291  68.169  1.00  0.00     0.000 HD 
ENDROOT
BRANCH   2   4
HETATM    4  C   UNL     1      -8.217   7.928  66.716  1.00  0.00    -0.116 C  
HETATM    5  C   UNL     1      -7.505   8.871  65.700  1.00  0.00    -0.086 C  
HETATM    6  O   UNL     1      -9.338   9.232  68.516  1.00  0.00    -0.141 OA 
HETATM    7  C   UNL     1      -9.314   8.893  67.330  1.00  0.00    -0.140 C  
HETATM    8  C   UNL     1      -8.442   9.530  64.673  1.00  0.00    -0.177 C  
HETATM    9  C   UNL     1     -10.306   9.488  66.355  1.00  0.00    -0.243 C  
HETATM   10  C   UNL     1      -9.553  10.332  65.342  1.00  0.00    -0.310 C  
BRANCH   4  11
HETATM   11  C   UNL     1      -8.887   6.615  66.239  1.00  0.00    -0.156 A  
HETATM   12  C   UNL     1      -8.864   4.860  64.487  1.00  0.00    -0.129 A  
HETATM   13  C   UNL     1     -10.502   4.769  66.231  1.00  0.00    -0.311 A  
HETATM   14  C   UNL     1      -8.351   6.030  65.058  1.00  0.00    -0.121 A  
HETATM   15  C   UNL     1      -9.933   4.215  65.089  1.00  0.00    -0.218 A  
HETATM   16  C   UNL     1     -10.012   5.967  66.786  1.00  0.00    -0.174 A  
HETATM   17 CL   UNL     1     -10.975   6.565  68.090  1.00  0.00    -0.360 Cl 
ENDBRANCH   4  11
ENDBRANCH   2   4
TORSDOF 2
ENDMDL
MODEL      231
REMARK 921   NORMALIZED FREE ENERGY PREDICTED BY IDOCK:   -1.86 KCAL/MOL
REMARK 922        TOTAL FREE ENERGY PREDICTED BY IDOCK:   -2.33 KCAL/MOL
REMARK 923 INTER-LIGAND FREE ENERGY PREDICTED BY IDOCK:   -2.39 KCAL/MOL
REMARK 924 INTRA-LIGAND FREE ENERGY PREDICTED BY IDOCK:    0.06 KCAL/MOL
REMARK 927      BINDING AFFINITY PREDICTED BY RF-SCORE:    0.00 PKD
ROOT
HETATM    1  C   UNL     1      -7.902   4.999  68.190  1.00  0.00    -0.087 C  
HETATM    2  N   UNL     1      -7.393   6.178  68.862  1.00  0.00    -0.083 NA 
HETATM    3  H   UNL     1      -6.415   6.457  68.786  1.00  0.00     0.000 HD 
ENDROOT
BRANCH   2   4
HETATM    4  C   UNL     1      -8.369   6.965  69.668  1.00  0.00    -0.133 C  
HETATM    5  C   UNL     1      -9.473   7.549  68.736  1.00  0.00    -0.148 C  
HETATM    6  O   UNL     1      -6.410   8.496  69.809  1.00  0.00    -0.035 OA 
HETATM    7  C   UNL     1      -7.590   8.276  70.098  1.00  0.00    -0.075 C  
HETATM    8  C   UNL     1     -10.342   8.642  69.379  1.00  0.00    -0.221 C  
HETATM    9  C   UNL     1      -8.400   9.334  70.814  1.00  0.00    -0.230 C  
HETATM   10  C   UNL     1      -9.507   9.812  69.891  1.00  0.00    -0.264 C  
BRANCH   4  11
HETATM   11  C   UNL     1      -8.751   6.149  70.928  1.00  0.00    -0.136 A  
HETATM   12  C   UNL     1      -7.850   4.931  72.892  1.00  0.00    -0.094 A  
HETATM   13  C   UNL     1     -10.214   4.986  72.516  1.00  0.00    -0.247 A  
HETATM   14  C   UNL     1      -7.670   5.701  71.738  1.00  0.00    -0.101 A  
HETATM   15  C   UNL     1      -9.132   4.588  73.295  1.00  0.00    -0.119 A  
HETATM   16  C   UNL     1     -10.033   5.728  71.333  1.00  0.00    -0.185 A  
HETATM   17 CL   UNL     1     -11.491   5.957  70.436  1.00  0.00    -0.235 Cl 
ENDBRANCH   4  11
ENDBRANCH   2   4
TORSDOF 2
ENDMDL
MODEL      232
REMARK 921   NORMALIZED FREE ENERGY PREDICTED BY IDOCK:   -1.82 KCAL/MOL
REMARK 922        TOTAL FREE ENERGY PREDICTED BY IDOCK:   -2.28 KCAL/MOL
REMARK 923 INTER-LIGAND FREE ENERGY PREDICTED BY IDOCK:   -2.10 KCAL/MOL
REMARK 924 INTRA-LIGAND FREE ENERGY PREDICTED BY IDOCK:   -0.18 KCAL/MOL
REMARK 927      BINDING AFFINITY PREDICTED BY RF-SCORE:    0.00 PKD
ROOT
HETATM    1  C   UNL     1      -6.707   7.880  68.729  1.00  0.00    -0.057 C  
HETATM    2  N   UNL     1      -6.943   6.552  68.196  1.00  0.00    -0.074 NA 
HETATM    3  H   UNL     1      -6.212   6.035  67.708  1.00  0.00     0.000 HD 
ENDROOT
BRANCH   2   4
HETATM    4  C   UNL     1      -8.305   5.980  68.396  1.00  0.00    -0.113 C  
HETATM    5  C   UNL     1      -9.273   7.091  68.902  1.00  0.00    -0.136 C  
HETATM    6  O   UNL     1      -7.128   4.883  70.296  1.00  0.00    -0.047 OA 
HETATM    7  C   UNL     1      -8.182   5.058  69.679  1.00  0.00    -0.088 C  
HETATM    8  C   UNL     1     -10.608   6.572  69.460  1.00  0.00    -0.293 C  
HETATM    9  C   UNL     1      -9.469   4.459  70.200  1.00  0.00    -0.245 C  
HETATM   10  C   UNL     1     -10.405   5.584  70.605  1.00  0.00    -0.332 C  
BRANCH   4  11
HETATM   11  C   UNL     1      -8.671   5.115  67.165  1.00  0.00    -0.103 A  
HETATM   12  C   UNL     1      -8.846   2.793  66.312  1.00  0.00    -0.146 A  
HETATM   13  C   UNL     1      -9.321   4.629  64.850  1.00  0.00    -0.127 A  
HETATM   14  C   UNL     1      -8.576   3.705  67.337  1.00  0.00    -0.114 A  
HETATM   15  C   UNL     1      -9.241   3.256  65.067  1.00  0.00    -0.148 A  
HETATM   16  C   UNL     1      -9.011   5.550  65.869  1.00  0.00    -0.154 A  
HETATM   17 CL   UNL     1      -9.005   7.192  65.331  1.00  0.00     0.079 Cl 
ENDBRANCH   4  11
ENDBRANCH   2   4
TORSDOF 2
ENDMDL
MODEL      233
REMARK 921   NORMALIZED FREE ENERGY PREDICTED BY IDOCK:   -1.79 KCAL/MOL
REMARK 922        TOTAL FREE ENERGY PREDICTED BY IDOCK:   -2.25 KCAL/MOL
REMARK 923 INTER-LIGAND FREE ENERGY PREDICTED BY IDOCK:   -1.93 KCAL/MOL
REMARK 924 INTRA-LIGAND FREE ENERGY PREDICTED BY IDOCK:   -0.32 KCAL/MOL
REMARK 927      BINDING AFFINITY PREDICTED BY RF-SCORE:    0.00 PKD
ROOT
HETATM    1  C   UNL     1      -9.249   7.232  68.310  1.00  0.00    -0.133 C  
HETATM    2  N   UNL     1      -9.363   7.270  69.754  1.00  0.00    -0.151 NA 
HETATM    3  H   UNL     1     -10.069   7.840  70.221  1.00  0.00     0.000 HD 
ENDROOT
BRANCH   2   4
HETATM    4  C   UNL     1      -8.398   6.436  70.526  1.00  0.00    -0.129 C  
HETATM    5  C   UNL     1      -7.337   5.831  69.560  1.00  0.00    -0.071 C  
HETATM    6  O   UNL     1     -10.406   4.973  70.685  1.00  0.00    -0.247 OA 
HETATM    7  C   UNL     1      -9.213   5.146  70.951  1.00  0.00    -0.146 C  
HETATM    8  C   UNL     1      -6.492   4.697  70.166  1.00  0.00    -0.035 C  
HETATM    9  C   UNL     1      -8.426   4.049  71.632  1.00  0.00    -0.106 C  
HETATM   10  C   UNL     1      -7.356   3.549  70.676  1.00  0.00    -0.040 C  
BRANCH   4  11
HETATM   11  C   UNL     1      -7.961   7.217  71.790  1.00  0.00    -0.097 A  
HETATM   12  C   UNL     1      -8.596   7.815  74.112  1.00  0.00    -0.307 A  
HETATM   13  C   UNL     1      -6.578   8.699  73.173  1.00  0.00    -0.034 A  
HETATM   14  C   UNL     1      -8.837   7.144  72.909  1.00  0.00    -0.154 A  
HETATM   15  C   UNL     1      -7.449   8.581  74.252  1.00  0.00    -0.184 A  
HETATM   16  C   UNL     1      -6.839   8.055  71.947  1.00  0.00    -0.070 A  
HETATM   17 CL   UNL     1      -5.726   8.481  70.697  1.00  0.00    -0.028 Cl 
ENDBRANCH   4  11
ENDBRANCH   2   4
TORSDOF 2
ENDMDL
MODEL      234
REMARK 921   NORMALIZED FREE ENERGY PREDICTED BY IDOCK:   -1.78 KCAL/MOL
REMARK 922        TOTAL FREE ENERGY PREDICTED BY IDOCK:   -2.24 KCAL/MOL
REMARK 923 INTER-LIGAND FREE ENERGY PREDICTED BY IDOCK:   -1.97 KCAL/MOL
REMARK 924 INTRA-LIGAND FREE ENERGY PREDICTED BY IDOCK:   -0.27 KCAL/MOL
REMARK 927      BINDING AFFINITY PREDICTED BY RF-SCORE:    0.00 PKD
ROOT
HETATM    1  C   UNL     1     -10.632   3.924  64.572  1.00  0.00    -0.185 C  
HETATM    2  N   UNL     1      -9.246   3.621  64.869  1.00  0.00    -0.139 NA 
HETATM    3  H   UNL     1      -8.786   2.795  64.487  1.00  0.00     0.000 HD 
ENDROOT
BRANCH   2   4
HETATM    4  C   UNL     1      -8.526   4.575  65.759  1.00  0.00    -0.115 C  
HETATM    5  C   UNL     1      -8.490   5.986  65.099  1.00  0.00    -0.112 C  
HETATM    6  O   UNL     1      -6.597   3.188  65.018  1.00  0.00    -0.037 OA 
HETATM    7  C   UNL     1      -7.003   4.148  65.679  1.00  0.00    -0.062 C  
HETATM    8  C   UNL     1      -7.502   6.971  65.746  1.00  0.00    -0.081 C  
HETATM    9  C   UNL     1      -6.014   5.050  66.383  1.00  0.00    -0.023 C  
HETATM   10  C   UNL     1      -6.076   6.431  65.753  1.00  0.00    -0.030 C  
BRANCH   4  11
HETATM   11  C   UNL     1      -9.042   4.395  67.209  1.00  0.00    -0.145 A  
HETATM   12  C   UNL     1     -10.003   5.572  69.168  1.00  0.00    -0.256 A  
HETATM   13  C   UNL     1      -9.530   3.229  69.311  1.00  0.00    -0.199 A  
HETATM   14  C   UNL     1      -9.530   5.567  67.852  1.00  0.00    -0.128 A  
HETATM   15  C   UNL     1     -10.023   4.392  69.895  1.00  0.00    -0.233 A  
HETATM   16  C   UNL     1      -9.017   3.229  68.000  1.00  0.00    -0.147 A  
HETATM   17 CL   UNL     1      -8.299   1.726  67.543  1.00  0.00    -0.074 Cl 
ENDBRANCH   4  11
ENDBRANCH   2   4
TORSDOF 2
ENDMDL
MODEL      235
REMARK 921   NORMALIZED FREE ENERGY PREDICTED BY IDOCK:   -1.77 KCAL/MOL
REMARK 922        TOTAL FREE ENERGY PREDICTED BY IDOCK:   -2.23 KCAL/MOL
REMARK 923 INTER-LIGAND FREE ENERGY PREDICTED BY IDOCK:   -2.29 KCAL/MOL
REMARK 924 INTRA-LIGAND FREE ENERGY PREDICTED BY IDOCK:    0.06 KCAL/MOL
REMARK 927      BINDING AFFINITY PREDICTED BY RF-SCORE:    0.00 PKD
ROOT
HETATM    1  C   UNL     1      -9.090   7.454  66.162  1.00  0.00    -0.126 C  
HETATM    2  N   UNL     1      -9.334   8.403  67.230  1.00  0.00    -0.142 NA 
HETATM    3  H   UNL     1      -9.937   8.176  68.021  1.00  0.00     0.000 HD 
ENDROOT
BRANCH   2   4
HETATM    4  C   UNL     1      -8.660   9.729  67.118  1.00  0.00    -0.128 C  
HETATM    5  C   UNL     1      -7.552   9.850  68.206  1.00  0.00    -0.080 C  
HETATM    6  O   UNL     1     -10.867  10.476  67.996  1.00  0.00    -0.221 OA 
HETATM    7  C   UNL     1      -9.727  10.781  67.632  1.00  0.00    -0.166 C  
HETATM    8  C   UNL     1      -7.013  11.275  68.416  1.00  0.00    -0.070 C  
HETATM    9  C   UNL     1      -9.251  12.210  67.764  1.00  0.00    -0.189 C  
HETATM   10  C   UNL     1      -8.121  12.259  68.777  1.00  0.00     0.054 C  
BRANCH   4  11
HETATM   11  C   UNL     1      -8.337  10.001  65.628  1.00  0.00    -0.148 A  
HETATM   12  C   UNL     1      -9.302  10.672  63.444  1.00  0.00    -0.324 A  
HETATM   13  C   UNL     1      -6.978  10.114  63.588  1.00  0.00    -0.108 A  
HETATM   14  C   UNL     1      -9.428  10.415  64.813  1.00  0.00    -0.329 A  
HETATM   15  C   UNL     1      -8.065  10.541  62.832  1.00  0.00    -0.139 A  
HETATM   16  C   UNL     1      -7.111   9.816  64.958  1.00  0.00    -0.120 A  
HETATM   17 CL   UNL     1      -5.683   9.136  65.655  1.00  0.00    -0.049 Cl 
ENDBRANCH   4  11
ENDBRANCH   2   4
TORSDOF 2
ENDMDL
MODEL      236
REMARK 921   NORMALIZED FREE ENERGY PREDICTED BY IDOCK:   -1.70 KCAL/MOL
REMARK 922        TOTAL FREE ENERGY PREDICTED BY IDOCK:   -2.15 KCAL/MOL
REMARK 923 INTER-LIGAND FREE ENERGY PREDICTED BY IDOCK:   -3.48 KCAL/MOL
REMARK 924 INTRA-LIGAND FREE ENERGY PREDICTED BY IDOCK:    1.33 KCAL/MOL
REMARK 927      BINDING AFFINITY PREDICTED BY RF-SCORE:    0.00 PKD
ROOT
HETATM    1  C   UNL     1     -11.040  15.487  68.641  1.00  0.00    -0.297 C  
HETATM    2  N   UNL     1     -10.797  16.290  67.459  1.00  0.00    -0.303 NA 
HETATM    3  H   UNL     1     -11.257  16.089  66.572  1.00  0.00     0.000 HD 
ENDROOT
BRANCH   2   4
HETATM    4  C   UNL     1      -9.840  17.425  67.604  1.00  0.00    -0.282 C  
HETATM    5  C   UNL     1     -10.406  18.464  68.618  1.00  0.00    -0.286 C  
HETATM    6  O   UNL     1     -10.658  17.884  65.298  1.00  0.00    -0.637 OA 
HETATM    7  C   UNL     1      -9.938  18.226  66.241  1.00  0.00    -0.357 C  
HETATM    8  C   UNL     1      -9.689  19.824  68.608  1.00  0.00    -0.450 C  
HETATM    9  C   UNL     1      -9.169  19.526  66.169  1.00  0.00    -0.363 C  
HETATM   10  C   UNL     1      -9.708  20.473  67.228  1.00  0.00    -0.600 C  
BRANCH   4  11
HETATM   11  C   UNL     1      -8.409  16.856  67.772  1.00  0.00    -0.198 A  
HETATM   12  C   UNL     1      -6.801  15.889  69.393  1.00  0.00    -0.200 A  
HETATM   13  C   UNL     1      -6.123  16.248  67.125  1.00  0.00    -0.148 A  
HETATM   14  C   UNL     1      -8.062  16.403  69.076  1.00  0.00    -0.223 A  
HETATM   15  C   UNL     1      -5.831  15.792  68.407  1.00  0.00    -0.109 A  
HETATM   16  C   UNL     1      -7.379  16.802  66.812  1.00  0.00    -0.240 A  
HETATM   17 CL   UNL     1      -7.461  17.463  65.218  1.00  0.00     1.209 Cl 
ENDBRANCH   4  11
ENDBRANCH   2   4
TORSDOF 2
ENDMDL
MODEL      237
REMARK 921   NORMALIZED FREE ENERGY PREDICTED BY IDOCK:   -1.68 KCAL/MOL
REMARK 922        TOTAL FREE ENERGY PREDICTED BY IDOCK:   -2.13 KCAL/MOL
REMARK 923 INTER-LIGAND FREE ENERGY PREDICTED BY IDOCK:   -2.50 KCAL/MOL
REMARK 924 INTRA-LIGAND FREE ENERGY PREDICTED BY IDOCK:    0.38 KCAL/MOL
REMARK 927      BINDING AFFINITY PREDICTED BY RF-SCORE:    0.00 PKD
ROOT
HETATM    1  C   UNL     1      -7.161   8.337  72.911  1.00  0.00    -0.099 C  
HETATM    2  N   UNL     1      -7.901   8.772  71.744  1.00  0.00    -0.296 NA 
HETATM    3  H   UNL     1      -7.902   9.747  71.443  1.00  0.00     0.000 HD 
ENDROOT
BRANCH   2   4
HETATM    4  C   UNL     1      -8.663   7.727  71.003  1.00  0.00    -0.136 C  
HETATM    5  C   UNL     1      -8.229   7.721  69.506  1.00  0.00    -0.128 C  
HETATM    6  O   UNL     1     -10.503   9.356  71.398  1.00  0.00    -0.333 OA 
HETATM    7  C   UNL     1     -10.142   8.285  70.903  1.00  0.00    -0.190 C  
HETATM    8  C   UNL     1      -9.162   6.931  68.573  1.00  0.00    -0.129 C  
HETATM    9  C   UNL     1     -11.108   7.479  70.062  1.00  0.00    -0.219 C  
HETATM   10  C   UNL     1     -10.598   7.440  68.632  1.00  0.00    -0.182 C  
BRANCH   4  11
HETATM   11  C   UNL     1      -8.655   6.419  71.832  1.00  0.00    -0.127 A  
HETATM   12  C   UNL     1      -9.935   5.055  73.462  1.00  0.00    -0.180 A  
HETATM   13  C   UNL     1      -7.767   4.325  72.753  1.00  0.00    -0.081 A  
HETATM   14  C   UNL     1      -9.804   6.177  72.636  1.00  0.00    -0.178 A  
HETATM   15  C   UNL     1      -8.918   4.113  73.505  1.00  0.00    -0.095 A  
HETATM   16  C   UNL     1      -7.617   5.473  71.951  1.00  0.00    -0.099 A  
HETATM   17 CL   UNL     1      -6.045   5.620  71.249  1.00  0.00    -0.032 Cl 
ENDBRANCH   4  11
ENDBRANCH   2   4
TORSDOF 2
ENDMDL
MODEL      238
REMARK 921   NORMALIZED FREE ENERGY PREDICTED BY IDOCK:   -1.66 KCAL/MOL
REMARK 922        TOTAL FREE ENERGY PREDICTED BY IDOCK:   -2.10 KCAL/MOL
REMARK 923 INTER-LIGAND FREE ENERGY PREDICTED BY IDOCK:   -3.61 KCAL/MOL
REMARK 924 INTRA-LIGAND FREE ENERGY PREDICTED BY IDOCK:    1.51 KCAL/MOL
REMARK 927      BINDING AFFINITY PREDICTED BY RF-SCORE:    0.00 PKD
ROOT
HETATM    1  C   UNL     1      -8.626  16.186  66.110  1.00  0.00    -0.296 C  
HETATM    2  N   UNL     1      -9.995  16.343  66.560  1.00  0.00    -0.267 NA 
HETATM    3  H   UNL     1     -10.639  16.986  66.100  1.00  0.00     0.000 HD 
ENDROOT
BRANCH   2   4
HETATM    4  C   UNL     1     -10.417  15.518  67.728  1.00  0.00    -0.273 C  
HETATM    5  C   UNL     1     -11.834  15.960  68.200  1.00  0.00    -0.001 C  
HETATM    6  O   UNL     1      -8.641  16.879  68.821  1.00  0.00    -0.252 OA 
HETATM    7  C   UNL     1      -9.512  16.012  68.932  1.00  0.00    -0.235 C  
HETATM    8  C   UNL     1     -12.243  15.428  69.583  1.00  0.00    -0.312 C  
HETATM    9  C   UNL     1      -9.834  15.436  70.293  1.00  0.00     0.146 C  
HETATM   10  C   UNL     1     -11.251  15.831  70.670  1.00  0.00    -0.395 C  
BRANCH   4  11
HETATM   11  C   UNL     1     -10.114  14.029  67.426  1.00  0.00    -0.244 A  
HETATM   12  C   UNL     1     -11.132  11.794  67.080  1.00  0.00    -0.358 A  
HETATM   13  C   UNL     1      -8.749  12.029  67.035  1.00  0.00    -0.188 A  
HETATM   14  C   UNL     1     -11.242  13.168  67.321  1.00  0.00    -0.319 A  
HETATM   15  C   UNL     1      -9.879  11.225  66.915  1.00  0.00    -0.220 A  
HETATM   16  C   UNL     1      -8.856  13.404  67.317  1.00  0.00    -0.220 A  
HETATM   17 CL   UNL     1      -7.332  14.168  67.599  1.00  0.00    -0.176 Cl 
ENDBRANCH   4  11
ENDBRANCH   2   4
TORSDOF 2
ENDMDL
MODEL      239
REMARK 921   NORMALIZED FREE ENERGY PREDICTED BY IDOCK:   -1.65 KCAL/MOL
REMARK 922        TOTAL FREE ENERGY PREDICTED BY IDOCK:   -2.10 KCAL/MOL
REMARK 923 INTER-LIGAND FREE ENERGY PREDICTED BY IDOCK:   -2.15 KCAL/MOL
REMARK 924 INTRA-LIGAND FREE ENERGY PREDICTED BY IDOCK:    0.05 KCAL/MOL
REMARK 927      BINDING AFFINITY PREDICTED BY RF-SCORE:    0.00 PKD
ROOT
HETATM    1  C   UNL     1     -10.655   3.825  74.351  1.00  0.00    -0.182 C  
HETATM    2  N   UNL     1      -9.681   3.174  73.498  1.00  0.00    -0.102 NA 
HETATM    3  H   UNL     1      -9.421   2.198  73.632  1.00  0.00     0.000 HD 
ENDROOT
BRANCH   2   4
HETATM    4  C   UNL     1      -9.077   4.003  72.416  1.00  0.00    -0.114 C  
HETATM    5  C   UNL     1      -9.837   3.756  71.078  1.00  0.00    -0.204 C  
HETATM    6  O   UNL     1      -7.242   2.348  72.724  1.00  0.00    -0.030 OA 
HETATM    7  C   UNL     1      -7.675   3.330  72.113  1.00  0.00    -0.058 C  
HETATM    8  C   UNL     1      -9.118   4.284  69.826  1.00  0.00    -0.181 C  
HETATM    9  C   UNL     1      -6.902   3.889  70.939  1.00  0.00    -0.032 C  
HETATM   10  C   UNL     1      -7.720   3.693  69.675  1.00  0.00    -0.051 C  
BRANCH   4  11
HETATM   11  C   UNL     1      -8.860   5.441  72.947  1.00  0.00    -0.121 A  
HETATM   12  C   UNL     1      -9.592   7.801  72.733  1.00  0.00    -0.281 A  
HETATM   13  C   UNL     1      -7.827   7.243  74.252  1.00  0.00    -0.162 A  
HETATM   14  C   UNL     1      -9.686   6.452  72.379  1.00  0.00    -0.159 A  
HETATM   15  C   UNL     1      -8.671   8.197  73.691  1.00  0.00    -0.309 A  
HETATM   16  C   UNL     1      -7.893   5.890  73.868  1.00  0.00    -0.099 A  
HETATM   17 CL   UNL     1      -6.641   4.919  74.555  1.00  0.00    -0.068 Cl 
ENDBRANCH   4  11
ENDBRANCH   2   4
TORSDOF 2
ENDMDL
MODEL      240
REMARK 921   NORMALIZED FREE ENERGY PREDICTED BY IDOCK:   -1.54 KCAL/MOL
REMARK 922        TOTAL FREE ENERGY PREDICTED BY IDOCK:   -1.97 KCAL/MOL
REMARK 923 INTER-LIGAND FREE ENERGY PREDICTED BY IDOCK:   -2.02 KCAL/MOL
REMARK 924 INTRA-LIGAND FREE ENERGY PREDICTED BY IDOCK:    0.05 KCAL/MOL
REMARK 927      BINDING AFFINITY PREDICTED BY RF-SCORE:    0.00 PKD
ROOT
HETATM    1  C   UNL     1     -10.386   4.365  73.603  1.00  0.00    -0.186 C  
HETATM    2  N   UNL     1      -9.477   3.360  73.090  1.00  0.00    -0.104 NA 
HETATM    3  H   UNL     1      -9.339   2.469  73.568  1.00  0.00     0.000 HD 
ENDROOT
BRANCH   2   4
HETATM    4  C   UNL     1      -8.753   3.689  71.829  1.00  0.00    -0.094 C  
HETATM    5  C   UNL     1      -9.313   2.826  70.659  1.00  0.00    -0.218 C  
HETATM    6  O   UNL     1      -6.932   2.495  73.034  1.00  0.00    -0.026 OA 
HETATM    7  C   UNL     1      -7.304   3.076  72.011  1.00  0.00    -0.047 C  
HETATM    8  C   UNL     1      -8.443   2.823  69.392  1.00  0.00    -0.100 C  
HETATM    9  C   UNL     1      -6.392   3.139  70.806  1.00  0.00    -0.023 C  
HETATM   10  C   UNL     1      -7.022   2.348  69.672  1.00  0.00    -0.033 C  
BRANCH   4  11
HETATM   11  C   UNL     1      -8.654   5.229  71.696  1.00  0.00    -0.135 A  
HETATM   12  C   UNL     1      -7.494   7.256  72.533  1.00  0.00    -0.086 A  
HETATM   13  C   UNL     1      -9.238   7.477  70.906  1.00  0.00    -0.153 A  
HETATM   14  C   UNL     1      -7.685   5.870  72.518  1.00  0.00    -0.101 A  
HETATM   15  C   UNL     1      -8.261   8.062  71.707  1.00  0.00    -0.151 A  
HETATM   16  C   UNL     1      -9.458   6.087  70.919  1.00  0.00    -0.168 A  
HETATM   17 CL   UNL     1     -10.830   5.600  69.989  1.00  0.00    -0.395 Cl 
ENDBRANCH   4  11
ENDBRANCH   2   4
TORSDOF 2
ENDMDL
MODEL      241
REMARK 921   NORMALIZED FREE ENERGY PREDICTED BY IDOCK:   -1.36 KCAL/MOL
REMARK 922        TOTAL FREE ENERGY PREDICTED BY IDOCK:   -1.77 KCAL/MOL
REMARK 923 INTER-LIGAND FREE ENERGY PREDICTED BY IDOCK:   -2.39 KCAL/MOL
REMARK 924 INTRA-LIGAND FREE ENERGY PREDICTED BY IDOCK:    0.63 KCAL/MOL
REMARK 927      BINDING AFFINITY PREDICTED BY RF-SCORE:    0.00 PKD
ROOT
HETATM    1  C   UNL     1      -7.493   6.492  69.660  1.00  0.00    -0.093 C  
HETATM    2  N   UNL     1      -7.683   7.912  69.441  1.00  0.00    -0.103 NA 
HETATM    3  H   UNL     1      -7.005   8.599  69.771  1.00  0.00     0.000 HD 
ENDROOT
BRANCH   2   4
HETATM    4  C   UNL     1      -8.916   8.320  68.710  1.00  0.00    -0.144 C  
HETATM    5  C   UNL     1      -8.667   9.668  67.969  1.00  0.00    -0.119 C  
HETATM    6  O   UNL     1      -9.689   8.708  71.045  1.00  0.00    -0.179 OA 
HETATM    7  C   UNL     1      -9.939   8.761  69.837  1.00  0.00    -0.187 C  
HETATM    8  C   UNL     1      -9.940  10.362  67.458  1.00  0.00    -0.215 C  
HETATM    9  C   UNL     1     -11.241   9.367  69.362  1.00  0.00    -0.019 C  
HETATM   10  C   UNL     1     -10.936  10.633  68.581  1.00  0.00    -0.291 C  
BRANCH   4  11
HETATM   11  C   UNL     1      -9.477   7.093  67.949  1.00  0.00    -0.135 A  
HETATM   12  C   UNL     1      -9.576   5.959  65.746  1.00  0.00     0.091 A  
HETATM   13  C   UNL     1     -10.776   5.041  67.603  1.00  0.00     0.151 A  
HETATM   14  C   UNL     1      -9.127   6.993  66.573  1.00  0.00    -0.183 A  
HETATM   15  C   UNL     1     -10.390   4.966  66.269  1.00  0.00    -0.336 A  
HETATM   16  C   UNL     1     -10.357   6.102  68.429  1.00  0.00    -0.200 A  
HETATM   17 CL   UNL     1     -11.096   6.092  69.990  1.00  0.00    -0.433 Cl 
ENDBRANCH   4  11
ENDBRANCH   2   4
TORSDOF 2
ENDMDL
MODEL      242
REMARK 921   NORMALIZED FREE ENERGY PREDICTED BY IDOCK:   -1.35 KCAL/MOL
REMARK 922        TOTAL FREE ENERGY PREDICTED BY IDOCK:   -1.76 KCAL/MOL
REMARK 923 INTER-LIGAND FREE ENERGY PREDICTED BY IDOCK:   -1.83 KCAL/MOL
REMARK 924 INTRA-LIGAND FREE ENERGY PREDICTED BY IDOCK:    0.08 KCAL/MOL
REMARK 927      BINDING AFFINITY PREDICTED BY RF-SCORE:    0.00 PKD
ROOT
HETATM    1  C   UNL     1      -7.594   4.785  67.889  1.00  0.00    -0.082 C  
HETATM    2  N   UNL     1      -6.677   5.431  68.807  1.00  0.00    -0.051 NA 
HETATM    3  H   UNL     1      -5.817   4.977  69.112  1.00  0.00     0.000 HD 
ENDROOT
BRANCH   2   4
HETATM    4  C   UNL     1      -7.054   6.792  69.286  1.00  0.00    -0.087 C  
HETATM    5  C   UNL     1      -6.312   7.871  68.441  1.00  0.00    -0.049 C  
HETATM    6  O   UNL     1      -5.670   6.058  71.221  1.00  0.00    -0.021 OA 
HETATM    7  C   UNL     1      -6.345   6.947  70.694  1.00  0.00    -0.046 C  
HETATM    8  C   UNL     1      -6.350   9.288  69.037  1.00  0.00    -0.043 C  
HETATM    9  C   UNL     1      -6.442   8.308  71.348  1.00  0.00    -0.046 C  
HETATM   10  C   UNL     1      -5.773   9.333  70.448  1.00  0.00    -0.036 C  
BRANCH   4  11
HETATM   11  C   UNL     1      -8.591   6.852  69.467  1.00  0.00    -0.134 A  
HETATM   12  C   UNL     1     -10.457   6.384  71.033  1.00  0.00    -0.268 A  
HETATM   13  C   UNL     1     -10.935   7.214  68.839  1.00  0.00    -0.109 A  
HETATM   14  C   UNL     1      -9.093   6.416  70.726  1.00  0.00    -0.151 A  
HETATM   15  C   UNL     1     -11.382   6.805  70.091  1.00  0.00    -0.404 A  
HETATM   16  C   UNL     1      -9.565   7.210  68.513  1.00  0.00    -0.139 A  
HETATM   17 CL   UNL     1      -9.251   7.583  66.856  1.00  0.00    -0.167 Cl 
ENDBRANCH   4  11
ENDBRANCH   2   4
TORSDOF 2
ENDMDL
MODEL      243
REMARK 921   NORMALIZED FREE ENERGY PREDICTED BY IDOCK:   -1.28 KCAL/MOL
REMARK 922        TOTAL FREE ENERGY PREDICTED BY IDOCK:   -1.69 KCAL/MOL
REMARK 923 INTER-LIGAND FREE ENERGY PREDICTED BY IDOCK:   -1.89 KCAL/MOL
REMARK 924 INTRA-LIGAND FREE ENERGY PREDICTED BY IDOCK:    0.21 KCAL/MOL
REMARK 927      BINDING AFFINITY PREDICTED BY RF-SCORE:    0.00 PKD
ROOT
HETATM    1  C   UNL     1     -10.660   4.167  65.020  1.00  0.00    -0.136 C  
HETATM    2  N   UNL     1      -9.841   3.114  65.588  1.00  0.00    -0.388 NA 
HETATM    3  H   UNL     1     -10.104   2.132  65.512  1.00  0.00     0.000 HD 
ENDROOT
BRANCH   2   4
HETATM    4  C   UNL     1      -8.595   3.537  66.289  1.00  0.00    -0.117 C  
HETATM    5  C   UNL     1      -7.376   2.759  65.710  1.00  0.00    -0.071 C  
HETATM    6  O   UNL     1      -9.678   2.265  68.134  1.00  0.00    -0.145 OA 
HETATM    7  C   UNL     1      -8.707   2.917  67.742  1.00  0.00    -0.114 C  
HETATM    8  C   UNL     1      -6.096   2.851  66.557  1.00  0.00    -0.024 C  
HETATM    9  C   UNL     1      -7.493   3.071  68.633  1.00  0.00    -0.049 C  
HETATM   10  C   UNL     1      -6.317   2.362  67.985  1.00  0.00    -0.029 C  
BRANCH   4  11
HETATM   11  C   UNL     1      -8.572   5.083  66.382  1.00  0.00    -0.111 A  
HETATM   12  C   UNL     1      -9.238   7.031  67.766  1.00  0.00    -0.124 A  
HETATM   13  C   UNL     1      -8.163   7.391  65.657  1.00  0.00    -0.137 A  
HETATM   14  C   UNL     1      -9.156   5.651  67.549  1.00  0.00    -0.106 A  
HETATM   15  C   UNL     1      -8.719   7.905  66.824  1.00  0.00    -0.143 A  
HETATM   16  C   UNL     1      -8.115   6.004  65.418  1.00  0.00    -0.132 A  
HETATM   17 CL   UNL     1      -7.548   5.598  63.837  1.00  0.00    -0.068 Cl 
ENDBRANCH   4  11
ENDBRANCH   2   4
TORSDOF 2
ENDMDL
MODEL      244
REMARK 921   NORMALIZED FREE ENERGY PREDICTED BY IDOCK:   -1.25 KCAL/MOL
REMARK 922        TOTAL FREE ENERGY PREDICTED BY IDOCK:   -1.65 KCAL/MOL
REMARK 923 INTER-LIGAND FREE ENERGY PREDICTED BY IDOCK:   -1.40 KCAL/MOL
REMARK 924 INTRA-LIGAND FREE ENERGY PREDICTED BY IDOCK:   -0.25 KCAL/MOL
REMARK 927      BINDING AFFINITY PREDICTED BY RF-SCORE:    0.00 PKD
ROOT
HETATM    1  C   UNL     1      -6.680   3.080  67.757  1.00  0.00    -0.044 C  
HETATM    2  N   UNL     1      -7.723   3.692  66.958  1.00  0.00    -0.079 NA 
HETATM    3  H   UNL     1      -8.681   3.771  67.299  1.00  0.00     0.000 HD 
ENDROOT
BRANCH   2   4
HETATM    4  C   UNL     1      -7.328   4.201  65.614  1.00  0.00    -0.076 C  
HETATM    5  C   UNL     1      -5.774   4.241  65.502  1.00  0.00    -0.022 C  
HETATM    6  O   UNL     1      -8.213   6.311  66.594  1.00  0.00    -0.108 OA 
HETATM    7  C   UNL     1      -7.685   5.744  65.633  1.00  0.00    -0.093 C  
HETATM    8  C   UNL     1      -5.239   5.049  64.308  1.00  0.00    -0.009 C  
HETATM    9  C   UNL     1      -7.250   6.549  64.429  1.00  0.00    -0.069 C  
HETATM   10  C   UNL     1      -5.736   6.491  64.322  1.00  0.00    -0.030 C  
BRANCH   4  11
HETATM   11  C   UNL     1      -8.178   3.482  64.536  1.00  0.00    -0.090 A  
HETATM   12  C   UNL     1      -8.079   2.112  62.471  1.00  0.00    -0.064 A  
HETATM   13  C   UNL     1     -10.205   2.784  63.344  1.00  0.00    -0.166 A  
HETATM   14  C   UNL     1      -7.456   2.786  63.527  1.00  0.00    -0.062 A  
HETATM   15  C   UNL     1      -9.462   2.094  62.391  1.00  0.00    -0.089 A  
HETATM   16  C   UNL     1      -9.579   3.496  64.385  1.00  0.00    -0.162 A  
HETATM   17 CL   UNL     1     -10.679   4.421  65.344  1.00  0.00    -0.240 Cl 
ENDBRANCH   4  11
ENDBRANCH   2   4
TORSDOF 2
ENDMDL
MODEL      245
REMARK 921   NORMALIZED FREE ENERGY PREDICTED BY IDOCK:   -1.19 KCAL/MOL
REMARK 922        TOTAL FREE ENERGY PREDICTED BY IDOCK:   -1.59 KCAL/MOL
REMARK 923 INTER-LIGAND FREE ENERGY PREDICTED BY IDOCK:   -1.79 KCAL/MOL
REMARK 924 INTRA-LIGAND FREE ENERGY PREDICTED BY IDOCK:    0.21 KCAL/MOL
REMARK 927      BINDING AFFINITY PREDICTED BY RF-SCORE:    0.00 PKD
ROOT
HETATM    1  C   UNL     1      -5.710  10.998  67.765  1.00  0.00    -0.042 C  
HETATM    2  N   UNL     1      -5.675   9.783  66.975  1.00  0.00    -0.050 NA 
HETATM    3  H   UNL     1      -4.902   9.578  66.344  1.00  0.00     0.000 HD 
ENDROOT
BRANCH   2   4
HETATM    4  C   UNL     1      -6.826   8.848  67.131  1.00  0.00    -0.074 C  
HETATM    5  C   UNL     1      -6.326   7.491  67.710  1.00  0.00    -0.053 C  
HETATM    6  O   UNL     1      -6.669   8.877  64.647  1.00  0.00    -0.073 OA 
HETATM    7  C   UNL     1      -7.228   8.436  65.655  1.00  0.00    -0.075 C  
HETATM    8  C   UNL     1      -7.339   6.339  67.608  1.00  0.00    -0.084 C  
HETATM    9  C   UNL     1      -8.289   7.366  65.522  1.00  0.00    -0.139 C  
HETATM   10  C   UNL     1      -7.782   6.090  66.170  1.00  0.00    -0.102 C  
BRANCH   4  11
HETATM   11  C   UNL     1      -8.001   9.606  67.799  1.00  0.00    -0.105 A  
HETATM   12  C   UNL     1      -9.480   9.683  69.787  1.00  0.00    -0.242 A  
HETATM   13  C   UNL     1      -9.806  11.253  68.009  1.00  0.00    -0.186 A  
HETATM   14  C   UNL     1      -8.417   9.124  69.071  1.00  0.00    -0.132 A  
HETATM   15  C   UNL     1     -10.166  10.767  69.262  1.00  0.00    -0.217 A  
HETATM   16  C   UNL     1      -8.762  10.666  67.268  1.00  0.00    -0.129 A  
HETATM   17 CL   UNL     1      -8.605  11.310  65.673  1.00  0.00    -0.088 Cl 
ENDBRANCH   4  11
ENDBRANCH   2   4
TORSDOF 2
ENDMDL
MODEL      246
REMARK 921   NORMALIZED FREE ENERGY PREDICTED BY IDOCK:   -1.12 KCAL/MOL
REMARK 922        TOTAL FREE ENERGY PREDICTED BY IDOCK:   -1.51 KCAL/MOL
REMARK 923 INTER-LIGAND FREE ENERGY PREDICTED BY IDOCK:   -1.98 KCAL/MOL
REMARK 924 INTRA-LIGAND FREE ENERGY PREDICTED BY IDOCK:    0.47 KCAL/MOL
REMARK 927      BINDING AFFINITY PREDICTED BY RF-SCORE:    0.00 PKD
ROOT
HETATM    1  C   UNL     1      -5.762   7.935  69.282  1.00  0.00    -0.030 C  
HETATM    2  N   UNL     1      -6.638   6.996  68.610  1.00  0.00    -0.052 NA 
HETATM    3  H   UNL     1      -6.437   6.655  67.670  1.00  0.00     0.000 HD 
ENDROOT
BRANCH   2   4
HETATM    4  C   UNL     1      -7.848   6.552  69.359  1.00  0.00    -0.106 C  
HETATM    5  C   UNL     1      -8.496   5.333  68.637  1.00  0.00    -0.088 C  
HETATM    6  O   UNL     1      -8.711   8.701  68.446  1.00  0.00    -0.140 OA 
HETATM    7  C   UNL     1      -8.929   7.682  69.108  1.00  0.00    -0.135 C  
HETATM    8  C   UNL     1      -9.919   4.991  69.110  1.00  0.00    -0.267 C  
HETATM    9  C   UNL     1     -10.318   7.413  69.642  1.00  0.00    -0.226 C  
HETATM   10  C   UNL     1     -10.872   6.172  68.962  1.00  0.00    -0.416 C  
BRANCH   4  11
HETATM   11  C   UNL     1      -7.506   6.484  70.869  1.00  0.00    -0.084 A  
HETATM   12  C   UNL     1      -7.237   7.824  72.938  1.00  0.00    -0.102 A  
HETATM   13  C   UNL     1      -6.809   5.469  72.990  1.00  0.00    -0.079 A  
HETATM   14  C   UNL     1      -7.546   7.717  71.578  1.00  0.00    -0.081 A  
HETATM   15  C   UNL     1      -6.886   6.689  73.653  1.00  0.00    -0.076 A  
HETATM   16  C   UNL     1      -7.083   5.365  71.613  1.00  0.00    -0.072 A  
HETATM   17 CL   UNL     1      -6.754   3.798  70.963  1.00  0.00    -0.031 Cl 
ENDBRANCH   4  11
ENDBRANCH   2   4
TORSDOF 2
ENDMDL
MODEL      247
REMARK 921   NORMALIZED FREE ENERGY PREDICTED BY IDOCK:   -0.95 KCAL/MOL
REMARK 922        TOTAL FREE ENERGY PREDICTED BY IDOCK:   -1.31 KCAL/MOL
REMARK 923 INTER-LIGAND FREE ENERGY PREDICTED BY IDOCK:   -1.60 KCAL/MOL
REMARK 924 INTRA-LIGAND FREE ENERGY PREDICTED BY IDOCK:    0.29 KCAL/MOL
REMARK 927      BINDING AFFINITY PREDICTED BY RF-SCORE:    0.00 PKD
ROOT
HETATM    1  C   UNL     1      -7.538   5.053  67.967  1.00  0.00    -0.083 C  
HETATM    2  N   UNL     1      -6.986   6.236  68.598  1.00  0.00    -0.077 NA 
HETATM    3  H   UNL     1      -6.212   6.177  69.260  1.00  0.00     0.000 HD 
ENDROOT
BRANCH   2   4
HETATM    4  C   UNL     1      -7.604   7.542  68.233  1.00  0.00    -0.114 C  
HETATM    5  C   UNL     1      -9.157   7.414  68.254  1.00  0.00    -0.128 C  
HETATM    6  O   UNL     1      -6.680   6.903  66.011  1.00  0.00    -0.050 OA 
HETATM    7  C   UNL     1      -7.321   7.716  66.684  1.00  0.00    -0.088 C  
HETATM    8  C   UNL     1      -9.904   8.577  67.581  1.00  0.00    -0.222 C  
HETATM    9  C   UNL     1      -7.971   8.904  66.012  1.00  0.00    -0.106 C  
HETATM   10  C   UNL     1      -9.479   8.769  66.129  1.00  0.00    -0.315 C  
BRANCH   4  11
HETATM   11  C   UNL     1      -6.894   8.670  69.022  1.00  0.00    -0.056 A  
HETATM   12  C   UNL     1      -5.143  10.423  68.902  1.00  0.00    -0.038 A  
HETATM   13  C   UNL     1      -6.336  10.081  70.950  1.00  0.00    -0.030 A  
HETATM   14  C   UNL     1      -5.891   9.395  68.319  1.00  0.00    -0.041 A  
HETATM   15  C   UNL     1      -5.381  10.782  70.220  1.00  0.00    -0.067 A  
HETATM   16  C   UNL     1      -7.063   9.020  70.377  1.00  0.00    -0.065 A  
HETATM   17 CL   UNL     1      -8.060   8.179  71.510  1.00  0.00    -0.124 Cl 
ENDBRANCH   4  11
ENDBRANCH   2   4
TORSDOF 2
ENDMDL
MODEL      248
REMARK 921   NORMALIZED FREE ENERGY PREDICTED BY IDOCK:   -0.84 KCAL/MOL
REMARK 922        TOTAL FREE ENERGY PREDICTED BY IDOCK:   -1.19 KCAL/MOL
REMARK 923 INTER-LIGAND FREE ENERGY PREDICTED BY IDOCK:   -1.91 KCAL/MOL
REMARK 924 INTRA-LIGAND FREE ENERGY PREDICTED BY IDOCK:    0.72 KCAL/MOL
REMARK 927      BINDING AFFINITY PREDICTED BY RF-SCORE:    0.00 PKD
ROOT
HETATM    1  C   UNL     1      -6.050   7.137  69.728  1.00  0.00    -0.027 C  
HETATM    2  N   UNL     1      -7.440   7.547  69.730  1.00  0.00    -0.089 NA 
HETATM    3  H   UNL     1      -7.710   8.523  69.846  1.00  0.00     0.000 HD 
ENDROOT
BRANCH   2   4
HETATM    4  C   UNL     1      -8.457   6.470  69.556  1.00  0.00    -0.131 C  
HETATM    5  C   UNL     1      -9.812   7.095  69.107  1.00  0.00    -0.160 C  
HETATM    6  O   UNL     1      -8.263   6.436  72.037  1.00  0.00    -0.109 OA 
HETATM    7  C   UNL     1      -8.802   5.984  71.023  1.00  0.00    -0.139 C  
HETATM    8  C   UNL     1     -11.019   6.149  69.213  1.00  0.00    -0.450 C  
HETATM    9  C   UNL     1      -9.929   4.983  71.151  1.00  0.00    -0.276 C  
HETATM   10  C   UNL     1     -11.207   5.615  70.629  1.00  0.00    -0.089 C  
BRANCH   4  11
HETATM   11  C   UNL     1      -7.822   5.306  68.756  1.00  0.00    -0.083 A  
HETATM   12  C   UNL     1      -7.566   4.312  66.498  1.00  0.00    -0.089 A  
HETATM   13  C   UNL     1      -6.592   3.215  68.390  1.00  0.00    -0.037 A  
HETATM   14  C   UNL     1      -8.049   5.310  67.352  1.00  0.00    -0.100 A  
HETATM   15  C   UNL     1      -6.815   3.270  67.018  1.00  0.00    -0.049 A  
HETATM   16  C   UNL     1      -7.110   4.197  69.256  1.00  0.00    -0.050 A  
HETATM   17 CL   UNL     1      -6.865   3.838  70.928  1.00  0.00    -0.032 Cl 
ENDBRANCH   4  11
ENDBRANCH   2   4
TORSDOF 2
ENDMDL
MODEL      249
REMARK 921   NORMALIZED FREE ENERGY PREDICTED BY IDOCK:    0.66 KCAL/MOL
REMARK 922        TOTAL FREE ENERGY PREDICTED BY IDOCK:    0.48 KCAL/MOL
REMARK 923 INTER-LIGAND FREE ENERGY PREDICTED BY IDOCK:   -1.20 KCAL/MOL
REMARK 924 INTRA-LIGAND FREE ENERGY PREDICTED BY IDOCK:    1.68 KCAL/MOL
REMARK 927      BINDING AFFINITY PREDICTED BY RF-SCORE:    0.00 PKD
ROOT
HETATM    1  C   UNL     1      -8.985   4.783  69.275  1.00  0.00    -0.095 C  
HETATM    2  N   UNL     1      -9.022   6.048  69.981  1.00  0.00    -0.144 NA 
HETATM    3  H   UNL     1      -9.896   6.443  70.326  1.00  0.00     0.000 HD 
ENDROOT
BRANCH   2   4
HETATM    4  C   UNL     1      -7.718   6.743  70.180  1.00  0.00    -0.101 C  
HETATM    5  C   UNL     1      -7.601   7.936  69.184  1.00  0.00    -0.098 C  
HETATM    6  O   UNL     1      -6.891   4.632  69.153  1.00  0.00    -0.047 OA 
HETATM    7  C   UNL     1      -6.626   5.746  69.612  1.00  0.00    -0.050 C  
HETATM    8  C   UNL     1      -6.187   8.525  69.054  1.00  0.00    -0.044 C  
HETATM    9  C   UNL     1      -5.207   6.267  69.555  1.00  0.00    -0.012 C  
HETATM   10  C   UNL     1      -5.164   7.474  68.634  1.00  0.00    -0.022 C  
BRANCH   4  11
HETATM   11  C   UNL     1      -7.490   6.957  71.697  1.00  0.00    -0.085 A  
HETATM   12  C   UNL     1      -6.840   8.612  73.426  1.00  0.00    -0.006 A  
HETATM   13  C   UNL     1      -7.304   6.352  74.067  1.00  0.00    -0.085 A  
HETATM   14  C   UNL     1      -7.109   8.268  72.097  1.00  0.00    -0.103 A  
HETATM   15  C   UNL     1      -6.959   7.653  74.420  1.00  0.00    -0.132 A  
HETATM   16  C   UNL     1      -7.537   5.994  72.725  1.00  0.00    -0.095 A  
HETATM   17 CL   UNL     1      -7.776   4.298  72.498  1.00  0.00    -0.078 Cl 
ENDBRANCH   4  11
ENDBRANCH   2   4
TORSDOF 2
ENDMDL
MODEL      250
REMARK 921   NORMALIZED FREE ENERGY PREDICTED BY IDOCK:    0.80 KCAL/MOL
REMARK 922        TOTAL FREE ENERGY PREDICTED BY IDOCK:    0.64 KCAL/MOL
REMARK 923 INTER-LIGAND FREE ENERGY PREDICTED BY IDOCK:   -0.97 KCAL/MOL
REMARK 924 INTRA-LIGAND FREE ENERGY PREDICTED BY IDOCK:    1.61 KCAL/MOL
REMARK 927      BINDING AFFINITY PREDICTED BY RF-SCORE:    0.00 PKD
ROOT
HETATM    1  C   UNL     1      -8.530  10.195  70.445  1.00  0.00     0.449 C  
HETATM    2  N   UNL     1      -8.886  11.500  69.924  1.00  0.00     0.965 NA 
HETATM    3  H   UNL     1      -9.074  12.290  70.542  1.00  0.00     0.000 HD 
ENDROOT
BRANCH   2   4
HETATM    4  C   UNL     1      -8.965  11.632  68.441  1.00  0.00    -0.176 C  
HETATM    5  C   UNL     1     -10.389  11.230  67.952  1.00  0.00    -0.205 C  
HETATM    6  O   UNL     1      -7.471   9.646  68.586  1.00  0.00    -0.074 OA 
HETATM    7  C   UNL     1      -8.086  10.444  67.872  1.00  0.00    -0.102 C  
HETATM    8  C   UNL     1     -10.504  11.003  66.436  1.00  0.00    -0.312 C  
HETATM    9  C   UNL     1      -8.109  10.250  66.372  1.00  0.00    -0.123 C  
HETATM   10  C   UNL     1      -9.531   9.938  65.940  1.00  0.00    -0.272 C  
BRANCH   4  11
HETATM   11  C   UNL     1      -8.341  12.988  68.025  1.00  0.00    -0.169 A  
HETATM   12  C   UNL     1      -8.845  15.274  67.208  1.00  0.00    -0.212 A  
HETATM   13  C   UNL     1      -6.567  14.604  67.515  1.00  0.00    -0.113 A  
HETATM   14  C   UNL     1      -9.254  14.007  67.636  1.00  0.00    -0.194 A  
HETATM   15  C   UNL     1      -7.494  15.581  67.167  1.00  0.00    -0.244 A  
HETATM   16  C   UNL     1      -6.975  13.315  67.909  1.00  0.00    -0.137 A  
HETATM   17 CL   UNL     1      -5.661  12.213  68.122  1.00  0.00    -0.049 Cl 
ENDBRANCH   4  11
ENDBRANCH   2   4
TORSDOF 2
ENDMDL
MODEL      251
REMARK 921   NORMALIZED FREE ENERGY PREDICTED BY IDOCK:   13.20 KCAL/MOL
REMARK 922        TOTAL FREE ENERGY PREDICTED BY IDOCK:   14.49 KCAL/MOL
REMARK 923 INTER-LIGAND FREE ENERGY PREDICTED BY IDOCK:   12.90 KCAL/MOL
REMARK 924 INTRA-LIGAND FREE ENERGY PREDICTED BY IDOCK:    1.58 KCAL/MOL
REMARK 927      BINDING AFFINITY PREDICTED BY RF-SCORE:    0.00 PKD
ROOT
HETATM    1  C   UNL     1      -6.970  16.736  66.591  1.00  0.00    -0.232 C  
HETATM    2  N   UNL     1      -7.655  17.266  67.753  1.00  0.00    -0.178 NA 
HETATM    3  H   UNL     1      -7.597  18.252  68.004  1.00  0.00     0.000 HD 
ENDROOT
BRANCH   2   4
HETATM    4  C   UNL     1      -8.449  16.298  68.563  1.00  0.00    -0.206 C  
HETATM    5  C   UNL     1      -7.838  16.184  69.992  1.00  0.00     0.853 C  
HETATM    6  O   UNL     1      -7.360  14.703  66.992  1.00  0.00    -0.079 OA 
HETATM    7  C   UNL     1      -8.109  14.874  67.958  1.00  0.00    -0.136 C  
HETATM    8  C   UNL     1      -8.350  14.989  70.814  1.00  0.00     2.023 C  
HETATM    9  C   UNL     1      -8.674  13.680  68.695  1.00  0.00    -0.027 C  
HETATM   10  C   UNL     1      -8.108  13.661  70.104  1.00  0.00     2.300 C  
BRANCH   4  11
HETATM   11  C   UNL     1      -9.956  16.601  68.371  1.00  0.00    -0.255 A  
HETATM   12  C   UNL     1     -11.966  16.056  67.024  1.00  0.00     1.012 A  
HETATM   13  C   UNL     1     -12.109  17.715  68.745  1.00  0.00     3.464 A  
HETATM   14  C   UNL     1     -10.615  15.875  67.339  1.00  0.00    -0.315 A  
HETATM   15  C   UNL     1     -12.722  16.967  67.746  1.00  0.00     3.785 A  
HETATM   16  C   UNL     1     -10.740  17.563  69.038  1.00  0.00    -0.012 A  
HETATM   17 CL   UNL     1     -10.151  18.712  70.186  1.00  0.00     0.904 Cl 
ENDBRANCH   4  11
ENDBRANCH   2   4
TORSDOF 2
ENDMDL
