MODEL        1
REMARK 921   NORMALIZED FREE ENERGY PREDICTED BY IDOCK:   -6.95 KCAL/MOL
REMARK 922        TOTAL FREE ENERGY PREDICTED BY IDOCK:   -8.72 KCAL/MOL
REMARK 923 INTER-LIGAND FREE ENERGY PREDICTED BY IDOCK:   -8.17 KCAL/MOL
REMARK 924 INTRA-LIGAND FREE ENERGY PREDICTED BY IDOCK:   -0.55 KCAL/MOL
REMARK 927      BINDING AFFINITY PREDICTED BY RF-SCORE:    0.00 PKD
ROOT
HETATM    1  C   UNL     1     -14.011  15.285  71.540  1.00  0.00    -0.627 C  
HETATM    2  C   UNL     1     -12.550  15.403  71.851  1.00  0.00    -0.380 C  
HETATM    3  O   UNL     1     -12.016  16.419  72.270  1.00  0.00    -0.524 OA 
ENDROOT
BRANCH   2   4
HETATM    4  O   UNL     1     -11.911  14.237  71.572  1.00  0.00    -0.314 OA 
BRANCH   4   5
HETATM    5  C   UNL     1     -12.193  13.639  70.280  1.00  0.00    -0.353 C  
HETATM    6  C   UNL     1     -11.183  14.183  69.271  1.00  0.00    -0.308 C  
HETATM    7  C   UNL     1     -11.446  13.565  67.931  1.00  0.00    -0.353 A  
HETATM    8  C   UNL     1     -12.059  14.300  66.905  1.00  0.00    -0.440 A  
HETATM    9  C   UNL     1     -12.343  13.692  65.682  1.00  0.00    -0.518 A  
HETATM   10  C   UNL     1     -12.022  12.354  65.477  1.00  0.00    -0.453 A  
HETATM   11  C   UNL     1     -11.409  11.620  66.495  1.00  0.00    -0.331 A  
HETATM   12  C   UNL     1     -11.118  12.220  67.728  1.00  0.00    -0.255 A  
HETATM   13  N   UNL     1     -10.462  11.479  68.763  1.00  0.00    -0.206 N  
HETATM   14  C   UNL     1     -12.189  12.128  70.505  1.00  0.00    -0.392 A  
HETATM   15  C   UNL     1     -11.288  11.201  69.923  1.00  0.00    -0.268 A  
HETATM   16  C   UNL     1     -11.278   9.890  70.450  1.00  0.00    -0.379 A  
HETATM   17  C   UNL     1     -13.130  11.664  71.460  1.00  0.00    -0.405 A  
HETATM   18  C   UNL     1     -13.127  10.353  71.919  1.00  0.00    -0.563 A  
HETATM   19  C   UNL     1     -12.171   9.474  71.441  1.00  0.00    -0.455 A  
BRANCH  13  20
HETATM   20  C   UNL     1      -9.254  10.801  68.537  1.00  0.00    -0.174 C  
HETATM   21  H1  UNL     1      -7.251  10.871  68.906  1.00  0.00     0.000 HD 
HETATM   22  O   UNL     1      -9.111   9.724  67.962  1.00  0.00    -0.125 OA 
HETATM   23  N   UNL     1      -8.128  11.364  69.070  1.00  0.00    -0.344 N  
HETATM   24  H2  UNL     1      -8.163  12.232  69.604  1.00  0.00     0.000 HD 
ENDBRANCH  13  20
ENDBRANCH   4   5
ENDBRANCH   2   4
TORSDOF 3
ENDMDL
MODEL        2
REMARK 921   NORMALIZED FREE ENERGY PREDICTED BY IDOCK:   -6.72 KCAL/MOL
REMARK 922        TOTAL FREE ENERGY PREDICTED BY IDOCK:   -8.46 KCAL/MOL
REMARK 923 INTER-LIGAND FREE ENERGY PREDICTED BY IDOCK:   -8.02 KCAL/MOL
REMARK 924 INTRA-LIGAND FREE ENERGY PREDICTED BY IDOCK:   -0.44 KCAL/MOL
REMARK 927      BINDING AFFINITY PREDICTED BY RF-SCORE:    0.00 PKD
ROOT
HETATM    1  C   UNL     1     -10.933  11.737  64.338  1.00  0.00    -0.397 C  
HETATM    2  C   UNL     1     -12.259  12.410  64.522  1.00  0.00    -0.431 C  
HETATM    3  O   UNL     1     -13.014  12.702  63.607  1.00  0.00    -0.704 OA 
ENDROOT
BRANCH   2   4
HETATM    4  O   UNL     1     -12.479  12.671  65.837  1.00  0.00    -0.584 OA 
BRANCH   4   5
HETATM    5  C   UNL     1     -11.352  13.190  66.589  1.00  0.00    -0.325 C  
HETATM    6  C   UNL     1     -11.416  14.716  66.558  1.00  0.00    -0.354 C  
HETATM    7  C   UNL     1     -10.268  15.272  67.344  1.00  0.00    -0.243 A  
HETATM    8  C   UNL     1      -9.159  15.840  66.700  1.00  0.00    -0.298 A  
HETATM    9  C   UNL     1      -8.077  16.305  67.447  1.00  0.00    -0.178 A  
HETATM   10  C   UNL     1      -8.093  16.205  68.834  1.00  0.00    -0.228 A  
HETATM   11  C   UNL     1      -9.196  15.643  69.480  1.00  0.00    -0.259 A  
HETATM   12  C   UNL     1     -10.291  15.172  68.740  1.00  0.00    -0.236 A  
HETATM   13  N   UNL     1     -11.437  14.623  69.400  1.00  0.00    -0.279 N  
HETATM   14  C   UNL     1     -11.426  12.530  67.965  1.00  0.00    -0.368 A  
HETATM   15  C   UNL     1     -11.624  13.199  69.200  1.00  0.00    -0.316 A  
HETATM   16  C   UNL     1     -11.921  12.401  70.328  1.00  0.00    -0.371 A  
HETATM   17  C   UNL     1     -11.378  11.112  67.951  1.00  0.00    -0.378 A  
HETATM   18  C   UNL     1     -11.624  10.357  69.091  1.00  0.00    -0.234 A  
HETATM   19  C   UNL     1     -11.936  11.004  70.274  1.00  0.00    -0.452 A  
BRANCH  13  20
HETATM   20  C   UNL     1     -12.116  15.323  70.410  1.00  0.00    -0.348 C  
HETATM   21  H1  UNL     1     -13.952  16.012  70.964  1.00  0.00     0.000 HD 
HETATM   22  O   UNL     1     -11.641  15.736  71.466  1.00  0.00    -0.384 OA 
HETATM   23  N   UNL     1     -13.459  15.504  70.230  1.00  0.00    -0.649 N  
HETATM   24  H2  UNL     1     -13.943  15.150  69.405  1.00  0.00     0.000 HD 
ENDBRANCH  13  20
ENDBRANCH   4   5
ENDBRANCH   2   4
TORSDOF 3
ENDMDL
MODEL        3
REMARK 921   NORMALIZED FREE ENERGY PREDICTED BY IDOCK:   -6.45 KCAL/MOL
REMARK 922        TOTAL FREE ENERGY PREDICTED BY IDOCK:   -8.14 KCAL/MOL
REMARK 923 INTER-LIGAND FREE ENERGY PREDICTED BY IDOCK:   -7.76 KCAL/MOL
REMARK 924 INTRA-LIGAND FREE ENERGY PREDICTED BY IDOCK:   -0.38 KCAL/MOL
REMARK 927      BINDING AFFINITY PREDICTED BY RF-SCORE:    0.00 PKD
ROOT
HETATM    1  C   UNL     1     -10.594  18.982  67.821  1.00  0.00    -0.488 C  
HETATM    2  C   UNL     1      -9.623  18.127  68.577  1.00  0.00    -0.339 C  
HETATM    3  O   UNL     1      -8.417  18.318  68.606  1.00  0.00    -0.317 OA 
ENDROOT
BRANCH   2   4
HETATM    4  O   UNL     1     -10.272  17.103  69.191  1.00  0.00    -0.308 OA 
BRANCH   4   5
HETATM    5  C   UNL     1     -11.031  16.212  68.333  1.00  0.00    -0.341 C  
HETATM    6  C   UNL     1     -10.075  15.607  67.307  1.00  0.00    -0.255 C  
HETATM    7  C   UNL     1     -10.836  14.669  66.419  1.00  0.00    -0.315 A  
HETATM    8  C   UNL     1     -11.167  15.028  65.104  1.00  0.00    -0.391 A  
HETATM    9  C   UNL     1     -11.921  14.163  64.311  1.00  0.00    -0.460 A  
HETATM   10  C   UNL     1     -12.350  12.943  64.822  1.00  0.00    -0.516 A  
HETATM   11  C   UNL     1     -12.020  12.581  66.130  1.00  0.00    -0.432 A  
HETATM   12  C   UNL     1     -11.262  13.441  66.937  1.00  0.00    -0.308 A  
HETATM   13  N   UNL     1     -10.896  13.059  68.268  1.00  0.00    -0.237 N  
HETATM   14  C   UNL     1     -11.742  15.234  69.266  1.00  0.00    -0.359 A  
HETATM   15  C   UNL     1     -11.538  13.831  69.316  1.00  0.00    -0.312 A  
HETATM   16  C   UNL     1     -12.092  13.135  70.412  1.00  0.00    -0.392 A  
HETATM   17  C   UNL     1     -12.609  15.836  70.214  1.00  0.00    -0.226 A  
HETATM   18  C   UNL     1     -13.181  15.110  71.252  1.00  0.00    -0.536 A  
HETATM   19  C   UNL     1     -12.889  13.763  71.374  1.00  0.00    -0.449 A  
BRANCH  13  20
HETATM   20  C   UNL     1     -10.246  11.845  68.539  1.00  0.00    -0.215 C  
HETATM   21  H1  UNL     1      -8.419  11.019  68.903  1.00  0.00     0.000 HD 
HETATM   22  O   UNL     1     -10.776  10.747  68.699  1.00  0.00    -0.181 OA 
HETATM   23  N   UNL     1      -8.891  11.901  68.706  1.00  0.00    -0.378 N  
HETATM   24  H2  UNL     1      -8.378  12.780  68.639  1.00  0.00     0.000 HD 
ENDBRANCH  13  20
ENDBRANCH   4   5
ENDBRANCH   2   4
TORSDOF 3
ENDMDL
MODEL        4
REMARK 921   NORMALIZED FREE ENERGY PREDICTED BY IDOCK:   -6.43 KCAL/MOL
REMARK 922        TOTAL FREE ENERGY PREDICTED BY IDOCK:   -8.12 KCAL/MOL
REMARK 923 INTER-LIGAND FREE ENERGY PREDICTED BY IDOCK:   -8.42 KCAL/MOL
REMARK 924 INTRA-LIGAND FREE ENERGY PREDICTED BY IDOCK:    0.30 KCAL/MOL
REMARK 927      BINDING AFFINITY PREDICTED BY RF-SCORE:    0.00 PKD
ROOT
HETATM    1  C   UNL     1     -11.747  15.176  71.998  1.00  0.00    -0.504 C  
HETATM    2  C   UNL     1     -12.685  15.646  70.928  1.00  0.00    -0.445 C  
HETATM    3  O   UNL     1     -13.901  15.546  70.989  1.00  0.00    -0.545 OA 
ENDROOT
BRANCH   2   4
HETATM    4  O   UNL     1     -11.990  16.165  69.883  1.00  0.00    -0.240 OA 
BRANCH   4   5
HETATM    5  C   UNL     1     -11.291  15.215  69.037  1.00  0.00    -0.294 C  
HETATM    6  C   UNL     1     -12.331  14.416  68.253  1.00  0.00    -0.015 C  
HETATM    7  C   UNL     1     -11.629  13.439  67.360  1.00  0.00    -0.394 A  
HETATM    8  C   UNL     1     -11.596  12.071  67.670  1.00  0.00    -0.392 A  
HETATM    9  C   UNL     1     -10.894  11.185  66.854  1.00  0.00    -0.333 A  
HETATM   10  C   UNL     1     -10.220  11.654  65.732  1.00  0.00    -0.281 A  
HETATM   11  C   UNL     1     -10.253  13.015  65.418  1.00  0.00    -0.301 A  
HETATM   12  C   UNL     1     -10.956  13.916  66.230  1.00  0.00    -0.298 A  
HETATM   13  N   UNL     1     -11.017  15.307  65.894  1.00  0.00    -0.337 N  
HETATM   14  C   UNL     1     -10.297  16.035  68.216  1.00  0.00    -0.261 A  
HETATM   15  C   UNL     1     -10.301  16.180  66.805  1.00  0.00    -0.291 A  
HETATM   16  C   UNL     1      -9.467  17.178  66.255  1.00  0.00    -0.267 A  
HETATM   17  C   UNL     1      -9.357  16.774  68.980  1.00  0.00    -0.212 A  
HETATM   18  C   UNL     1      -8.514  17.712  68.399  1.00  0.00    -0.287 A  
HETATM   19  C   UNL     1      -8.597  17.943  67.038  1.00  0.00    -0.248 A  
BRANCH  13  20
HETATM   20  C   UNL     1     -11.439  15.746  64.630  1.00  0.00    -0.282 C  
HETATM   21  H1  UNL     1     -12.519  15.199  62.990  1.00  0.00     0.000 HD 
HETATM   22  O   UNL     1     -11.237  16.851  64.129  1.00  0.00    -1.176 OA 
HETATM   23  N   UNL     1     -12.212  14.880  63.908  1.00  0.00    -1.016 N  
HETATM   24  H2  UNL     1     -12.469  13.961  64.269  1.00  0.00     0.000 HD 
ENDBRANCH  13  20
ENDBRANCH   4   5
ENDBRANCH   2   4
TORSDOF 3
ENDMDL
MODEL        5
REMARK 921   NORMALIZED FREE ENERGY PREDICTED BY IDOCK:   -6.25 KCAL/MOL
REMARK 922        TOTAL FREE ENERGY PREDICTED BY IDOCK:   -7.90 KCAL/MOL
REMARK 923 INTER-LIGAND FREE ENERGY PREDICTED BY IDOCK:   -7.46 KCAL/MOL
REMARK 924 INTRA-LIGAND FREE ENERGY PREDICTED BY IDOCK:   -0.45 KCAL/MOL
REMARK 927      BINDING AFFINITY PREDICTED BY RF-SCORE:    0.00 PKD
ROOT
HETATM    1  C   UNL     1     -14.074  15.184  72.193  1.00  0.00    -0.654 C  
HETATM    2  C   UNL     1     -12.743  15.660  71.695  1.00  0.00    -0.456 C  
HETATM    3  O   UNL     1     -11.836  16.043  72.418  1.00  0.00    -0.468 OA 
ENDROOT
BRANCH   2   4
HETATM    4  O   UNL     1     -12.707  15.630  70.337  1.00  0.00    -0.425 OA 
BRANCH   4   5
HETATM    5  C   UNL     1     -11.695  14.781  69.736  1.00  0.00    -0.310 C  
HETATM    6  C   UNL     1     -12.366  13.489  69.274  1.00  0.00    -0.125 C  
HETATM    7  C   UNL     1     -11.339  12.603  68.635  1.00  0.00    -0.331 A  
HETATM    8  C   UNL     1     -10.841  11.475  69.304  1.00  0.00    -0.217 A  
HETATM    9  C   UNL     1      -9.849  10.693  68.714  1.00  0.00    -0.196 A  
HETATM   10  C   UNL     1      -9.346  11.031  67.463  1.00  0.00    -0.167 A  
HETATM   11  C   UNL     1      -9.840  12.152  66.792  1.00  0.00    -0.218 A  
HETATM   12  C   UNL     1     -10.839  12.946  67.374  1.00  0.00    -0.251 A  
HETATM   13  N   UNL     1     -11.370  14.078  66.677  1.00  0.00    -0.324 N  
HETATM   14  C   UNL     1     -11.024  15.627  68.656  1.00  0.00    -0.294 A  
HETATM   15  C   UNL     1     -11.033  15.362  67.263  1.00  0.00    -0.317 A  
HETATM   16  C   UNL     1     -10.582  16.389  66.405  1.00  0.00    -0.236 A  
HETATM   17  C   UNL     1     -10.425  16.826  69.123  1.00  0.00    -0.343 A  
HETATM   18  C   UNL     1      -9.944  17.795  68.251  1.00  0.00    -0.355 A  
HETATM   19  C   UNL     1     -10.059  17.592  66.888  1.00  0.00    -0.331 A  
BRANCH  13  20
HETATM   20  C   UNL     1     -11.879  13.974  65.372  1.00  0.00    -0.359 C  
HETATM   21  H1  UNL     1     -13.604  14.003  64.288  1.00  0.00     0.000 HD 
HETATM   22  O   UNL     1     -11.228  13.858  64.336  1.00  0.00    -0.373 OA 
HETATM   23  N   UNL     1     -13.235  14.078  65.235  1.00  0.00    -0.710 N  
HETATM   24  H2  UNL     1     -13.846  14.225  66.039  1.00  0.00     0.000 HD 
ENDBRANCH  13  20
ENDBRANCH   4   5
ENDBRANCH   2   4
TORSDOF 3
ENDMDL
MODEL        6
REMARK 921   NORMALIZED FREE ENERGY PREDICTED BY IDOCK:   -6.18 KCAL/MOL
REMARK 922        TOTAL FREE ENERGY PREDICTED BY IDOCK:   -7.82 KCAL/MOL
REMARK 923 INTER-LIGAND FREE ENERGY PREDICTED BY IDOCK:   -7.73 KCAL/MOL
REMARK 924 INTRA-LIGAND FREE ENERGY PREDICTED BY IDOCK:   -0.09 KCAL/MOL
REMARK 927      BINDING AFFINITY PREDICTED BY RF-SCORE:    0.00 PKD
ROOT
HETATM    1  C   UNL     1     -11.600  15.444  71.016  1.00  0.00    -0.410 C  
HETATM    2  C   UNL     1     -12.203  14.165  70.520  1.00  0.00    -0.361 C  
HETATM    3  O   UNL     1     -12.499  13.222  71.238  1.00  0.00    -0.343 OA 
ENDROOT
BRANCH   2   4
HETATM    4  O   UNL     1     -12.341  14.199  69.169  1.00  0.00    -0.301 OA 
BRANCH   4   5
HETATM    5  C   UNL     1     -11.378  13.430  68.402  1.00  0.00    -0.294 C  
HETATM    6  C   UNL     1     -11.984  12.060  68.107  1.00  0.00    -0.231 C  
HETATM    7  C   UNL     1     -11.011  11.255  67.300  1.00  0.00    -0.342 A  
HETATM    8  C   UNL     1     -10.278  10.211  67.884  1.00  0.00    -0.217 A  
HETATM    9  C   UNL     1      -9.339   9.508  67.130  1.00  0.00    -0.174 A  
HETATM   10  C   UNL     1      -9.123   9.842  65.798  1.00  0.00    -0.221 A  
HETATM   11  C   UNL     1      -9.851  10.879  65.212  1.00  0.00    -0.318 A  
HETATM   12  C   UNL     1     -10.799  11.593  65.959  1.00  0.00    -0.289 A  
HETATM   13  N   UNL     1     -11.570  12.637  65.353  1.00  0.00    -0.344 N  
HETATM   14  C   UNL     1     -11.018  14.294  67.194  1.00  0.00    -0.305 A  
HETATM   15  C   UNL     1     -11.265  13.971  65.835  1.00  0.00    -0.308 A  
HETATM   16  C   UNL     1     -11.097  15.001  64.884  1.00  0.00    -0.425 A  
HETATM   17  C   UNL     1     -10.472  15.565  67.510  1.00  0.00    -0.282 A  
HETATM   18  C   UNL     1     -10.270  16.539  66.540  1.00  0.00    -0.305 A  
HETATM   19  C   UNL     1     -10.621  16.270  65.230  1.00  0.00    -0.357 A  
BRANCH  13  20
HETATM   20  C   UNL     1     -12.304  12.428  64.175  1.00  0.00    -0.467 C  
HETATM   21  H1  UNL     1     -12.191  12.536  62.143  1.00  0.00     0.000 HD 
HETATM   22  O   UNL     1     -13.446  11.980  64.089  1.00  0.00    -0.672 OA 
HETATM   23  N   UNL     1     -11.658  12.688  62.999  1.00  0.00    -0.761 N  
HETATM   24  H2  UNL     1     -10.693  13.016  62.978  1.00  0.00     0.000 HD 
ENDBRANCH  13  20
ENDBRANCH   4   5
ENDBRANCH   2   4
TORSDOF 3
ENDMDL
MODEL        7
REMARK 921   NORMALIZED FREE ENERGY PREDICTED BY IDOCK:   -6.14 KCAL/MOL
REMARK 922        TOTAL FREE ENERGY PREDICTED BY IDOCK:   -7.77 KCAL/MOL
REMARK 923 INTER-LIGAND FREE ENERGY PREDICTED BY IDOCK:   -7.35 KCAL/MOL
REMARK 924 INTRA-LIGAND FREE ENERGY PREDICTED BY IDOCK:   -0.42 KCAL/MOL
REMARK 927      BINDING AFFINITY PREDICTED BY RF-SCORE:    0.00 PKD
ROOT
HETATM    1  C   UNL     1      -8.328  11.029  67.583  1.00  0.00    -0.117 C  
HETATM    2  C   UNL     1      -9.180   9.837  67.269  1.00  0.00    -0.134 C  
HETATM    3  O   UNL     1      -9.443   9.459  66.137  1.00  0.00    -0.187 OA 
ENDROOT
BRANCH   2   4
HETATM    4  O   UNL     1      -9.635   9.265  68.414  1.00  0.00    -0.145 OA 
BRANCH   4   5
HETATM    5  C   UNL     1     -10.182  10.166  69.412  1.00  0.00    -0.227 C  
HETATM    6  C   UNL     1     -11.568  10.610  68.948  1.00  0.00    -0.320 C  
HETATM    7  C   UNL     1     -12.159  11.529  69.974  1.00  0.00    -0.408 A  
HETATM    8  C   UNL     1     -12.229  12.912  69.749  1.00  0.00    -0.227 A  
HETATM    9  C   UNL     1     -12.735  13.757  70.736  1.00  0.00    -0.361 A  
HETATM   10  C   UNL     1     -13.168  13.231  71.949  1.00  0.00    -0.523 A  
HETATM   11  C   UNL     1     -13.103  11.855  72.175  1.00  0.00    -0.327 A  
HETATM   12  C   UNL     1     -12.597  10.995  71.190  1.00  0.00    -0.418 A  
HETATM   13  N   UNL     1     -12.557   9.580  71.407  1.00  0.00    -0.339 N  
HETATM   14  C   UNL     1     -10.114   9.413  70.740  1.00  0.00    -0.366 A  
HETATM   15  C   UNL     1     -11.222   9.026  71.536  1.00  0.00    -0.348 A  
HETATM   16  C   UNL     1     -10.976   8.119  72.590  1.00  0.00    -0.440 A  
HETATM   17  C   UNL     1      -8.812   9.005  71.129  1.00  0.00    -0.282 A  
HETATM   18  C   UNL     1      -8.600   8.152  72.205  1.00  0.00    -0.226 A  
HETATM   19  C   UNL     1      -9.690   7.676  72.913  1.00  0.00    -0.282 A  
BRANCH  13  20
HETATM   20  C   UNL     1     -13.696   8.856  71.792  1.00  0.00    -0.422 C  
HETATM   21  H1  UNL     1     -14.899   7.301  71.256  1.00  0.00     0.000 HD 
HETATM   22  O   UNL     1     -14.356   9.014  72.817  1.00  0.00    -0.596 OA 
HETATM   23  N   UNL     1     -14.071   7.826  70.976  1.00  0.00    -0.656 N  
HETATM   24  H2  UNL     1     -13.550   7.595  70.130  1.00  0.00     0.000 HD 
ENDBRANCH  13  20
ENDBRANCH   4   5
ENDBRANCH   2   4
TORSDOF 3
ENDMDL
MODEL        8
REMARK 921   NORMALIZED FREE ENERGY PREDICTED BY IDOCK:   -6.12 KCAL/MOL
REMARK 922        TOTAL FREE ENERGY PREDICTED BY IDOCK:   -7.75 KCAL/MOL
REMARK 923 INTER-LIGAND FREE ENERGY PREDICTED BY IDOCK:   -7.82 KCAL/MOL
REMARK 924 INTRA-LIGAND FREE ENERGY PREDICTED BY IDOCK:    0.07 KCAL/MOL
REMARK 927      BINDING AFFINITY PREDICTED BY RF-SCORE:    0.00 PKD
ROOT
HETATM    1  C   UNL     1     -10.534   7.072  68.166  1.00  0.00    -0.242 C  
HETATM    2  C   UNL     1     -10.092   8.445  67.759  1.00  0.00    -0.207 C  
HETATM    3  O   UNL     1     -10.395   8.980  66.704  1.00  0.00    -0.263 OA 
ENDROOT
BRANCH   2   4
HETATM    4  O   UNL     1      -9.291   8.986  68.714  1.00  0.00    -0.139 OA 
BRANCH   4   5
HETATM    5  C   UNL     1      -9.913   9.939  69.615  1.00  0.00    -0.231 C  
HETATM    6  C   UNL     1     -11.241  10.380  69.003  1.00  0.00    -0.289 C  
HETATM    7  C   UNL     1     -11.909  11.353  69.927  1.00  0.00    -0.435 A  
HETATM    8  C   UNL     1     -11.932  12.726  69.636  1.00  0.00    -0.354 A  
HETATM    9  C   UNL     1     -12.513  13.621  70.533  1.00  0.00    -0.394 A  
HETATM   10  C   UNL     1     -13.067  13.158  71.722  1.00  0.00    -0.478 A  
HETATM   11  C   UNL     1     -13.048  11.793  72.014  1.00  0.00    -0.436 A  
HETATM   12  C   UNL     1     -12.468  10.881  71.119  1.00  0.00    -0.405 A  
HETATM   13  N   UNL     1     -12.474   9.478  71.401  1.00  0.00    -0.341 N  
HETATM   14  C   UNL     1      -9.983   9.247  70.975  1.00  0.00    -0.364 A  
HETATM   15  C   UNL     1     -11.167   8.912  71.680  1.00  0.00    -0.345 A  
HETATM   16  C   UNL     1     -11.037   8.051  72.792  1.00  0.00    -0.448 A  
HETATM   17  C   UNL     1      -8.731   8.840  71.503  1.00  0.00    -0.274 A  
HETATM   18  C   UNL     1      -8.636   8.033  72.631  1.00  0.00    -0.237 A  
HETATM   19  C   UNL     1      -9.795   7.606  73.253  1.00  0.00    -0.360 A  
BRANCH  13  20
HETATM   20  C   UNL     1     -13.657   8.788  71.709  1.00  0.00    -0.410 C  
HETATM   21  H1  UNL     1     -14.899   7.308  71.060  1.00  0.00     0.000 HD 
HETATM   22  O   UNL     1     -14.353   8.933  72.712  1.00  0.00    -0.600 OA 
HETATM   23  N   UNL     1     -14.039   7.809  70.835  1.00  0.00    -0.568 N  
HETATM   24  H2  UNL     1     -13.493   7.590  70.003  1.00  0.00     0.000 HD 
ENDBRANCH  13  20
ENDBRANCH   4   5
ENDBRANCH   2   4
TORSDOF 3
ENDMDL
MODEL        9
REMARK 921   NORMALIZED FREE ENERGY PREDICTED BY IDOCK:   -6.07 KCAL/MOL
REMARK 922        TOTAL FREE ENERGY PREDICTED BY IDOCK:   -7.69 KCAL/MOL
REMARK 923 INTER-LIGAND FREE ENERGY PREDICTED BY IDOCK:   -7.63 KCAL/MOL
REMARK 924 INTRA-LIGAND FREE ENERGY PREDICTED BY IDOCK:   -0.06 KCAL/MOL
REMARK 927      BINDING AFFINITY PREDICTED BY RF-SCORE:    0.00 PKD
ROOT
HETATM    1  C   UNL     1     -14.007  15.338  71.331  1.00  0.00    -0.601 C  
HETATM    2  C   UNL     1     -13.425  14.032  71.780  1.00  0.00    -0.392 C  
HETATM    3  O   UNL     1     -13.923  13.315  72.634  1.00  0.00    -0.741 OA 
ENDROOT
BRANCH   2   4
HETATM    4  O   UNL     1     -12.261  13.783  71.125  1.00  0.00    -0.349 OA 
BRANCH   4   5
HETATM    5  C   UNL     1     -12.377  13.199  69.801  1.00  0.00    -0.102 C  
HETATM    6  C   UNL     1     -11.597  14.074  68.822  1.00  0.00    -0.366 C  
HETATM    7  C   UNL     1     -11.690  13.478  67.449  1.00  0.00    -0.419 A  
HETATM    8  C   UNL     1     -12.516  14.048  66.469  1.00  0.00    -0.351 A  
HETATM    9  C   UNL     1     -12.630  13.450  65.215  1.00  0.00    -0.518 A  
HETATM   10  C   UNL     1     -11.928  12.283  64.932  1.00  0.00    -0.420 A  
HETATM   11  C   UNL     1     -11.102  11.714  65.904  1.00  0.00    -0.320 A  
HETATM   12  C   UNL     1     -10.979  12.306  67.169  1.00  0.00    -0.262 A  
HETATM   13  N   UNL     1     -10.110  11.743  68.158  1.00  0.00    -0.186 N  
HETATM   14  C   UNL     1     -11.916  11.749  69.940  1.00  0.00    -0.405 A  
HETATM   15  C   UNL     1     -10.790  11.168  69.303  1.00  0.00    -0.229 A  
HETATM   16  C   UNL     1     -10.378   9.894  69.754  1.00  0.00    -0.278 A  
HETATM   17  C   UNL     1     -12.656  10.974  70.870  1.00  0.00    -0.488 A  
HETATM   18  C   UNL     1     -12.250   9.701  71.254  1.00  0.00    -0.452 A  
HETATM   19  C   UNL     1     -11.085   9.176  70.723  1.00  0.00    -0.336 A  
BRANCH  13  20
HETATM   20  C   UNL     1      -8.759  11.471  67.890  1.00  0.00    -0.144 C  
HETATM   21  H1  UNL     1      -6.879  12.245  68.038  1.00  0.00     0.000 HD 
HETATM   22  O   UNL     1      -8.294  10.428  67.434  1.00  0.00    -0.120 OA 
HETATM   23  N   UNL     1      -7.861  12.443  68.232  1.00  0.00    -0.144 N  
HETATM   24  H2  UNL     1      -8.156  13.320  68.661  1.00  0.00     0.000 HD 
ENDBRANCH  13  20
ENDBRANCH   4   5
ENDBRANCH   2   4
TORSDOF 3
ENDMDL
MODEL       10
REMARK 921   NORMALIZED FREE ENERGY PREDICTED BY IDOCK:   -6.07 KCAL/MOL
REMARK 922        TOTAL FREE ENERGY PREDICTED BY IDOCK:   -7.69 KCAL/MOL
REMARK 923 INTER-LIGAND FREE ENERGY PREDICTED BY IDOCK:   -7.31 KCAL/MOL
REMARK 924 INTRA-LIGAND FREE ENERGY PREDICTED BY IDOCK:   -0.37 KCAL/MOL
REMARK 927      BINDING AFFINITY PREDICTED BY RF-SCORE:    0.00 PKD
ROOT
HETATM    1  C   UNL     1     -10.853  19.218  67.154  1.00  0.00    -0.543 C  
HETATM    2  C   UNL     1     -10.106  18.625  68.310  1.00  0.00    -0.389 C  
HETATM    3  O   UNL     1      -9.791  19.244  69.315  1.00  0.00    -0.375 OA 
ENDROOT
BRANCH   2   4
HETATM    4  O   UNL     1      -9.809  17.322  68.064  1.00  0.00    -0.264 OA 
BRANCH   4   5
HETATM    5  C   UNL     1     -10.269  16.359  69.048  1.00  0.00    -0.269 C  
HETATM    6  C   UNL     1     -11.774  16.170  68.866  1.00  0.00    -0.250 C  
HETATM    7  C   UNL     1     -12.267  15.165  69.863  1.00  0.00    -0.353 A  
HETATM    8  C   UNL     1     -12.995  15.566  70.993  1.00  0.00    -0.550 A  
HETATM    9  C   UNL     1     -13.400  14.622  71.936  1.00  0.00    -0.453 A  
HETATM   10  C   UNL     1     -13.080  13.279  71.761  1.00  0.00    -0.472 A  
HETATM   11  C   UNL     1     -12.358  12.876  70.636  1.00  0.00    -0.385 A  
HETATM   12  C   UNL     1     -11.945  13.815  69.680  1.00  0.00    -0.342 A  
HETATM   13  N   UNL     1     -11.232  13.402  68.510  1.00  0.00    -0.266 N  
HETATM   14  C   UNL     1      -9.397  15.119  68.860  1.00  0.00    -0.207 A  
HETATM   15  C   UNL     1      -9.848  13.835  68.462  1.00  0.00    -0.204 A  
HETATM   16  C   UNL     1      -8.865  12.888  68.096  1.00  0.00    -0.194 A  
HETATM   17  C   UNL     1      -8.004  15.338  69.023  1.00  0.00    -0.195 A  
HETATM   18  C   UNL     1      -7.065  14.366  68.701  1.00  0.00    -0.116 A  
HETATM   19  C   UNL     1      -7.496  13.152  68.199  1.00  0.00    -0.131 A  
BRANCH  13  20
HETATM   20  C   UNL     1     -11.720  12.397  67.660  1.00  0.00    -0.346 C  
HETATM   21  H1  UNL     1     -12.337  12.032  65.752  1.00  0.00     0.000 HD 
HETATM   22  O   UNL     1     -11.880  11.210  67.940  1.00  0.00    -0.601 OA 
HETATM   23  N   UNL     1     -11.983  12.762  66.369  1.00  0.00    -0.407 N  
HETATM   24  H2  UNL     1     -11.832  13.716  66.040  1.00  0.00     0.000 HD 
ENDBRANCH  13  20
ENDBRANCH   4   5
ENDBRANCH   2   4
TORSDOF 3
ENDMDL
MODEL       11
REMARK 921   NORMALIZED FREE ENERGY PREDICTED BY IDOCK:   -5.99 KCAL/MOL
REMARK 922        TOTAL FREE ENERGY PREDICTED BY IDOCK:   -7.59 KCAL/MOL
REMARK 923 INTER-LIGAND FREE ENERGY PREDICTED BY IDOCK:   -7.57 KCAL/MOL
REMARK 924 INTRA-LIGAND FREE ENERGY PREDICTED BY IDOCK:   -0.02 KCAL/MOL
REMARK 927      BINDING AFFINITY PREDICTED BY RF-SCORE:    0.00 PKD
ROOT
HETATM    1  C   UNL     1     -10.056   9.362  68.267  1.00  0.00    -0.210 C  
HETATM    2  C   UNL     1     -10.146  10.694  67.586  1.00  0.00    -0.177 C  
HETATM    3  O   UNL     1      -9.187  11.418  67.363  1.00  0.00    -0.161 OA 
ENDROOT
BRANCH   2   4
HETATM    4  O   UNL     1     -11.438  10.985  67.284  1.00  0.00    -0.470 OA 
BRANCH   4   5
HETATM    5  C   UNL     1     -12.030  12.106  67.993  1.00  0.00    -0.166 C  
HETATM    6  C   UNL     1     -11.450  12.138  69.405  1.00  0.00    -0.355 C  
HETATM    7  C   UNL     1     -12.037  13.300  70.150  1.00  0.00    -0.403 A  
HETATM    8  C   UNL     1     -13.018  13.106  71.133  1.00  0.00    -0.280 A  
HETATM    9  C   UNL     1     -13.589  14.203  71.778  1.00  0.00    -0.483 A  
HETATM   10  C   UNL     1     -13.190  15.493  71.446  1.00  0.00    -0.587 A  
HETATM   11  C   UNL     1     -12.212  15.690  70.469  1.00  0.00    -0.437 A  
HETATM   12  C   UNL     1     -11.629  14.596  69.814  1.00  0.00    -0.296 A  
HETATM   13  N   UNL     1     -10.604  14.792  68.834  1.00  0.00    -0.243 N  
HETATM   14  C   UNL     1     -11.777  13.334  67.120  1.00  0.00    -0.425 A  
HETATM   15  C   UNL     1     -10.994  14.462  67.476  1.00  0.00    -0.293 A  
HETATM   16  C   UNL     1     -10.668  15.374  66.448  1.00  0.00    -0.311 A  
HETATM   17  C   UNL     1     -12.318  13.259  65.811  1.00  0.00    -0.505 A  
HETATM   18  C   UNL     1     -12.017  14.202  64.836  1.00  0.00    -0.424 A  
HETATM   19  C   UNL     1     -11.158  15.241  65.145  1.00  0.00    -0.412 A  
BRANCH  13  20
HETATM   20  C   UNL     1      -9.452  15.546  69.108  1.00  0.00    -0.246 C  
HETATM   21  H1  UNL     1      -7.499  15.394  69.670  1.00  0.00     0.000 HD 
HETATM   22  O   UNL     1      -9.325  16.764  68.996  1.00  0.00    -0.262 OA 
HETATM   23  N   UNL     1      -8.335  14.846  69.472  1.00  0.00    -0.420 N  
HETATM   24  H2  UNL     1      -8.339  13.829  69.541  1.00  0.00     0.000 HD 
ENDBRANCH  13  20
ENDBRANCH   4   5
ENDBRANCH   2   4
TORSDOF 3
ENDMDL
MODEL       12
REMARK 921   NORMALIZED FREE ENERGY PREDICTED BY IDOCK:   -5.89 KCAL/MOL
REMARK 922        TOTAL FREE ENERGY PREDICTED BY IDOCK:   -7.48 KCAL/MOL
REMARK 923 INTER-LIGAND FREE ENERGY PREDICTED BY IDOCK:   -7.11 KCAL/MOL
REMARK 924 INTRA-LIGAND FREE ENERGY PREDICTED BY IDOCK:   -0.37 KCAL/MOL
REMARK 927      BINDING AFFINITY PREDICTED BY RF-SCORE:    0.00 PKD
ROOT
HETATM    1  C   UNL     1      -8.807   8.597  65.598  1.00  0.00    -0.227 C  
HETATM    2  C   UNL     1      -9.980   8.989  66.444  1.00  0.00    -0.300 C  
HETATM    3  O   UNL     1     -10.764   8.196  66.942  1.00  0.00    -0.309 OA 
ENDROOT
BRANCH   2   4
HETATM    4  O   UNL     1     -10.058  10.342  66.547  1.00  0.00    -0.213 OA 
BRANCH   4   5
HETATM    5  C   UNL     1     -11.028  10.862  67.493  1.00  0.00    -0.293 C  
HETATM    6  C   UNL     1     -10.374  10.908  68.873  1.00  0.00    -0.222 C  
HETATM    7  C   UNL     1     -11.355  11.459  69.863  1.00  0.00    -0.300 A  
HETATM    8  C   UNL     1     -11.997  10.620  70.786  1.00  0.00    -0.477 A  
HETATM    9  C   UNL     1     -12.945  11.143  71.666  1.00  0.00    -0.548 A  
HETATM   10  C   UNL     1     -13.259  12.497  71.628  1.00  0.00    -0.381 A  
HETATM   11  C   UNL     1     -12.620  13.336  70.712  1.00  0.00    -0.357 A  
HETATM   12  C   UNL     1     -11.664  12.823  69.823  1.00  0.00    -0.282 A  
HETATM   13  N   UNL     1     -10.985  13.685  68.904  1.00  0.00    -0.249 N  
HETATM   14  C   UNL     1     -11.503  12.195  66.917  1.00  0.00    -0.414 A  
HETATM   15  C   UNL     1     -11.325  13.470  67.510  1.00  0.00    -0.308 A  
HETATM   16  C   UNL     1     -11.602  14.601  66.710  1.00  0.00    -0.370 A  
HETATM   17  C   UNL     1     -12.092  12.113  65.628  1.00  0.00    -0.180 A  
HETATM   18  C   UNL     1     -12.400  13.247  64.888  1.00  0.00    -0.476 A  
HETATM   19  C   UNL     1     -12.118  14.494  65.415  1.00  0.00    -0.317 A  
BRANCH  13  20
HETATM   20  C   UNL     1     -10.315  14.843  69.331  1.00  0.00    -0.208 C  
HETATM   21  H1  UNL     1      -8.466  15.613  69.703  1.00  0.00     0.000 HD 
HETATM   22  O   UNL     1     -10.823  15.930  69.596  1.00  0.00    -0.260 OA 
HETATM   23  N   UNL     1      -8.951  14.772  69.393  1.00  0.00    -0.416 N  
HETATM   24  H2  UNL     1      -8.446  13.922  69.143  1.00  0.00     0.000 HD 
ENDBRANCH  13  20
ENDBRANCH   4   5
ENDBRANCH   2   4
TORSDOF 3
ENDMDL
MODEL       13
REMARK 921   NORMALIZED FREE ENERGY PREDICTED BY IDOCK:   -5.88 KCAL/MOL
REMARK 922        TOTAL FREE ENERGY PREDICTED BY IDOCK:   -7.47 KCAL/MOL
REMARK 923 INTER-LIGAND FREE ENERGY PREDICTED BY IDOCK:   -7.44 KCAL/MOL
REMARK 924 INTRA-LIGAND FREE ENERGY PREDICTED BY IDOCK:   -0.03 KCAL/MOL
REMARK 927      BINDING AFFINITY PREDICTED BY RF-SCORE:    0.00 PKD
ROOT
HETATM    1  C   UNL     1     -12.867  10.747  71.241  1.00  0.00    -0.540 C  
HETATM    2  C   UNL     1     -11.562  10.775  70.503  1.00  0.00    -0.330 C  
HETATM    3  O   UNL     1     -10.611  10.054  70.762  1.00  0.00    -0.287 OA 
ENDROOT
BRANCH   2   4
HETATM    4  O   UNL     1     -11.585  11.730  69.537  1.00  0.00    -0.287 OA 
BRANCH   4   5
HETATM    5  C   UNL     1     -10.717  11.513  68.394  1.00  0.00    -0.208 C  
HETATM    6  C   UNL     1     -11.282  10.354  67.576  1.00  0.00    -0.254 C  
HETATM    7  C   UNL     1     -10.408  10.124  66.381  1.00  0.00    -0.258 A  
HETATM    8  C   UNL     1      -9.531   9.031  66.327  1.00  0.00    -0.306 A  
HETATM    9  C   UNL     1      -8.688   8.862  65.229  1.00  0.00    -0.220 A  
HETATM   10  C   UNL     1      -8.711   9.780  64.184  1.00  0.00    -0.233 A  
HETATM   11  C   UNL     1      -9.585  10.869  64.233  1.00  0.00    -0.318 A  
HETATM   12  C   UNL     1     -10.438  11.049  65.331  1.00  0.00    -0.241 A  
HETATM   13  N   UNL     1     -11.357  12.146  65.370  1.00  0.00    -0.335 N  
HETATM   14  C   UNL     1     -10.610  12.863  67.686  1.00  0.00    -0.232 A  
HETATM   15  C   UNL     1     -11.055  13.151  66.371  1.00  0.00    -0.289 A  
HETATM   16  C   UNL     1     -11.105  14.510  65.988  1.00  0.00    -0.329 A  
HETATM   17  C   UNL     1     -10.094  13.917  68.484  1.00  0.00    -0.234 A  
HETATM   18  C   UNL     1     -10.110  15.238  68.055  1.00  0.00    -0.229 A  
HETATM   19  C   UNL     1     -10.654  15.540  66.819  1.00  0.00    -0.307 A  
BRANCH  13  20
HETATM   20  C   UNL     1     -12.260  12.394  64.324  1.00  0.00    -0.452 C  
HETATM   21  H1  UNL     1     -12.383  13.041  62.395  1.00  0.00     0.000 HD 
HETATM   22  O   UNL     1     -13.470  12.179  64.330  1.00  0.00    -0.708 OA 
HETATM   23  N   UNL     1     -11.727  12.861  63.154  1.00  0.00    -0.844 N  
HETATM   24  H2  UNL     1     -10.726  13.021  63.047  1.00  0.00     0.000 HD 
ENDBRANCH  13  20
ENDBRANCH   4   5
ENDBRANCH   2   4
TORSDOF 3
ENDMDL
MODEL       14
REMARK 921   NORMALIZED FREE ENERGY PREDICTED BY IDOCK:   -5.86 KCAL/MOL
REMARK 922        TOTAL FREE ENERGY PREDICTED BY IDOCK:   -7.44 KCAL/MOL
REMARK 923 INTER-LIGAND FREE ENERGY PREDICTED BY IDOCK:   -7.09 KCAL/MOL
REMARK 924 INTRA-LIGAND FREE ENERGY PREDICTED BY IDOCK:   -0.36 KCAL/MOL
REMARK 927      BINDING AFFINITY PREDICTED BY RF-SCORE:    0.00 PKD
ROOT
HETATM    1  C   UNL     1      -9.387   9.853  64.419  1.00  0.00    -0.326 C  
HETATM    2  C   UNL     1      -9.694   9.576  65.860  1.00  0.00    -0.282 C  
HETATM    3  O   UNL     1      -9.981   8.475  66.302  1.00  0.00    -0.262 OA 
ENDROOT
BRANCH   2   4
HETATM    4  O   UNL     1      -9.636  10.724  66.585  1.00  0.00    -0.172 OA 
BRANCH   4   5
HETATM    5  C   UNL     1     -10.706  10.937  67.543  1.00  0.00    -0.252 C  
HETATM    6  C   UNL     1     -10.095  10.978  68.942  1.00  0.00    -0.212 C  
HETATM    7  C   UNL     1     -11.182  11.215  69.946  1.00  0.00    -0.293 A  
HETATM    8  C   UNL     1     -11.649  10.174  70.763  1.00  0.00    -0.445 A  
HETATM    9  C   UNL     1     -12.697  10.401  71.655  1.00  0.00    -0.560 A  
HETATM   10  C   UNL     1     -13.285  11.659  71.735  1.00  0.00    -0.438 A  
HETATM   11  C   UNL     1     -12.821  12.698  70.925  1.00  0.00    -0.178 A  
HETATM   12  C   UNL     1     -11.768  12.483  70.025  1.00  0.00    -0.221 A  
HETATM   13  N   UNL     1     -11.269  13.553  69.215  1.00  0.00    -0.254 N  
HETATM   14  C   UNL     1     -11.439  12.195  67.079  1.00  0.00    -0.415 A  
HETATM   15  C   UNL     1     -11.538  13.414  67.797  1.00  0.00    -0.340 A  
HETATM   16  C   UNL     1     -12.033  14.538  67.098  1.00  0.00    -0.373 A  
HETATM   17  C   UNL     1     -11.980  12.122  65.769  1.00  0.00    -0.267 A  
HETATM   18  C   UNL     1     -12.507  13.237  65.129  1.00  0.00    -0.525 A  
HETATM   19  C   UNL     1     -12.497  14.457  65.782  1.00  0.00    -0.334 A  
BRANCH  13  20
HETATM   20  C   UNL     1     -10.861  14.776  69.772  1.00  0.00    -0.198 C  
HETATM   21  H1  UNL     1      -9.218  15.846  70.330  1.00  0.00     0.000 HD 
HETATM   22  O   UNL     1     -11.583  15.722  70.080  1.00  0.00    -0.307 OA 
HETATM   23  N   UNL     1      -9.515  14.957  69.926  1.00  0.00    -0.434 N  
HETATM   24  H2  UNL     1      -8.842  14.243  69.650  1.00  0.00     0.000 HD 
ENDBRANCH  13  20
ENDBRANCH   4   5
ENDBRANCH   2   4
TORSDOF 3
ENDMDL
MODEL       15
REMARK 921   NORMALIZED FREE ENERGY PREDICTED BY IDOCK:   -5.84 KCAL/MOL
REMARK 922        TOTAL FREE ENERGY PREDICTED BY IDOCK:   -7.42 KCAL/MOL
REMARK 923 INTER-LIGAND FREE ENERGY PREDICTED BY IDOCK:   -8.33 KCAL/MOL
REMARK 924 INTRA-LIGAND FREE ENERGY PREDICTED BY IDOCK:    0.91 KCAL/MOL
REMARK 927      BINDING AFFINITY PREDICTED BY RF-SCORE:    0.00 PKD
ROOT
HETATM    1  C   UNL     1     -11.934  13.686  68.990  1.00  0.00    -0.392 C  
HETATM    2  C   UNL     1     -11.502  12.285  68.678  1.00  0.00    -0.307 C  
HETATM    3  O   UNL     1     -12.263  11.335  68.587  1.00  0.00    -0.562 OA 
ENDROOT
BRANCH   2   4
HETATM    4  O   UNL     1     -10.151  12.227  68.542  1.00  0.00    -0.216 OA 
BRANCH   4   5
HETATM    5  C   UNL     1      -9.647  11.984  67.202  1.00  0.00    -0.192 C  
HETATM    6  C   UNL     1     -10.439  10.828  66.595  1.00  0.00    -0.302 C  
HETATM    7  C   UNL     1      -9.944  10.572  65.203  1.00  0.00    -0.375 A  
HETATM    8  C   UNL     1      -9.134   9.462  64.918  1.00  0.00    -0.258 A  
HETATM    9  C   UNL     1      -8.642   9.269  63.627  1.00  0.00    -0.208 A  
HETATM   10  C   UNL     1      -8.949  10.178  62.620  1.00  0.00    -0.275 A  
HETATM   11  C   UNL     1      -9.757  11.282  62.900  1.00  0.00    -0.351 A  
HETATM   12  C   UNL     1     -10.259  11.487  64.193  1.00  0.00    -0.325 A  
HETATM   13  N   UNL     1     -11.113  12.600  64.477  1.00  0.00    -0.310 N  
HETATM   14  C   UNL     1      -9.727  13.325  66.475  1.00  0.00    -0.273 A  
HETATM   15  C   UNL     1     -10.525  13.609  65.337  1.00  0.00    -0.324 A  
HETATM   16  C   UNL     1     -10.662  14.965  64.966  1.00  0.00    -0.451 A  
HETATM   17  C   UNL     1      -8.990  14.377  67.078  1.00  0.00    -0.257 A  
HETATM   18  C   UNL     1      -9.109  15.694  66.654  1.00  0.00    -0.313 A  
HETATM   19  C   UNL     1      -9.978  15.994  65.620  1.00  0.00    -0.346 A  
BRANCH  13  20
HETATM   20  C   UNL     1     -12.273  12.855  63.728  1.00  0.00    -0.476 C  
HETATM   21  H1  UNL     1     -13.192  14.259  62.570  1.00  0.00     0.000 HD 
HETATM   22  O   UNL     1     -13.199  12.074  63.517  1.00  0.00    -0.724 OA 
HETATM   23  N   UNL     1     -12.349  14.074  63.115  1.00  0.00    -1.094 N  
HETATM   24  H2  UNL     1     -11.602  14.764  63.197  1.00  0.00     0.000 HD 
ENDBRANCH  13  20
ENDBRANCH   4   5
ENDBRANCH   2   4
TORSDOF 3
ENDMDL
MODEL       16
REMARK 921   NORMALIZED FREE ENERGY PREDICTED BY IDOCK:   -5.73 KCAL/MOL
REMARK 922        TOTAL FREE ENERGY PREDICTED BY IDOCK:   -7.29 KCAL/MOL
REMARK 923 INTER-LIGAND FREE ENERGY PREDICTED BY IDOCK:   -6.94 KCAL/MOL
REMARK 924 INTRA-LIGAND FREE ENERGY PREDICTED BY IDOCK:   -0.35 KCAL/MOL
REMARK 927      BINDING AFFINITY PREDICTED BY RF-SCORE:    0.00 PKD
ROOT
HETATM    1  C   UNL     1     -11.833   9.072  71.938  1.00  0.00    -0.447 C  
HETATM    2  C   UNL     1     -13.239   9.361  71.510  1.00  0.00    -0.384 C  
HETATM    3  O   UNL     1     -14.208   8.694  71.838  1.00  0.00    -0.418 OA 
ENDROOT
BRANCH   2   4
HETATM    4  O   UNL     1     -13.271  10.443  70.689  1.00  0.00    -0.350 OA 
BRANCH   4   5
HETATM    5  C   UNL     1     -12.002  11.104  70.443  1.00  0.00    -0.378 C  
HETATM    6  C   UNL     1     -11.536  10.740  69.035  1.00  0.00    -0.368 C  
HETATM    7  C   UNL     1     -10.233  11.427  68.756  1.00  0.00    -0.209 A  
HETATM    8  C   UNL     1      -9.025  10.714  68.761  1.00  0.00    -0.172 A  
HETATM    9  C   UNL     1      -7.818  11.380  68.550  1.00  0.00    -0.140 A  
HETATM   10  C   UNL     1      -7.808  12.754  68.337  1.00  0.00    -0.132 A  
HETATM   11  C   UNL     1      -9.009  13.467  68.328  1.00  0.00    -0.176 A  
HETATM   12  C   UNL     1     -10.229  12.809  68.538  1.00  0.00    -0.200 A  
HETATM   13  N   UNL     1     -11.464  13.531  68.499  1.00  0.00    -0.286 N  
HETATM   14  C   UNL     1     -12.240  12.587  70.723  1.00  0.00    -0.332 A  
HETATM   15  C   UNL     1     -12.142  13.640  69.777  1.00  0.00    -0.334 A  
HETATM   16  C   UNL     1     -12.647  14.902  70.159  1.00  0.00    -0.309 A  
HETATM   17  C   UNL     1     -12.686  12.884  72.037  1.00  0.00    -0.149 A  
HETATM   18  C   UNL     1     -13.129  14.151  72.394  1.00  0.00    -0.525 A  
HETATM   19  C   UNL     1     -13.146  15.153  71.441  1.00  0.00    -0.499 A  
BRANCH  13  20
HETATM   20  C   UNL     1     -11.816  14.341  67.407  1.00  0.00    -0.409 C  
HETATM   21  H1  UNL     1     -13.039  14.443  65.780  1.00  0.00     0.000 HD 
HETATM   22  O   UNL     1     -11.387  15.465  67.156  1.00  0.00    -0.305 OA 
HETATM   23  N   UNL     1     -12.784  13.855  66.573  1.00  0.00    -0.420 N  
HETATM   24  H2  UNL     1     -13.228  12.952  66.735  1.00  0.00     0.000 HD 
ENDBRANCH  13  20
ENDBRANCH   4   5
ENDBRANCH   2   4
TORSDOF 3
ENDMDL
MODEL       17
REMARK 921   NORMALIZED FREE ENERGY PREDICTED BY IDOCK:   -5.67 KCAL/MOL
REMARK 922        TOTAL FREE ENERGY PREDICTED BY IDOCK:   -7.22 KCAL/MOL
REMARK 923 INTER-LIGAND FREE ENERGY PREDICTED BY IDOCK:   -7.22 KCAL/MOL
REMARK 924 INTRA-LIGAND FREE ENERGY PREDICTED BY IDOCK:   -0.01 KCAL/MOL
REMARK 927      BINDING AFFINITY PREDICTED BY RF-SCORE:    0.00 PKD
ROOT
HETATM    1  C   UNL     1     -12.279  15.292  72.963  1.00  0.00    -0.527 C  
HETATM    2  C   UNL     1     -13.204  14.443  72.146  1.00  0.00    -0.384 C  
HETATM    3  O   UNL     1     -14.259  14.837  71.671  1.00  0.00    -0.440 OA 
ENDROOT
BRANCH   2   4
HETATM    4  O   UNL     1     -12.717  13.179  72.038  1.00  0.00    -0.196 OA 
BRANCH   4   5
HETATM    5  C   UNL     1     -12.661  12.621  70.700  1.00  0.00    -0.160 C  
HETATM    6  C   UNL     1     -11.613  13.394  69.902  1.00  0.00    -0.270 C  
HETATM    7  C   UNL     1     -11.526  12.821  68.520  1.00  0.00    -0.344 A  
HETATM    8  C   UNL     1     -12.082  13.496  67.422  1.00  0.00    -0.360 A  
HETATM    9  C   UNL     1     -12.037  12.923  66.152  1.00  0.00    -0.458 A  
HETATM   10  C   UNL     1     -11.445  11.677  65.969  1.00  0.00    -0.195 A  
HETATM   11  C   UNL     1     -10.889  11.003  67.058  1.00  0.00    -0.334 A  
HETATM   12  C   UNL     1     -10.927  11.570  68.340  1.00  0.00    -0.221 A  
HETATM   13  N   UNL     1     -10.330  10.896  69.454  1.00  0.00    -0.188 N  
HETATM   14  C   UNL     1     -12.417  11.123  70.880  1.00  0.00    -0.509 A  
HETATM   15  C   UNL     1     -11.275  10.406  70.441  1.00  0.00    -0.321 A  
HETATM   16  C   UNL     1     -11.113   9.089  70.923  1.00  0.00    -0.343 A  
HETATM   17  C   UNL     1     -13.405  10.444  71.638  1.00  0.00    -0.432 A  
HETATM   18  C   UNL     1     -13.237   9.129  72.053  1.00  0.00    -0.505 A  
HETATM   19  C   UNL     1     -12.069   8.462  71.728  1.00  0.00    -0.379 A  
BRANCH  13  20
HETATM   20  C   UNL     1      -8.997  10.456  69.427  1.00  0.00    -0.151 C  
HETATM   21  H1  UNL     1      -7.082  11.074  69.104  1.00  0.00     0.000 HD 
HETATM   22  O   UNL     1      -8.588   9.331  69.706  1.00  0.00    -0.133 OA 
HETATM   23  N   UNL     1      -8.050  11.394  69.123  1.00  0.00    -0.366 N  
HETATM   24  H2  UNL     1      -8.299  12.363  68.926  1.00  0.00     0.000 HD 
ENDBRANCH  13  20
ENDBRANCH   4   5
ENDBRANCH   2   4
TORSDOF 3
ENDMDL
MODEL       18
REMARK 921   NORMALIZED FREE ENERGY PREDICTED BY IDOCK:   -5.66 KCAL/MOL
REMARK 922        TOTAL FREE ENERGY PREDICTED BY IDOCK:   -7.21 KCAL/MOL
REMARK 923 INTER-LIGAND FREE ENERGY PREDICTED BY IDOCK:   -6.77 KCAL/MOL
REMARK 924 INTRA-LIGAND FREE ENERGY PREDICTED BY IDOCK:   -0.44 KCAL/MOL
REMARK 927      BINDING AFFINITY PREDICTED BY RF-SCORE:    0.00 PKD
ROOT
HETATM    1  C   UNL     1      -7.144   9.520  66.312  1.00  0.00    -0.092 C  
HETATM    2  C   UNL     1      -8.542   9.797  65.848  1.00  0.00    -0.137 C  
HETATM    3  O   UNL     1      -9.168   9.076  65.086  1.00  0.00    -0.192 OA 
ENDROOT
BRANCH   2   4
HETATM    4  O   UNL     1      -8.991  10.968  66.369  1.00  0.00    -0.169 OA 
BRANCH   4   5
HETATM    5  C   UNL     1     -10.101  10.877  67.301  1.00  0.00    -0.191 C  
HETATM    6  C   UNL     1      -9.544  10.972  68.719  1.00  0.00    -0.194 C  
HETATM    7  C   UNL     1     -10.677  10.896  69.698  1.00  0.00    -0.232 A  
HETATM    8  C   UNL     1     -10.912   9.730  70.442  1.00  0.00    -0.371 A  
HETATM    9  C   UNL     1     -12.002   9.661  71.309  1.00  0.00    -0.462 A  
HETATM   10  C   UNL     1     -12.863  10.746  71.436  1.00  0.00    -0.557 A  
HETATM   11  C   UNL     1     -12.631  11.909  70.699  1.00  0.00    -0.269 A  
HETATM   12  C   UNL     1     -11.538  11.992  69.824  1.00  0.00    -0.276 A  
HETATM   13  N   UNL     1     -11.280  13.194  69.090  1.00  0.00    -0.263 N  
HETATM   14  C   UNL     1     -11.092  11.961  66.880  1.00  0.00    -0.356 A  
HETATM   15  C   UNL     1     -11.481  13.081  67.657  1.00  0.00    -0.324 A  
HETATM   16  C   UNL     1     -12.204  14.103  67.003  1.00  0.00    -0.374 A  
HETATM   17  C   UNL     1     -11.574  11.846  65.551  1.00  0.00    -0.281 A  
HETATM   18  C   UNL     1     -12.328  12.848  64.953  1.00  0.00    -0.532 A  
HETATM   19  C   UNL     1     -12.610  13.998  65.670  1.00  0.00    -0.542 A  
BRANCH  13  20
HETATM   20  C   UNL     1     -11.172  14.441  69.724  1.00  0.00    -0.205 C  
HETATM   21  H1  UNL     1      -9.849  15.910  70.220  1.00  0.00     0.000 HD 
HETATM   22  O   UNL     1     -12.090  15.108  70.198  1.00  0.00    -0.301 OA 
HETATM   23  N   UNL     1      -9.927  15.003  69.760  1.00  0.00    -0.450 N  
HETATM   24  H2  UNL     1      -9.117  14.541  69.347  1.00  0.00     0.000 HD 
ENDBRANCH  13  20
ENDBRANCH   4   5
ENDBRANCH   2   4
TORSDOF 3
ENDMDL
MODEL       19
REMARK 921   NORMALIZED FREE ENERGY PREDICTED BY IDOCK:   -5.66 KCAL/MOL
REMARK 922        TOTAL FREE ENERGY PREDICTED BY IDOCK:   -7.21 KCAL/MOL
REMARK 923 INTER-LIGAND FREE ENERGY PREDICTED BY IDOCK:   -6.94 KCAL/MOL
REMARK 924 INTRA-LIGAND FREE ENERGY PREDICTED BY IDOCK:   -0.27 KCAL/MOL
REMARK 927      BINDING AFFINITY PREDICTED BY RF-SCORE:    0.00 PKD
ROOT
HETATM    1  C   UNL     1     -10.661  19.398  66.652  1.00  0.00    -0.529 C  
HETATM    2  C   UNL     1      -9.812  18.172  66.510  1.00  0.00    -0.362 C  
HETATM    3  O   UNL     1      -8.740  18.142  65.924  1.00  0.00    -0.505 OA 
ENDROOT
BRANCH   2   4
HETATM    4  O   UNL     1     -10.417  17.106  67.097  1.00  0.00    -0.319 OA 
BRANCH   4   5
HETATM    5  C   UNL     1      -9.694  15.847  67.051  1.00  0.00    -0.228 C  
HETATM    6  C   UNL     1      -9.256  15.495  68.470  1.00  0.00    -0.197 C  
HETATM    7  C   UNL     1      -8.521  14.188  68.447  1.00  0.00    -0.170 A  
HETATM    8  C   UNL     1      -7.125  14.143  68.579  1.00  0.00    -0.103 A  
HETATM    9  C   UNL     1      -6.455  12.923  68.504  1.00  0.00    -0.083 A  
HETATM   10  C   UNL     1      -7.167  11.747  68.293  1.00  0.00    -0.084 A  
HETATM   11  C   UNL     1      -8.557  11.788  68.165  1.00  0.00    -0.160 A  
HETATM   12  C   UNL     1      -9.243  13.008  68.240  1.00  0.00    -0.191 A  
HETATM   13  N   UNL     1     -10.671  13.051  68.139  1.00  0.00    -0.234 N  
HETATM   14  C   UNL     1     -10.624  14.855  66.355  1.00  0.00    -0.307 A  
HETATM   15  C   UNL     1     -11.173  13.682  66.933  1.00  0.00    -0.312 A  
HETATM   16  C   UNL     1     -12.208  13.034  66.223  1.00  0.00    -0.390 A  
HETATM   17  C   UNL     1     -11.020  15.225  65.044  1.00  0.00    -0.450 A  
HETATM   18  C   UNL     1     -12.007  14.534  64.351  1.00  0.00    -0.467 A  
HETATM   19  C   UNL     1     -12.630  13.459  64.959  1.00  0.00    -0.459 A  
BRANCH  13  20
HETATM   20  C   UNL     1     -11.496  12.263  68.958  1.00  0.00    -0.297 C  
HETATM   21  H1  UNL     1     -12.375  12.188  70.795  1.00  0.00     0.000 HD 
HETATM   22  O   UNL     1     -12.040  11.204  68.653  1.00  0.00    -0.556 OA 
HETATM   23  N   UNL     1     -11.776  12.760  70.200  1.00  0.00    -0.535 N  
HETATM   24  H2  UNL     1     -11.405  13.656  70.516  1.00  0.00     0.000 HD 
ENDBRANCH  13  20
ENDBRANCH   4   5
ENDBRANCH   2   4
TORSDOF 3
ENDMDL
MODEL       20
REMARK 921   NORMALIZED FREE ENERGY PREDICTED BY IDOCK:   -5.56 KCAL/MOL
REMARK 922        TOTAL FREE ENERGY PREDICTED BY IDOCK:   -7.09 KCAL/MOL
REMARK 923 INTER-LIGAND FREE ENERGY PREDICTED BY IDOCK:   -6.98 KCAL/MOL
REMARK 924 INTRA-LIGAND FREE ENERGY PREDICTED BY IDOCK:   -0.11 KCAL/MOL
REMARK 927      BINDING AFFINITY PREDICTED BY RF-SCORE:    0.00 PKD
ROOT
HETATM    1  C   UNL     1     -12.156  15.780  72.407  1.00  0.00    -0.588 C  
HETATM    2  C   UNL     1     -12.794  15.516  71.077  1.00  0.00    -0.482 C  
HETATM    3  O   UNL     1     -13.976  15.702  70.833  1.00  0.00    -0.479 OA 
ENDROOT
BRANCH   2   4
HETATM    4  O   UNL     1     -11.880  15.018  70.204  1.00  0.00    -0.274 OA 
BRANCH   4   5
HETATM    5  C   UNL     1     -11.502  15.883  69.101  1.00  0.00    -0.377 C  
HETATM    6  C   UNL     1     -10.516  16.924  69.626  1.00  0.00    -0.158 C  
HETATM    7  C   UNL     1     -10.099  17.819  68.497  1.00  0.00    -0.377 A  
HETATM    8  C   UNL     1     -10.597  19.126  68.391  1.00  0.00    -0.166 A  
HETATM    9  C   UNL     1     -10.238  19.926  67.307  1.00  0.00    -0.572 A  
HETATM   10  C   UNL     1      -9.389  19.428  66.324  1.00  0.00    -0.402 A  
HETATM   11  C   UNL     1      -8.890  18.128  66.427  1.00  0.00    -0.255 A  
HETATM   12  C   UNL     1      -9.242  17.315  67.513  1.00  0.00    -0.227 A  
HETATM   13  N   UNL     1      -8.707  15.992  67.639  1.00  0.00    -0.172 N  
HETATM   14  C   UNL     1     -10.997  14.958  67.995  1.00  0.00    -0.282 A  
HETATM   15  C   UNL     1      -9.680  14.929  67.469  1.00  0.00    -0.212 A  
HETATM   16  C   UNL     1      -9.338  13.838  66.640  1.00  0.00    -0.277 A  
HETATM   17  C   UNL     1     -11.937  13.995  67.545  1.00  0.00    -0.430 A  
HETATM   18  C   UNL     1     -11.579  12.963  66.687  1.00  0.00    -0.428 A  
HETATM   19  C   UNL     1     -10.266  12.862  66.265  1.00  0.00    -0.285 A  
BRANCH  13  20
HETATM   20  C   UNL     1      -7.327  15.743  67.593  1.00  0.00    -0.164 C  
HETATM   21  H1  UNL     1      -5.817  14.747  68.532  1.00  0.00     0.000 HD 
HETATM   22  O   UNL     1      -6.537  16.133  66.735  1.00  0.00    -0.269 OA 
HETATM   23  N   UNL     1      -6.820  14.928  68.566  1.00  0.00    -0.102 N  
HETATM   24  H2  UNL     1      -7.414  14.522  69.289  1.00  0.00     0.000 HD 
ENDBRANCH  13  20
ENDBRANCH   4   5
ENDBRANCH   2   4
TORSDOF 3
ENDMDL
MODEL       21
REMARK 921   NORMALIZED FREE ENERGY PREDICTED BY IDOCK:   -5.53 KCAL/MOL
REMARK 922        TOTAL FREE ENERGY PREDICTED BY IDOCK:   -7.05 KCAL/MOL
REMARK 923 INTER-LIGAND FREE ENERGY PREDICTED BY IDOCK:   -7.45 KCAL/MOL
REMARK 924 INTRA-LIGAND FREE ENERGY PREDICTED BY IDOCK:    0.40 KCAL/MOL
REMARK 927      BINDING AFFINITY PREDICTED BY RF-SCORE:    0.00 PKD
ROOT
HETATM    1  C   UNL     1      -7.878  13.259  67.730  1.00  0.00    -0.157 C  
HETATM    2  C   UNL     1      -6.991  14.389  68.156  1.00  0.00    -0.124 C  
HETATM    3  O   UNL     1      -5.899  14.628  67.665  1.00  0.00    -0.293 OA 
ENDROOT
BRANCH   2   4
HETATM    4  O   UNL     1      -7.562  15.080  69.178  1.00  0.00    -0.150 OA 
BRANCH   4   5
HETATM    5  C   UNL     1      -8.371  16.227  68.808  1.00  0.00    -0.235 C  
HETATM    6  C   UNL     1      -7.764  16.857  67.556  1.00  0.00    -0.187 C  
HETATM    7  C   UNL     1      -8.595  18.036  67.147  1.00  0.00    -0.244 A  
HETATM    8  C   UNL     1      -8.149  19.347  67.372  1.00  0.00    -0.313 A  
HETATM    9  C   UNL     1      -8.958  20.430  67.032  1.00  0.00    -0.423 A  
HETATM   10  C   UNL     1     -10.213  20.214  66.472  1.00  0.00    -0.558 A  
HETATM   11  C   UNL     1     -10.660  18.911  66.244  1.00  0.00    -0.463 A  
HETATM   12  C   UNL     1      -9.855  17.813  66.581  1.00  0.00    -0.322 A  
HETATM   13  N   UNL     1     -10.297  16.477  66.320  1.00  0.00    -0.319 N  
HETATM   14  C   UNL     1      -9.803  15.710  68.688  1.00  0.00    -0.210 A  
HETATM   15  C   UNL     1     -10.588  15.694  67.507  1.00  0.00    -0.297 A  
HETATM   16  C   UNL     1     -11.785  14.946  67.535  1.00  0.00    -0.328 A  
HETATM   17  C   UNL     1     -10.326  15.119  69.868  1.00  0.00    -0.207 A  
HETATM   18  C   UNL     1     -11.534  14.433  69.873  1.00  0.00    -0.314 A  
HETATM   19  C   UNL     1     -12.247  14.313  68.693  1.00  0.00    -0.205 A  
BRANCH  13  20
HETATM   20  C   UNL     1     -10.728  16.074  65.046  1.00  0.00    -0.378 C  
HETATM   21  H1  UNL     1     -10.738  14.501  63.750  1.00  0.00     0.000 HD 
HETATM   22  O   UNL     1     -11.401  16.731  64.255  1.00  0.00    -1.170 OA 
HETATM   23  N   UNL     1     -10.424  14.793  64.675  1.00  0.00    -0.555 N  
HETATM   24  H2  UNL     1      -9.911  14.163  65.291  1.00  0.00     0.000 HD 
ENDBRANCH  13  20
ENDBRANCH   4   5
ENDBRANCH   2   4
TORSDOF 3
ENDMDL
MODEL       22
REMARK 921   NORMALIZED FREE ENERGY PREDICTED BY IDOCK:   -5.50 KCAL/MOL
REMARK 922        TOTAL FREE ENERGY PREDICTED BY IDOCK:   -7.02 KCAL/MOL
REMARK 923 INTER-LIGAND FREE ENERGY PREDICTED BY IDOCK:   -6.59 KCAL/MOL
REMARK 924 INTRA-LIGAND FREE ENERGY PREDICTED BY IDOCK:   -0.43 KCAL/MOL
REMARK 927      BINDING AFFINITY PREDICTED BY RF-SCORE:    0.00 PKD
ROOT
HETATM    1  C   UNL     1     -11.194   9.204  71.485  1.00  0.00    -0.430 C  
HETATM    2  C   UNL     1     -11.325  10.329  70.503  1.00  0.00    -0.341 C  
HETATM    3  O   UNL     1     -12.155  11.221  70.586  1.00  0.00    -0.355 OA 
ENDROOT
BRANCH   2   4
HETATM    4  O   UNL     1     -10.414  10.192  69.504  1.00  0.00    -0.209 OA 
BRANCH   4   5
HETATM    5  C   UNL     1     -10.915  10.340  68.149  1.00  0.00    -0.274 C  
HETATM    6  C   UNL     1     -10.461  11.698  67.616  1.00  0.00    -0.219 C  
HETATM    7  C   UNL     1     -10.954  11.864  66.211  1.00  0.00    -0.345 A  
HETATM    8  C   UNL     1     -12.034  12.711  65.920  1.00  0.00    -0.497 A  
HETATM    9  C   UNL     1     -12.511  12.813  64.614  1.00  0.00    -0.525 A  
HETATM   10  C   UNL     1     -11.922  12.071  63.595  1.00  0.00    -0.612 A  
HETATM   11  C   UNL     1     -10.845  11.229  63.880  1.00  0.00    -0.427 A  
HETATM   12  C   UNL     1     -10.355  11.118  65.190  1.00  0.00    -0.293 A  
HETATM   13  N   UNL     1      -9.231  10.279  65.480  1.00  0.00    -0.176 N  
HETATM   14  C   UNL     1     -10.430   9.109  67.386  1.00  0.00    -0.339 A  
HETATM   15  C   UNL     1      -9.542   9.110  66.280  1.00  0.00    -0.255 A  
HETATM   16  C   UNL     1      -9.013   7.864  65.875  1.00  0.00    -0.166 A  
HETATM   17  C   UNL     1     -10.861   7.867  67.920  1.00  0.00    -0.063 A  
HETATM   18  C   UNL     1     -10.358   6.656  67.463  1.00  0.00    -0.262 A  
HETATM   19  C   UNL     1      -9.401   6.657  66.463  1.00  0.00    -0.191 A  
BRANCH  13  20
HETATM   20  C   UNL     1      -8.020  10.394  64.781  1.00  0.00    -0.103 C  
HETATM   21  H1  UNL     1      -6.081  10.996  64.966  1.00  0.00     0.000 HD 
HETATM   22  O   UNL     1      -7.795  10.023  63.631  1.00  0.00    -0.143 OA 
HETATM   23  N   UNL     1      -6.961  10.913  65.474  1.00  0.00    -0.368 N  
HETATM   24  H2  UNL     1      -7.047  11.201  66.448  1.00  0.00     0.000 HD 
ENDBRANCH  13  20
ENDBRANCH   4   5
ENDBRANCH   2   4
TORSDOF 3
ENDMDL
MODEL       23
REMARK 921   NORMALIZED FREE ENERGY PREDICTED BY IDOCK:   -5.47 KCAL/MOL
REMARK 922        TOTAL FREE ENERGY PREDICTED BY IDOCK:   -6.99 KCAL/MOL
REMARK 923 INTER-LIGAND FREE ENERGY PREDICTED BY IDOCK:   -6.66 KCAL/MOL
REMARK 924 INTRA-LIGAND FREE ENERGY PREDICTED BY IDOCK:   -0.33 KCAL/MOL
REMARK 927      BINDING AFFINITY PREDICTED BY RF-SCORE:    0.00 PKD
ROOT
HETATM    1  C   UNL     1      -9.272   8.890  65.714  1.00  0.00    -0.283 C  
HETATM    2  C   UNL     1     -10.198   9.579  66.669  1.00  0.00    -0.240 C  
HETATM    3  O   UNL     1     -10.894   9.000  67.490  1.00  0.00    -0.232 OA 
ENDROOT
BRANCH   2   4
HETATM    4  O   UNL     1     -10.172  10.922  66.468  1.00  0.00    -0.217 OA 
BRANCH   4   5
HETATM    5  C   UNL     1     -11.103  11.711  67.254  1.00  0.00    -0.290 C  
HETATM    6  C   UNL     1     -10.430  12.068  68.578  1.00  0.00    -0.244 C  
HETATM    7  C   UNL     1     -11.370  12.898  69.399  1.00  0.00    -0.265 A  
HETATM    8  C   UNL     1     -12.040  12.350  70.504  1.00  0.00    -0.363 A  
HETATM    9  C   UNL     1     -12.949  13.123  71.224  1.00  0.00    -0.339 A  
HETATM   10  C   UNL     1     -13.199  14.439  70.848  1.00  0.00    -0.347 A  
HETATM   11  C   UNL     1     -12.532  14.988  69.751  1.00  0.00    -0.216 A  
HETATM   12  C   UNL     1     -11.614  14.222  69.019  1.00  0.00    -0.305 A  
HETATM   13  N   UNL     1     -10.905  14.791  67.913  1.00  0.00    -0.263 N  
HETATM   14  C   UNL     1     -11.521  12.879  66.363  1.00  0.00    -0.389 A  
HETATM   15  C   UNL     1     -11.274  14.252  66.617  1.00  0.00    -0.334 A  
HETATM   16  C   UNL     1     -11.506  15.159  65.559  1.00  0.00    -0.213 A  
HETATM   17  C   UNL     1     -12.130  12.506  65.136  1.00  0.00    -0.503 A  
HETATM   18  C   UNL     1     -12.393  13.433  64.135  1.00  0.00    -0.395 A  
HETATM   19  C   UNL     1     -12.044  14.757  64.333  1.00  0.00    -0.457 A  
BRANCH  13  20
HETATM   20  C   UNL     1     -10.175  15.984  68.035  1.00  0.00    -0.245 C  
HETATM   21  H1  UNL     1      -8.287  16.729  68.218  1.00  0.00     0.000 HD 
HETATM   22  O   UNL     1     -10.624  17.128  68.006  1.00  0.00    -0.348 OA 
HETATM   23  N   UNL     1      -8.817  15.862  68.129  1.00  0.00    -0.174 N  
HETATM   24  H2  UNL     1      -8.357  14.952  68.112  1.00  0.00     0.000 HD 
ENDBRANCH  13  20
ENDBRANCH   4   5
ENDBRANCH   2   4
TORSDOF 3
ENDMDL
MODEL       24
REMARK 921   NORMALIZED FREE ENERGY PREDICTED BY IDOCK:   -5.35 KCAL/MOL
REMARK 922        TOTAL FREE ENERGY PREDICTED BY IDOCK:   -6.85 KCAL/MOL
REMARK 923 INTER-LIGAND FREE ENERGY PREDICTED BY IDOCK:   -6.43 KCAL/MOL
REMARK 924 INTRA-LIGAND FREE ENERGY PREDICTED BY IDOCK:   -0.42 KCAL/MOL
REMARK 927      BINDING AFFINITY PREDICTED BY RF-SCORE:    0.00 PKD
ROOT
HETATM    1  C   UNL     1      -7.637  18.067  68.030  1.00  0.00    -0.244 C  
HETATM    2  C   UNL     1      -8.223  17.854  66.667  1.00  0.00    -0.258 C  
HETATM    3  O   UNL     1      -8.430  18.748  65.861  1.00  0.00    -0.481 OA 
ENDROOT
BRANCH   2   4
HETATM    4  O   UNL     1      -8.513  16.540  66.477  1.00  0.00    -0.233 OA 
BRANCH   4   5
HETATM    5  C   UNL     1      -9.133  15.848  67.592  1.00  0.00    -0.198 C  
HETATM    6  C   UNL     1     -10.649  15.945  67.431  1.00  0.00    -0.315 C  
HETATM    7  C   UNL     1     -11.310  15.221  68.566  1.00  0.00    -0.337 A  
HETATM    8  C   UNL     1     -11.914  15.926  69.617  1.00  0.00    -0.272 A  
HETATM    9  C   UNL     1     -12.479  15.236  70.689  1.00  0.00    -0.458 A  
HETATM   10  C   UNL     1     -12.441  13.846  70.722  1.00  0.00    -0.445 A  
HETATM   11  C   UNL     1     -11.843  13.140  69.675  1.00  0.00    -0.390 A  
HETATM   12  C   UNL     1     -11.273  13.823  68.591  1.00  0.00    -0.278 A  
HETATM   13  N   UNL     1     -10.686  13.102  67.501  1.00  0.00    -0.237 N  
HETATM   14  C   UNL     1      -8.534  14.443  67.600  1.00  0.00    -0.191 A  
HETATM   15  C   UNL     1      -9.245  13.233  67.397  1.00  0.00    -0.216 A  
HETATM   16  C   UNL     1      -8.483  12.062  67.185  1.00  0.00    -0.180 A  
HETATM   17  C   UNL     1      -7.123  14.396  67.736  1.00  0.00    -0.191 A  
HETATM   18  C   UNL     1      -6.407  13.217  67.572  1.00  0.00    -0.142 A  
HETATM   19  C   UNL     1      -7.087  12.054  67.256  1.00  0.00    -0.149 A  
BRANCH  13  20
HETATM   20  C   UNL     1     -11.389  12.102  66.810  1.00  0.00    -0.342 C  
HETATM   21  H1  UNL     1     -11.950  11.495  64.948  1.00  0.00     0.000 HD 
HETATM   22  O   UNL     1     -11.910  11.100  67.295  1.00  0.00    -0.525 OA 
HETATM   23  N   UNL     1     -11.441  12.222  65.450  1.00  0.00    -0.345 N  
HETATM   24  H2  UNL     1     -10.992  12.997  64.961  1.00  0.00     0.000 HD 
ENDBRANCH  13  20
ENDBRANCH   4   5
ENDBRANCH   2   4
TORSDOF 3
ENDMDL
MODEL       25
REMARK 921   NORMALIZED FREE ENERGY PREDICTED BY IDOCK:   -5.32 KCAL/MOL
REMARK 922        TOTAL FREE ENERGY PREDICTED BY IDOCK:   -6.80 KCAL/MOL
REMARK 923 INTER-LIGAND FREE ENERGY PREDICTED BY IDOCK:   -6.42 KCAL/MOL
REMARK 924 INTRA-LIGAND FREE ENERGY PREDICTED BY IDOCK:   -0.38 KCAL/MOL
REMARK 927      BINDING AFFINITY PREDICTED BY RF-SCORE:    0.00 PKD
ROOT
HETATM    1  C   UNL     1     -10.876  17.047  68.480  1.00  0.00    -0.310 C  
HETATM    2  C   UNL     1      -9.673  16.177  68.680  1.00  0.00    -0.227 C  
HETATM    3  O   UNL     1      -8.520  16.566  68.581  1.00  0.00    -0.220 OA 
ENDROOT
BRANCH   2   4
HETATM    4  O   UNL     1     -10.052  14.901  68.954  1.00  0.00    -0.224 OA 
BRANCH   4   5
HETATM    5  C   UNL     1     -10.839  14.229  67.936  1.00  0.00    -0.253 C  
HETATM    6  C   UNL     1     -10.041  14.232  66.634  1.00  0.00    -0.274 C  
HETATM    7  C   UNL     1     -10.830  13.527  65.572  1.00  0.00    -0.293 A  
HETATM    8  C   UNL     1     -11.474  14.246  64.554  1.00  0.00    -0.363 A  
HETATM    9  C   UNL     1     -12.246  13.577  63.605  1.00  0.00    -0.438 A  
HETATM   10  C   UNL     1     -12.384  12.194  63.667  1.00  0.00    -0.673 A  
HETATM   11  C   UNL     1     -11.743  11.475  64.678  1.00  0.00    -0.049 A  
HETATM   12  C   UNL     1     -10.963  12.136  65.637  1.00  0.00    -0.295 A  
HETATM   13  N   UNL     1     -10.279  11.399  66.657  1.00  0.00    -0.215 N  
HETATM   14  C   UNL     1     -11.196  12.861  68.516  1.00  0.00    -0.310 A  
HETATM   15  C   UNL     1     -10.791  11.605  67.998  1.00  0.00    -0.215 A  
HETATM   16  C   UNL     1     -11.003  10.471  68.813  1.00  0.00    -0.296 A  
HETATM   17  C   UNL     1     -11.925  12.901  69.733  1.00  0.00    -0.365 A  
HETATM   18  C   UNL     1     -12.161  11.757  70.486  1.00  0.00    -0.439 A  
HETATM   19  C   UNL     1     -11.664  10.544  70.043  1.00  0.00    -0.394 A  
BRANCH  13  20
HETATM   20  C   UNL     1      -9.423  10.329  66.350  1.00  0.00    -0.174 C  
HETATM   21  H1  UNL     1      -7.460   9.799  66.215  1.00  0.00     0.000 HD 
HETATM   22  O   UNL     1      -9.754   9.179  66.069  1.00  0.00    -0.263 OA 
HETATM   23  N   UNL     1      -8.081  10.576  66.438  1.00  0.00    -0.129 N  
HETATM   24  H2  UNL     1      -7.720  11.489  66.712  1.00  0.00     0.000 HD 
ENDBRANCH  13  20
ENDBRANCH   4   5
ENDBRANCH   2   4
TORSDOF 3
ENDMDL
MODEL       26
REMARK 921   NORMALIZED FREE ENERGY PREDICTED BY IDOCK:   -5.31 KCAL/MOL
REMARK 922        TOTAL FREE ENERGY PREDICTED BY IDOCK:   -6.80 KCAL/MOL
REMARK 923 INTER-LIGAND FREE ENERGY PREDICTED BY IDOCK:   -6.41 KCAL/MOL
REMARK 924 INTRA-LIGAND FREE ENERGY PREDICTED BY IDOCK:   -0.39 KCAL/MOL
REMARK 927      BINDING AFFINITY PREDICTED BY RF-SCORE:    0.00 PKD
ROOT
HETATM    1  C   UNL     1     -13.250  14.309  72.589  1.00  0.00    -0.601 C  
HETATM    2  C   UNL     1     -13.281  14.759  71.160  1.00  0.00    -0.393 C  
HETATM    3  O   UNL     1     -14.075  15.574  70.714  1.00  0.00    -0.378 OA 
ENDROOT
BRANCH   2   4
HETATM    4  O   UNL     1     -12.328  14.113  70.439  1.00  0.00    -0.319 OA 
BRANCH   4   5
HETATM    5  C   UNL     1     -11.653  14.893  69.417  1.00  0.00    -0.309 C  
HETATM    6  C   UNL     1     -10.748  15.909  70.109  1.00  0.00    -0.338 C  
HETATM    7  C   UNL     1     -10.028  16.714  69.070  1.00  0.00    -0.280 A  
HETATM    8  C   UNL     1     -10.403  18.038  68.794  1.00  0.00    -0.294 A  
HETATM    9  C   UNL     1      -9.755  18.753  67.788  1.00  0.00    -0.356 A  
HETATM   10  C   UNL     1      -8.738  18.156  67.051  1.00  0.00    -0.263 A  
HETATM   11  C   UNL     1      -8.360  16.840  67.324  1.00  0.00    -0.197 A  
HETATM   12  C   UNL     1      -9.003  16.109  68.334  1.00  0.00    -0.196 A  
HETATM   13  N   UNL     1      -8.597  14.770  68.638  1.00  0.00    -0.164 N  
HETATM   14  C   UNL     1     -10.969  13.880  68.500  1.00  0.00    -0.277 A  
HETATM   15  C   UNL     1      -9.572  13.752  68.295  1.00  0.00    -0.219 A  
HETATM   16  C   UNL     1      -9.121  12.598  67.616  1.00  0.00    -0.192 A  
HETATM   17  C   UNL     1     -11.842  12.944  67.888  1.00  0.00    -0.388 A  
HETATM   18  C   UNL     1     -11.365  11.846  67.182  1.00  0.00    -0.393 A  
HETATM   19  C   UNL     1      -9.999  11.652  67.080  1.00  0.00    -0.226 A  
BRANCH  13  20
HETATM   20  C   UNL     1      -7.262  14.447  68.924  1.00  0.00    -0.125 C  
HETATM   21  H1  UNL     1      -6.011  13.859  70.421  1.00  0.00     0.000 HD 
HETATM   22  O   UNL     1      -6.331  14.390  68.123  1.00  0.00    -0.113 OA 
HETATM   23  N   UNL     1      -6.981  14.094  70.214  1.00  0.00    -0.385 N  
HETATM   24  H2  UNL     1      -7.704  14.067  70.933  1.00  0.00     0.000 HD 
ENDBRANCH  13  20
ENDBRANCH   4   5
ENDBRANCH   2   4
TORSDOF 3
ENDMDL
MODEL       27
REMARK 921   NORMALIZED FREE ENERGY PREDICTED BY IDOCK:   -5.27 KCAL/MOL
REMARK 922        TOTAL FREE ENERGY PREDICTED BY IDOCK:   -6.75 KCAL/MOL
REMARK 923 INTER-LIGAND FREE ENERGY PREDICTED BY IDOCK:   -7.10 KCAL/MOL
REMARK 924 INTRA-LIGAND FREE ENERGY PREDICTED BY IDOCK:    0.35 KCAL/MOL
REMARK 927      BINDING AFFINITY PREDICTED BY RF-SCORE:    0.00 PKD
ROOT
HETATM    1  C   UNL     1      -7.549  17.175  68.252  1.00  0.00    -0.224 C  
HETATM    2  C   UNL     1      -8.415  16.250  69.051  1.00  0.00    -0.244 C  
HETATM    3  O   UNL     1      -8.010  15.244  69.613  1.00  0.00    -0.224 OA 
ENDROOT
BRANCH   2   4
HETATM    4  O   UNL     1      -9.706  16.674  69.030  1.00  0.00    -0.260 OA 
BRANCH   4   5
HETATM    5  C   UNL     1     -10.619  15.922  68.189  1.00  0.00    -0.280 C  
HETATM    6  C   UNL     1      -9.800  15.178  67.137  1.00  0.00    -0.228 C  
HETATM    7  C   UNL     1     -10.724  14.381  66.268  1.00  0.00    -0.307 A  
HETATM    8  C   UNL     1     -11.026  14.798  64.962  1.00  0.00    -0.426 A  
HETATM    9  C   UNL     1     -11.929  14.071  64.187  1.00  0.00    -0.439 A  
HETATM   10  C   UNL     1     -12.536  12.932  64.706  1.00  0.00    -0.517 A  
HETATM   11  C   UNL     1     -12.235  12.513  66.003  1.00  0.00    -0.263 A  
HETATM   12  C   UNL     1     -11.329  13.234  66.793  1.00  0.00    -0.327 A  
HETATM   13  N   UNL     1     -10.995  12.790  68.113  1.00  0.00    -0.235 N  
HETATM   14  C   UNL     1     -11.454  15.065  69.139  1.00  0.00    -0.320 A  
HETATM   15  C   UNL     1     -11.477  13.647  69.179  1.00  0.00    -0.297 A  
HETATM   16  C   UNL     1     -12.109  13.042  70.288  1.00  0.00    -0.388 A  
HETATM   17  C   UNL     1     -12.190  15.792  70.110  1.00  0.00    -0.340 A  
HETATM   18  C   UNL     1     -12.844  15.161  71.161  1.00  0.00    -0.469 A  
HETATM   19  C   UNL     1     -12.769  13.784  71.272  1.00  0.00    -0.450 A  
BRANCH  13  20
HETATM   20  C   UNL     1     -10.542  11.485  68.363  1.00  0.00    -0.201 C  
HETATM   21  H1  UNL     1     -11.128   9.533  68.393  1.00  0.00     0.000 HD 
HETATM   22  O   UNL     1      -9.395  11.145  68.646  1.00  0.00    -0.184 OA 
HETATM   23  N   UNL     1     -11.458  10.481  68.211  1.00  0.00    -0.475 N  
HETATM   24  H2  UNL     1     -12.420  10.670  67.930  1.00  0.00     0.000 HD 
ENDBRANCH  13  20
ENDBRANCH   4   5
ENDBRANCH   2   4
TORSDOF 3
ENDMDL
MODEL       28
REMARK 921   NORMALIZED FREE ENERGY PREDICTED BY IDOCK:   -5.19 KCAL/MOL
REMARK 922        TOTAL FREE ENERGY PREDICTED BY IDOCK:   -6.65 KCAL/MOL
REMARK 923 INTER-LIGAND FREE ENERGY PREDICTED BY IDOCK:   -6.16 KCAL/MOL
REMARK 924 INTRA-LIGAND FREE ENERGY PREDICTED BY IDOCK:   -0.49 KCAL/MOL
REMARK 927      BINDING AFFINITY PREDICTED BY RF-SCORE:    0.00 PKD
ROOT
HETATM    1  C   UNL     1     -10.262  17.958  66.804  1.00  0.00    -0.360 C  
HETATM    2  C   UNL     1     -10.622  17.109  67.985  1.00  0.00    -0.374 C  
HETATM    3  O   UNL     1     -10.528  17.473  69.147  1.00  0.00    -0.347 OA 
ENDROOT
BRANCH   2   4
HETATM    4  O   UNL     1     -11.035  15.881  67.577  1.00  0.00    -0.323 OA 
BRANCH   4   5
HETATM    5  C   UNL     1     -10.004  14.982  67.090  1.00  0.00    -0.237 C  
HETATM    6  C   UNL     1      -9.394  14.260  68.290  1.00  0.00    -0.208 C  
HETATM    7  C   UNL     1      -8.336  13.313  67.807  1.00  0.00    -0.171 A  
HETATM    8  C   UNL     1      -6.974  13.608  67.971  1.00  0.00    -0.135 A  
HETATM    9  C   UNL     1      -6.005  12.739  67.469  1.00  0.00    -0.143 A  
HETATM   10  C   UNL     1      -6.386  11.580  66.800  1.00  0.00    -0.134 A  
HETATM   11  C   UNL     1      -7.740  11.282  66.638  1.00  0.00    -0.148 A  
HETATM   12  C   UNL     1      -8.725  12.147  67.139  1.00  0.00    -0.190 A  
HETATM   13  N   UNL     1     -10.114  11.829  67.001  1.00  0.00    -0.207 N  
HETATM   14  C   UNL     1     -10.675  14.107  66.033  1.00  0.00    -0.299 A  
HETATM   15  C   UNL     1     -10.846  12.701  66.102  1.00  0.00    -0.273 A  
HETATM   16  C   UNL     1     -11.713  12.108  65.156  1.00  0.00    -0.366 A  
HETATM   17  C   UNL     1     -11.242  14.816  64.943  1.00  0.00    -0.411 A  
HETATM   18  C   UNL     1     -12.049  14.191  64.000  1.00  0.00    -0.382 A  
HETATM   19  C   UNL     1     -12.316  12.840  64.130  1.00  0.00    -0.485 A  
BRANCH  13  20
HETATM   20  C   UNL     1     -10.639  10.599  67.427  1.00  0.00    -0.256 C  
HETATM   21  H1  UNL     1     -11.974   9.753  68.714  1.00  0.00     0.000 HD 
HETATM   22  O   UNL     1     -10.374   9.489  66.970  1.00  0.00    -0.238 OA 
HETATM   23  N   UNL     1     -11.592  10.647  68.405  1.00  0.00    -0.469 N  
HETATM   24  H2  UNL     1     -11.907  11.531  68.805  1.00  0.00     0.000 HD 
ENDBRANCH  13  20
ENDBRANCH   4   5
ENDBRANCH   2   4
TORSDOF 3
ENDMDL
MODEL       29
REMARK 921   NORMALIZED FREE ENERGY PREDICTED BY IDOCK:   -5.17 KCAL/MOL
REMARK 922        TOTAL FREE ENERGY PREDICTED BY IDOCK:   -6.63 KCAL/MOL
REMARK 923 INTER-LIGAND FREE ENERGY PREDICTED BY IDOCK:   -6.28 KCAL/MOL
REMARK 924 INTRA-LIGAND FREE ENERGY PREDICTED BY IDOCK:   -0.36 KCAL/MOL
REMARK 927      BINDING AFFINITY PREDICTED BY RF-SCORE:    0.00 PKD
ROOT
HETATM    1  C   UNL     1     -11.237   9.150  70.331  1.00  0.00    -0.279 C  
HETATM    2  C   UNL     1     -10.718   9.670  69.025  1.00  0.00    -0.211 C  
HETATM    3  O   UNL     1     -10.662   9.012  67.997  1.00  0.00    -0.208 OA 
ENDROOT
BRANCH   2   4
HETATM    4  O   UNL     1     -10.296  10.954  69.161  1.00  0.00    -0.211 OA 
BRANCH   4   5
HETATM    5  C   UNL     1     -10.329  11.775  67.964  1.00  0.00    -0.198 C  
HETATM    6  C   UNL     1     -11.765  12.250  67.749  1.00  0.00    -0.403 C  
HETATM    7  C   UNL     1     -11.818  13.114  66.525  1.00  0.00    -0.456 A  
HETATM    8  C   UNL     1     -12.365  12.634  65.326  1.00  0.00    -0.528 A  
HETATM    9  C   UNL     1     -12.359  13.435  64.184  1.00  0.00    -0.395 A  
HETATM   10  C   UNL     1     -11.806  14.710  64.229  1.00  0.00    -0.355 A  
HETATM   11  C   UNL     1     -11.263  15.193  65.422  1.00  0.00    -0.338 A  
HETATM   12  C   UNL     1     -11.264  14.398  66.577  1.00  0.00    -0.340 A  
HETATM   13  N   UNL     1     -10.736  14.900  67.810  1.00  0.00    -0.266 N  
HETATM   14  C   UNL     1      -9.272  12.859  68.169  1.00  0.00    -0.212 A  
HETATM   15  C   UNL     1      -9.515  14.254  68.252  1.00  0.00    -0.209 A  
HETATM   16  C   UNL     1      -8.452  15.069  68.698  1.00  0.00    -0.168 A  
HETATM   17  C   UNL     1      -7.955  12.376  68.379  1.00  0.00    -0.149 A  
HETATM   18  C   UNL     1      -6.918  13.216  68.768  1.00  0.00    -0.103 A  
HETATM   19  C   UNL     1      -7.178  14.560  68.967  1.00  0.00    -0.130 A  
BRANCH  13  20
HETATM   20  C   UNL     1     -11.165  16.119  68.358  1.00  0.00    -0.358 C  
HETATM   21  H1  UNL     1     -12.519  16.943  69.640  1.00  0.00     0.000 HD 
HETATM   22  O   UNL     1     -10.665  17.227  68.173  1.00  0.00    -0.377 OA 
HETATM   23  N   UNL     1     -12.207  16.058  69.242  1.00  0.00    -0.382 N  
HETATM   24  H2  UNL     1     -12.649  15.173  69.490  1.00  0.00     0.000 HD 
ENDBRANCH  13  20
ENDBRANCH   4   5
ENDBRANCH   2   4
TORSDOF 3
ENDMDL
MODEL       30
REMARK 921   NORMALIZED FREE ENERGY PREDICTED BY IDOCK:   -5.14 KCAL/MOL
REMARK 922        TOTAL FREE ENERGY PREDICTED BY IDOCK:   -6.59 KCAL/MOL
REMARK 923 INTER-LIGAND FREE ENERGY PREDICTED BY IDOCK:   -6.11 KCAL/MOL
REMARK 924 INTRA-LIGAND FREE ENERGY PREDICTED BY IDOCK:   -0.48 KCAL/MOL
REMARK 927      BINDING AFFINITY PREDICTED BY RF-SCORE:    0.00 PKD
ROOT
HETATM    1  C   UNL     1     -11.144  11.113  67.191  1.00  0.00    -0.352 C  
HETATM    2  C   UNL     1     -11.899  12.228  66.533  1.00  0.00    -0.306 C  
HETATM    3  O   UNL     1     -12.356  12.175  65.402  1.00  0.00    -0.533 OA 
ENDROOT
BRANCH   2   4
HETATM    4  O   UNL     1     -11.972  13.303  67.361  1.00  0.00    -0.363 OA 
BRANCH   4   5
HETATM    5  C   UNL     1     -10.730  13.724  67.982  1.00  0.00    -0.250 C  
HETATM    6  C   UNL     1      -9.897  14.461  66.936  1.00  0.00    -0.263 C  
HETATM    7  C   UNL     1      -8.615  14.920  67.562  1.00  0.00    -0.195 A  
HETATM    8  C   UNL     1      -7.403  14.268  67.288  1.00  0.00    -0.052 A  
HETATM    9  C   UNL     1      -6.230  14.677  67.921  1.00  0.00    -0.171 A  
HETATM   10  C   UNL     1      -6.257  15.731  68.828  1.00  0.00    -0.105 A  
HETATM   11  C   UNL     1      -7.460  16.384  69.101  1.00  0.00    -0.228 A  
HETATM   12  C   UNL     1      -8.647  15.983  68.471  1.00  0.00    -0.190 A  
HETATM   13  N   UNL     1      -9.877  16.671  68.726  1.00  0.00    -0.241 N  
HETATM   14  C   UNL     1     -11.130  14.521  69.223  1.00  0.00    -0.296 A  
HETATM   15  C   UNL     1     -10.864  15.895  69.453  1.00  0.00    -0.288 A  
HETATM   16  C   UNL     1     -11.533  16.512  70.533  1.00  0.00    -0.009 A  
HETATM   17  C   UNL     1     -11.915  13.806  70.164  1.00  0.00    -0.404 A  
HETATM   18  C   UNL     1     -12.518  14.435  71.247  1.00  0.00    -0.423 A  
HETATM   19  C   UNL     1     -12.358  15.800  71.409  1.00  0.00    -0.505 A  
BRANCH  13  20
HETATM   20  C   UNL     1      -9.991  18.063  68.584  1.00  0.00    -0.390 C  
HETATM   21  H1  UNL     1     -10.958  19.522  67.540  1.00  0.00     0.000 HD 
HETATM   22  O   UNL     1      -9.424  18.920  69.258  1.00  0.00    -0.181 OA 
HETATM   23  N   UNL     1     -10.876  18.511  67.643  1.00  0.00    -0.363 N  
HETATM   24  H2  UNL     1     -11.424  17.867  67.073  1.00  0.00     0.000 HD 
ENDBRANCH  13  20
ENDBRANCH   4   5
ENDBRANCH   2   4
TORSDOF 3
ENDMDL
MODEL       31
REMARK 921   NORMALIZED FREE ENERGY PREDICTED BY IDOCK:   -5.07 KCAL/MOL
REMARK 922        TOTAL FREE ENERGY PREDICTED BY IDOCK:   -6.52 KCAL/MOL
REMARK 923 INTER-LIGAND FREE ENERGY PREDICTED BY IDOCK:   -7.05 KCAL/MOL
REMARK 924 INTRA-LIGAND FREE ENERGY PREDICTED BY IDOCK:    0.53 KCAL/MOL
REMARK 927      BINDING AFFINITY PREDICTED BY RF-SCORE:    0.00 PKD
ROOT
HETATM    1  C   UNL     1     -13.002  11.851  63.740  1.00  0.00    -0.290 C  
HETATM    2  C   UNL     1     -12.193  13.093  63.519  1.00  0.00    -0.476 C  
HETATM    3  O   UNL     1     -12.667  14.214  63.422  1.00  0.00    -0.767 OA 
ENDROOT
BRANCH   2   4
HETATM    4  O   UNL     1     -10.873  12.785  63.415  1.00  0.00    -0.351 OA 
BRANCH   4   5
HETATM    5  C   UNL     1     -10.030  13.174  64.531  1.00  0.00    -0.110 C  
HETATM    6  C   UNL     1     -10.502  14.535  65.036  1.00  0.00    -0.454 C  
HETATM    7  C   UNL     1      -9.654  14.948  66.201  1.00  0.00    -0.340 A  
HETATM    8  C   UNL     1      -8.670  15.939  66.062  1.00  0.00    -0.223 A  
HETATM    9  C   UNL     1      -7.856  16.273  67.144  1.00  0.00    -0.225 A  
HETATM   10  C   UNL     1      -8.013  15.622  68.363  1.00  0.00    -0.136 A  
HETATM   11  C   UNL     1      -8.992  14.637  68.506  1.00  0.00    -0.184 A  
HETATM   12  C   UNL     1      -9.818  14.293  67.426  1.00  0.00    -0.235 A  
HETATM   13  N   UNL     1     -10.844  13.305  67.577  1.00  0.00    -0.259 N  
HETATM   14  C   UNL     1     -10.090  12.016  65.526  1.00  0.00    -0.281 A  
HETATM   15  C   UNL     1     -10.612  12.076  66.843  1.00  0.00    -0.229 A  
HETATM   16  C   UNL     1     -10.816  10.850  67.514  1.00  0.00    -0.324 A  
HETATM   17  C   UNL     1      -9.657  10.766  65.014  1.00  0.00    -0.305 A  
HETATM   18  C   UNL     1      -9.826   9.583  65.723  1.00  0.00    -0.363 A  
HETATM   19  C   UNL     1     -10.444   9.621  66.961  1.00  0.00    -0.302 A  
BRANCH  13  20
HETATM   20  C   UNL     1     -11.806  13.385  68.597  1.00  0.00    -0.362 C  
HETATM   21  H1  UNL     1     -13.186  14.623  69.442  1.00  0.00     0.000 HD 
HETATM   22  O   UNL     1     -12.140  12.486  69.365  1.00  0.00    -0.266 OA 
HETATM   23  N   UNL     1     -12.488  14.566  68.702  1.00  0.00    -0.566 N  
HETATM   24  H2  UNL     1     -12.307  15.348  68.072  1.00  0.00     0.000 HD 
ENDBRANCH  13  20
ENDBRANCH   4   5
ENDBRANCH   2   4
TORSDOF 3
ENDMDL
MODEL       32
REMARK 921   NORMALIZED FREE ENERGY PREDICTED BY IDOCK:   -5.06 KCAL/MOL
REMARK 922        TOTAL FREE ENERGY PREDICTED BY IDOCK:   -6.51 KCAL/MOL
REMARK 923 INTER-LIGAND FREE ENERGY PREDICTED BY IDOCK:   -6.25 KCAL/MOL
REMARK 924 INTRA-LIGAND FREE ENERGY PREDICTED BY IDOCK:   -0.25 KCAL/MOL
REMARK 927      BINDING AFFINITY PREDICTED BY RF-SCORE:    0.00 PKD
ROOT
HETATM    1  C   UNL     1     -12.661  11.737  63.451  1.00  0.00    -0.458 C  
HETATM    2  C   UNL     1     -12.094  13.105  63.684  1.00  0.00    -0.513 C  
HETATM    3  O   UNL     1     -12.630  14.141  63.323  1.00  0.00    -0.766 OA 
ENDROOT
BRANCH   2   4
HETATM    4  O   UNL     1     -10.897  13.019  64.321  1.00  0.00    -0.363 OA 
BRANCH   4   5
HETATM    5  C   UNL     1     -10.853  12.172  65.499  1.00  0.00    -0.283 C  
HETATM    6  C   UNL     1      -9.860  11.041  65.239  1.00  0.00    -0.309 C  
HETATM    7  C   UNL     1      -9.786  10.163  66.451  1.00  0.00    -0.279 A  
HETATM    8  C   UNL     1     -10.399   8.901  66.467  1.00  0.00    -0.267 A  
HETATM    9  C   UNL     1     -10.364   8.120  67.621  1.00  0.00    -0.313 A  
HETATM   10  C   UNL     1      -9.725   8.591  68.763  1.00  0.00    -0.168 A  
HETATM   11  C   UNL     1      -9.111   9.845  68.751  1.00  0.00    -0.147 A  
HETATM   12  C   UNL     1      -9.139  10.640  67.596  1.00  0.00    -0.142 A  
HETATM   13  N   UNL     1      -8.484  11.913  67.569  1.00  0.00    -0.153 N  
HETATM   14  C   UNL     1     -10.540  13.100  66.672  1.00  0.00    -0.284 A  
HETATM   15  C   UNL     1      -9.380  13.051  67.487  1.00  0.00    -0.200 A  
HETATM   16  C   UNL     1      -9.150  14.146  68.350  1.00  0.00    -0.191 A  
HETATM   17  C   UNL     1     -11.477  14.146  66.872  1.00  0.00    -0.373 A  
HETATM   18  C   UNL     1     -11.243  15.181  67.768  1.00  0.00    -0.327 A  
HETATM   19  C   UNL     1     -10.057  15.202  68.480  1.00  0.00    -0.228 A  
BRANCH  13  20
HETATM   20  C   UNL     1      -7.135  12.061  67.927  1.00  0.00    -0.097 C  
HETATM   21  H1  UNL     1      -5.271  12.376  67.167  1.00  0.00     0.000 HD 
HETATM   22  O   UNL     1      -6.674  12.083  69.067  1.00  0.00    -0.088 OA 
HETATM   23  N   UNL     1      -6.251  12.268  66.906  1.00  0.00    -0.302 N  
HETATM   24  H2  UNL     1      -6.555  12.314  65.934  1.00  0.00     0.000 HD 
ENDBRANCH  13  20
ENDBRANCH   4   5
ENDBRANCH   2   4
TORSDOF 3
ENDMDL
MODEL       33
REMARK 921   NORMALIZED FREE ENERGY PREDICTED BY IDOCK:   -5.03 KCAL/MOL
REMARK 922        TOTAL FREE ENERGY PREDICTED BY IDOCK:   -6.47 KCAL/MOL
REMARK 923 INTER-LIGAND FREE ENERGY PREDICTED BY IDOCK:   -6.38 KCAL/MOL
REMARK 924 INTRA-LIGAND FREE ENERGY PREDICTED BY IDOCK:   -0.09 KCAL/MOL
REMARK 927      BINDING AFFINITY PREDICTED BY RF-SCORE:    0.00 PKD
ROOT
HETATM    1  C   UNL     1     -14.142   7.655  71.335  1.00  0.00    -0.479 C  
HETATM    2  C   UNL     1     -13.015   8.566  71.715  1.00  0.00    -0.352 C  
HETATM    3  O   UNL     1     -12.133   8.274  72.507  1.00  0.00    -0.385 OA 
ENDROOT
BRANCH   2   4
HETATM    4  O   UNL     1     -13.136   9.760  71.078  1.00  0.00    -0.348 OA 
BRANCH   4   5
HETATM    5  C   UNL     1     -11.899  10.433  70.726  1.00  0.00    -0.368 C  
HETATM    6  C   UNL     1     -11.406   9.864  69.398  1.00  0.00    -0.143 C  
HETATM    7  C   UNL     1     -10.136  10.557  69.007  1.00  0.00    -0.230 A  
HETATM    8  C   UNL     1      -8.895   9.914  69.130  1.00  0.00    -0.165 A  
HETATM    9  C   UNL     1      -7.720  10.594  68.810  1.00  0.00    -0.117 A  
HETATM   10  C   UNL     1      -7.774  11.913  68.373  1.00  0.00    -0.131 A  
HETATM   11  C   UNL     1      -9.007  12.556  68.247  1.00  0.00    -0.178 A  
HETATM   12  C   UNL     1     -10.196  11.883  68.564  1.00  0.00    -0.215 A  
HETATM   13  N   UNL     1     -11.464  12.528  68.407  1.00  0.00    -0.287 N  
HETATM   14  C   UNL     1     -12.210  11.928  70.757  1.00  0.00    -0.401 A  
HETATM   15  C   UNL     1     -12.155  12.814  69.650  1.00  0.00    -0.222 A  
HETATM   16  C   UNL     1     -12.724  14.096  69.818  1.00  0.00     0.005 A  
HETATM   17  C   UNL     1     -12.679  12.415  72.004  1.00  0.00    -0.119 A  
HETATM   18  C   UNL     1     -13.185  13.702  72.147  1.00  0.00    -0.541 A  
HETATM   19  C   UNL     1     -13.243  14.530  71.041  1.00  0.00    -0.414 A  
BRANCH  13  20
HETATM   20  C   UNL     1     -11.846  13.128  67.196  1.00  0.00    -0.369 C  
HETATM   21  H1  UNL     1     -11.805  14.884  66.162  1.00  0.00     0.000 HD 
HETATM   22  O   UNL     1     -12.383  12.575  66.238  1.00  0.00    -0.570 OA 
HETATM   23  N   UNL     1     -11.528  14.448  67.042  1.00  0.00    -0.346 N  
HETATM   24  H2  UNL     1     -11.038  14.971  67.767  1.00  0.00     0.000 HD 
ENDBRANCH  13  20
ENDBRANCH   4   5
ENDBRANCH   2   4
TORSDOF 3
ENDMDL
MODEL       34
REMARK 921   NORMALIZED FREE ENERGY PREDICTED BY IDOCK:   -5.00 KCAL/MOL
REMARK 922        TOTAL FREE ENERGY PREDICTED BY IDOCK:   -6.43 KCAL/MOL
REMARK 923 INTER-LIGAND FREE ENERGY PREDICTED BY IDOCK:   -5.92 KCAL/MOL
REMARK 924 INTRA-LIGAND FREE ENERGY PREDICTED BY IDOCK:   -0.51 KCAL/MOL
REMARK 927      BINDING AFFINITY PREDICTED BY RF-SCORE:    0.00 PKD
ROOT
HETATM    1  C   UNL     1     -11.523  15.109  67.777  1.00  0.00    -0.329 C  
HETATM    2  C   UNL     1     -11.718  14.048  66.737  1.00  0.00    -0.407 C  
HETATM    3  O   UNL     1     -12.648  14.025  65.945  1.00  0.00    -0.488 OA 
ENDROOT
BRANCH   2   4
HETATM    4  O   UNL     1     -10.737  13.112  66.825  1.00  0.00    -0.265 OA 
BRANCH   4   5
HETATM    5  C   UNL     1     -10.676  12.355  68.063  1.00  0.00    -0.223 C  
HETATM    6  C   UNL     1     -11.887  11.425  68.115  1.00  0.00    -0.288 C  
HETATM    7  C   UNL     1     -11.834  10.621  69.379  1.00  0.00    -0.325 A  
HETATM    8  C   UNL     1     -12.685  10.912  70.455  1.00  0.00    -0.363 A  
HETATM    9  C   UNL     1     -12.586  10.187  71.642  1.00  0.00    -0.533 A  
HETATM   10  C   UNL     1     -11.640   9.174  71.764  1.00  0.00    -0.457 A  
HETATM   11  C   UNL     1     -10.793   8.879  70.693  1.00  0.00    -0.286 A  
HETATM   12  C   UNL     1     -10.884   9.601  69.494  1.00  0.00    -0.231 A  
HETATM   13  N   UNL     1     -10.038   9.281  68.384  1.00  0.00    -0.183 N  
HETATM   14  C   UNL     1      -9.301  11.690  68.081  1.00  0.00    -0.188 A  
HETATM   15  C   UNL     1      -9.050  10.295  68.066  1.00  0.00    -0.132 A  
HETATM   16  C   UNL     1      -7.721   9.879  67.827  1.00  0.00    -0.091 A  
HETATM   17  C   UNL     1      -8.203  12.587  68.016  1.00  0.00    -0.166 A  
HETATM   18  C   UNL     1      -6.900  12.141  67.832  1.00  0.00    -0.095 A  
HETATM   19  C   UNL     1      -6.664  10.785  67.697  1.00  0.00    -0.069 A  
BRANCH  13  20
HETATM   20  C   UNL     1      -9.950   7.978  67.871  1.00  0.00    -0.180 C  
HETATM   21  H1  UNL     1     -10.394   6.832  66.245  1.00  0.00     0.000 HD 
HETATM   22  O   UNL     1      -9.409   7.012  68.405  1.00  0.00    -0.132 OA 
HETATM   23  N   UNL     1     -10.459   7.779  66.618  1.00  0.00    -0.491 N  
HETATM   24  H2  UNL     1     -10.882   8.537  66.083  1.00  0.00     0.000 HD 
ENDBRANCH  13  20
ENDBRANCH   4   5
ENDBRANCH   2   4
TORSDOF 3
ENDMDL
MODEL       35
REMARK 921   NORMALIZED FREE ENERGY PREDICTED BY IDOCK:   -4.99 KCAL/MOL
REMARK 922        TOTAL FREE ENERGY PREDICTED BY IDOCK:   -6.42 KCAL/MOL
REMARK 923 INTER-LIGAND FREE ENERGY PREDICTED BY IDOCK:   -6.43 KCAL/MOL
REMARK 924 INTRA-LIGAND FREE ENERGY PREDICTED BY IDOCK:    0.01 KCAL/MOL
REMARK 927      BINDING AFFINITY PREDICTED BY RF-SCORE:    0.00 PKD
ROOT
HETATM    1  C   UNL     1      -6.491  16.383  69.417  1.00  0.00    -0.206 C  
HETATM    2  C   UNL     1      -6.141  15.698  68.132  1.00  0.00    -0.129 C  
HETATM    3  O   UNL     1      -5.463  14.684  68.056  1.00  0.00    -0.122 OA 
ENDROOT
BRANCH   2   4
HETATM    4  O   UNL     1      -6.658  16.379  67.076  1.00  0.00    -0.185 OA 
BRANCH   4   5
HETATM    5  C   UNL     1      -7.962  15.948  66.606  1.00  0.00    -0.235 C  
HETATM    6  C   UNL     1      -8.241  14.559  67.176  1.00  0.00    -0.214 C  
HETATM    7  C   UNL     1      -9.592  14.101  66.715  1.00  0.00    -0.290 A  
HETATM    8  C   UNL     1      -9.722  13.129  65.712  1.00  0.00    -0.151 A  
HETATM    9  C   UNL     1     -10.987  12.754  65.260  1.00  0.00    -0.314 A  
HETATM   10  C   UNL     1     -12.124  13.345  65.799  1.00  0.00    -0.481 A  
HETATM   11  C   UNL     1     -11.999  14.311  66.800  1.00  0.00    -0.462 A  
HETATM   12  C   UNL     1     -10.733  14.697  67.263  1.00  0.00    -0.290 A  
HETATM   13  N   UNL     1     -10.603  15.664  68.311  1.00  0.00    -0.254 N  
HETATM   14  C   UNL     1      -8.937  17.057  66.997  1.00  0.00    -0.236 A  
HETATM   15  C   UNL     1     -10.027  16.930  67.895  1.00  0.00    -0.274 A  
HETATM   16  C   UNL     1     -10.653  18.120  68.326  1.00  0.00    -0.267 A  
HETATM   17  C   UNL     1      -8.635  18.335  66.459  1.00  0.00    -0.283 A  
HETATM   18  C   UNL     1      -9.306  19.481  66.867  1.00  0.00    -0.424 A  
HETATM   19  C   UNL     1     -10.292  19.378  67.833  1.00  0.00    -0.542 A  
BRANCH  13  20
HETATM   20  C   UNL     1     -11.273  15.526  69.536  1.00  0.00    -0.299 C  
HETATM   21  H1  UNL     1     -11.002  15.041  71.497  1.00  0.00     0.000 HD 
HETATM   22  O   UNL     1     -12.457  15.770  69.759  1.00  0.00    -0.262 OA 
HETATM   23  N   UNL     1     -10.515  15.142  70.607  1.00  0.00    -0.511 N  
HETATM   24  H2  UNL     1      -9.514  14.966  70.521  1.00  0.00     0.000 HD 
ENDBRANCH  13  20
ENDBRANCH   4   5
ENDBRANCH   2   4
TORSDOF 3
ENDMDL
MODEL       36
REMARK 921   NORMALIZED FREE ENERGY PREDICTED BY IDOCK:   -4.99 KCAL/MOL
REMARK 922        TOTAL FREE ENERGY PREDICTED BY IDOCK:   -6.42 KCAL/MOL
REMARK 923 INTER-LIGAND FREE ENERGY PREDICTED BY IDOCK:   -6.11 KCAL/MOL
REMARK 924 INTRA-LIGAND FREE ENERGY PREDICTED BY IDOCK:   -0.30 KCAL/MOL
REMARK 927      BINDING AFFINITY PREDICTED BY RF-SCORE:    0.00 PKD
ROOT
HETATM    1  C   UNL     1      -9.229   9.942  63.506  1.00  0.00    -0.279 C  
HETATM    2  C   UNL     1     -10.064  11.065  64.042  1.00  0.00    -0.350 C  
HETATM    3  O   UNL     1     -10.275  12.109  63.445  1.00  0.00    -0.433 OA 
ENDROOT
BRANCH   2   4
HETATM    4  O   UNL     1     -10.519  10.764  65.287  1.00  0.00    -0.270 OA 
BRANCH   4   5
HETATM    5  C   UNL     1     -10.393  11.807  66.289  1.00  0.00    -0.224 C  
HETATM    6  C   UNL     1     -11.776  12.406  66.534  1.00  0.00    -0.443 C  
HETATM    7  C   UNL     1     -11.670  13.474  67.580  1.00  0.00    -0.403 A  
HETATM    8  C   UNL     1     -11.732  14.833  67.233  1.00  0.00    -0.366 A  
HETATM    9  C   UNL     1     -11.580  15.813  68.214  1.00  0.00    -0.302 A  
HETATM   10  C   UNL     1     -11.362  15.447  69.538  1.00  0.00    -0.308 A  
HETATM   11  C   UNL     1     -11.303  14.096  69.887  1.00  0.00    -0.232 A  
HETATM   12  C   UNL     1     -11.455  13.101  68.911  1.00  0.00    -0.298 A  
HETATM   13  N   UNL     1     -11.426  11.715  69.270  1.00  0.00    -0.274 N  
HETATM   14  C   UNL     1      -9.708  11.154  67.489  1.00  0.00    -0.193 A  
HETATM   15  C   UNL     1     -10.269  10.989  68.781  1.00  0.00    -0.198 A  
HETATM   16  C   UNL     1      -9.587  10.138  69.679  1.00  0.00    -0.237 A  
HETATM   17  C   UNL     1      -8.432  10.596  67.217  1.00  0.00    -0.126 A  
HETATM   18  C   UNL     1      -7.763   9.805  68.144  1.00  0.00    -0.082 A  
HETATM   19  C   UNL     1      -8.362   9.543  69.363  1.00  0.00    -0.140 A  
BRANCH  13  20
HETATM   20  C   UNL     1     -12.255  11.192  70.275  1.00  0.00    -0.352 C  
HETATM   21  H1  UNL     1     -13.616   9.727  70.667  1.00  0.00     0.000 HD 
HETATM   22  O   UNL     1     -12.324  11.570  71.443  1.00  0.00    -0.260 OA 
HETATM   23  N   UNL     1     -13.014  10.107  69.936  1.00  0.00    -0.344 N  
HETATM   24  H2  UNL     1     -12.981   9.699  69.003  1.00  0.00     0.000 HD 
ENDBRANCH  13  20
ENDBRANCH   4   5
ENDBRANCH   2   4
TORSDOF 3
ENDMDL
MODEL       37
REMARK 921   NORMALIZED FREE ENERGY PREDICTED BY IDOCK:   -4.98 KCAL/MOL
REMARK 922        TOTAL FREE ENERGY PREDICTED BY IDOCK:   -6.41 KCAL/MOL
REMARK 923 INTER-LIGAND FREE ENERGY PREDICTED BY IDOCK:   -6.04 KCAL/MOL
REMARK 924 INTRA-LIGAND FREE ENERGY PREDICTED BY IDOCK:   -0.36 KCAL/MOL
REMARK 927      BINDING AFFINITY PREDICTED BY RF-SCORE:    0.00 PKD
ROOT
HETATM    1  C   UNL     1      -9.392   4.932  73.302  1.00  0.00    -0.131 C  
HETATM    2  C   UNL     1     -10.675   5.211  72.580  1.00  0.00    -0.229 C  
HETATM    3  O   UNL     1     -11.784   4.996  73.042  1.00  0.00    -0.297 OA 
ENDROOT
BRANCH   2   4
HETATM    4  O   UNL     1     -10.422   5.704  71.339  1.00  0.00    -0.222 OA 
BRANCH   4   5
HETATM    5  C   UNL     1     -11.143   6.906  70.963  1.00  0.00    -0.266 C  
HETATM    6  C   UNL     1     -10.773   8.015  71.946  1.00  0.00    -0.311 C  
HETATM    7  C   UNL     1     -11.495   9.272  71.564  1.00  0.00    -0.454 A  
HETATM    8  C   UNL     1     -12.600   9.721  72.303  1.00  0.00    -0.264 A  
HETATM    9  C   UNL     1     -13.291  10.864  71.902  1.00  0.00    -0.429 A  
HETATM   10  C   UNL     1     -12.890  11.560  70.767  1.00  0.00    -0.222 A  
HETATM   11  C   UNL     1     -11.789  11.117  70.031  1.00  0.00    -0.441 A  
HETATM   12  C   UNL     1     -11.085   9.970  70.424  1.00  0.00    -0.327 A  
HETATM   13  N   UNL     1      -9.937   9.530  69.690  1.00  0.00    -0.191 N  
HETATM   14  C   UNL     1     -10.807   7.155  69.493  1.00  0.00    -0.244 A  
HETATM   15  C   UNL     1     -10.119   8.281  68.974  1.00  0.00    -0.202 A  
HETATM   16  C   UNL     1      -9.678   8.209  67.634  1.00  0.00    -0.200 A  
HETATM   17  C   UNL     1     -11.154   6.096  68.614  1.00  0.00    -0.378 A  
HETATM   18  C   UNL     1     -10.747   6.081  67.286  1.00  0.00    -0.400 A  
HETATM   19  C   UNL     1      -9.973   7.123  66.806  1.00  0.00    -0.278 A  
BRANCH  13  20
HETATM   20  C   UNL     1      -8.860  10.388  69.415  1.00  0.00    -0.123 C  
HETATM   21  H1  UNL     1      -6.932  10.801  69.930  1.00  0.00     0.000 HD 
HETATM   22  O   UNL     1      -8.820  11.267  68.557  1.00  0.00    -0.154 OA 
HETATM   23  N   UNL     1      -7.714  10.178  70.130  1.00  0.00    -0.281 N  
HETATM   24  H2  UNL     1      -7.645   9.437  70.827  1.00  0.00     0.000 HD 
ENDBRANCH  13  20
ENDBRANCH   4   5
ENDBRANCH   2   4
TORSDOF 3
ENDMDL
MODEL       38
REMARK 921   NORMALIZED FREE ENERGY PREDICTED BY IDOCK:   -4.95 KCAL/MOL
REMARK 922        TOTAL FREE ENERGY PREDICTED BY IDOCK:   -6.37 KCAL/MOL
REMARK 923 INTER-LIGAND FREE ENERGY PREDICTED BY IDOCK:   -6.11 KCAL/MOL
REMARK 924 INTRA-LIGAND FREE ENERGY PREDICTED BY IDOCK:   -0.26 KCAL/MOL
REMARK 927      BINDING AFFINITY PREDICTED BY RF-SCORE:    0.00 PKD
ROOT
HETATM    1  C   UNL     1     -11.063   6.799  67.117  1.00  0.00    -0.404 C  
HETATM    2  C   UNL     1     -10.241   8.035  66.910  1.00  0.00    -0.315 C  
HETATM    3  O   UNL     1      -9.127   8.043  66.409  1.00  0.00    -0.164 OA 
ENDROOT
BRANCH   2   4
HETATM    4  O   UNL     1     -10.898   9.125  67.385  1.00  0.00    -0.243 OA 
BRANCH   4   5
HETATM    5  C   UNL     1     -10.072  10.202  67.901  1.00  0.00    -0.176 C  
HETATM    6  C   UNL     1      -9.715  11.130  66.742  1.00  0.00    -0.220 C  
HETATM    7  C   UNL     1      -8.876  12.259  67.257  1.00  0.00    -0.190 A  
HETATM    8  C   UNL     1      -7.495  12.302  67.014  1.00  0.00    -0.063 A  
HETATM    9  C   UNL     1      -6.722  13.334  67.545  1.00  0.00    -0.156 A  
HETATM   10  C   UNL     1      -7.317  14.323  68.322  1.00  0.00    -0.124 A  
HETATM   11  C   UNL     1      -8.692  14.285  68.564  1.00  0.00    -0.175 A  
HETATM   12  C   UNL     1      -9.480  13.253  68.035  1.00  0.00    -0.219 A  
HETATM   13  N   UNL     1     -10.895  13.228  68.255  1.00  0.00    -0.248 N  
HETATM   14  C   UNL     1     -10.862  10.820  69.054  1.00  0.00    -0.278 A  
HETATM   15  C   UNL     1     -11.354  12.149  69.109  1.00  0.00    -0.276 A  
HETATM   16  C   UNL     1     -12.276  12.456  70.135  1.00  0.00    -0.303 A  
HETATM   17  C   UNL     1     -11.187   9.923  70.104  1.00  0.00    -0.347 A  
HETATM   18  C   UNL     1     -12.057  10.274  71.128  1.00  0.00    -0.494 A  
HETATM   19  C   UNL     1     -12.634  11.532  71.121  1.00  0.00    -0.463 A  
BRANCH  13  20
HETATM   20  C   UNL     1     -11.712  14.330  67.955  1.00  0.00    -0.359 C  
HETATM   21  H1  UNL     1     -13.057  15.041  66.599  1.00  0.00     0.000 HD 
HETATM   22  O   UNL     1     -11.866  15.340  68.639  1.00  0.00    -0.346 OA 
HETATM   23  N   UNL     1     -12.463  14.240  66.817  1.00  0.00    -0.547 N  
HETATM   24  H2  UNL     1     -12.433  13.416  66.217  1.00  0.00     0.000 HD 
ENDBRANCH  13  20
ENDBRANCH   4   5
ENDBRANCH   2   4
TORSDOF 3
ENDMDL
MODEL       39
REMARK 921   NORMALIZED FREE ENERGY PREDICTED BY IDOCK:   -4.91 KCAL/MOL
REMARK 922        TOTAL FREE ENERGY PREDICTED BY IDOCK:   -6.32 KCAL/MOL
REMARK 923 INTER-LIGAND FREE ENERGY PREDICTED BY IDOCK:   -5.91 KCAL/MOL
REMARK 924 INTRA-LIGAND FREE ENERGY PREDICTED BY IDOCK:   -0.41 KCAL/MOL
REMARK 927      BINDING AFFINITY PREDICTED BY RF-SCORE:    0.00 PKD
ROOT
HETATM    1  C   UNL     1      -8.531   8.333  65.122  1.00  0.00    -0.164 C  
HETATM    2  C   UNL     1      -9.600   9.014  65.922  1.00  0.00    -0.247 C  
HETATM    3  O   UNL     1     -10.347   8.440  66.699  1.00  0.00    -0.303 OA 
ENDROOT
BRANCH   2   4
HETATM    4  O   UNL     1      -9.632  10.341  65.635  1.00  0.00    -0.198 OA 
BRANCH   4   5
HETATM    5  C   UNL     1     -10.539  11.151  66.428  1.00  0.00    -0.261 C  
HETATM    6  C   UNL     1      -9.759  11.731  67.605  1.00  0.00    -0.186 C  
HETATM    7  C   UNL     1     -10.674  12.586  68.428  1.00  0.00    -0.259 A  
HETATM    8  C   UNL     1     -11.162  12.137  69.665  1.00  0.00    -0.137 A  
HETATM    9  C   UNL     1     -12.054  12.925  70.392  1.00  0.00    -0.385 A  
HETATM   10  C   UNL     1     -12.467  14.155  69.893  1.00  0.00    -0.313 A  
HETATM   11  C   UNL     1     -11.981  14.606  68.663  1.00  0.00    -0.305 A  
HETATM   12  C   UNL     1     -11.083  13.825  67.923  1.00  0.00    -0.264 A  
HETATM   13  N   UNL     1     -10.559  14.297  66.677  1.00  0.00    -0.276 N  
HETATM   14  C   UNL     1     -11.162  12.155  65.458  1.00  0.00    -0.381 A  
HETATM   15  C   UNL     1     -11.018  13.564  65.512  1.00  0.00    -0.288 A  
HETATM   16  C   UNL     1     -11.452  14.302  64.388  1.00  0.00    -0.321 A  
HETATM   17  C   UNL     1     -11.866  11.576  64.371  1.00  0.00    -0.063 A  
HETATM   18  C   UNL     1     -12.326  12.339  63.304  1.00  0.00    -0.518 A  
HETATM   19  C   UNL     1     -12.082  13.701  63.295  1.00  0.00    -0.096 A  
BRANCH  13  20
HETATM   20  C   UNL     1      -9.935  15.549  66.562  1.00  0.00    -0.269 C  
HETATM   21  H1  UNL     1      -8.129  16.452  66.290  1.00  0.00     0.000 HD 
HETATM   22  O   UNL     1     -10.487  16.648  66.554  1.00  0.00    -0.302 OA 
HETATM   23  N   UNL     1      -8.581  15.543  66.373  1.00  0.00    -0.375 N  
HETATM   24  H2  UNL     1      -8.052  14.673  66.318  1.00  0.00     0.000 HD 
ENDBRANCH  13  20
ENDBRANCH   4   5
ENDBRANCH   2   4
TORSDOF 3
ENDMDL
MODEL       40
REMARK 921   NORMALIZED FREE ENERGY PREDICTED BY IDOCK:   -4.88 KCAL/MOL
REMARK 922        TOTAL FREE ENERGY PREDICTED BY IDOCK:   -6.29 KCAL/MOL
REMARK 923 INTER-LIGAND FREE ENERGY PREDICTED BY IDOCK:   -5.90 KCAL/MOL
REMARK 924 INTRA-LIGAND FREE ENERGY PREDICTED BY IDOCK:   -0.39 KCAL/MOL
REMARK 927      BINDING AFFINITY PREDICTED BY RF-SCORE:    0.00 PKD
ROOT
HETATM    1  C   UNL     1     -11.343  12.366  63.570  1.00  0.00    -0.553 C  
HETATM    2  C   UNL     1     -10.422  12.722  64.698  1.00  0.00    -0.350 C  
HETATM    3  O   UNL     1     -10.297  13.848  65.153  1.00  0.00    -0.349 OA 
ENDROOT
BRANCH   2   4
HETATM    4  O   UNL     1      -9.735  11.625  65.111  1.00  0.00    -0.235 OA 
BRANCH   4   5
HETATM    5  C   UNL     1      -9.817  11.307  66.525  1.00  0.00    -0.208 C  
HETATM    6  C   UNL     1     -11.252  10.893  66.841  1.00  0.00    -0.162 C  
HETATM    7  C   UNL     1     -11.355  10.544  68.295  1.00  0.00    -0.332 A  
HETATM    8  C   UNL     1     -11.974  11.415  69.204  1.00  0.00    -0.395 A  
HETATM    9  C   UNL     1     -12.014  11.097  70.562  1.00  0.00    -0.475 A  
HETATM   10  C   UNL     1     -11.436   9.917  71.019  1.00  0.00    -0.466 A  
HETATM   11  C   UNL     1     -10.821   9.047  70.117  1.00  0.00    -0.261 A  
HETATM   12  C   UNL     1     -10.775   9.354  68.749  1.00  0.00    -0.171 A  
HETATM   13  N   UNL     1     -10.173   8.450  67.817  1.00  0.00    -0.211 N  
HETATM   14  C   UNL     1      -8.731  10.264  66.785  1.00  0.00    -0.132 A  
HETATM   15  C   UNL     1      -8.943   8.931  67.218  1.00  0.00    -0.128 A  
HETATM   16  C   UNL     1      -7.843   8.047  67.153  1.00  0.00    -0.105 A  
HETATM   17  C   UNL     1      -7.413  10.682  66.466  1.00  0.00    -0.134 A  
HETATM   18  C   UNL     1      -6.342   9.797  66.462  1.00  0.00    -0.069 A  
HETATM   19  C   UNL     1      -6.566   8.467  66.769  1.00  0.00    -0.057 A  
BRANCH  13  20
HETATM   20  C   UNL     1     -10.551   7.100  67.744  1.00  0.00    -0.225 C  
HETATM   21  H1  UNL     1     -11.673   5.776  66.677  1.00  0.00     0.000 HD 
HETATM   22  O   UNL     1     -10.152   6.184  68.461  1.00  0.00    -0.142 OA 
HETATM   23  N   UNL     1     -11.400   6.756  66.729  1.00  0.00    -0.739 N  
HETATM   24  H2  UNL     1     -11.741   7.445  66.059  1.00  0.00     0.000 HD 
ENDBRANCH  13  20
ENDBRANCH   4   5
ENDBRANCH   2   4
TORSDOF 3
ENDMDL
MODEL       41
REMARK 921   NORMALIZED FREE ENERGY PREDICTED BY IDOCK:   -4.86 KCAL/MOL
REMARK 922        TOTAL FREE ENERGY PREDICTED BY IDOCK:   -6.26 KCAL/MOL
REMARK 923 INTER-LIGAND FREE ENERGY PREDICTED BY IDOCK:   -5.78 KCAL/MOL
REMARK 924 INTRA-LIGAND FREE ENERGY PREDICTED BY IDOCK:   -0.48 KCAL/MOL
REMARK 927      BINDING AFFINITY PREDICTED BY RF-SCORE:    0.00 PKD
ROOT
HETATM    1  C   UNL     1     -12.309  13.239  70.693  1.00  0.00    -0.416 C  
HETATM    2  C   UNL     1     -12.768  11.836  70.949  1.00  0.00    -0.235 C  
HETATM    3  O   UNL     1     -13.334  11.474  71.970  1.00  0.00    -0.476 OA 
ENDROOT
BRANCH   2   4
HETATM    4  O   UNL     1     -12.439  11.031  69.905  1.00  0.00    -0.299 OA 
BRANCH   4   5
HETATM    5  C   UNL     1     -11.097  10.479  69.914  1.00  0.00    -0.307 C  
HETATM    6  C   UNL     1     -11.144   9.117  70.603  1.00  0.00    -0.320 C  
HETATM    7  C   UNL     1      -9.769   8.521  70.608  1.00  0.00    -0.207 A  
HETATM    8  C   UNL     1      -9.000   8.489  71.781  1.00  0.00    -0.288 A  
HETATM    9  C   UNL     1      -7.703   7.978  71.754  1.00  0.00    -0.107 A  
HETATM   10  C   UNL     1      -7.165   7.501  70.563  1.00  0.00    -0.064 A  
HETATM   11  C   UNL     1      -7.929   7.528  69.394  1.00  0.00    -0.123 A  
HETATM   12  C   UNL     1      -9.234   8.039  69.408  1.00  0.00    -0.152 A  
HETATM   13  N   UNL     1     -10.031   8.040  68.218  1.00  0.00    -0.179 N  
HETATM   14  C   UNL     1     -10.627  10.495  68.460  1.00  0.00    -0.234 A  
HETATM   15  C   UNL     1     -10.305   9.358  67.676  1.00  0.00    -0.246 A  
HETATM   16  C   UNL     1     -10.141   9.555  66.287  1.00  0.00    -0.327 A  
HETATM   17  C   UNL     1     -10.611  11.776  67.851  1.00  0.00    -0.231 A  
HETATM   18  C   UNL     1     -10.394  11.940  66.489  1.00  0.00    -0.249 A  
HETATM   19  C   UNL     1     -10.198  10.821  65.698  1.00  0.00    -0.320 A  
BRANCH  13  20
HETATM   20  C   UNL     1     -10.240   6.874  67.465  1.00  0.00    -0.194 C  
HETATM   21  H1  UNL     1     -11.660   5.520  66.915  1.00  0.00     0.000 HD 
HETATM   22  O   UNL     1      -9.415   6.296  66.759  1.00  0.00    -0.136 OA 
HETATM   23  N   UNL     1     -11.509   6.367  67.463  1.00  0.00    -0.675 N  
HETATM   24  H2  UNL     1     -12.266   6.812  67.982  1.00  0.00     0.000 HD 
ENDBRANCH  13  20
ENDBRANCH   4   5
ENDBRANCH   2   4
TORSDOF 3
ENDMDL
MODEL       42
REMARK 921   NORMALIZED FREE ENERGY PREDICTED BY IDOCK:   -4.80 KCAL/MOL
REMARK 922        TOTAL FREE ENERGY PREDICTED BY IDOCK:   -6.19 KCAL/MOL
REMARK 923 INTER-LIGAND FREE ENERGY PREDICTED BY IDOCK:   -5.83 KCAL/MOL
REMARK 924 INTRA-LIGAND FREE ENERGY PREDICTED BY IDOCK:   -0.37 KCAL/MOL
REMARK 927      BINDING AFFINITY PREDICTED BY RF-SCORE:    0.00 PKD
ROOT
HETATM    1  C   UNL     1      -5.655  10.344  68.217  1.00  0.00    -0.037 C  
HETATM    2  C   UNL     1      -6.029  11.561  67.427  1.00  0.00    -0.082 C  
HETATM    3  O   UNL     1      -5.553  11.847  66.339  1.00  0.00    -0.284 OA 
ENDROOT
BRANCH   2   4
HETATM    4  O   UNL     1      -6.941  12.305  68.106  1.00  0.00    -0.074 OA 
BRANCH   4   5
HETATM    5  C   UNL     1      -8.071  12.798  67.339  1.00  0.00    -0.185 C  
HETATM    6  C   UNL     1      -9.277  11.912  67.640  1.00  0.00    -0.183 C  
HETATM    7  C   UNL     1     -10.461  12.415  66.870  1.00  0.00    -0.243 A  
HETATM    8  C   UNL     1     -10.923  11.738  65.732  1.00  0.00    -0.353 A  
HETATM    9  C   UNL     1     -11.993  12.250  64.999  1.00  0.00    -0.413 A  
HETATM   10  C   UNL     1     -12.603  13.436  65.391  1.00  0.00    -0.528 A  
HETATM   11  C   UNL     1     -12.148  14.112  66.525  1.00  0.00    -0.481 A  
HETATM   12  C   UNL     1     -11.074  13.607  67.272  1.00  0.00    -0.293 A  
HETATM   13  N   UNL     1     -10.625  14.281  68.453  1.00  0.00    -0.246 N  
HETATM   14  C   UNL     1      -8.204  14.279  67.693  1.00  0.00    -0.193 A  
HETATM   15  C   UNL     1      -9.310  14.885  68.340  1.00  0.00    -0.197 A  
HETATM   16  C   UNL     1      -9.141  16.206  68.811  1.00  0.00    -0.229 A  
HETATM   17  C   UNL     1      -7.057  15.065  67.412  1.00  0.00    -0.206 A  
HETATM   18  C   UNL     1      -6.943  16.380  67.845  1.00  0.00    -0.154 A  
HETATM   19  C   UNL     1      -7.973  16.939  68.581  1.00  0.00    -0.256 A  
BRANCH  13  20
HETATM   20  C   UNL     1     -11.503  14.614  69.496  1.00  0.00    -0.297 C  
HETATM   21  H1  UNL     1     -12.333  13.907  71.218  1.00  0.00     0.000 HD 
HETATM   22  O   UNL     1     -12.071  15.691  69.664  1.00  0.00    -0.364 OA 
HETATM   23  N   UNL     1     -11.695  13.664  70.460  1.00  0.00    -0.527 N  
HETATM   24  H2  UNL     1     -11.224  12.760  70.424  1.00  0.00     0.000 HD 
ENDBRANCH  13  20
ENDBRANCH   4   5
ENDBRANCH   2   4
TORSDOF 3
ENDMDL
MODEL       43
REMARK 921   NORMALIZED FREE ENERGY PREDICTED BY IDOCK:   -4.74 KCAL/MOL
REMARK 922        TOTAL FREE ENERGY PREDICTED BY IDOCK:   -6.13 KCAL/MOL
REMARK 923 INTER-LIGAND FREE ENERGY PREDICTED BY IDOCK:   -5.59 KCAL/MOL
REMARK 924 INTRA-LIGAND FREE ENERGY PREDICTED BY IDOCK:   -0.54 KCAL/MOL
REMARK 927      BINDING AFFINITY PREDICTED BY RF-SCORE:    0.00 PKD
ROOT
HETATM    1  C   UNL     1     -12.141  12.624  69.896  1.00  0.00    -0.322 C  
HETATM    2  C   UNL     1     -12.127  11.141  69.684  1.00  0.00    -0.336 C  
HETATM    3  O   UNL     1     -12.335  10.319  70.563  1.00  0.00    -0.289 OA 
ENDROOT
BRANCH   2   4
HETATM    4  O   UNL     1     -11.823  10.850  68.392  1.00  0.00    -0.498 OA 
BRANCH   4   5
HETATM    5  C   UNL     1     -10.548  11.342  67.902  1.00  0.00    -0.189 C  
HETATM    6  C   UNL     1      -9.458  10.370  68.345  1.00  0.00    -0.151 C  
HETATM    7  C   UNL     1      -8.133  10.851  67.835  1.00  0.00    -0.113 A  
HETATM    8  C   UNL     1      -7.202  11.451  68.697  1.00  0.00    -0.100 A  
HETATM    9  C   UNL     1      -5.997  11.939  68.194  1.00  0.00    -0.051 A  
HETATM   10  C   UNL     1      -5.715  11.838  66.835  1.00  0.00    -0.142 A  
HETATM   11  C   UNL     1      -6.638  11.239  65.975  1.00  0.00     0.115 A  
HETATM   12  C   UNL     1      -7.853  10.743  66.468  1.00  0.00    -0.145 A  
HETATM   13  N   UNL     1      -8.789  10.101  65.595  1.00  0.00    -0.158 N  
HETATM   14  C   UNL     1     -10.723  11.535  66.396  1.00  0.00    -0.320 A  
HETATM   15  C   UNL     1     -10.019  10.839  65.380  1.00  0.00    -0.271 A  
HETATM   16  C   UNL     1     -10.498  10.967  64.058  1.00  0.00    -0.433 A  
HETATM   17  C   UNL     1     -11.755  12.434  66.025  1.00  0.00    -0.469 A  
HETATM   18  C   UNL     1     -12.168  12.574  64.706  1.00  0.00    -0.532 A  
HETATM   19  C   UNL     1     -11.564  11.809  63.725  1.00  0.00    -0.508 A  
BRANCH  13  20
HETATM   20  C   UNL     1      -8.415   9.033  64.765  1.00  0.00    -0.180 C  
HETATM   21  H1  UNL     1      -8.478   7.003  64.591  1.00  0.00     0.000 HD 
HETATM   22  O   UNL     1      -7.872   9.110  63.665  1.00  0.00    -0.123 OA 
HETATM   23  N   UNL     1      -8.750   7.779  65.195  1.00  0.00    -0.370 N  
HETATM   24  H2  UNL     1      -9.245   7.627  66.073  1.00  0.00     0.000 HD 
ENDBRANCH  13  20
ENDBRANCH   4   5
ENDBRANCH   2   4
TORSDOF 3
ENDMDL
MODEL       44
REMARK 921   NORMALIZED FREE ENERGY PREDICTED BY IDOCK:   -4.71 KCAL/MOL
REMARK 922        TOTAL FREE ENERGY PREDICTED BY IDOCK:   -6.09 KCAL/MOL
REMARK 923 INTER-LIGAND FREE ENERGY PREDICTED BY IDOCK:   -5.73 KCAL/MOL
REMARK 924 INTRA-LIGAND FREE ENERGY PREDICTED BY IDOCK:   -0.36 KCAL/MOL
REMARK 927      BINDING AFFINITY PREDICTED BY RF-SCORE:    0.00 PKD
ROOT
HETATM    1  C   UNL     1     -13.702   9.331  71.937  1.00  0.00    -0.464 C  
HETATM    2  C   UNL     1     -12.986  10.637  71.777  1.00  0.00    -0.472 C  
HETATM    3  O   UNL     1     -13.468  11.724  72.058  1.00  0.00    -0.422 OA 
ENDROOT
BRANCH   2   4
HETATM    4  O   UNL     1     -11.749  10.437  71.251  1.00  0.00    -0.338 OA 
BRANCH   4   5
HETATM    5  C   UNL     1     -11.592  10.734  69.839  1.00  0.00    -0.331 C  
HETATM    6  C   UNL     1     -11.323  12.230  69.691  1.00  0.00    -0.207 C  
HETATM    7  C   UNL     1     -11.142  12.555  68.239  1.00  0.00    -0.294 A  
HETATM    8  C   UNL     1     -12.149  13.209  67.514  1.00  0.00    -0.300 A  
HETATM    9  C   UNL     1     -11.983  13.456  66.151  1.00  0.00    -0.460 A  
HETATM   10  C   UNL     1     -10.819  13.052  65.506  1.00  0.00    -0.298 A  
HETATM   11  C   UNL     1      -9.813  12.403  66.225  1.00  0.00    -0.257 A  
HETATM   12  C   UNL     1      -9.967  12.149  67.595  1.00  0.00    -0.197 A  
HETATM   13  N   UNL     1      -8.925  11.512  68.342  1.00  0.00    -0.173 N  
HETATM   14  C   UNL     1     -10.505   9.789  69.330  1.00  0.00    -0.236 A  
HETATM   15  C   UNL     1      -9.245  10.175  68.805  1.00  0.00    -0.164 A  
HETATM   16  C   UNL     1      -8.279   9.159  68.629  1.00  0.00    -0.114 A  
HETATM   17  C   UNL     1     -10.785   8.409  69.499  1.00  0.00    -0.181 A  
HETATM   18  C   UNL     1      -9.827   7.430  69.266  1.00  0.00    -0.168 A  
HETATM   19  C   UNL     1      -8.558   7.810  68.868  1.00  0.00    -0.132 A  
BRANCH  13  20
HETATM   20  C   UNL     1      -7.607  11.996  68.337  1.00  0.00    -0.128 C  
HETATM   21  H1  UNL     1      -6.280  13.125  69.395  1.00  0.00     0.000 HD 
HETATM   22  O   UNL     1      -6.734  11.744  67.509  1.00  0.00    -0.085 OA 
HETATM   23  N   UNL     1      -7.238  12.774  69.399  1.00  0.00    -0.313 N  
HETATM   24  H2  UNL     1      -7.886  12.992  70.155  1.00  0.00     0.000 HD 
ENDBRANCH  13  20
ENDBRANCH   4   5
ENDBRANCH   2   4
TORSDOF 3
ENDMDL
MODEL       45
REMARK 921   NORMALIZED FREE ENERGY PREDICTED BY IDOCK:   -4.69 KCAL/MOL
REMARK 922        TOTAL FREE ENERGY PREDICTED BY IDOCK:   -6.06 KCAL/MOL
REMARK 923 INTER-LIGAND FREE ENERGY PREDICTED BY IDOCK:   -5.72 KCAL/MOL
REMARK 924 INTRA-LIGAND FREE ENERGY PREDICTED BY IDOCK:   -0.34 KCAL/MOL
REMARK 927      BINDING AFFINITY PREDICTED BY RF-SCORE:    0.00 PKD
ROOT
HETATM    1  C   UNL     1     -12.270  12.736  63.371  1.00  0.00    -0.594 C  
HETATM    2  C   UNL     1     -12.263  13.511  64.654  1.00  0.00    -0.406 C  
HETATM    3  O   UNL     1     -13.265  13.955  65.193  1.00  0.00    -0.768 OA 
ENDROOT
BRANCH   2   4
HETATM    4  O   UNL     1     -10.991  13.668  65.105  1.00  0.00    -0.305 OA 
BRANCH   4   5
HETATM    5  C   UNL     1     -10.673  13.035  66.372  1.00  0.00    -0.282 C  
HETATM    6  C   UNL     1     -10.548  11.531  66.138  1.00  0.00    -0.314 C  
HETATM    7  C   UNL     1     -10.202  10.859  67.432  1.00  0.00    -0.236 A  
HETATM    8  C   UNL     1     -11.164  10.126  68.144  1.00  0.00    -0.245 A  
HETATM    9  C   UNL     1     -10.838   9.551  69.372  1.00  0.00    -0.226 A  
HETATM   10  C   UNL     1      -9.559   9.706  69.898  1.00  0.00    -0.260 A  
HETATM   11  C   UNL     1      -8.599  10.433  69.191  1.00  0.00    -0.169 A  
HETATM   12  C   UNL     1      -8.914  11.015  67.954  1.00  0.00    -0.144 A  
HETATM   13  N   UNL     1      -7.923  11.735  67.212  1.00  0.00    -0.153 N  
HETATM   14  C   UNL     1      -9.431  13.751  66.899  1.00  0.00    -0.265 A  
HETATM   15  C   UNL     1      -8.159  13.163  67.117  1.00  0.00    -0.098 A  
HETATM   16  C   UNL     1      -7.075  14.036  67.360  1.00  0.00    -0.096 A  
HETATM   17  C   UNL     1      -9.583  15.149  67.090  1.00  0.00    -0.224 A  
HETATM   18  C   UNL     1      -8.503  15.973  67.379  1.00  0.00    -0.187 A  
HETATM   19  C   UNL     1      -7.239  15.419  67.475  1.00  0.00    -0.224 A  
BRANCH  13  20
HETATM   20  C   UNL     1      -6.676  11.170  66.899  1.00  0.00    -0.128 C  
HETATM   21  H1  UNL     1      -5.536  10.491  65.352  1.00  0.00     0.000 HD 
HETATM   22  O   UNL     1      -5.752  10.949  67.679  1.00  0.00    -0.043 OA 
HETATM   23  N   UNL     1      -6.442  10.901  65.580  1.00  0.00    -0.358 N  
HETATM   24  H2  UNL     1      -7.136  11.099  64.860  1.00  0.00     0.000 HD 
ENDBRANCH  13  20
ENDBRANCH   4   5
ENDBRANCH   2   4
TORSDOF 3
ENDMDL
MODEL       46
REMARK 921   NORMALIZED FREE ENERGY PREDICTED BY IDOCK:   -4.66 KCAL/MOL
REMARK 922        TOTAL FREE ENERGY PREDICTED BY IDOCK:   -6.04 KCAL/MOL
REMARK 923 INTER-LIGAND FREE ENERGY PREDICTED BY IDOCK:   -5.55 KCAL/MOL
REMARK 924 INTRA-LIGAND FREE ENERGY PREDICTED BY IDOCK:   -0.49 KCAL/MOL
REMARK 927      BINDING AFFINITY PREDICTED BY RF-SCORE:    0.00 PKD
ROOT
HETATM    1  C   UNL     1      -8.003  13.422  67.903  1.00  0.00    -0.155 C  
HETATM    2  C   UNL     1      -9.114  12.667  67.238  1.00  0.00    -0.191 C  
HETATM    3  O   UNL     1      -9.985  13.185  66.558  1.00  0.00    -0.255 OA 
ENDROOT
BRANCH   2   4
HETATM    4  O   UNL     1      -9.025  11.343  67.528  1.00  0.00    -0.146 OA 
BRANCH   4   5
HETATM    5  C   UNL     1      -9.604  10.917  68.789  1.00  0.00    -0.189 C  
HETATM    6  C   UNL     1     -11.090  10.645  68.566  1.00  0.00    -0.318 C  
HETATM    7  C   UNL     1     -11.705  10.188  69.854  1.00  0.00    -0.248 A  
HETATM    8  C   UNL     1     -12.524  11.043  70.607  1.00  0.00    -0.465 A  
HETATM    9  C   UNL     1     -13.045  10.617  71.828  1.00  0.00    -0.571 A  
HETATM   10  C   UNL     1     -12.751   9.345  72.306  1.00  0.00    -0.416 A  
HETATM   11  C   UNL     1     -11.939   8.489  71.559  1.00  0.00    -0.354 A  
HETATM   12  C   UNL     1     -11.410   8.905  70.328  1.00  0.00    -0.159 A  
HETATM   13  N   UNL     1     -10.602   8.020  69.544  1.00  0.00    -0.227 N  
HETATM   14  C   UNL     1      -8.757   9.738  69.264  1.00  0.00    -0.165 A  
HETATM   15  C   UNL     1      -9.208   8.406  69.442  1.00  0.00    -0.154 A  
HETATM   16  C   UNL     1      -8.224   7.410  69.637  1.00  0.00    -0.130 A  
HETATM   17  C   UNL     1      -7.380  10.028  69.446  1.00  0.00    -0.100 A  
HETATM   18  C   UNL     1      -6.444   9.029  69.689  1.00  0.00    -0.042 A  
HETATM   19  C   UNL     1      -6.864   7.712  69.745  1.00  0.00    -0.047 A  
BRANCH  13  20
HETATM   20  C   UNL     1     -11.040   6.733  69.192  1.00  0.00    -0.218 C  
HETATM   21  H1  UNL     1     -11.639   5.589  67.616  1.00  0.00     0.000 HD 
HETATM   22  O   UNL     1     -11.138   5.760  69.937  1.00  0.00    -0.360 OA 
HETATM   23  N   UNL     1     -11.322   6.524  67.871  1.00  0.00    -0.637 N  
HETATM   24  H2  UNL     1     -11.220   7.264  67.177  1.00  0.00     0.000 HD 
ENDBRANCH  13  20
ENDBRANCH   4   5
ENDBRANCH   2   4
TORSDOF 3
ENDMDL
MODEL       47
REMARK 921   NORMALIZED FREE ENERGY PREDICTED BY IDOCK:   -4.61 KCAL/MOL
REMARK 922        TOTAL FREE ENERGY PREDICTED BY IDOCK:   -5.98 KCAL/MOL
REMARK 923 INTER-LIGAND FREE ENERGY PREDICTED BY IDOCK:   -5.96 KCAL/MOL
REMARK 924 INTRA-LIGAND FREE ENERGY PREDICTED BY IDOCK:   -0.02 KCAL/MOL
REMARK 927      BINDING AFFINITY PREDICTED BY RF-SCORE:    0.00 PKD
ROOT
HETATM    1  C   UNL     1     -12.665  10.911  70.858  1.00  0.00    -0.464 C  
HETATM    2  C   UNL     1     -11.688  10.760  69.732  1.00  0.00    -0.324 C  
HETATM    3  O   UNL     1     -10.557  10.315  69.857  1.00  0.00    -0.258 OA 
ENDROOT
BRANCH   2   4
HETATM    4  O   UNL     1     -12.230  11.214  68.571  1.00  0.00    -0.600 OA 
BRANCH   4   5
HETATM    5  C   UNL     1     -11.652  12.426  68.020  1.00  0.00    -0.347 C  
HETATM    6  C   UNL     1     -11.213  13.318  69.179  1.00  0.00    -0.305 C  
HETATM    7  C   UNL     1     -10.598  14.570  68.630  1.00  0.00    -0.255 A  
HETATM    8  C   UNL     1     -11.293  15.788  68.659  1.00  0.00    -0.369 A  
HETATM    9  C   UNL     1     -10.725  16.931  68.097  1.00  0.00    -0.375 A  
HETATM   10  C   UNL     1      -9.469  16.866  67.502  1.00  0.00    -0.241 A  
HETATM   11  C   UNL     1      -8.773  15.656  67.474  1.00  0.00    -0.189 A  
HETATM   12  C   UNL     1      -9.333  14.499  68.037  1.00  0.00    -0.201 A  
HETATM   13  N   UNL     1      -8.610  13.264  68.038  1.00  0.00    -0.169 N  
HETATM   14  C   UNL     1     -10.559  11.969  67.056  1.00  0.00    -0.258 A  
HETATM   15  C   UNL     1      -9.171  12.235  67.183  1.00  0.00    -0.196 A  
HETATM   16  C   UNL     1      -8.295  11.516  66.340  1.00  0.00    -0.118 A  
HETATM   17  C   UNL     1     -11.004  11.131  66.001  1.00  0.00    -0.189 A  
HETATM   18  C   UNL     1     -10.115  10.478  65.156  1.00  0.00    -0.383 A  
HETATM   19  C   UNL     1      -8.755  10.641  65.352  1.00  0.00    -0.195 A  
BRANCH  13  20
HETATM   20  C   UNL     1      -7.305  13.169  68.547  1.00  0.00    -0.111 C  
HETATM   21  H1  UNL     1      -6.182  12.282  69.998  1.00  0.00     0.000 HD 
HETATM   22  O   UNL     1      -6.295  13.696  68.087  1.00  0.00    -0.094 OA 
HETATM   23  N   UNL     1      -7.130  12.351  69.629  1.00  0.00    -0.315 N  
HETATM   24  H2  UNL     1      -7.906  11.836  70.044  1.00  0.00     0.000 HD 
ENDBRANCH  13  20
ENDBRANCH   4   5
ENDBRANCH   2   4
TORSDOF 3
ENDMDL
MODEL       48
REMARK 921   NORMALIZED FREE ENERGY PREDICTED BY IDOCK:   -4.61 KCAL/MOL
REMARK 922        TOTAL FREE ENERGY PREDICTED BY IDOCK:   -5.97 KCAL/MOL
REMARK 923 INTER-LIGAND FREE ENERGY PREDICTED BY IDOCK:   -6.23 KCAL/MOL
REMARK 924 INTRA-LIGAND FREE ENERGY PREDICTED BY IDOCK:    0.26 KCAL/MOL
REMARK 927      BINDING AFFINITY PREDICTED BY RF-SCORE:    0.00 PKD
ROOT
HETATM    1  C   UNL     1      -9.690   3.904  72.209  1.00  0.00    -0.217 C  
HETATM    2  C   UNL     1      -9.536   4.774  70.998  1.00  0.00    -0.175 C  
HETATM    3  O   UNL     1      -8.499   5.337  70.685  1.00  0.00    -0.113 OA 
ENDROOT
BRANCH   2   4
HETATM    4  O   UNL     1     -10.714   4.865  70.328  1.00  0.00    -0.095 OA 
BRANCH   4   5
HETATM    5  C   UNL     1     -11.318   6.184  70.260  1.00  0.00    -0.344 C  
HETATM    6  C   UNL     1     -11.039   6.906  71.577  1.00  0.00    -0.276 C  
HETATM    7  C   UNL     1     -11.641   8.278  71.521  1.00  0.00    -0.326 A  
HETATM    8  C   UNL     1     -12.817   8.580  72.223  1.00  0.00    -0.404 A  
HETATM    9  C   UNL     1     -13.390   9.847  72.117  1.00  0.00    -0.498 A  
HETATM   10  C   UNL     1     -12.799  10.815  71.312  1.00  0.00    -0.540 A  
HETATM   11  C   UNL     1     -11.626  10.519  70.614  1.00  0.00    -0.445 A  
HETATM   12  C   UNL     1     -11.040   9.249  70.713  1.00  0.00    -0.285 A  
HETATM   13  N   UNL     1      -9.821   8.952  70.023  1.00  0.00    -0.169 N  
HETATM   14  C   UNL     1     -10.765   6.834  68.993  1.00  0.00    -0.280 A  
HETATM   15  C   UNL     1      -9.958   7.999  68.938  1.00  0.00    -0.195 A  
HETATM   16  C   UNL     1      -9.334   8.296  67.706  1.00  0.00    -0.153 A  
HETATM   17  C   UNL     1     -11.031   6.125  67.793  1.00  0.00    -0.400 A  
HETATM   18  C   UNL     1     -10.441   6.476  66.585  1.00  0.00    -0.229 A  
HETATM   19  C   UNL     1      -9.558   7.541  66.551  1.00  0.00    -0.239 A  
BRANCH  13  20
HETATM   20  C   UNL     1      -8.676   9.754  70.161  1.00  0.00    -0.180 C  
HETATM   21  H1  UNL     1      -7.803  11.475  69.508  1.00  0.00     0.000 HD 
HETATM   22  O   UNL     1      -7.737   9.568  70.932  1.00  0.00    -0.287 OA 
HETATM   23  N   UNL     1      -8.634  10.893  69.407  1.00  0.00    -0.384 N  
HETATM   24  H2  UNL     1      -9.395  11.149  68.777  1.00  0.00     0.000 HD 
ENDBRANCH  13  20
ENDBRANCH   4   5
ENDBRANCH   2   4
TORSDOF 3
ENDMDL
MODEL       49
REMARK 921   NORMALIZED FREE ENERGY PREDICTED BY IDOCK:   -4.60 KCAL/MOL
REMARK 922        TOTAL FREE ENERGY PREDICTED BY IDOCK:   -5.96 KCAL/MOL
REMARK 923 INTER-LIGAND FREE ENERGY PREDICTED BY IDOCK:   -5.72 KCAL/MOL
REMARK 924 INTRA-LIGAND FREE ENERGY PREDICTED BY IDOCK:   -0.25 KCAL/MOL
REMARK 927      BINDING AFFINITY PREDICTED BY RF-SCORE:    0.00 PKD
ROOT
HETATM    1  C   UNL     1     -10.732   4.168  72.718  1.00  0.00    -0.197 C  
HETATM    2  C   UNL     1      -9.448   4.777  72.241  1.00  0.00    -0.136 C  
HETATM    3  O   UNL     1      -8.432   4.853  72.914  1.00  0.00    -0.107 OA 
ENDROOT
BRANCH   2   4
HETATM    4  O   UNL     1      -9.591   5.252  70.976  1.00  0.00    -0.158 OA 
BRANCH   4   5
HETATM    5  C   UNL     1     -10.576   6.302  70.789  1.00  0.00    -0.243 C  
HETATM    6  C   UNL     1     -10.356   7.363  71.865  1.00  0.00    -0.218 C  
HETATM    7  C   UNL     1     -11.354   8.466  71.679  1.00  0.00    -0.349 A  
HETATM    8  C   UNL     1     -12.457   8.594  72.536  1.00  0.00    -0.372 A  
HETATM    9  C   UNL     1     -13.402   9.595  72.315  1.00  0.00    -0.498 A  
HETATM   10  C   UNL     1     -13.257  10.468  71.242  1.00  0.00    -0.399 A  
HETATM   11  C   UNL     1     -12.159  10.346  70.388  1.00  0.00    -0.402 A  
HETATM   12  C   UNL     1     -11.200   9.344  70.600  1.00  0.00    -0.284 A  
HETATM   13  N   UNL     1     -10.057   9.235  69.745  1.00  0.00    -0.193 N  
HETATM   14  C   UNL     1     -10.432   6.759  69.338  1.00  0.00    -0.244 A  
HETATM   15  C   UNL     1     -10.041   8.051  68.906  1.00  0.00    -0.201 A  
HETATM   16  C   UNL     1      -9.716   8.207  67.540  1.00  0.00    -0.207 A  
HETATM   17  C   UNL     1     -10.630   5.741  68.369  1.00  0.00    -0.289 A  
HETATM   18  C   UNL     1     -10.350   5.943  67.023  1.00  0.00    -0.298 A  
HETATM   19  C   UNL     1      -9.854   7.168  66.614  1.00  0.00    -0.237 A  
BRANCH  13  20
HETATM   20  C   UNL     1      -9.209  10.326  69.498  1.00  0.00    -0.170 C  
HETATM   21  H1  UNL     1      -7.377  11.101  69.940  1.00  0.00     0.000 HD 
HETATM   22  O   UNL     1      -9.423  11.266  68.734  1.00  0.00    -0.187 OA 
HETATM   23  N   UNL     1      -7.992  10.308  70.120  1.00  0.00    -0.323 N  
HETATM   24  H2  UNL     1      -7.714   9.541  70.732  1.00  0.00     0.000 HD 
ENDBRANCH  13  20
ENDBRANCH   4   5
ENDBRANCH   2   4
TORSDOF 3
ENDMDL
MODEL       50
REMARK 921   NORMALIZED FREE ENERGY PREDICTED BY IDOCK:   -4.55 KCAL/MOL
REMARK 922        TOTAL FREE ENERGY PREDICTED BY IDOCK:   -5.91 KCAL/MOL
REMARK 923 INTER-LIGAND FREE ENERGY PREDICTED BY IDOCK:   -5.52 KCAL/MOL
REMARK 924 INTRA-LIGAND FREE ENERGY PREDICTED BY IDOCK:   -0.39 KCAL/MOL
REMARK 927      BINDING AFFINITY PREDICTED BY RF-SCORE:    0.00 PKD
ROOT
HETATM    1  C   UNL     1      -6.466  16.655  69.017  1.00  0.00    -0.190 C  
HETATM    2  C   UNL     1      -6.837  16.252  67.622  1.00  0.00    -0.141 C  
HETATM    3  O   UNL     1      -6.108  16.386  66.651  1.00  0.00    -0.306 OA 
ENDROOT
BRANCH   2   4
HETATM    4  O   UNL     1      -8.100  15.752  67.594  1.00  0.00    -0.136 OA 
BRANCH   4   5
HETATM    5  C   UNL     1      -8.234  14.358  67.213  1.00  0.00    -0.203 C  
HETATM    6  C   UNL     1      -7.972  13.497  68.446  1.00  0.00    -0.142 C  
HETATM    7  C   UNL     1      -8.122  12.052  68.077  1.00  0.00    -0.153 A  
HETATM    8  C   UNL     1      -6.998  11.226  67.923  1.00  0.00    -0.073 A  
HETATM    9  C   UNL     1      -7.155   9.897  67.529  1.00  0.00    -0.088 A  
HETATM   10  C   UNL     1      -8.426   9.387  67.284  1.00  0.00    -0.125 A  
HETATM   11  C   UNL     1      -9.547  10.206  67.439  1.00  0.00    -0.180 A  
HETATM   12  C   UNL     1      -9.403  11.543  67.836  1.00  0.00    -0.171 A  
HETATM   13  N   UNL     1     -10.552  12.376  68.026  1.00  0.00    -0.214 N  
HETATM   14  C   UNL     1      -9.613  14.230  66.568  1.00  0.00    -0.313 A  
HETATM   15  C   UNL     1     -10.690  13.445  67.054  1.00  0.00    -0.268 A  
HETATM   16  C   UNL     1     -11.959  13.655  66.470  1.00  0.00    -0.465 A  
HETATM   17  C   UNL     1      -9.822  15.056  65.434  1.00  0.00    -0.312 A  
HETATM   18  C   UNL     1     -11.075  15.201  64.851  1.00  0.00    -0.425 A  
HETATM   19  C   UNL     1     -12.154  14.528  65.396  1.00  0.00    -0.317 A  
BRANCH  13  20
HETATM   20  C   UNL     1     -11.615  11.994  68.859  1.00  0.00    -0.321 C  
HETATM   21  H1  UNL     1     -12.480  12.356  70.668  1.00  0.00     0.000 HD 
HETATM   22  O   UNL     1     -12.505  11.188  68.594  1.00  0.00    -0.463 OA 
HETATM   23  N   UNL     1     -11.707  12.634  70.063  1.00  0.00    -0.516 N  
HETATM   24  H2  UNL     1     -11.039  13.352  70.343  1.00  0.00     0.000 HD 
ENDBRANCH  13  20
ENDBRANCH   4   5
ENDBRANCH   2   4
TORSDOF 3
ENDMDL
MODEL       51
REMARK 921   NORMALIZED FREE ENERGY PREDICTED BY IDOCK:   -4.53 KCAL/MOL
REMARK 922        TOTAL FREE ENERGY PREDICTED BY IDOCK:   -5.88 KCAL/MOL
REMARK 923 INTER-LIGAND FREE ENERGY PREDICTED BY IDOCK:   -5.68 KCAL/MOL
REMARK 924 INTRA-LIGAND FREE ENERGY PREDICTED BY IDOCK:   -0.19 KCAL/MOL
REMARK 927      BINDING AFFINITY PREDICTED BY RF-SCORE:    0.00 PKD
ROOT
HETATM    1  C   UNL     1      -9.220  10.240  62.986  1.00  0.00    -0.312 C  
HETATM    2  C   UNL     1      -9.864  11.363  63.742  1.00  0.00    -0.319 C  
HETATM    3  O   UNL     1     -10.572  12.217  63.232  1.00  0.00    -0.421 OA 
ENDROOT
BRANCH   2   4
HETATM    4  O   UNL     1      -9.522  11.305  65.056  1.00  0.00    -0.222 OA 
BRANCH   4   5
HETATM    5  C   UNL     1     -10.205  10.306  65.857  1.00  0.00    -0.223 C  
HETATM    6  C   UNL     1      -9.211   9.194  66.185  1.00  0.00    -0.259 C  
HETATM    7  C   UNL     1      -9.892   8.158  67.027  1.00  0.00    -0.299 A  
HETATM    8  C   UNL     1     -10.275   6.923  66.483  1.00  0.00    -0.127 A  
HETATM    9  C   UNL     1     -10.954   5.992  67.269  1.00  0.00    -0.356 A  
HETATM   10  C   UNL     1     -11.258   6.287  68.594  1.00  0.00    -0.328 A  
HETATM   11  C   UNL     1     -10.877   7.515  69.140  1.00  0.00    -0.105 A  
HETATM   12  C   UNL     1     -10.192   8.459  68.360  1.00  0.00    -0.206 A  
HETATM   13  N   UNL     1      -9.772   9.705  68.925  1.00  0.00    -0.157 N  
HETATM   14  C   UNL     1     -10.806  11.058  67.044  1.00  0.00    -0.334 A  
HETATM   15  C   UNL     1     -10.469  10.868  68.408  1.00  0.00    -0.183 A  
HETATM   16  C   UNL     1     -10.939  11.829  69.330  1.00  0.00    -0.185 A  
HETATM   17  C   UNL     1     -11.713  12.092  66.697  1.00  0.00    -0.385 A  
HETATM   18  C   UNL     1     -12.198  12.991  67.640  1.00  0.00    -0.104 A  
HETATM   19  C   UNL     1     -11.778  12.882  68.954  1.00  0.00    -0.370 A  
BRANCH  13  20
HETATM   20  C   UNL     1      -9.006   9.767  70.100  1.00  0.00    -0.195 C  
HETATM   21  H1  UNL     1      -7.250  10.459  70.867  1.00  0.00     0.000 HD 
HETATM   22  O   UNL     1      -9.328   9.351  71.211  1.00  0.00    -0.246 OA 
HETATM   23  N   UNL     1      -7.806  10.415  70.014  1.00  0.00    -0.345 N  
HETATM   24  H2  UNL     1      -7.483  10.833  69.141  1.00  0.00     0.000 HD 
ENDBRANCH  13  20
ENDBRANCH   4   5
ENDBRANCH   2   4
TORSDOF 3
ENDMDL
MODEL       52
REMARK 921   NORMALIZED FREE ENERGY PREDICTED BY IDOCK:   -4.53 KCAL/MOL
REMARK 922        TOTAL FREE ENERGY PREDICTED BY IDOCK:   -5.88 KCAL/MOL
REMARK 923 INTER-LIGAND FREE ENERGY PREDICTED BY IDOCK:   -6.40 KCAL/MOL
REMARK 924 INTRA-LIGAND FREE ENERGY PREDICTED BY IDOCK:    0.52 KCAL/MOL
REMARK 927      BINDING AFFINITY PREDICTED BY RF-SCORE:    0.00 PKD
ROOT
HETATM    1  C   UNL     1     -11.825  12.329  64.085  1.00  0.00    -0.502 C  
HETATM    2  C   UNL     1     -12.379  12.821  65.388  1.00  0.00    -0.470 C  
HETATM    3  O   UNL     1     -13.054  13.831  65.509  1.00  0.00    -0.671 OA 
ENDROOT
BRANCH   2   4
HETATM    4  O   UNL     1     -11.999  12.002  66.403  1.00  0.00    -0.611 OA 
BRANCH   4   5
HETATM    5  C   UNL     1     -10.874  12.449  67.205  1.00  0.00    -0.243 C  
HETATM    6  C   UNL     1     -10.355  13.758  66.615  1.00  0.00    -0.279 C  
HETATM    7  C   UNL     1      -9.202  14.246  67.440  1.00  0.00    -0.200 A  
HETATM    8  C   UNL     1      -7.883  14.135  66.975  1.00  0.00     0.070 A  
HETATM    9  C   UNL     1      -6.821  14.547  67.778  1.00  0.00    -0.193 A  
HETATM   10  C   UNL     1      -7.065  15.065  69.046  1.00  0.00    -0.133 A  
HETATM   11  C   UNL     1      -8.376  15.180  69.511  1.00  0.00    -0.151 A  
HETATM   12  C   UNL     1      -9.454  14.770  68.712  1.00  0.00    -0.206 A  
HETATM   13  N   UNL     1     -10.801  14.914  69.174  1.00  0.00    -0.242 N  
HETATM   14  C   UNL     1     -11.381  12.501  68.646  1.00  0.00    -0.329 A  
HETATM   15  C   UNL     1     -11.482  13.664  69.452  1.00  0.00    -0.286 A  
HETATM   16  C   UNL     1     -12.210  13.554  70.657  1.00  0.00    -0.434 A  
HETATM   17  C   UNL     1     -11.869  11.269  69.153  1.00  0.00    -0.423 A  
HETATM   18  C   UNL     1     -12.536  11.187  70.369  1.00  0.00    -0.328 A  
HETATM   19  C   UNL     1     -12.742  12.341  71.104  1.00  0.00    -0.340 A  
BRANCH  13  20
HETATM   20  C   UNL     1     -11.300  16.144  69.634  1.00  0.00    -0.316 C  
HETATM   21  H1  UNL     1     -12.949  17.341  69.623  1.00  0.00     0.000 HD 
HETATM   22  O   UNL     1     -10.721  16.946  70.363  1.00  0.00    -0.021 OA 
HETATM   23  N   UNL     1     -12.587  16.448  69.289  1.00  0.00    -0.092 N  
HETATM   24  H2  UNL     1     -13.156  15.816  68.727  1.00  0.00     0.000 HD 
ENDBRANCH  13  20
ENDBRANCH   4   5
ENDBRANCH   2   4
TORSDOF 3
ENDMDL
MODEL       53
REMARK 921   NORMALIZED FREE ENERGY PREDICTED BY IDOCK:   -4.51 KCAL/MOL
REMARK 922        TOTAL FREE ENERGY PREDICTED BY IDOCK:   -5.85 KCAL/MOL
REMARK 923 INTER-LIGAND FREE ENERGY PREDICTED BY IDOCK:   -5.43 KCAL/MOL
REMARK 924 INTRA-LIGAND FREE ENERGY PREDICTED BY IDOCK:   -0.42 KCAL/MOL
REMARK 927      BINDING AFFINITY PREDICTED BY RF-SCORE:    0.00 PKD
ROOT
HETATM    1  C   UNL     1      -5.455   9.378  64.918  1.00  0.00    -0.053 C  
HETATM    2  C   UNL     1      -5.973   9.774  66.267  1.00  0.00    -0.063 C  
HETATM    3  O   UNL     1      -5.665   9.219  67.311  1.00  0.00    -0.041 OA 
ENDROOT
BRANCH   2   4
HETATM    4  O   UNL     1      -6.848  10.807  66.154  1.00  0.00    -0.128 OA 
BRANCH   4   5
HETATM    5  C   UNL     1      -8.155  10.615  66.755  1.00  0.00    -0.131 C  
HETATM    6  C   UNL     1      -8.169  11.325  68.107  1.00  0.00    -0.140 C  
HETATM    7  C   UNL     1      -9.518  11.153  68.739  1.00  0.00    -0.173 A  
HETATM    8  C   UNL     1      -9.706  10.263  69.807  1.00  0.00    -0.183 A  
HETATM    9  C   UNL     1     -10.979  10.078  70.347  1.00  0.00    -0.384 A  
HETATM   10  C   UNL     1     -12.066  10.772  69.826  1.00  0.00    -0.389 A  
HETATM   11  C   UNL     1     -11.881  11.661  68.765  1.00  0.00    -0.387 A  
HETATM   12  C   UNL     1     -10.607  11.857  68.213  1.00  0.00    -0.213 A  
HETATM   13  N   UNL     1     -10.409  12.790  67.146  1.00  0.00    -0.232 N  
HETATM   14  C   UNL     1      -9.169  11.097  65.719  1.00  0.00    -0.234 A  
HETATM   15  C   UNL     1     -10.064  12.186  65.872  1.00  0.00    -0.245 A  
HETATM   16  C   UNL     1     -10.738  12.637  64.716  1.00  0.00    -0.335 A  
HETATM   17  C   UNL     1      -9.114  10.422  64.472  1.00  0.00    -0.263 A  
HETATM   18  C   UNL     1      -9.832  10.863  63.366  1.00  0.00    -0.408 A  
HETATM   19  C   UNL     1     -10.615  11.997  63.479  1.00  0.00    -0.514 A  
BRANCH  13  20
HETATM   20  C   UNL     1     -10.835  14.124  67.238  1.00  0.00    -0.285 C  
HETATM   21  H1  UNL     1     -10.167  16.041  67.420  1.00  0.00     0.000 HD 
HETATM   22  O   UNL     1     -11.992  14.533  67.167  1.00  0.00    -0.406 OA 
HETATM   23  N   UNL     1      -9.857  15.072  67.353  1.00  0.00    -0.224 N  
HETATM   24  H2  UNL     1      -8.868  14.823  67.370  1.00  0.00     0.000 HD 
ENDBRANCH  13  20
ENDBRANCH   4   5
ENDBRANCH   2   4
TORSDOF 3
ENDMDL
MODEL       54
REMARK 921   NORMALIZED FREE ENERGY PREDICTED BY IDOCK:   -4.50 KCAL/MOL
REMARK 922        TOTAL FREE ENERGY PREDICTED BY IDOCK:   -5.84 KCAL/MOL
REMARK 923 INTER-LIGAND FREE ENERGY PREDICTED BY IDOCK:   -5.42 KCAL/MOL
REMARK 924 INTRA-LIGAND FREE ENERGY PREDICTED BY IDOCK:   -0.42 KCAL/MOL
REMARK 927      BINDING AFFINITY PREDICTED BY RF-SCORE:    0.00 PKD
ROOT
HETATM    1  C   UNL     1     -11.776   7.060  71.166  1.00  0.00    -0.366 C  
HETATM    2  C   UNL     1     -11.277   8.433  70.833  1.00  0.00    -0.262 C  
HETATM    3  O   UNL     1     -11.678   9.458  71.362  1.00  0.00    -0.321 OA 
ENDROOT
BRANCH   2   4
HETATM    4  O   UNL     1     -10.345   8.370  69.845  1.00  0.00    -0.201 OA 
BRANCH   4   5
HETATM    5  C   UNL     1     -10.729   8.925  68.560  1.00  0.00    -0.078 C  
HETATM    6  C   UNL     1     -10.098  10.310  68.428  1.00  0.00    -0.178 C  
HETATM    7  C   UNL     1     -10.469  10.894  67.099  1.00  0.00    -0.281 A  
HETATM    8  C   UNL     1     -11.430  11.911  67.000  1.00  0.00    -0.384 A  
HETATM    9  C   UNL     1     -11.799  12.406  65.750  1.00  0.00    -0.467 A  
HETATM   10  C   UNL     1     -11.219  11.890  64.596  1.00  0.00    -0.364 A  
HETATM   11  C   UNL     1     -10.260  10.880  64.690  1.00  0.00    -0.411 A  
HETATM   12  C   UNL     1      -9.879  10.374  65.941  1.00  0.00    -0.235 A  
HETATM   13  N   UNL     1      -8.874   9.360  66.044  1.00  0.00    -0.148 N  
HETATM   14  C   UNL     1     -10.322   7.886  67.516  1.00  0.00    -0.329 A  
HETATM   15  C   UNL     1      -9.362   8.068  66.489  1.00  0.00    -0.205 A  
HETATM   16  C   UNL     1      -8.938   6.917  65.788  1.00  0.00    -0.038 A  
HETATM   17  C   UNL     1     -10.918   6.609  67.681  1.00  0.00    -0.392 A  
HETATM   18  C   UNL     1     -10.513   5.507  66.938  1.00  0.00    -0.348 A  
HETATM   19  C   UNL     1      -9.492   5.654  66.016  1.00  0.00    -0.129 A  
BRANCH  13  20
HETATM   20  C   UNL     1      -7.609   9.507  65.452  1.00  0.00    -0.106 C  
HETATM   21  H1  UNL     1      -5.629   9.744  65.873  1.00  0.00     0.000 HD 
HETATM   22  O   UNL     1      -7.350   9.470  64.251  1.00  0.00    -0.109 OA 
HETATM   23  N   UNL     1      -6.547   9.638  66.303  1.00  0.00    -0.070 N  
HETATM   24  H2  UNL     1      -6.667   9.629  67.316  1.00  0.00     0.000 HD 
ENDBRANCH  13  20
ENDBRANCH   4   5
ENDBRANCH   2   4
TORSDOF 3
ENDMDL
MODEL       55
REMARK 921   NORMALIZED FREE ENERGY PREDICTED BY IDOCK:   -4.48 KCAL/MOL
REMARK 922        TOTAL FREE ENERGY PREDICTED BY IDOCK:   -5.82 KCAL/MOL
REMARK 923 INTER-LIGAND FREE ENERGY PREDICTED BY IDOCK:   -5.76 KCAL/MOL
REMARK 924 INTRA-LIGAND FREE ENERGY PREDICTED BY IDOCK:   -0.05 KCAL/MOL
REMARK 927      BINDING AFFINITY PREDICTED BY RF-SCORE:    0.00 PKD
ROOT
HETATM    1  C   UNL     1      -8.430   8.467  62.917  1.00  0.00    -0.094 C  
HETATM    2  C   UNL     1      -7.979   9.807  63.415  1.00  0.00    -0.147 C  
HETATM    3  O   UNL     1      -6.831  10.070  63.736  1.00  0.00    -0.123 OA 
ENDROOT
BRANCH   2   4
HETATM    4  O   UNL     1      -9.031  10.664  63.484  1.00  0.00    -0.186 OA 
BRANCH   4   5
HETATM    5  C   UNL     1      -9.809  10.634  64.709  1.00  0.00    -0.310 C  
HETATM    6  C   UNL     1      -8.843  10.530  65.887  1.00  0.00    -0.180 C  
HETATM    7  C   UNL     1      -9.627  10.514  67.165  1.00  0.00    -0.194 A  
HETATM    8  C   UNL     1      -9.798   9.327  67.893  1.00  0.00    -0.200 A  
HETATM    9  C   UNL     1     -10.574   9.322  69.051  1.00  0.00    -0.225 A  
HETATM   10  C   UNL     1     -11.184  10.493  69.488  1.00  0.00    -0.329 A  
HETATM   11  C   UNL     1     -11.014  11.677  68.768  1.00  0.00    -0.274 A  
HETATM   12  C   UNL     1     -10.235  11.696  67.602  1.00  0.00    -0.188 A  
HETATM   13  N   UNL     1     -10.033  12.915  66.879  1.00  0.00    -0.233 N  
HETATM   14  C   UNL     1     -10.707  11.870  64.667  1.00  0.00    -0.356 A  
HETATM   15  C   UNL     1     -10.671  12.957  65.576  1.00  0.00    -0.279 A  
HETATM   16  C   UNL     1     -11.396  14.118  65.226  1.00  0.00    -0.328 A  
HETATM   17  C   UNL     1     -11.579  11.936  63.550  1.00  0.00    -0.537 A  
HETATM   18  C   UNL     1     -12.319  13.077  63.262  1.00  0.00    -0.392 A  
HETATM   19  C   UNL     1     -12.196  14.185  64.081  1.00  0.00    -0.423 A  
BRANCH  13  20
HETATM   20  C   UNL     1      -9.554  14.077  67.503  1.00  0.00    -0.228 C  
HETATM   21  H1  UNL     1      -8.031  15.431  67.480  1.00  0.00     0.000 HD 
HETATM   22  O   UNL     1     -10.110  14.717  68.394  1.00  0.00    -0.215 OA 
HETATM   23  N   UNL     1      -8.379  14.587  67.026  1.00  0.00    -0.323 N  
HETATM   24  H2  UNL     1      -7.876  14.146  66.256  1.00  0.00     0.000 HD 
ENDBRANCH  13  20
ENDBRANCH   4   5
ENDBRANCH   2   4
TORSDOF 3
ENDMDL
MODEL       56
REMARK 921   NORMALIZED FREE ENERGY PREDICTED BY IDOCK:   -4.47 KCAL/MOL
REMARK 922        TOTAL FREE ENERGY PREDICTED BY IDOCK:   -5.81 KCAL/MOL
REMARK 923 INTER-LIGAND FREE ENERGY PREDICTED BY IDOCK:   -5.37 KCAL/MOL
REMARK 924 INTRA-LIGAND FREE ENERGY PREDICTED BY IDOCK:   -0.44 KCAL/MOL
REMARK 927      BINDING AFFINITY PREDICTED BY RF-SCORE:    0.00 PKD
ROOT
HETATM    1  C   UNL     1      -8.311   2.891  69.158  1.00  0.00    -0.086 C  
HETATM    2  C   UNL     1      -9.500   3.589  68.573  1.00  0.00    -0.141 C  
HETATM    3  O   UNL     1      -9.785   3.584  67.385  1.00  0.00    -0.180 OA 
ENDROOT
BRANCH   2   4
HETATM    4  O   UNL     1     -10.189   4.245  69.544  1.00  0.00    -0.047 OA 
BRANCH   4   5
HETATM    5  C   UNL     1      -9.922   5.666  69.677  1.00  0.00    -0.203 C  
HETATM    6  C   UNL     1     -10.897   6.422  68.776  1.00  0.00    -0.378 C  
HETATM    7  C   UNL     1     -10.649   7.894  68.911  1.00  0.00    -0.165 A  
HETATM    8  C   UNL     1      -9.994   8.612  67.899  1.00  0.00    -0.232 A  
HETATM    9  C   UNL     1      -9.726   9.970  68.066  1.00  0.00    -0.158 A  
HETATM   10  C   UNL     1     -10.105  10.618  69.237  1.00  0.00    -0.227 A  
HETATM   11  C   UNL     1     -10.760   9.907  70.245  1.00  0.00    -0.367 A  
HETATM   12  C   UNL     1     -11.036   8.541  70.090  1.00  0.00    -0.216 A  
HETATM   13  N   UNL     1     -11.735   7.817  71.108  1.00  0.00    -0.282 N  
HETATM   14  C   UNL     1      -9.997   5.969  71.172  1.00  0.00    -0.227 A  
HETATM   15  C   UNL     1     -10.933   6.827  71.803  1.00  0.00    -0.235 A  
HETATM   16  C   UNL     1     -11.007   6.779  73.213  1.00  0.00    -0.249 A  
HETATM   17  C   UNL     1      -9.086   5.236  71.976  1.00  0.00    -0.151 A  
HETATM   18  C   UNL     1      -9.154   5.252  73.364  1.00  0.00    -0.128 A  
HETATM   19  C   UNL     1     -10.143   5.995  73.982  1.00  0.00    -0.265 A  
BRANCH  13  20
HETATM   20  C   UNL     1     -12.970   8.252  71.613  1.00  0.00    -0.337 C  
HETATM   21  H1  UNL     1     -14.978   7.914  71.527  1.00  0.00     0.000 HD 
HETATM   22  O   UNL     1     -13.152   9.121  72.464  1.00  0.00    -0.429 OA 
HETATM   23  N   UNL     1     -14.081   7.597  71.160  1.00  0.00    -0.661 N  
HETATM   24  H2  UNL     1     -14.016   6.831  70.489  1.00  0.00     0.000 HD 
ENDBRANCH  13  20
ENDBRANCH   4   5
ENDBRANCH   2   4
TORSDOF 3
ENDMDL
MODEL       57
REMARK 921   NORMALIZED FREE ENERGY PREDICTED BY IDOCK:   -4.45 KCAL/MOL
REMARK 922        TOTAL FREE ENERGY PREDICTED BY IDOCK:   -5.78 KCAL/MOL
REMARK 923 INTER-LIGAND FREE ENERGY PREDICTED BY IDOCK:   -5.47 KCAL/MOL
REMARK 924 INTRA-LIGAND FREE ENERGY PREDICTED BY IDOCK:   -0.31 KCAL/MOL
REMARK 927      BINDING AFFINITY PREDICTED BY RF-SCORE:    0.00 PKD
ROOT
HETATM    1  C   UNL     1     -13.135  11.693  71.733  1.00  0.00    -0.487 C  
HETATM    2  C   UNL     1     -12.851  10.231  71.898  1.00  0.00    -0.426 C  
HETATM    3  O   UNL     1     -13.644   9.425  72.358  1.00  0.00    -0.457 OA 
ENDROOT
BRANCH   2   4
HETATM    4  O   UNL     1     -11.585   9.947  71.492  1.00  0.00    -0.373 OA 
BRANCH   4   5
HETATM    5  C   UNL     1     -11.399   9.720  70.071  1.00  0.00    -0.220 C  
HETATM    6  C   UNL     1     -10.589  10.883  69.502  1.00  0.00    -0.217 C  
HETATM    7  C   UNL     1     -10.370  10.660  68.036  1.00  0.00    -0.208 A  
HETATM    8  C   UNL     1     -11.088  11.393  67.079  1.00  0.00    -0.364 A  
HETATM    9  C   UNL     1     -10.908  11.134  65.721  1.00  0.00    -0.218 A  
HETATM   10  C   UNL     1     -10.020  10.146  65.310  1.00  0.00    -0.381 A  
HETATM   11  C   UNL     1      -9.302   9.416  66.259  1.00  0.00    -0.253 A  
HETATM   12  C   UNL     1      -9.472   9.667  67.628  1.00  0.00    -0.133 A  
HETATM   13  N   UNL     1      -8.715   8.942  68.604  1.00  0.00    -0.133 N  
HETATM   14  C   UNL     1     -10.779   8.329  69.945  1.00  0.00    -0.234 A  
HETATM   15  C   UNL     1      -9.496   8.033  69.421  1.00  0.00    -0.159 A  
HETATM   16  C   UNL     1      -8.999   6.726  69.625  1.00  0.00    -0.143 A  
HETATM   17  C   UNL     1     -11.555   7.278  70.498  1.00  0.00    -0.292 A  
HETATM   18  C   UNL     1     -11.054   5.989  70.637  1.00  0.00    -0.371 A  
HETATM   19  C   UNL     1      -9.758   5.723  70.235  1.00  0.00    -0.223 A  
BRANCH  13  20
HETATM   20  C   UNL     1      -7.314   8.867  68.548  1.00  0.00    -0.081 C  
HETATM   21  H1  UNL     1      -5.609   9.522  69.452  1.00  0.00     0.000 HD 
HETATM   22  O   UNL     1      -6.644   8.183  67.778  1.00  0.00    -0.055 OA 
HETATM   23  N   UNL     1      -6.626   9.577  69.493  1.00  0.00    -0.043 N  
HETATM   24  H2  UNL     1      -7.106  10.133  70.201  1.00  0.00     0.000 HD 
ENDBRANCH  13  20
ENDBRANCH   4   5
ENDBRANCH   2   4
TORSDOF 3
ENDMDL
MODEL       58
REMARK 921   NORMALIZED FREE ENERGY PREDICTED BY IDOCK:   -4.41 KCAL/MOL
REMARK 922        TOTAL FREE ENERGY PREDICTED BY IDOCK:   -5.74 KCAL/MOL
REMARK 923 INTER-LIGAND FREE ENERGY PREDICTED BY IDOCK:   -5.21 KCAL/MOL
REMARK 924 INTRA-LIGAND FREE ENERGY PREDICTED BY IDOCK:   -0.53 KCAL/MOL
REMARK 927      BINDING AFFINITY PREDICTED BY RF-SCORE:    0.00 PKD
ROOT
HETATM    1  C   UNL     1     -12.219   6.418  72.060  1.00  0.00    -0.320 C  
HETATM    2  C   UNL     1     -10.891   7.069  72.304  1.00  0.00    -0.230 C  
HETATM    3  O   UNL     1     -10.493   7.428  73.401  1.00  0.00    -0.335 OA 
ENDROOT
BRANCH   2   4
HETATM    4  O   UNL     1     -10.219   7.225  71.133  1.00  0.00    -0.192 OA 
BRANCH   4   5
HETATM    5  C   UNL     1     -10.752   8.209  70.209  1.00  0.00    -0.235 C  
HETATM    6  C   UNL     1     -10.137   9.565  70.545  1.00  0.00    -0.347 C  
HETATM    7  C   UNL     1     -10.663  10.593  69.589  1.00  0.00    -0.290 A  
HETATM    8  C   UNL     1     -11.625  11.530  69.995  1.00  0.00    -0.364 A  
HETATM    9  C   UNL     1     -12.140  12.446  69.078  1.00  0.00    -0.185 A  
HETATM   10  C   UNL     1     -11.705  12.431  67.757  1.00  0.00    -0.413 A  
HETATM   11  C   UNL     1     -10.745  11.502  67.350  1.00  0.00    -0.275 A  
HETATM   12  C   UNL     1     -10.218  10.576  68.263  1.00  0.00    -0.163 A  
HETATM   13  N   UNL     1      -9.212   9.642  67.857  1.00  0.00    -0.125 N  
HETATM   14  C   UNL     1     -10.479   7.661  68.809  1.00  0.00    -0.208 A  
HETATM   15  C   UNL     1      -9.648   8.259  67.828  1.00  0.00    -0.148 A  
HETATM   16  C   UNL     1      -9.316   7.479  66.698  1.00  0.00    -0.222 A  
HETATM   17  C   UNL     1     -11.055   6.392  68.541  1.00  0.00    -0.385 A  
HETATM   18  C   UNL     1     -10.746   5.673  67.393  1.00  0.00    -0.283 A  
HETATM   19  C   UNL     1      -9.843   6.201  66.488  1.00  0.00    -0.179 A  
BRANCH  13  20
HETATM   20  C   UNL     1      -8.027  10.056  67.227  1.00  0.00    -0.106 C  
HETATM   21  H1  UNL     1      -6.018  10.257  67.503  1.00  0.00     0.000 HD 
HETATM   22  O   UNL     1      -7.907  10.442  66.066  1.00  0.00    -0.130 OA 
HETATM   23  N   UNL     1      -6.878   9.956  67.961  1.00  0.00    -0.071 N  
HETATM   24  H2  UNL     1      -6.881   9.600  68.916  1.00  0.00     0.000 HD 
ENDBRANCH  13  20
ENDBRANCH   4   5
ENDBRANCH   2   4
TORSDOF 3
ENDMDL
MODEL       59
REMARK 921   NORMALIZED FREE ENERGY PREDICTED BY IDOCK:   -4.41 KCAL/MOL
REMARK 922        TOTAL FREE ENERGY PREDICTED BY IDOCK:   -5.74 KCAL/MOL
REMARK 923 INTER-LIGAND FREE ENERGY PREDICTED BY IDOCK:   -6.21 KCAL/MOL
REMARK 924 INTRA-LIGAND FREE ENERGY PREDICTED BY IDOCK:    0.47 KCAL/MOL
REMARK 927      BINDING AFFINITY PREDICTED BY RF-SCORE:    0.00 PKD
ROOT
HETATM    1  C   UNL     1     -11.033  20.056  67.061  1.00  0.00    -0.098 C  
HETATM    2  C   UNL     1      -9.932  19.547  66.181  1.00  0.00    -0.444 C  
HETATM    3  O   UNL     1      -8.967  20.210  65.834  1.00  0.00    -0.267 OA 
ENDROOT
BRANCH   2   4
HETATM    4  O   UNL     1     -10.181  18.265  65.806  1.00  0.00    -0.576 OA 
BRANCH   4   5
HETATM    5  C   UNL     1      -9.428  17.233  66.497  1.00  0.00    -0.269 C  
HETATM    6  C   UNL     1      -8.928  17.809  67.820  1.00  0.00    -0.249 C  
HETATM    7  C   UNL     1      -8.161  16.753  68.557  1.00  0.00    -0.242 A  
HETATM    8  C   UNL     1      -6.761  16.794  68.626  1.00  0.00    -0.174 A  
HETATM    9  C   UNL     1      -6.062  15.775  69.272  1.00  0.00    -0.133 A  
HETATM   10  C   UNL     1      -6.750  14.712  69.846  1.00  0.00    -0.157 A  
HETATM   11  C   UNL     1      -8.145  14.669  69.782  1.00  0.00     0.283 A  
HETATM   12  C   UNL     1      -8.859  15.688  69.136  1.00  0.00    -0.251 A  
HETATM   13  N   UNL     1     -10.290  15.664  69.095  1.00  0.00    -0.226 N  
HETATM   14  C   UNL     1     -10.357  16.023  66.584  1.00  0.00    -0.299 A  
HETATM   15  C   UNL     1     -10.853  15.438  67.777  1.00  0.00    -0.302 A  
HETATM   16  C   UNL     1     -11.897  14.495  67.650  1.00  0.00    -0.395 A  
HETATM   17  C   UNL     1     -10.811  15.527  65.335  1.00  0.00    -0.402 A  
HETATM   18  C   UNL     1     -11.804  14.559  65.246  1.00  0.00    -0.358 A  
HETATM   19  C   UNL     1     -12.376  14.071  66.407  1.00  0.00    -0.468 A  
BRANCH  13  20
HETATM   20  C   UNL     1     -11.063  15.532  70.260  1.00  0.00    -0.328 C  
HETATM   21  H1  UNL     1     -12.040  14.174  71.424  1.00  0.00     0.000 HD 
HETATM   22  O   UNL     1     -11.355  16.424  71.054  1.00  0.00    -0.364 OA 
HETATM   23  N   UNL     1     -11.479  14.269  70.578  1.00  0.00    -0.491 N  
HETATM   24  H2  UNL     1     -11.240  13.464  70.000  1.00  0.00     0.000 HD 
ENDBRANCH  13  20
ENDBRANCH   4   5
ENDBRANCH   2   4
TORSDOF 3
ENDMDL
MODEL       60
REMARK 921   NORMALIZED FREE ENERGY PREDICTED BY IDOCK:   -4.41 KCAL/MOL
REMARK 922        TOTAL FREE ENERGY PREDICTED BY IDOCK:   -5.73 KCAL/MOL
REMARK 923 INTER-LIGAND FREE ENERGY PREDICTED BY IDOCK:   -5.64 KCAL/MOL
REMARK 924 INTRA-LIGAND FREE ENERGY PREDICTED BY IDOCK:   -0.09 KCAL/MOL
REMARK 927      BINDING AFFINITY PREDICTED BY RF-SCORE:    0.00 PKD
ROOT
HETATM    1  C   UNL     1     -10.308   5.100  68.230  1.00  0.00    -0.140 C  
HETATM    2  C   UNL     1     -10.587   5.969  69.418  1.00  0.00    -0.298 C  
HETATM    3  O   UNL     1     -10.397   5.630  70.576  1.00  0.00    -0.222 OA 
ENDROOT
BRANCH   2   4
HETATM    4  O   UNL     1     -11.105   7.160  69.022  1.00  0.00    -0.135 OA 
BRANCH   4   5
HETATM    5  C   UNL     1     -10.246   8.320  69.174  1.00  0.00    -0.218 C  
HETATM    6  C   UNL     1      -9.800   8.772  67.784  1.00  0.00    -0.217 C  
HETATM    7  C   UNL     1      -8.924   9.980  67.918  1.00  0.00    -0.131 A  
HETATM    8  C   UNL     1      -7.534   9.887  67.746  1.00  0.00    -0.090 A  
HETATM    9  C   UNL     1      -6.730  11.012  67.925  1.00  0.00    -0.063 A  
HETATM   10  C   UNL     1      -7.302  12.229  68.279  1.00  0.00    -0.108 A  
HETATM   11  C   UNL     1      -8.684  12.327  68.448  1.00  0.00    -0.139 A  
HETATM   12  C   UNL     1      -9.505  11.203  68.270  1.00  0.00    -0.182 A  
HETATM   13  N   UNL     1     -10.926  11.307  68.412  1.00  0.00    -0.201 N  
HETATM   14  C   UNL     1     -11.044   9.329  69.998  1.00  0.00    -0.228 A  
HETATM   15  C   UNL     1     -11.470  10.610  69.563  1.00  0.00    -0.291 A  
HETATM   16  C   UNL     1     -12.411  11.288  70.369  1.00  0.00    -0.415 A  
HETATM   17  C   UNL     1     -11.451   8.867  71.276  1.00  0.00    -0.368 A  
HETATM   18  C   UNL     1     -12.339   9.584  72.068  1.00  0.00    -0.404 A  
HETATM   19  C   UNL     1     -12.851  10.780  71.595  1.00  0.00    -0.562 A  
BRANCH  13  20
HETATM   20  C   UNL     1     -11.674  12.262  67.706  1.00  0.00    -0.337 C  
HETATM   21  H1  UNL     1     -12.210  14.228  67.692  1.00  0.00     0.000 HD 
HETATM   22  O   UNL     1     -12.286  12.087  66.655  1.00  0.00    -0.550 OA 
HETATM   23  N   UNL     1     -11.666  13.534  68.205  1.00  0.00    -0.339 N  
HETATM   24  H2  UNL     1     -11.144  13.778  69.047  1.00  0.00     0.000 HD 
ENDBRANCH  13  20
ENDBRANCH   4   5
ENDBRANCH   2   4
TORSDOF 3
ENDMDL
MODEL       61
REMARK 921   NORMALIZED FREE ENERGY PREDICTED BY IDOCK:   -4.39 KCAL/MOL
REMARK 922        TOTAL FREE ENERGY PREDICTED BY IDOCK:   -5.72 KCAL/MOL
REMARK 923 INTER-LIGAND FREE ENERGY PREDICTED BY IDOCK:   -5.38 KCAL/MOL
REMARK 924 INTRA-LIGAND FREE ENERGY PREDICTED BY IDOCK:   -0.34 KCAL/MOL
REMARK 927      BINDING AFFINITY PREDICTED BY RF-SCORE:    0.00 PKD
ROOT
HETATM    1  C   UNL     1     -11.877  12.764  66.281  1.00  0.00    -0.485 C  
HETATM    2  C   UNL     1     -10.845  11.749  65.890  1.00  0.00    -0.291 C  
HETATM    3  O   UNL     1     -10.011  11.920  65.014  1.00  0.00    -0.253 OA 
ENDROOT
BRANCH   2   4
HETATM    4  O   UNL     1     -10.994  10.616  66.625  1.00  0.00    -0.190 OA 
BRANCH   4   5
HETATM    5  C   UNL     1      -9.837  10.187  67.390  1.00  0.00    -0.187 C  
HETATM    6  C   UNL     1      -9.583  11.214  68.491  1.00  0.00    -0.193 C  
HETATM    7  C   UNL     1      -8.401  10.780  69.304  1.00  0.00    -0.072 A  
HETATM    8  C   UNL     1      -7.158  11.414  69.166  1.00  0.00    -0.115 A  
HETATM    9  C   UNL     1      -6.057  10.963  69.893  1.00  0.00    -0.105 A  
HETATM   10  C   UNL     1      -6.187   9.879  70.756  1.00  0.00    -0.093 A  
HETATM   11  C   UNL     1      -7.424   9.247  70.898  1.00  0.00    -0.123 A  
HETATM   12  C   UNL     1      -8.539   9.692  70.173  1.00  0.00    -0.214 A  
HETATM   13  N   UNL     1      -9.816   9.066  70.340  1.00  0.00    -0.188 N  
HETATM   14  C   UNL     1     -10.140   8.759  67.842  1.00  0.00    -0.257 A  
HETATM   15  C   UNL     1     -10.279   8.322  69.184  1.00  0.00    -0.218 A  
HETATM   16  C   UNL     1     -10.811   7.030  69.392  1.00  0.00    -0.253 A  
HETATM   17  C   UNL     1     -10.385   7.838  66.791  1.00  0.00    -0.348 A  
HETATM   18  C   UNL     1     -10.858   6.555  67.033  1.00  0.00    -0.465 A  
HETATM   19  C   UNL     1     -11.109   6.164  68.336  1.00  0.00    -0.343 A  
BRANCH  13  20
HETATM   20  C   UNL     1     -10.403   8.906  71.605  1.00  0.00    -0.345 C  
HETATM   21  H1  UNL     1     -12.038   9.398  72.718  1.00  0.00     0.000 HD 
HETATM   22  O   UNL     1      -9.974   8.226  72.535  1.00  0.00    -0.266 OA 
HETATM   23  N   UNL     1     -11.612   9.515  71.799  1.00  0.00    -0.375 N  
HETATM   24  H2  UNL     1     -12.063  10.058  71.064  1.00  0.00     0.000 HD 
ENDBRANCH  13  20
ENDBRANCH   4   5
ENDBRANCH   2   4
TORSDOF 3
ENDMDL
MODEL       62
REMARK 921   NORMALIZED FREE ENERGY PREDICTED BY IDOCK:   -4.38 KCAL/MOL
REMARK 922        TOTAL FREE ENERGY PREDICTED BY IDOCK:   -5.70 KCAL/MOL
REMARK 923 INTER-LIGAND FREE ENERGY PREDICTED BY IDOCK:   -5.78 KCAL/MOL
REMARK 924 INTRA-LIGAND FREE ENERGY PREDICTED BY IDOCK:    0.08 KCAL/MOL
REMARK 927      BINDING AFFINITY PREDICTED BY RF-SCORE:    0.00 PKD
ROOT
HETATM    1  C   UNL     1     -11.849  10.360  70.414  1.00  0.00    -0.418 C  
HETATM    2  C   UNL     1     -10.690  10.205  69.477  1.00  0.00    -0.249 C  
HETATM    3  O   UNL     1      -9.526  10.405  69.786  1.00  0.00    -0.154 OA 
ENDROOT
BRANCH   2   4
HETATM    4  O   UNL     1     -11.125   9.842  68.242  1.00  0.00    -0.230 OA 
BRANCH   4   5
HETATM    5  C   UNL     1     -11.019  10.848  67.200  1.00  0.00    -0.272 C  
HETATM    6  C   UNL     1     -11.608  12.153  67.732  1.00  0.00    -0.410 C  
HETATM    7  C   UNL     1     -11.493  13.210  66.675  1.00  0.00    -0.389 A  
HETATM    8  C   UNL     1     -12.616  13.626  65.945  1.00  0.00    -0.478 A  
HETATM    9  C   UNL     1     -12.480  14.573  64.931  1.00  0.00    -0.321 A  
HETATM   10  C   UNL     1     -11.229  15.106  64.637  1.00  0.00    -0.352 A  
HETATM   11  C   UNL     1     -10.109  14.697  65.364  1.00  0.00    -0.403 A  
HETATM   12  C   UNL     1     -10.233  13.745  66.387  1.00  0.00    -0.292 A  
HETATM   13  N   UNL     1      -9.092  13.346  67.154  1.00  0.00    -0.226 N  
HETATM   14  C   UNL     1      -9.547  10.876  66.793  1.00  0.00    -0.210 A  
HETATM   15  C   UNL     1      -8.665  11.977  66.934  1.00  0.00    -0.193 A  
HETATM   16  C   UNL     1      -7.287  11.732  66.741  1.00  0.00    -0.052 A  
HETATM   17  C   UNL     1      -9.035   9.641  66.318  1.00  0.00    -0.184 A  
HETATM   18  C   UNL     1      -7.678   9.448  66.088  1.00  0.00    -0.100 A  
HETATM   19  C   UNL     1      -6.797  10.485  66.339  1.00  0.00    -0.119 A  
BRANCH  13  20
HETATM   20  C   UNL     1      -8.267  14.282  67.798  1.00  0.00    -0.174 C  
HETATM   21  H1  UNL     1      -7.671  14.941  69.632  1.00  0.00     0.000 HD 
HETATM   22  O   UNL     1      -7.499  15.078  67.262  1.00  0.00    -0.198 OA 
HETATM   23  N   UNL     1      -8.270  14.261  69.165  1.00  0.00    -0.351 N  
HETATM   24  H2  UNL     1      -8.842  13.600  69.690  1.00  0.00     0.000 HD 
ENDBRANCH  13  20
ENDBRANCH   4   5
ENDBRANCH   2   4
TORSDOF 3
ENDMDL
MODEL       63
REMARK 921   NORMALIZED FREE ENERGY PREDICTED BY IDOCK:   -4.37 KCAL/MOL
REMARK 922        TOTAL FREE ENERGY PREDICTED BY IDOCK:   -5.69 KCAL/MOL
REMARK 923 INTER-LIGAND FREE ENERGY PREDICTED BY IDOCK:   -5.54 KCAL/MOL
REMARK 924 INTRA-LIGAND FREE ENERGY PREDICTED BY IDOCK:   -0.15 KCAL/MOL
REMARK 927      BINDING AFFINITY PREDICTED BY RF-SCORE:    0.00 PKD
ROOT
HETATM    1  C   UNL     1      -9.870  13.520  67.676  1.00  0.00    -0.228 C  
HETATM    2  C   UNL     1     -10.924  12.466  67.834  1.00  0.00    -0.228 C  
HETATM    3  O   UNL     1     -11.931  12.393  67.147  1.00  0.00    -0.528 OA 
ENDROOT
BRANCH   2   4
HETATM    4  O   UNL     1     -10.609  11.633  68.860  1.00  0.00    -0.211 OA 
BRANCH   4   5
HETATM    5  C   UNL     1     -10.913  10.226  68.666  1.00  0.00    -0.244 C  
HETATM    6  C   UNL     1      -9.654   9.530  68.155  1.00  0.00    -0.153 C  
HETATM    7  C   UNL     1      -9.942   8.072  67.963  1.00  0.00    -0.216 A  
HETATM    8  C   UNL     1     -10.114   7.532  66.680  1.00  0.00    -0.263 A  
HETATM    9  C   UNL     1     -10.433   6.184  66.524  1.00  0.00    -0.195 A  
HETATM   10  C   UNL     1     -10.585   5.369  67.642  1.00  0.00    -0.188 A  
HETATM   11  C   UNL     1     -10.412   5.902  68.921  1.00  0.00    -0.325 A  
HETATM   12  C   UNL     1     -10.090   7.257  69.090  1.00  0.00    -0.183 A  
HETATM   13  N   UNL     1      -9.881   7.799  70.399  1.00  0.00    -0.183 N  
HETATM   14  C   UNL     1     -11.476   9.731  69.997  1.00  0.00    -0.232 A  
HETATM   15  C   UNL     1     -10.896   8.742  70.831  1.00  0.00    -0.238 A  
HETATM   16  C   UNL     1     -11.422   8.605  72.135  1.00  0.00    -0.443 A  
HETATM   17  C   UNL     1     -12.637  10.412  70.445  1.00  0.00    -0.329 A  
HETATM   18  C   UNL     1     -13.160  10.216  71.717  1.00  0.00    -0.568 A  
HETATM   19  C   UNL     1     -12.526   9.338  72.578  1.00  0.00    -0.210 A  
BRANCH  13  20
HETATM   20  C   UNL     1      -8.975   7.225  71.304  1.00  0.00    -0.139 C  
HETATM   21  H1  UNL     1      -8.665   5.596  72.489  1.00  0.00     0.000 HD 
HETATM   22  O   UNL     1      -7.874   7.668  71.625  1.00  0.00    -0.083 OA 
HETATM   23  N   UNL     1      -9.324   6.013  71.832  1.00  0.00    -0.151 N  
HETATM   24  H2  UNL     1     -10.198   5.550  71.581  1.00  0.00     0.000 HD 
ENDBRANCH  13  20
ENDBRANCH   4   5
ENDBRANCH   2   4
TORSDOF 3
ENDMDL
MODEL       64
REMARK 921   NORMALIZED FREE ENERGY PREDICTED BY IDOCK:   -4.37 KCAL/MOL
REMARK 922        TOTAL FREE ENERGY PREDICTED BY IDOCK:   -5.69 KCAL/MOL
REMARK 923 INTER-LIGAND FREE ENERGY PREDICTED BY IDOCK:   -5.27 KCAL/MOL
REMARK 924 INTRA-LIGAND FREE ENERGY PREDICTED BY IDOCK:   -0.42 KCAL/MOL
REMARK 927      BINDING AFFINITY PREDICTED BY RF-SCORE:    0.00 PKD
ROOT
HETATM    1  C   UNL     1      -7.254  13.120  68.275  1.00  0.00    -0.107 C  
HETATM    2  C   UNL     1      -8.525  12.489  67.792  1.00  0.00    -0.171 C  
HETATM    3  O   UNL     1      -8.920  12.538  66.637  1.00  0.00    -0.216 OA 
ENDROOT
BRANCH   2   4
HETATM    4  O   UNL     1      -9.177  11.889  68.822  1.00  0.00    -0.103 OA 
BRANCH   4   5
HETATM    5  C   UNL     1      -9.875  10.655  68.512  1.00  0.00    -0.168 C  
HETATM    6  C   UNL     1      -8.841   9.538  68.388  1.00  0.00    -0.124 C  
HETATM    7  C   UNL     1      -9.543   8.249  68.085  1.00  0.00    -0.163 A  
HETATM    8  C   UNL     1      -9.508   7.694  66.797  1.00  0.00    -0.244 A  
HETATM    9  C   UNL     1     -10.211   6.521  66.521  1.00  0.00    -0.134 A  
HETATM   10  C   UNL     1     -10.951   5.900  67.521  1.00  0.00    -0.249 A  
HETATM   11  C   UNL     1     -10.985   6.448  68.805  1.00  0.00    -0.404 A  
HETATM   12  C   UNL     1     -10.283   7.626  69.095  1.00  0.00    -0.203 A  
HETATM   13  N   UNL     1     -10.291   8.174  70.418  1.00  0.00    -0.202 N  
HETATM   14  C   UNL     1     -10.935  10.487  69.600  1.00  0.00    -0.333 A  
HETATM   15  C   UNL     1     -10.999   9.433  70.546  1.00  0.00    -0.274 A  
HETATM   16  C   UNL     1     -11.895   9.588  71.627  1.00  0.00    -0.468 A  
HETATM   17  C   UNL     1     -11.869  11.552  69.693  1.00  0.00    -0.421 A  
HETATM   18  C   UNL     1     -12.773  11.647  70.743  1.00  0.00    -0.291 A  
HETATM   19  C   UNL     1     -12.758  10.682  71.735  1.00  0.00    -0.489 A  
BRANCH  13  20
HETATM   20  C   UNL     1      -9.942   7.406  71.541  1.00  0.00    -0.181 C  
HETATM   21  H1  UNL     1      -8.456   7.083  72.897  1.00  0.00     0.000 HD 
HETATM   22  O   UNL     1     -10.652   6.588  72.122  1.00  0.00    -0.207 OA 
HETATM   23  N   UNL     1      -8.708   7.641  72.082  1.00  0.00    -0.117 N  
HETATM   24  H2  UNL     1      -8.075   8.337  71.691  1.00  0.00     0.000 HD 
ENDBRANCH  13  20
ENDBRANCH   4   5
ENDBRANCH   2   4
TORSDOF 3
ENDMDL
MODEL       65
REMARK 921   NORMALIZED FREE ENERGY PREDICTED BY IDOCK:   -4.35 KCAL/MOL
REMARK 922        TOTAL FREE ENERGY PREDICTED BY IDOCK:   -5.67 KCAL/MOL
REMARK 923 INTER-LIGAND FREE ENERGY PREDICTED BY IDOCK:   -5.12 KCAL/MOL
REMARK 924 INTRA-LIGAND FREE ENERGY PREDICTED BY IDOCK:   -0.55 KCAL/MOL
REMARK 927      BINDING AFFINITY PREDICTED BY RF-SCORE:    0.00 PKD
ROOT
HETATM    1  C   UNL     1     -10.042  11.095  67.141  1.00  0.00    -0.223 C  
HETATM    2  C   UNL     1      -9.126  11.442  68.275  1.00  0.00    -0.179 C  
HETATM    3  O   UNL     1      -8.074  12.049  68.147  1.00  0.00    -0.143 OA 
ENDROOT
BRANCH   2   4
HETATM    4  O   UNL     1      -9.618  10.959  69.446  1.00  0.00    -0.114 OA 
BRANCH   4   5
HETATM    5  C   UNL     1      -9.989   9.556  69.461  1.00  0.00    -0.194 C  
HETATM    6  C   UNL     1      -8.738   8.733  69.762  1.00  0.00    -0.133 C  
HETATM    7  C   UNL     1      -9.103   7.280  69.799  1.00  0.00    -0.141 A  
HETATM    8  C   UNL     1      -8.760   6.423  68.742  1.00  0.00    -0.122 A  
HETATM    9  C   UNL     1      -9.154   5.085  68.771  1.00  0.00    -0.140 A  
HETATM   10  C   UNL     1      -9.890   4.597  69.845  1.00  0.00    -0.296 A  
HETATM   11  C   UNL     1     -10.230   5.446  70.900  1.00  0.00    -0.303 A  
HETATM   12  C   UNL     1      -9.840   6.793  70.884  1.00  0.00    -0.186 A  
HETATM   13  N   UNL     1     -10.160   7.660  71.978  1.00  0.00    -0.182 N  
HETATM   14  C   UNL     1     -11.142   9.437  70.457  1.00  0.00    -0.330 A  
HETATM   15  C   UNL     1     -11.126   8.696  71.666  1.00  0.00    -0.305 A  
HETATM   16  C   UNL     1     -12.186   8.915  72.573  1.00  0.00    -0.299 A  
HETATM   17  C   UNL     1     -12.279  10.227  70.150  1.00  0.00    -0.251 A  
HETATM   18  C   UNL     1     -13.331  10.381  71.045  1.00  0.00    -0.251 A  
HETATM   19  C   UNL     1     -13.265   9.753  72.277  1.00  0.00    -0.468 A  
BRANCH  13  20
HETATM   20  C   UNL     1      -9.831   7.333  73.303  1.00  0.00    -0.256 C  
HETATM   21  H1  UNL     1      -8.506   7.728  74.800  1.00  0.00     0.000 HD 
HETATM   22  O   UNL     1     -10.454   6.582  74.052  1.00  0.00    -0.331 OA 
HETATM   23  N   UNL     1      -8.744   7.966  73.837  1.00  0.00    -0.271 N  
HETATM   24  H2  UNL     1      -8.199   8.641  73.301  1.00  0.00     0.000 HD 
ENDBRANCH  13  20
ENDBRANCH   4   5
ENDBRANCH   2   4
TORSDOF 3
ENDMDL
MODEL       66
REMARK 921   NORMALIZED FREE ENERGY PREDICTED BY IDOCK:   -4.31 KCAL/MOL
REMARK 922        TOTAL FREE ENERGY PREDICTED BY IDOCK:   -5.62 KCAL/MOL
REMARK 923 INTER-LIGAND FREE ENERGY PREDICTED BY IDOCK:   -5.61 KCAL/MOL
REMARK 924 INTRA-LIGAND FREE ENERGY PREDICTED BY IDOCK:   -0.01 KCAL/MOL
REMARK 927      BINDING AFFINITY PREDICTED BY RF-SCORE:    0.00 PKD
ROOT
HETATM    1  C   UNL     1     -13.280  10.145  72.069  1.00  0.00    -0.534 C  
HETATM    2  C   UNL     1     -12.503  10.900  71.033  1.00  0.00    -0.411 C  
HETATM    3  O   UNL     1     -12.328  12.108  71.051  1.00  0.00    -0.351 OA 
ENDROOT
BRANCH   2   4
HETATM    4  O   UNL     1     -12.056  10.054  70.068  1.00  0.00    -0.152 OA 
BRANCH   4   5
HETATM    5  C   UNL     1     -11.266   8.922  70.517  1.00  0.00    -0.252 C  
HETATM    6  C   UNL     1     -12.159   7.683  70.514  1.00  0.00     0.022 C  
HETATM    7  C   UNL     1     -11.358   6.498  70.960  1.00  0.00    -0.378 A  
HETATM    8  C   UNL     1     -11.523   5.955  72.243  1.00  0.00    -0.351 A  
HETATM    9  C   UNL     1     -10.731   4.885  72.658  1.00  0.00    -0.274 A  
HETATM   10  C   UNL     1      -9.772   4.354  71.802  1.00  0.00    -0.236 A  
HETATM   11  C   UNL     1      -9.606   4.889  70.523  1.00  0.00    -0.253 A  
HETATM   12  C   UNL     1     -10.396   5.965  70.094  1.00  0.00    -0.241 A  
HETATM   13  N   UNL     1     -10.250   6.496  68.772  1.00  0.00    -0.160 N  
HETATM   14  C   UNL     1     -10.037   8.881  69.611  1.00  0.00    -0.202 A  
HETATM   15  C   UNL     1      -9.694   7.835  68.717  1.00  0.00    -0.157 A  
HETATM   16  C   UNL     1      -8.667   8.093  67.783  1.00  0.00    -0.130 A  
HETATM   17  C   UNL     1      -9.241  10.056  69.632  1.00  0.00    -0.236 A  
HETATM   18  C   UNL     1      -8.202  10.256  68.731  1.00  0.00    -0.119 A  
HETATM   19  C   UNL     1      -7.941   9.288  67.778  1.00  0.00    -0.100 A  
BRANCH  13  20
HETATM   20  C   UNL     1     -10.321   5.679  67.633  1.00  0.00    -0.212 C  
HETATM   21  H1  UNL     1     -11.312   5.420  65.871  1.00  0.00     0.000 HD 
HETATM   22  O   UNL     1      -9.586   4.732  67.360  1.00  0.00    -0.141 OA 
HETATM   23  N   UNL     1     -11.261   6.013  66.698  1.00  0.00    -0.742 N  
HETATM   24  H2  UNL     1     -11.880   6.814  66.822  1.00  0.00     0.000 HD 
ENDBRANCH  13  20
ENDBRANCH   4   5
ENDBRANCH   2   4
TORSDOF 3
ENDMDL
MODEL       67
REMARK 921   NORMALIZED FREE ENERGY PREDICTED BY IDOCK:   -4.28 KCAL/MOL
REMARK 922        TOTAL FREE ENERGY PREDICTED BY IDOCK:   -5.59 KCAL/MOL
REMARK 923 INTER-LIGAND FREE ENERGY PREDICTED BY IDOCK:   -5.03 KCAL/MOL
REMARK 924 INTRA-LIGAND FREE ENERGY PREDICTED BY IDOCK:   -0.55 KCAL/MOL
REMARK 927      BINDING AFFINITY PREDICTED BY RF-SCORE:    0.00 PKD
ROOT
HETATM    1  C   UNL     1      -8.329   5.100  70.569  1.00  0.00    -0.110 C  
HETATM    2  C   UNL     1      -7.413   6.259  70.820  1.00  0.00    -0.091 C  
HETATM    3  O   UNL     1      -6.599   6.308  71.729  1.00  0.00    -0.055 OA 
ENDROOT
BRANCH   2   4
HETATM    4  O   UNL     1      -7.642   7.247  69.916  1.00  0.00    -0.090 OA 
BRANCH   4   5
HETATM    5  C   UNL     1      -8.989   7.788  69.878  1.00  0.00    -0.146 C  
HETATM    6  C   UNL     1      -9.096   8.882  70.937  1.00  0.00    -0.283 C  
HETATM    7  C   UNL     1     -10.476   9.466  70.903  1.00  0.00    -0.381 A  
HETATM    8  C   UNL     1     -11.415   9.156  71.898  1.00  0.00    -0.423 A  
HETATM    9  C   UNL     1     -12.710   9.668  71.821  1.00  0.00    -0.510 A  
HETATM   10  C   UNL     1     -13.077  10.484  70.756  1.00  0.00    -0.335 A  
HETATM   11  C   UNL     1     -12.143  10.797  69.765  1.00  0.00    -0.389 A  
HETATM   12  C   UNL     1     -10.838  10.289  69.831  1.00  0.00    -0.302 A  
HETATM   13  N   UNL     1      -9.869  10.633  68.834  1.00  0.00    -0.194 N  
HETATM   14  C   UNL     1      -9.231   8.211  68.430  1.00  0.00    -0.135 A  
HETATM   15  C   UNL     1      -9.469   9.533  67.976  1.00  0.00    -0.132 A  
HETATM   16  C   UNL     1      -9.413   9.760  66.583  1.00  0.00    -0.220 A  
HETATM   17  C   UNL     1      -9.108   7.168  67.474  1.00  0.00    -0.123 A  
HETATM   18  C   UNL     1      -9.109   7.420  66.108  1.00  0.00    -0.167 A  
HETATM   19  C   UNL     1      -9.222   8.725  65.663  1.00  0.00    -0.244 A  
BRANCH  13  20
HETATM   20  C   UNL     1      -9.590  11.968  68.501  1.00  0.00    -0.143 C  
HETATM   21  H1  UNL     1      -8.161  13.415  68.628  1.00  0.00     0.000 HD 
HETATM   22  O   UNL     1     -10.308  12.732  67.859  1.00  0.00    -0.215 OA 
HETATM   23  N   UNL     1      -8.364  12.445  68.871  1.00  0.00    -0.344 N  
HETATM   24  H2  UNL     1      -7.687  11.863  69.363  1.00  0.00     0.000 HD 
ENDBRANCH  13  20
ENDBRANCH   4   5
ENDBRANCH   2   4
TORSDOF 3
ENDMDL
MODEL       68
REMARK 921   NORMALIZED FREE ENERGY PREDICTED BY IDOCK:   -4.20 KCAL/MOL
REMARK 922        TOTAL FREE ENERGY PREDICTED BY IDOCK:   -5.49 KCAL/MOL
REMARK 923 INTER-LIGAND FREE ENERGY PREDICTED BY IDOCK:   -5.29 KCAL/MOL
REMARK 924 INTRA-LIGAND FREE ENERGY PREDICTED BY IDOCK:   -0.21 KCAL/MOL
REMARK 927      BINDING AFFINITY PREDICTED BY RF-SCORE:    0.00 PKD
ROOT
HETATM    1  C   UNL     1      -8.162  17.498  68.102  1.00  0.00    -0.251 C  
HETATM    2  C   UNL     1      -8.563  17.269  66.676  1.00  0.00    -0.257 C  
HETATM    3  O   UNL     1      -8.858  18.159  65.893  1.00  0.00    -0.500 OA 
ENDROOT
BRANCH   2   4
HETATM    4  O   UNL     1      -8.577  15.939  66.397  1.00  0.00    -0.285 OA 
BRANCH   4   5
HETATM    5  C   UNL     1      -9.085  15.066  67.440  1.00  0.00    -0.186 C  
HETATM    6  C   UNL     1     -10.596  14.932  67.258  1.00  0.00    -0.272 C  
HETATM    7  C   UNL     1     -11.138  14.020  68.317  1.00  0.00    -0.275 A  
HETATM    8  C   UNL     1     -11.855  14.529  69.411  1.00  0.00    -0.367 A  
HETATM    9  C   UNL     1     -12.307  13.670  70.412  1.00  0.00    -0.415 A  
HETATM   10  C   UNL     1     -12.046  12.306  70.332  1.00  0.00    -0.385 A  
HETATM   11  C   UNL     1     -11.336  11.795  69.244  1.00  0.00    -0.348 A  
HETATM   12  C   UNL     1     -10.876  12.648  68.230  1.00  0.00    -0.239 A  
HETATM   13  N   UNL     1     -10.174  12.124  67.097  1.00  0.00    -0.209 N  
HETATM   14  C   UNL     1      -8.267  13.779  67.346  1.00  0.00    -0.194 A  
HETATM   15  C   UNL     1      -8.773  12.492  67.032  1.00  0.00    -0.205 A  
HETATM   16  C   UNL     1      -7.831  11.481  66.740  1.00  0.00    -0.146 A  
HETATM   17  C   UNL     1      -6.868  13.948  67.505  1.00  0.00    -0.148 A  
HETATM   18  C   UNL     1      -5.970  12.916  67.259  1.00  0.00     0.025 A  
HETATM   19  C   UNL     1      -6.452  11.690  66.837  1.00  0.00    -0.134 A  
BRANCH  13  20
HETATM   20  C   UNL     1     -10.702  11.086  66.313  1.00  0.00    -0.212 C  
HETATM   21  H1  UNL     1     -11.284   9.134  66.371  1.00  0.00     0.000 HD 
HETATM   22  O   UNL     1     -11.059  11.158  65.139  1.00  0.00    -0.150 OA 
HETATM   23  N   UNL     1     -10.901   9.888  66.941  1.00  0.00    -0.131 N  
HETATM   24  H2  UNL     1     -10.678   9.755  67.927  1.00  0.00     0.000 HD 
ENDBRANCH  13  20
ENDBRANCH   4   5
ENDBRANCH   2   4
TORSDOF 3
ENDMDL
MODEL       69
REMARK 921   NORMALIZED FREE ENERGY PREDICTED BY IDOCK:   -4.19 KCAL/MOL
REMARK 922        TOTAL FREE ENERGY PREDICTED BY IDOCK:   -5.48 KCAL/MOL
REMARK 923 INTER-LIGAND FREE ENERGY PREDICTED BY IDOCK:   -5.38 KCAL/MOL
REMARK 924 INTRA-LIGAND FREE ENERGY PREDICTED BY IDOCK:   -0.11 KCAL/MOL
REMARK 927      BINDING AFFINITY PREDICTED BY RF-SCORE:    0.00 PKD
ROOT
HETATM    1  C   UNL     1     -12.669  11.903  63.089  1.00  0.00    -0.268 C  
HETATM    2  C   UNL     1     -11.260  11.753  63.577  1.00  0.00    -0.408 C  
HETATM    3  O   UNL     1     -10.300  11.548  62.851  1.00  0.00    -0.250 OA 
ENDROOT
BRANCH   2   4
HETATM    4  O   UNL     1     -11.217  11.846  64.932  1.00  0.00    -0.309 OA 
BRANCH   4   5
HETATM    5  C   UNL     1     -10.532  13.004  65.477  1.00  0.00    -0.285 C  
HETATM    6  C   UNL     1     -11.564  14.104  65.712  1.00  0.00    -0.343 C  
HETATM    7  C   UNL     1     -10.879  15.305  66.292  1.00  0.00    -0.312 A  
HETATM    8  C   UNL     1     -10.633  16.443  65.510  1.00  0.00    -0.346 A  
HETATM    9  C   UNL     1      -9.948  17.530  66.052  1.00  0.00    -0.231 A  
HETATM   10  C   UNL     1      -9.504  17.488  67.370  1.00  0.00    -0.255 A  
HETATM   11  C   UNL     1      -9.750  16.358  68.152  1.00  0.00    -0.229 A  
HETATM   12  C   UNL     1     -10.438  15.259  67.619  1.00  0.00    -0.263 A  
HETATM   13  N   UNL     1     -10.718  14.111  68.427  1.00  0.00    -0.249 N  
HETATM   14  C   UNL     1      -9.774  12.503  66.706  1.00  0.00    -0.234 A  
HETATM   15  C   UNL     1      -9.996  12.912  68.046  1.00  0.00    -0.236 A  
HETATM   16  C   UNL     1      -9.378  12.153  69.065  1.00  0.00     0.338 A  
HETATM   17  C   UNL     1      -8.835  11.471  66.449  1.00  0.00    -0.193 A  
HETATM   18  C   UNL     1      -8.205  10.778  67.475  1.00  0.00    -0.112 A  
HETATM   19  C   UNL     1      -8.509  11.094  68.788  1.00  0.00    -0.134 A  
BRANCH  13  20
HETATM   20  C   UNL     1     -11.367  14.218  69.667  1.00  0.00    -0.243 C  
HETATM   21  H1  UNL     1     -11.159  14.949  71.558  1.00  0.00     0.000 HD 
HETATM   22  O   UNL     1     -12.504  13.839  69.938  1.00  0.00    -0.299 OA 
HETATM   23  N   UNL     1     -10.687  14.871  70.658  1.00  0.00    -0.519 N  
HETATM   24  H2  UNL     1      -9.757  15.261  70.503  1.00  0.00     0.000 HD 
ENDBRANCH  13  20
ENDBRANCH   4   5
ENDBRANCH   2   4
TORSDOF 3
ENDMDL
MODEL       70
REMARK 921   NORMALIZED FREE ENERGY PREDICTED BY IDOCK:   -4.19 KCAL/MOL
REMARK 922        TOTAL FREE ENERGY PREDICTED BY IDOCK:   -5.48 KCAL/MOL
REMARK 923 INTER-LIGAND FREE ENERGY PREDICTED BY IDOCK:   -5.80 KCAL/MOL
REMARK 924 INTRA-LIGAND FREE ENERGY PREDICTED BY IDOCK:    0.31 KCAL/MOL
REMARK 927      BINDING AFFINITY PREDICTED BY RF-SCORE:    0.00 PKD
ROOT
HETATM    1  C   UNL     1     -12.230  15.621  71.636  1.00  0.00    -0.493 C  
HETATM    2  C   UNL     1     -12.452  14.561  70.599  1.00  0.00    -0.343 C  
HETATM    3  O   UNL     1     -12.513  13.366  70.841  1.00  0.00    -0.361 OA 
ENDROOT
BRANCH   2   4
HETATM    4  O   UNL     1     -12.544  15.120  69.364  1.00  0.00    -0.088 OA 
BRANCH   4   5
HETATM    5  C   UNL     1     -11.292  15.364  68.671  1.00  0.00    -0.330 C  
HETATM    6  C   UNL     1     -10.152  15.224  69.679  1.00  0.00    -0.246 C  
HETATM    7  C   UNL     1      -8.847  15.456  68.979  1.00  0.00    -0.231 A  
HETATM    8  C   UNL     1      -8.138  16.655  69.152  1.00  0.00    -0.139 A  
HETATM    9  C   UNL     1      -6.952  16.873  68.452  1.00  0.00    -0.173 A  
HETATM   10  C   UNL     1      -6.469  15.905  67.578  1.00  0.00    -0.205 A  
HETATM   11  C   UNL     1      -7.170  14.710  67.405  1.00  0.00    -0.182 A  
HETATM   12  C   UNL     1      -8.364  14.478  68.103  1.00  0.00    -0.147 A  
HETATM   13  N   UNL     1      -9.070  13.241  67.952  1.00  0.00    -0.194 N  
HETATM   14  C   UNL     1     -11.275  14.404  67.483  1.00  0.00    -0.329 A  
HETATM   15  C   UNL     1     -10.346  13.353  67.273  1.00  0.00    -0.244 A  
HETATM   16  C   UNL     1     -10.646  12.417  66.258  1.00  0.00    -0.277 A  
HETATM   17  C   UNL     1     -12.358  14.555  66.578  1.00  0.00    -0.167 A  
HETATM   18  C   UNL     1     -12.595  13.643  65.557  1.00  0.00    -0.541 A  
HETATM   19  C   UNL     1     -11.759  12.550  65.422  1.00  0.00    -0.444 A  
BRANCH  13  20
HETATM   20  C   UNL     1      -8.440  12.000  68.139  1.00  0.00    -0.171 C  
HETATM   21  H1  UNL     1      -8.311  10.411  69.409  1.00  0.00     0.000 HD 
HETATM   22  O   UNL     1      -7.669  11.442  67.361  1.00  0.00    -0.121 OA 
HETATM   23  N   UNL     1      -8.769  11.313  69.274  1.00  0.00    -0.370 N  
HETATM   24  H2  UNL     1      -9.438  11.681  69.950  1.00  0.00     0.000 HD 
ENDBRANCH  13  20
ENDBRANCH   4   5
ENDBRANCH   2   4
TORSDOF 3
ENDMDL
MODEL       71
REMARK 921   NORMALIZED FREE ENERGY PREDICTED BY IDOCK:   -4.16 KCAL/MOL
REMARK 922        TOTAL FREE ENERGY PREDICTED BY IDOCK:   -5.44 KCAL/MOL
REMARK 923 INTER-LIGAND FREE ENERGY PREDICTED BY IDOCK:   -5.22 KCAL/MOL
REMARK 924 INTRA-LIGAND FREE ENERGY PREDICTED BY IDOCK:   -0.22 KCAL/MOL
REMARK 927      BINDING AFFINITY PREDICTED BY RF-SCORE:    0.00 PKD
ROOT
HETATM    1  C   UNL     1     -11.433  13.669  68.817  1.00  0.00    -0.346 C  
HETATM    2  C   UNL     1     -11.176  13.404  67.365  1.00  0.00    -0.288 C  
HETATM    3  O   UNL     1     -11.028  14.277  66.523  1.00  0.00    -0.307 OA 
ENDROOT
BRANCH   2   4
HETATM    4  O   UNL     1     -11.161  12.067  67.123  1.00  0.00    -0.277 OA 
BRANCH   4   5
HETATM    5  C   UNL     1     -10.562  11.232  68.148  1.00  0.00    -0.192 C  
HETATM    6  C   UNL     1     -11.654  10.346  68.743  1.00  0.00    -0.188 C  
HETATM    7  C   UNL     1     -11.052   9.463  69.793  1.00  0.00    -0.193 A  
HETATM    8  C   UNL     1     -11.261   9.717  71.157  1.00  0.00    -0.454 A  
HETATM    9  C   UNL     1     -10.650   8.915  72.120  1.00  0.00    -0.323 A  
HETATM   10  C   UNL     1      -9.828   7.862  71.732  1.00  0.00    -0.223 A  
HETATM   11  C   UNL     1      -9.620   7.604  70.376  1.00  0.00    -0.168 A  
HETATM   12  C   UNL     1     -10.229   8.403  69.397  1.00  0.00    -0.208 A  
HETATM   13  N   UNL     1     -10.042   8.123  68.006  1.00  0.00    -0.189 N  
HETATM   14  C   UNL     1      -9.392  10.517  67.475  1.00  0.00    -0.162 A  
HETATM   15  C   UNL     1      -9.267   9.117  67.288  1.00  0.00    -0.133 A  
HETATM   16  C   UNL     1      -8.245   8.668  66.422  1.00  0.00    -0.111 A  
HETATM   17  C   UNL     1      -8.406  11.375  66.922  1.00  0.00    -0.159 A  
HETATM   18  C   UNL     1      -7.382  10.893  66.115  1.00  0.00    -0.103 A  
HETATM   19  C   UNL     1      -7.326   9.540  65.832  1.00  0.00    -0.097 A  
BRANCH  13  20
HETATM   20  C   UNL     1     -10.293   6.852  67.465  1.00  0.00    -0.217 C  
HETATM   21  H1  UNL     1     -11.704   5.738  66.504  1.00  0.00     0.000 HD 
HETATM   22  O   UNL     1      -9.504   5.912  67.397  1.00  0.00    -0.111 OA 
HETATM   23  N   UNL     1     -11.522   6.661  66.897  1.00  0.00    -0.767 N  
HETATM   24  H2  UNL     1     -12.220   7.404  66.867  1.00  0.00     0.000 HD 
ENDBRANCH  13  20
ENDBRANCH   4   5
ENDBRANCH   2   4
TORSDOF 3
ENDMDL
MODEL       72
REMARK 921   NORMALIZED FREE ENERGY PREDICTED BY IDOCK:   -4.15 KCAL/MOL
REMARK 922        TOTAL FREE ENERGY PREDICTED BY IDOCK:   -5.43 KCAL/MOL
REMARK 923 INTER-LIGAND FREE ENERGY PREDICTED BY IDOCK:   -5.22 KCAL/MOL
REMARK 924 INTRA-LIGAND FREE ENERGY PREDICTED BY IDOCK:   -0.21 KCAL/MOL
REMARK 927      BINDING AFFINITY PREDICTED BY RF-SCORE:    0.00 PKD
ROOT
HETATM    1  C   UNL     1     -12.780  12.130  71.211  1.00  0.00    -0.363 C  
HETATM    2  C   UNL     1     -12.946  10.838  70.470  1.00  0.00    -0.184 C  
HETATM    3  O   UNL     1     -13.417   9.822  70.957  1.00  0.00    -0.347 OA 
ENDROOT
BRANCH   2   4
HETATM    4  O   UNL     1     -12.473  10.956  69.201  1.00  0.00    -0.409 OA 
BRANCH   4   5
HETATM    5  C   UNL     1     -11.063  11.270  69.065  1.00  0.00    -0.244 C  
HETATM    6  C   UNL     1     -10.289   9.958  68.951  1.00  0.00    -0.221 C  
HETATM    7  C   UNL     1      -8.830  10.261  68.793  1.00  0.00    -0.148 A  
HETATM    8  C   UNL     1      -7.934  10.076  69.857  1.00  0.00    -0.184 A  
HETATM    9  C   UNL     1      -6.589  10.412  69.706  1.00  0.00    -0.103 A  
HETATM   10  C   UNL     1      -6.131  10.935  68.502  1.00  0.00    -0.042 A  
HETATM   11  C   UNL     1      -7.019  11.118  67.439  1.00  0.00    -0.093 A  
HETATM   12  C   UNL     1      -8.374  10.784  67.578  1.00  0.00    -0.115 A  
HETATM   13  N   UNL     1      -9.281  10.941  66.481  1.00  0.00    -0.167 N  
HETATM   14  C   UNL     1     -10.959  12.230  67.881  1.00  0.00    -0.265 A  
HETATM   15  C   UNL     1     -10.275  11.982  66.664  1.00  0.00    -0.204 A  
HETATM   16  C   UNL     1     -10.507  12.878  65.597  1.00  0.00    -0.292 A  
HETATM   17  C   UNL     1     -11.703  13.430  68.018  1.00  0.00    -0.391 A  
HETATM   18  C   UNL     1     -11.869  14.317  66.962  1.00  0.00    -0.455 A  
HETATM   19  C   UNL     1     -11.301  14.019  65.736  1.00  0.00    -0.312 A  
BRANCH  13  20
HETATM   20  C   UNL     1      -9.024  10.379  65.220  1.00  0.00    -0.187 C  
HETATM   21  H1  UNL     1      -7.791  10.497  63.602  1.00  0.00     0.000 HD 
HETATM   22  O   UNL     1      -9.605   9.424  64.709  1.00  0.00    -0.150 OA 
HETATM   23  N   UNL     1      -7.977  10.906  64.518  1.00  0.00    -0.346 N  
HETATM   24  H2  UNL     1      -7.411  11.669  64.890  1.00  0.00     0.000 HD 
ENDBRANCH  13  20
ENDBRANCH   4   5
ENDBRANCH   2   4
TORSDOF 3
ENDMDL
MODEL       73
REMARK 921   NORMALIZED FREE ENERGY PREDICTED BY IDOCK:   -4.13 KCAL/MOL
REMARK 922        TOTAL FREE ENERGY PREDICTED BY IDOCK:   -5.41 KCAL/MOL
REMARK 923 INTER-LIGAND FREE ENERGY PREDICTED BY IDOCK:   -5.12 KCAL/MOL
REMARK 924 INTRA-LIGAND FREE ENERGY PREDICTED BY IDOCK:   -0.29 KCAL/MOL
REMARK 927      BINDING AFFINITY PREDICTED BY RF-SCORE:    0.00 PKD
ROOT
HETATM    1  C   UNL     1      -5.699  16.111  69.651  1.00  0.00    -0.144 C  
HETATM    2  C   UNL     1      -6.186  15.185  68.579  1.00  0.00    -0.093 C  
HETATM    3  O   UNL     1      -5.768  15.182  67.431  1.00  0.00    -0.339 OA 
ENDROOT
BRANCH   2   4
HETATM    4  O   UNL     1      -7.169  14.380  69.059  1.00  0.00    -0.120 OA 
BRANCH   4   5
HETATM    5  C   UNL     1      -7.927  13.628  68.075  1.00  0.00    -0.154 C  
HETATM    6  C   UNL     1      -7.578  12.149  68.230  1.00  0.00    -0.132 C  
HETATM    7  C   UNL     1      -8.363  11.352  67.233  1.00  0.00    -0.149 A  
HETATM    8  C   UNL     1      -7.750  10.826  66.086  1.00  0.00    -0.149 A  
HETATM    9  C   UNL     1      -8.508  10.131  65.143  1.00  0.00    -0.167 A  
HETATM   10  C   UNL     1      -9.875   9.962  65.335  1.00  0.00    -0.384 A  
HETATM   11  C   UNL     1     -10.489  10.482  66.477  1.00  0.00    -0.276 A  
HETATM   12  C   UNL     1      -9.738  11.181  67.432  1.00  0.00    -0.173 A  
HETATM   13  N   UNL     1     -10.357  11.690  68.619  1.00  0.00    -0.215 N  
HETATM   14  C   UNL     1      -9.390  14.012  68.289  1.00  0.00    -0.208 A  
HETATM   15  C   UNL     1     -10.431  13.137  68.689  1.00  0.00    -0.227 A  
HETATM   16  C   UNL     1     -11.655  13.724  69.082  1.00  0.00    -0.363 A  
HETATM   17  C   UNL     1      -9.670  15.396  68.151  1.00  0.00    -0.212 A  
HETATM   18  C   UNL     1     -10.903  15.934  68.497  1.00  0.00    -0.298 A  
HETATM   19  C   UNL     1     -11.885  15.100  69.002  1.00  0.00    -0.331 A  
BRANCH  13  20
HETATM   20  C   UNL     1     -11.118  10.870  69.468  1.00  0.00    -0.268 C  
HETATM   21  H1  UNL     1     -10.982   9.574  71.035  1.00  0.00     0.000 HD 
HETATM   22  O   UNL     1     -12.342  10.762  69.484  1.00  0.00    -0.305 OA 
HETATM   23  N   UNL     1     -10.429  10.169  70.418  1.00  0.00    -0.412 N  
HETATM   24  H2  UNL     1      -9.416  10.238  70.507  1.00  0.00     0.000 HD 
ENDBRANCH  13  20
ENDBRANCH   4   5
ENDBRANCH   2   4
TORSDOF 3
ENDMDL
MODEL       74
REMARK 921   NORMALIZED FREE ENERGY PREDICTED BY IDOCK:   -4.10 KCAL/MOL
REMARK 922        TOTAL FREE ENERGY PREDICTED BY IDOCK:   -5.37 KCAL/MOL
REMARK 923 INTER-LIGAND FREE ENERGY PREDICTED BY IDOCK:   -5.00 KCAL/MOL
REMARK 924 INTRA-LIGAND FREE ENERGY PREDICTED BY IDOCK:   -0.37 KCAL/MOL
REMARK 927      BINDING AFFINITY PREDICTED BY RF-SCORE:    0.00 PKD
ROOT
HETATM    1  C   UNL     1     -10.805   1.761  72.768  1.00  0.00    -0.210 C  
HETATM    2  C   UNL     1      -9.844   2.729  72.148  1.00  0.00    -0.169 C  
HETATM    3  O   UNL     1      -8.874   2.402  71.481  1.00  0.00    -0.066 OA 
ENDROOT
BRANCH   2   4
HETATM    4  O   UNL     1     -10.191   4.005  72.460  1.00  0.00    -0.162 OA 
BRANCH   4   5
HETATM    5  C   UNL     1      -9.897   5.016  71.460  1.00  0.00    -0.180 C  
HETATM    6  C   UNL     1     -11.160   5.257  70.637  1.00  0.00     0.178 C  
HETATM    7  C   UNL     1     -10.883   6.311  69.608  1.00  0.00    -0.403 A  
HETATM    8  C   UNL     1     -10.712   5.974  68.257  1.00  0.00    -0.352 A  
HETATM    9  C   UNL     1     -10.403   6.962  67.323  1.00  0.00    -0.320 A  
HETATM   10  C   UNL     1     -10.260   8.285  67.728  1.00  0.00    -0.282 A  
HETATM   11  C   UNL     1     -10.432   8.625  69.071  1.00  0.00    -0.216 A  
HETATM   12  C   UNL     1     -10.743   7.641  70.020  1.00  0.00    -0.241 A  
HETATM   13  N   UNL     1     -10.951   7.990  71.393  1.00  0.00    -0.230 N  
HETATM   14  C   UNL     1      -9.340   6.215  72.226  1.00  0.00    -0.149 A  
HETATM   15  C   UNL     1      -9.930   7.502  72.302  1.00  0.00    -0.181 A  
HETATM   16  C   UNL     1      -9.408   8.398  73.261  1.00  0.00    -0.145 A  
HETATM   17  C   UNL     1      -8.175   5.947  72.990  1.00  0.00    -0.117 A  
HETATM   18  C   UNL     1      -7.657   6.871  73.889  1.00  0.00    -0.106 A  
HETATM   19  C   UNL     1      -8.299   8.086  74.053  1.00  0.00    -0.323 A  
BRANCH  13  20
HETATM   20  C   UNL     1     -11.863   8.986  71.775  1.00  0.00    -0.372 C  
HETATM   21  H1  UNL     1     -13.509   9.336  72.925  1.00  0.00     0.000 HD 
HETATM   22  O   UNL     1     -11.835  10.172  71.453  1.00  0.00    -0.368 OA 
HETATM   23  N   UNL     1     -12.847   8.612  72.648  1.00  0.00    -0.584 N  
HETATM   24  H2  UNL     1     -12.914   7.659  73.004  1.00  0.00     0.000 HD 
ENDBRANCH  13  20
ENDBRANCH   4   5
ENDBRANCH   2   4
TORSDOF 3
ENDMDL
MODEL       75
REMARK 921   NORMALIZED FREE ENERGY PREDICTED BY IDOCK:   -4.08 KCAL/MOL
REMARK 922        TOTAL FREE ENERGY PREDICTED BY IDOCK:   -5.35 KCAL/MOL
REMARK 923 INTER-LIGAND FREE ENERGY PREDICTED BY IDOCK:   -4.82 KCAL/MOL
REMARK 924 INTRA-LIGAND FREE ENERGY PREDICTED BY IDOCK:   -0.53 KCAL/MOL
REMARK 927      BINDING AFFINITY PREDICTED BY RF-SCORE:    0.00 PKD
ROOT
HETATM    1  C   UNL     1     -10.734   8.532  72.154  1.00  0.00    -0.426 C  
HETATM    2  C   UNL     1     -11.836   8.415  71.145  1.00  0.00    -0.282 C  
HETATM    3  O   UNL     1     -13.025   8.433  71.422  1.00  0.00    -0.299 OA 
ENDROOT
BRANCH   2   4
HETATM    4  O   UNL     1     -11.321   8.258  69.898  1.00  0.00    -0.105 OA 
BRANCH   4   5
HETATM    5  C   UNL     1     -10.319   7.219  69.739  1.00  0.00    -0.220 C  
HETATM    6  C   UNL     1     -11.033   5.869  69.691  1.00  0.00    -0.447 C  
HETATM    7  C   UNL     1     -10.016   4.782  69.511  1.00  0.00    -0.287 A  
HETATM    8  C   UNL     1      -9.654   3.949  70.579  1.00  0.00    -0.263 A  
HETATM    9  C   UNL     1      -8.669   2.977  70.406  1.00  0.00    -0.127 A  
HETATM   10  C   UNL     1      -8.039   2.834  69.173  1.00  0.00    -0.069 A  
HETATM   11  C   UNL     1      -8.400   3.660  68.107  1.00  0.00    -0.095 A  
HETATM   12  C   UNL     1      -9.389   4.640  68.268  1.00  0.00    -0.136 A  
HETATM   13  N   UNL     1      -9.783   5.468  67.168  1.00  0.00    -0.132 N  
HETATM   14  C   UNL     1      -9.504   7.606  68.506  1.00  0.00    -0.147 A  
HETATM   15  C   UNL     1      -9.413   6.865  67.301  1.00  0.00    -0.137 A  
HETATM   16  C   UNL     1      -8.823   7.507  66.189  1.00  0.00    -0.185 A  
HETATM   17  C   UNL     1      -8.869   8.872  68.584  1.00  0.00    -0.137 A  
HETATM   18  C   UNL     1      -8.252   9.454  67.483  1.00  0.00    -0.117 A  
HETATM   19  C   UNL     1      -8.264   8.785  66.272  1.00  0.00    -0.115 A  
BRANCH  13  20
HETATM   20  C   UNL     1     -10.185   4.925  65.938  1.00  0.00    -0.223 C  
HETATM   21  H1  UNL     1     -11.806   4.622  64.740  1.00  0.00     0.000 HD 
HETATM   22  O   UNL     1      -9.457   4.429  65.080  1.00  0.00    -0.157 OA 
HETATM   23  N   UNL     1     -11.515   5.017  65.635  1.00  0.00    -0.713 N  
HETATM   24  H2  UNL     1     -12.181   5.457  66.269  1.00  0.00     0.000 HD 
ENDBRANCH  13  20
ENDBRANCH   4   5
ENDBRANCH   2   4
TORSDOF 3
ENDMDL
MODEL       76
REMARK 921   NORMALIZED FREE ENERGY PREDICTED BY IDOCK:   -4.00 KCAL/MOL
REMARK 922        TOTAL FREE ENERGY PREDICTED BY IDOCK:   -5.26 KCAL/MOL
REMARK 923 INTER-LIGAND FREE ENERGY PREDICTED BY IDOCK:   -5.12 KCAL/MOL
REMARK 924 INTRA-LIGAND FREE ENERGY PREDICTED BY IDOCK:   -0.14 KCAL/MOL
REMARK 927      BINDING AFFINITY PREDICTED BY RF-SCORE:    0.00 PKD
ROOT
HETATM    1  C   UNL     1      -8.158   5.225  67.121  1.00  0.00    -0.101 C  
HETATM    2  C   UNL     1      -7.774   5.762  68.466  1.00  0.00    -0.093 C  
HETATM    3  O   UNL     1      -6.632   6.048  68.791  1.00  0.00    -0.050 OA 
ENDROOT
BRANCH   2   4
HETATM    4  O   UNL     1      -8.866   5.853  69.269  1.00  0.00    -0.117 OA 
BRANCH   4   5
HETATM    5  C   UNL     1      -9.266   7.191  69.665  1.00  0.00    -0.146 C  
HETATM    6  C   UNL     1     -10.486   7.591  68.839  1.00  0.00    -0.214 C  
HETATM    7  C   UNL     1     -10.926   8.965  69.245  1.00  0.00    -0.026 A  
HETATM    8  C   UNL     1     -10.675  10.075  68.425  1.00  0.00    -0.271 A  
HETATM    9  C   UNL     1     -11.046  11.353  68.844  1.00  0.00    -0.290 A  
HETATM   10  C   UNL     1     -11.663  11.531  70.077  1.00  0.00    -0.414 A  
HETATM   11  C   UNL     1     -11.917  10.428  70.895  1.00  0.00    -0.478 A  
HETATM   12  C   UNL     1     -11.550   9.138  70.485  1.00  0.00    -0.197 A  
HETATM   13  N   UNL     1     -11.837   8.001  71.307  1.00  0.00    -0.292 N  
HETATM   14  C   UNL     1      -9.453   7.142  71.181  1.00  0.00    -0.157 A  
HETATM   15  C   UNL     1     -10.669   7.358  71.878  1.00  0.00    -0.216 A  
HETATM   16  C   UNL     1     -10.698   7.018  73.249  1.00  0.00    -0.373 A  
HETATM   17  C   UNL     1      -8.301   6.752  71.912  1.00  0.00    -0.109 A  
HETATM   18  C   UNL     1      -8.354   6.474  73.273  1.00  0.00    -0.120 A  
HETATM   19  C   UNL     1      -9.565   6.570  73.934  1.00  0.00    -0.222 A  
BRANCH  13  20
HETATM   20  C   UNL     1     -13.131   7.740  71.785  1.00  0.00    -0.322 C  
HETATM   21  H1  UNL     1     -14.532   8.367  73.126  1.00  0.00     0.000 HD 
HETATM   22  O   UNL     1     -13.914   6.891  71.362  1.00  0.00    -0.246 OA 
HETATM   23  N   UNL     1     -13.592   8.557  72.779  1.00  0.00    -0.662 N  
HETATM   24  H2  UNL     1     -13.025   9.317  73.154  1.00  0.00     0.000 HD 
ENDBRANCH  13  20
ENDBRANCH   4   5
ENDBRANCH   2   4
TORSDOF 3
ENDMDL
MODEL       77
REMARK 921   NORMALIZED FREE ENERGY PREDICTED BY IDOCK:   -3.96 KCAL/MOL
REMARK 922        TOTAL FREE ENERGY PREDICTED BY IDOCK:   -5.21 KCAL/MOL
REMARK 923 INTER-LIGAND FREE ENERGY PREDICTED BY IDOCK:   -5.16 KCAL/MOL
REMARK 924 INTRA-LIGAND FREE ENERGY PREDICTED BY IDOCK:   -0.04 KCAL/MOL
REMARK 927      BINDING AFFINITY PREDICTED BY RF-SCORE:    0.00 PKD
ROOT
HETATM    1  C   UNL     1     -14.138   7.362  71.826  1.00  0.00    -0.510 C  
HETATM    2  C   UNL     1     -12.698   7.054  71.549  1.00  0.00    -0.381 C  
HETATM    3  O   UNL     1     -12.031   6.255  72.189  1.00  0.00    -0.329 OA 
ENDROOT
BRANCH   2   4
HETATM    4  O   UNL     1     -12.243   7.807  70.514  1.00  0.00    -0.040 OA 
BRANCH   4   5
HETATM    5  C   UNL     1     -10.998   8.521  70.733  1.00  0.00    -0.247 C  
HETATM    6  C   UNL     1      -9.961   7.989  69.745  1.00  0.00    -0.191 C  
HETATM    7  C   UNL     1      -8.671   8.726  69.944  1.00  0.00    -0.135 A  
HETATM    8  C   UNL     1      -7.584   8.117  70.588  1.00  0.00    -0.073 A  
HETATM    9  C   UNL     1      -6.410   8.836  70.810  1.00  0.00    -0.045 A  
HETATM   10  C   UNL     1      -6.314  10.161  70.396  1.00  0.00    -0.121 A  
HETATM   11  C   UNL     1      -7.393  10.769  69.752  1.00  0.00    -0.072 A  
HETATM   12  C   UNL     1      -8.579  10.057  69.522  1.00  0.00    -0.186 A  
HETATM   13  N   UNL     1      -9.676  10.668  68.834  1.00  0.00    -0.195 N  
HETATM   14  C   UNL     1     -11.342  10.006  70.630  1.00  0.00    -0.425 A  
HETATM   15  C   UNL     1     -10.845  10.912  69.659  1.00  0.00    -0.216 A  
HETATM   16  C   UNL     1     -11.473  12.174  69.569  1.00  0.00    -0.334 A  
HETATM   17  C   UNL     1     -12.320  10.458  71.554  1.00  0.00    -0.468 A  
HETATM   18  C   UNL     1     -12.881  11.726  71.469  1.00  0.00    -0.450 A  
HETATM   19  C   UNL     1     -12.484  12.572  70.448  1.00  0.00    -0.215 A  
BRANCH  13  20
HETATM   20  C   UNL     1      -9.518  11.277  67.580  1.00  0.00    -0.169 C  
HETATM   21  H1  UNL     1      -8.710  12.897  66.644  1.00  0.00     0.000 HD 
HETATM   22  O   UNL     1      -9.886  10.833  66.494  1.00  0.00    -0.190 OA 
HETATM   23  N   UNL     1      -8.825  12.455  67.555  1.00  0.00    -0.172 N  
HETATM   24  H2  UNL     1      -8.442  12.870  68.405  1.00  0.00     0.000 HD 
ENDBRANCH  13  20
ENDBRANCH   4   5
ENDBRANCH   2   4
TORSDOF 3
ENDMDL
MODEL       78
REMARK 921   NORMALIZED FREE ENERGY PREDICTED BY IDOCK:   -3.95 KCAL/MOL
REMARK 922        TOTAL FREE ENERGY PREDICTED BY IDOCK:   -5.20 KCAL/MOL
REMARK 923 INTER-LIGAND FREE ENERGY PREDICTED BY IDOCK:   -4.71 KCAL/MOL
REMARK 924 INTRA-LIGAND FREE ENERGY PREDICTED BY IDOCK:   -0.49 KCAL/MOL
REMARK 927      BINDING AFFINITY PREDICTED BY RF-SCORE:    0.00 PKD
ROOT
HETATM    1  C   UNL     1     -11.344   9.107  71.437  1.00  0.00    -0.414 C  
HETATM    2  C   UNL     1     -11.583  10.380  70.682  1.00  0.00    -0.349 C  
HETATM    3  O   UNL     1     -12.520  11.135  70.889  1.00  0.00    -0.362 OA 
ENDROOT
BRANCH   2   4
HETATM    4  O   UNL     1     -10.633  10.549  69.726  1.00  0.00    -0.247 OA 
BRANCH   4   5
HETATM    5  C   UNL     1     -10.120   9.341  69.105  1.00  0.00    -0.199 C  
HETATM    6  C   UNL     1     -10.856   9.131  67.784  1.00  0.00    -0.159 C  
HETATM    7  C   UNL     1     -10.329   7.896  67.118  1.00  0.00    -0.398 A  
HETATM    8  C   UNL     1     -11.074   6.708  67.105  1.00  0.00    -0.427 A  
HETATM    9  C   UNL     1     -10.545   5.556  66.526  1.00  0.00    -0.343 A  
HETATM   10  C   UNL     1      -9.273   5.579  65.962  1.00  0.00    -0.168 A  
HETATM   11  C   UNL     1      -8.529   6.760  65.970  1.00  0.00    -0.143 A  
HETATM   12  C   UNL     1      -9.051   7.926  66.549  1.00  0.00    -0.170 A  
HETATM   13  N   UNL     1      -8.303   9.148  66.532  1.00  0.00    -0.117 N  
HETATM   14  C   UNL     1      -8.605   9.522  69.023  1.00  0.00    -0.133 A  
HETATM   15  C   UNL     1      -7.837   9.589  67.833  1.00  0.00    -0.091 A  
HETATM   16  C   UNL     1      -6.496  10.016  67.951  1.00  0.00    -0.059 A  
HETATM   17  C   UNL     1      -7.960   9.729  70.270  1.00  0.00    -0.185 A  
HETATM   18  C   UNL     1      -6.623  10.098  70.353  1.00  0.00    -0.132 A  
HETATM   19  C   UNL     1      -5.900  10.280  69.187  1.00  0.00    -0.037 A  
BRANCH  13  20
HETATM   20  C   UNL     1      -7.786   9.683  65.342  1.00  0.00    -0.117 C  
HETATM   21  H1  UNL     1      -7.966  11.242  64.041  1.00  0.00     0.000 HD 
HETATM   22  O   UNL     1      -6.845   9.242  64.684  1.00  0.00    -0.087 OA 
HETATM   23  N   UNL     1      -8.342  10.853  64.906  1.00  0.00    -0.370 N  
HETATM   24  H2  UNL     1      -9.094  11.313  65.418  1.00  0.00     0.000 HD 
ENDBRANCH  13  20
ENDBRANCH   4   5
ENDBRANCH   2   4
TORSDOF 3
ENDMDL
MODEL       79
REMARK 921   NORMALIZED FREE ENERGY PREDICTED BY IDOCK:   -3.91 KCAL/MOL
REMARK 922        TOTAL FREE ENERGY PREDICTED BY IDOCK:   -5.15 KCAL/MOL
REMARK 923 INTER-LIGAND FREE ENERGY PREDICTED BY IDOCK:   -4.75 KCAL/MOL
REMARK 924 INTRA-LIGAND FREE ENERGY PREDICTED BY IDOCK:   -0.40 KCAL/MOL
REMARK 927      BINDING AFFINITY PREDICTED BY RF-SCORE:    0.00 PKD
ROOT
HETATM    1  C   UNL     1     -11.728  12.458  63.469  1.00  0.00    -0.592 C  
HETATM    2  C   UNL     1     -10.572  11.510  63.575  1.00  0.00    -0.423 C  
HETATM    3  O   UNL     1      -9.784  11.284  62.670  1.00  0.00    -0.283 OA 
ENDROOT
BRANCH   2   4
HETATM    4  O   UNL     1     -10.550  10.927  64.802  1.00  0.00    -0.315 OA 
BRANCH   4   5
HETATM    5  C   UNL     1      -9.383  11.194  65.623  1.00  0.00    -0.219 C  
HETATM    6  C   UNL     1      -9.761  12.242  66.667  1.00  0.00    -0.229 C  
HETATM    7  C   UNL     1      -8.572  12.520  67.537  1.00  0.00    -0.183 A  
HETATM    8  C   UNL     1      -7.835  13.705  67.394  1.00  0.00    -0.162 A  
HETATM    9  C   UNL     1      -6.702  13.923  68.177  1.00  0.00    -0.125 A  
HETATM   10  C   UNL     1      -6.296  12.964  69.099  1.00  0.00    -0.105 A  
HETATM   11  C   UNL     1      -7.029  11.784  69.246  1.00  0.00    -0.065 A  
HETATM   12  C   UNL     1      -8.171  11.554  68.465  1.00  0.00    -0.148 A  
HETATM   13  N   UNL     1      -8.942  10.360  68.635  1.00  0.00    -0.139 N  
HETATM   14  C   UNL     1      -8.923   9.837  66.152  1.00  0.00    -0.181 A  
HETATM   15  C   UNL     1      -8.887   9.441  67.513  1.00  0.00    -0.118 A  
HETATM   16  C   UNL     1      -8.679   8.070  67.784  1.00  0.00    -0.127 A  
HETATM   17  C   UNL     1      -8.595   8.886  65.151  1.00  0.00    -0.208 A  
HETATM   18  C   UNL     1      -8.344   7.554  65.457  1.00  0.00    -0.137 A  
HETATM   19  C   UNL     1      -8.425   7.137  66.774  1.00  0.00    -0.121 A  
BRANCH  13  20
HETATM   20  C   UNL     1      -9.429   9.963  69.890  1.00  0.00    -0.220 C  
HETATM   21  H1  UNL     1     -11.039  10.097  71.132  1.00  0.00     0.000 HD 
HETATM   22  O   UNL     1      -8.866   9.227  70.698  1.00  0.00    -0.213 OA 
HETATM   23  N   UNL     1     -10.686  10.386  70.220  1.00  0.00    -0.436 N  
HETATM   24  H2  UNL     1     -11.243  10.959  69.587  1.00  0.00     0.000 HD 
ENDBRANCH  13  20
ENDBRANCH   4   5
ENDBRANCH   2   4
TORSDOF 3
ENDMDL
MODEL       80
REMARK 921   NORMALIZED FREE ENERGY PREDICTED BY IDOCK:   -3.90 KCAL/MOL
REMARK 922        TOTAL FREE ENERGY PREDICTED BY IDOCK:   -5.14 KCAL/MOL
REMARK 923 INTER-LIGAND FREE ENERGY PREDICTED BY IDOCK:   -5.11 KCAL/MOL
REMARK 924 INTRA-LIGAND FREE ENERGY PREDICTED BY IDOCK:   -0.03 KCAL/MOL
REMARK 927      BINDING AFFINITY PREDICTED BY RF-SCORE:    0.00 PKD
ROOT
HETATM    1  C   UNL     1     -12.108  10.299  71.116  1.00  0.00    -0.494 C  
HETATM    2  C   UNL     1     -11.392   9.074  71.599  1.00  0.00    -0.360 C  
HETATM    3  O   UNL     1     -10.237   9.066  71.995  1.00  0.00    -0.339 OA 
ENDROOT
BRANCH   2   4
HETATM    4  O   UNL     1     -12.199   7.986  71.503  1.00  0.00    -0.285 OA 
BRANCH   4   5
HETATM    5  C   UNL     1     -11.748   6.922  70.624  1.00  0.00    -0.367 C  
HETATM    6  C   UNL     1     -10.953   7.551  69.481  1.00  0.00    -0.127 C  
HETATM    7  C   UNL     1     -10.462   6.467  68.570  1.00  0.00    -0.265 A  
HETATM    8  C   UNL     1     -11.061   6.248  67.320  1.00  0.00    -0.387 A  
HETATM    9  C   UNL     1     -10.625   5.201  66.508  1.00  0.00    -0.320 A  
HETATM   10  C   UNL     1      -9.597   4.368  66.937  1.00  0.00    -0.219 A  
HETATM   11  C   UNL     1      -8.996   4.584  68.179  1.00  0.00    -0.140 A  
HETATM   12  C   UNL     1      -9.425   5.634  69.004  1.00  0.00    -0.126 A  
HETATM   13  N   UNL     1      -8.791   5.878  70.265  1.00  0.00    -0.141 N  
HETATM   14  C   UNL     1     -10.999   5.932  71.514  1.00  0.00    -0.323 A  
HETATM   15  C   UNL     1      -9.622   5.603  71.422  1.00  0.00    -0.152 A  
HETATM   16  C   UNL     1      -9.059   4.868  72.488  1.00  0.00    -0.145 A  
HETATM   17  C   UNL     1     -11.767   5.381  72.573  1.00  0.00    -0.176 A  
HETATM   18  C   UNL     1     -11.189   4.617  73.580  1.00  0.00    -0.400 A  
HETATM   19  C   UNL     1      -9.824   4.394  73.558  1.00  0.00    -0.161 A  
BRANCH  13  20
HETATM   20  C   UNL     1      -7.401   6.040  70.376  1.00  0.00    -0.088 C  
HETATM   21  H1  UNL     1      -5.948   7.406  70.794  1.00  0.00     0.000 HD 
HETATM   22  O   UNL     1      -6.546   5.164  70.261  1.00  0.00    -0.036 OA 
HETATM   23  N   UNL     1      -6.957   7.289  70.713  1.00  0.00    -0.056 N  
HETATM   24  H2  UNL     1      -7.602   8.062  70.875  1.00  0.00     0.000 HD 
ENDBRANCH  13  20
ENDBRANCH   4   5
ENDBRANCH   2   4
TORSDOF 3
ENDMDL
MODEL       81
REMARK 921   NORMALIZED FREE ENERGY PREDICTED BY IDOCK:   -3.90 KCAL/MOL
REMARK 922        TOTAL FREE ENERGY PREDICTED BY IDOCK:   -5.14 KCAL/MOL
REMARK 923 INTER-LIGAND FREE ENERGY PREDICTED BY IDOCK:   -5.61 KCAL/MOL
REMARK 924 INTRA-LIGAND FREE ENERGY PREDICTED BY IDOCK:    0.47 KCAL/MOL
REMARK 927      BINDING AFFINITY PREDICTED BY RF-SCORE:    0.00 PKD
ROOT
HETATM    1  C   UNL     1     -12.618  14.586  64.055  1.00  0.00     0.069 C  
HETATM    2  C   UNL     1     -12.237  13.352  64.815  1.00  0.00    -0.409 C  
HETATM    3  O   UNL     1     -12.836  12.290  64.746  1.00  0.00    -0.661 OA 
ENDROOT
BRANCH   2   4
HETATM    4  O   UNL     1     -11.158  13.597  65.604  1.00  0.00    -0.293 OA 
BRANCH   4   5
HETATM    5  C   UNL     1     -11.427  14.201  66.896  1.00  0.00    -0.357 C  
HETATM    6  C   UNL     1     -11.002  13.216  67.983  1.00  0.00    -0.270 C  
HETATM    7  C   UNL     1     -11.257  13.829  69.328  1.00  0.00    -0.291 A  
HETATM    8  C   UNL     1     -12.337  13.409  70.119  1.00  0.00    -0.322 A  
HETATM    9  C   UNL     1     -12.588  14.026  71.344  1.00  0.00    -0.451 A  
HETATM   10  C   UNL     1     -11.772  15.063  71.784  1.00  0.00    -0.452 A  
HETATM   11  C   UNL     1     -10.695  15.482  71.000  1.00  0.00    -0.066 A  
HETATM   12  C   UNL     1     -10.430  14.868  69.766  1.00  0.00    -0.131 A  
HETATM   13  N   UNL     1      -9.309  15.274  68.974  1.00  0.00    -0.218 N  
HETATM   14  C   UNL     1     -10.718  15.554  66.883  1.00  0.00    -0.317 A  
HETATM   15  C   UNL     1      -9.655  15.946  67.736  1.00  0.00    -0.218 A  
HETATM   16  C   UNL     1      -8.962  17.131  67.404  1.00  0.00    -0.223 A  
HETATM   17  C   UNL     1     -11.130  16.435  65.850  1.00  0.00     0.140 A  
HETATM   18  C   UNL     1     -10.457  17.620  65.582  1.00  0.00    -0.150 A  
HETATM   19  C   UNL     1      -9.345  17.949  66.337  1.00  0.00    -0.268 A  
BRANCH  13  20
HETATM   20  C   UNL     1      -8.008  15.321  69.500  1.00  0.00    -0.199 C  
HETATM   21  H1  UNL     1      -6.465  14.154  70.139  1.00  0.00     0.000 HD 
HETATM   22  O   UNL     1      -7.330  16.327  69.697  1.00  0.00    -0.160 OA 
HETATM   23  N   UNL     1      -7.410  14.119  69.758  1.00  0.00    -0.361 N  
HETATM   24  H2  UNL     1      -7.883  13.234  69.577  1.00  0.00     0.000 HD 
ENDBRANCH  13  20
ENDBRANCH   4   5
ENDBRANCH   2   4
TORSDOF 3
ENDMDL
MODEL       82
REMARK 921   NORMALIZED FREE ENERGY PREDICTED BY IDOCK:   -3.89 KCAL/MOL
REMARK 922        TOTAL FREE ENERGY PREDICTED BY IDOCK:   -5.13 KCAL/MOL
REMARK 923 INTER-LIGAND FREE ENERGY PREDICTED BY IDOCK:   -5.01 KCAL/MOL
REMARK 924 INTRA-LIGAND FREE ENERGY PREDICTED BY IDOCK:   -0.12 KCAL/MOL
REMARK 927      BINDING AFFINITY PREDICTED BY RF-SCORE:    0.00 PKD
ROOT
HETATM    1  C   UNL     1     -10.720  10.561  68.465  1.00  0.00    -0.259 C  
HETATM    2  C   UNL     1     -11.002  10.629  66.995  1.00  0.00    -0.208 C  
HETATM    3  O   UNL     1     -11.712  11.473  66.470  1.00  0.00    -0.455 OA 
ENDROOT
BRANCH   2   4
HETATM    4  O   UNL     1     -10.383   9.608  66.347  1.00  0.00    -0.237 OA 
BRANCH   4   5
HETATM    5  C   UNL     1      -9.940   8.496  67.168  1.00  0.00    -0.238 C  
HETATM    6  C   UNL     1     -11.134   7.574  67.409  1.00  0.00     0.005 C  
HETATM    7  C   UNL     1     -10.693   6.409  68.243  1.00  0.00    -0.351 A  
HETATM    8  C   UNL     1     -11.035   6.322  69.601  1.00  0.00    -0.440 A  
HETATM    9  C   UNL     1     -10.573   5.257  70.372  1.00  0.00    -0.278 A  
HETATM   10  C   UNL     1      -9.768   4.278  69.799  1.00  0.00    -0.290 A  
HETATM   11  C   UNL     1      -9.428   4.359  68.447  1.00  0.00    -0.213 A  
HETATM   12  C   UNL     1      -9.887   5.425  67.660  1.00  0.00    -0.150 A  
HETATM   13  N   UNL     1      -9.566   5.495  66.267  1.00  0.00    -0.156 N  
HETATM   14  C   UNL     1      -8.742   7.888  66.441  1.00  0.00    -0.170 A  
HETATM   15  C   UNL     1      -8.669   6.576  65.907  1.00  0.00    -0.141 A  
HETATM   16  C   UNL     1      -7.584   6.286  65.050  1.00  0.00    -0.090 A  
HETATM   17  C   UNL     1      -7.660   8.780  66.223  1.00  0.00    -0.091 A  
HETATM   18  C   UNL     1      -6.581   8.443  65.415  1.00  0.00    -0.056 A  
HETATM   19  C   UNL     1      -6.563   7.206  64.795  1.00  0.00    -0.043 A  
BRANCH  13  20
HETATM   20  C   UNL     1      -9.822   4.427  65.392  1.00  0.00    -0.210 C  
HETATM   21  H1  UNL     1     -11.288   3.533  64.295  1.00  0.00     0.000 HD 
HETATM   22  O   UNL     1      -9.002   3.623  64.953  1.00  0.00    -0.117 OA 
HETATM   23  N   UNL     1     -11.103   4.308  64.930  1.00  0.00    -0.823 N  
HETATM   24  H2  UNL     1     -11.835   4.962  65.205  1.00  0.00     0.000 HD 
ENDBRANCH  13  20
ENDBRANCH   4   5
ENDBRANCH   2   4
TORSDOF 3
ENDMDL
MODEL       83
REMARK 921   NORMALIZED FREE ENERGY PREDICTED BY IDOCK:   -3.88 KCAL/MOL
REMARK 922        TOTAL FREE ENERGY PREDICTED BY IDOCK:   -5.11 KCAL/MOL
REMARK 923 INTER-LIGAND FREE ENERGY PREDICTED BY IDOCK:   -5.00 KCAL/MOL
REMARK 924 INTRA-LIGAND FREE ENERGY PREDICTED BY IDOCK:   -0.11 KCAL/MOL
REMARK 927      BINDING AFFINITY PREDICTED BY RF-SCORE:    0.00 PKD
ROOT
HETATM    1  C   UNL     1      -5.661   7.813  73.129  1.00  0.00    -0.045 C  
HETATM    2  C   UNL     1      -7.111   8.185  73.193  1.00  0.00    -0.118 C  
HETATM    3  O   UNL     1      -7.586   8.962  74.007  1.00  0.00    -0.409 OA 
ENDROOT
BRANCH   2   4
HETATM    4  O   UNL     1      -7.814   7.514  72.243  1.00  0.00    -0.092 OA 
BRANCH   4   5
HETATM    5  C   UNL     1      -8.428   8.322  71.204  1.00  0.00    -0.141 C  
HETATM    6  C   UNL     1      -7.629   8.135  69.917  1.00  0.00    -0.089 C  
HETATM    7  C   UNL     1      -8.257   8.949  68.826  1.00  0.00    -0.115 A  
HETATM    8  C   UNL     1      -7.668  10.143  68.386  1.00  0.00    -0.089 A  
HETATM    9  C   UNL     1      -8.294  10.913  67.406  1.00  0.00    -0.117 A  
HETATM   10  C   UNL     1      -9.508  10.501  66.865  1.00  0.00    -0.191 A  
HETATM   11  C   UNL     1     -10.096   9.311  67.298  1.00  0.00    -0.291 A  
HETATM   12  C   UNL     1      -9.476   8.527  68.282  1.00  0.00    -0.134 A  
HETATM   13  N   UNL     1     -10.060   7.291  68.707  1.00  0.00    -0.171 N  
HETATM   14  C   UNL     1      -9.898   7.906  71.164  1.00  0.00    -0.190 A  
HETATM   15  C   UNL     1     -10.562   7.297  70.069  1.00  0.00    -0.233 A  
HETATM   16  C   UNL     1     -11.844   6.755  70.309  1.00  0.00    -0.359 A  
HETATM   17  C   UNL     1     -10.602   8.081  72.383  1.00  0.00    -0.373 A  
HETATM   18  C   UNL     1     -11.884   7.580  72.570  1.00  0.00    -0.266 A  
HETATM   19  C   UNL     1     -12.491   6.880  71.542  1.00  0.00    -0.420 A  
BRANCH  13  20
HETATM   20  C   UNL     1     -10.417   6.287  67.794  1.00  0.00    -0.232 C  
HETATM   21  H1  UNL     1     -11.716   5.838  66.289  1.00  0.00     0.000 HD 
HETATM   22  O   UNL     1      -9.854   5.206  67.631  1.00  0.00    -0.144 OA 
HETATM   23  N   UNL     1     -11.458   6.568  66.953  1.00  0.00    -0.780 N  
HETATM   24  H2  UNL     1     -11.949   7.461  66.987  1.00  0.00     0.000 HD 
ENDBRANCH  13  20
ENDBRANCH   4   5
ENDBRANCH   2   4
TORSDOF 3
ENDMDL
MODEL       84
REMARK 921   NORMALIZED FREE ENERGY PREDICTED BY IDOCK:   -3.86 KCAL/MOL
REMARK 922        TOTAL FREE ENERGY PREDICTED BY IDOCK:   -5.09 KCAL/MOL
REMARK 923 INTER-LIGAND FREE ENERGY PREDICTED BY IDOCK:   -4.63 KCAL/MOL
REMARK 924 INTRA-LIGAND FREE ENERGY PREDICTED BY IDOCK:   -0.46 KCAL/MOL
REMARK 927      BINDING AFFINITY PREDICTED BY RF-SCORE:    0.00 PKD
ROOT
HETATM    1  C   UNL     1      -9.482   3.650  67.614  1.00  0.00    -0.234 C  
HETATM    2  C   UNL     1     -10.290   4.668  66.868  1.00  0.00    -0.089 C  
HETATM    3  O   UNL     1     -10.436   4.676  65.656  1.00  0.00    -0.272 OA 
ENDROOT
BRANCH   2   4
HETATM    4  O   UNL     1     -10.804   5.586  67.728  1.00  0.00    -0.171 OA 
BRANCH   4   5
HETATM    5  C   UNL     1      -9.863   6.530  68.303  1.00  0.00    -0.132 C  
HETATM    6  C   UNL     1      -9.607   7.634  67.279  1.00  0.00    -0.201 C  
HETATM    7  C   UNL     1      -8.649   8.630  67.860  1.00  0.00    -0.137 A  
HETATM    8  C   UNL     1      -7.310   8.671  67.444  1.00  0.00    -0.089 A  
HETATM    9  C   UNL     1      -6.421   9.570  68.033  1.00  0.00    -0.061 A  
HETATM   10  C   UNL     1      -6.858  10.426  69.038  1.00  0.00    -0.064 A  
HETATM   11  C   UNL     1      -8.191  10.390  69.454  1.00  0.00    -0.158 A  
HETATM   12  C   UNL     1      -9.095   9.491  68.868  1.00  0.00    -0.141 A  
HETATM   13  N   UNL     1     -10.469   9.472  69.270  1.00  0.00    -0.205 N  
HETATM   14  C   UNL     1     -10.465   6.962  69.639  1.00  0.00    -0.240 A  
HETATM   15  C   UNL     1     -10.874   8.276  69.983  1.00  0.00    -0.232 A  
HETATM   16  C   UNL     1     -11.640   8.428  71.160  1.00  0.00    -0.317 A  
HETATM   17  C   UNL     1     -10.702   5.906  70.557  1.00  0.00    -0.363 A  
HETATM   18  C   UNL     1     -11.415   6.101  71.733  1.00  0.00    -0.342 A  
HETATM   19  C   UNL     1     -11.919   7.358  72.016  1.00  0.00    -0.333 A  
BRANCH  13  20
HETATM   20  C   UNL     1     -11.257  10.635  69.272  1.00  0.00    -0.273 C  
HETATM   21  H1  UNL     1     -12.495  11.768  68.115  1.00  0.00     0.000 HD 
HETATM   22  O   UNL     1     -11.457  11.386  70.224  1.00  0.00    -0.277 OA 
HETATM   23  N   UNL     1     -11.923  10.924  68.113  1.00  0.00    -0.300 N  
HETATM   24  H2  UNL     1     -11.851  10.326  67.290  1.00  0.00     0.000 HD 
ENDBRANCH  13  20
ENDBRANCH   4   5
ENDBRANCH   2   4
TORSDOF 3
ENDMDL
MODEL       85
REMARK 921   NORMALIZED FREE ENERGY PREDICTED BY IDOCK:   -3.85 KCAL/MOL
REMARK 922        TOTAL FREE ENERGY PREDICTED BY IDOCK:   -5.08 KCAL/MOL
REMARK 923 INTER-LIGAND FREE ENERGY PREDICTED BY IDOCK:   -5.16 KCAL/MOL
REMARK 924 INTRA-LIGAND FREE ENERGY PREDICTED BY IDOCK:    0.08 KCAL/MOL
REMARK 927      BINDING AFFINITY PREDICTED BY RF-SCORE:    0.00 PKD
ROOT
HETATM    1  C   UNL     1      -9.506   3.635  66.859  1.00  0.00    -0.213 C  
HETATM    2  C   UNL     1      -9.296   5.079  67.201  1.00  0.00    -0.125 C  
HETATM    3  O   UNL     1      -8.282   5.522  67.718  1.00  0.00    -0.101 OA 
ENDROOT
BRANCH   2   4
HETATM    4  O   UNL     1     -10.399   5.806  66.882  1.00  0.00    -0.197 OA 
BRANCH   4   5
HETATM    5  C   UNL     1     -10.867   6.743  67.887  1.00  0.00    -0.247 C  
HETATM    6  C   UNL     1     -10.720   6.087  69.258  1.00  0.00    -0.401 C  
HETATM    7  C   UNL     1     -11.184   7.046  70.313  1.00  0.00    -0.339 A  
HETATM    8  C   UNL     1     -12.419   6.871  70.956  1.00  0.00    -0.364 A  
HETATM    9  C   UNL     1     -12.856   7.801  71.898  1.00  0.00    -0.317 A  
HETATM   10  C   UNL     1     -12.071   8.909  72.200  1.00  0.00    -0.430 A  
HETATM   11  C   UNL     1     -10.840   9.085  71.565  1.00  0.00    -0.416 A  
HETATM   12  C   UNL     1     -10.388   8.156  70.617  1.00  0.00    -0.199 A  
HETATM   13  N   UNL     1      -9.113   8.317  69.986  1.00  0.00    -0.149 N  
HETATM   14  C   UNL     1     -10.081   8.033  67.657  1.00  0.00    -0.269 A  
HETATM   15  C   UNL     1      -9.175   8.630  68.570  1.00  0.00    -0.138 A  
HETATM   16  C   UNL     1      -8.355   9.671  68.081  1.00  0.00    -0.117 A  
HETATM   17  C   UNL     1     -10.232   8.603  66.367  1.00  0.00    -0.224 A  
HETATM   18  C   UNL     1      -9.443   9.662  65.935  1.00  0.00    -0.296 A  
HETATM   19  C   UNL     1      -8.475  10.171  66.781  1.00  0.00    -0.126 A  
BRANCH  13  20
HETATM   20  C   UNL     1      -7.935   8.490  70.729  1.00  0.00    -0.107 C  
HETATM   21  H1  UNL     1      -6.233   7.544  71.331  1.00  0.00     0.000 HD 
HETATM   22  O   UNL     1      -7.557   9.522  71.279  1.00  0.00    -0.327 OA 
HETATM   23  N   UNL     1      -7.089   7.418  70.791  1.00  0.00    -0.062 N  
HETATM   24  H2  UNL     1      -7.303   6.538  70.322  1.00  0.00     0.000 HD 
ENDBRANCH  13  20
ENDBRANCH   4   5
ENDBRANCH   2   4
TORSDOF 3
ENDMDL
MODEL       86
REMARK 921   NORMALIZED FREE ENERGY PREDICTED BY IDOCK:   -3.83 KCAL/MOL
REMARK 922        TOTAL FREE ENERGY PREDICTED BY IDOCK:   -5.06 KCAL/MOL
REMARK 923 INTER-LIGAND FREE ENERGY PREDICTED BY IDOCK:   -4.94 KCAL/MOL
REMARK 924 INTRA-LIGAND FREE ENERGY PREDICTED BY IDOCK:   -0.13 KCAL/MOL
REMARK 927      BINDING AFFINITY PREDICTED BY RF-SCORE:    0.00 PKD
ROOT
HETATM    1  C   UNL     1     -10.973   8.119  72.592  1.00  0.00    -0.440 C  
HETATM    2  C   UNL     1     -11.680   7.651  71.356  1.00  0.00    -0.283 C  
HETATM    3  O   UNL     1     -12.174   6.542  71.226  1.00  0.00    -0.340 OA 
ENDROOT
BRANCH   2   4
HETATM    4  O   UNL     1     -11.662   8.621  70.405  1.00  0.00    -0.164 OA 
BRANCH   4   5
HETATM    5  C   UNL     1     -10.356   9.127  70.024  1.00  0.00    -0.207 C  
HETATM    6  C   UNL     1      -9.508   7.951  69.545  1.00  0.00    -0.160 C  
HETATM    7  C   UNL     1      -8.158   8.455  69.130  1.00  0.00    -0.119 A  
HETATM    8  C   UNL     1      -7.030   8.246  69.937  1.00  0.00    -0.044 A  
HETATM    9  C   UNL     1      -5.793   8.768  69.559  1.00  0.00    -0.033 A  
HETATM   10  C   UNL     1      -5.674   9.499  68.382  1.00  0.00    -0.040 A  
HETATM   11  C   UNL     1      -6.794   9.706  67.575  1.00  0.00    -0.082 A  
HETATM   12  C   UNL     1      -8.044   9.187  67.943  1.00  0.00    -0.105 A  
HETATM   13  N   UNL     1      -9.188   9.371  67.102  1.00  0.00    -0.133 N  
HETATM   14  C   UNL     1     -10.616  10.240  69.010  1.00  0.00    -0.247 A  
HETATM   15  C   UNL     1     -10.208  10.243  67.652  1.00  0.00    -0.205 A  
HETATM   16  C   UNL     1     -10.761  11.235  66.812  1.00  0.00    -0.323 A  
HETATM   17  C   UNL     1     -11.420  11.308  69.488  1.00  0.00    -0.376 A  
HETATM   18  C   UNL     1     -11.906  12.298  68.643  1.00  0.00    -0.354 A  
HETATM   19  C   UNL     1     -11.607  12.238  67.294  1.00  0.00    -0.427 A  
BRANCH  13  20
HETATM   20  C   UNL     1      -9.174   9.017  65.744  1.00  0.00    -0.232 C  
HETATM   21  H1  UNL     1      -9.151   7.423  64.474  1.00  0.00     0.000 HD 
HETATM   22  O   UNL     1      -9.232   9.782  64.783  1.00  0.00    -0.234 OA 
HETATM   23  N   UNL     1      -9.161   7.679  65.461  1.00  0.00    -0.387 N  
HETATM   24  H2  UNL     1      -9.162   6.975  66.198  1.00  0.00     0.000 HD 
ENDBRANCH  13  20
ENDBRANCH   4   5
ENDBRANCH   2   4
TORSDOF 3
ENDMDL
MODEL       87
REMARK 921   NORMALIZED FREE ENERGY PREDICTED BY IDOCK:   -3.83 KCAL/MOL
REMARK 922        TOTAL FREE ENERGY PREDICTED BY IDOCK:   -5.06 KCAL/MOL
REMARK 923 INTER-LIGAND FREE ENERGY PREDICTED BY IDOCK:   -4.81 KCAL/MOL
REMARK 924 INTRA-LIGAND FREE ENERGY PREDICTED BY IDOCK:   -0.25 KCAL/MOL
REMARK 927      BINDING AFFINITY PREDICTED BY RF-SCORE:    0.00 PKD
ROOT
HETATM    1  C   UNL     1      -7.202  10.067  65.421  1.00  0.00    -0.139 C  
HETATM    2  C   UNL     1      -7.934   8.770  65.253  1.00  0.00    -0.118 C  
HETATM    3  O   UNL     1      -8.234   8.285  64.173  1.00  0.00    -0.159 OA 
ENDROOT
BRANCH   2   4
HETATM    4  O   UNL     1      -8.237   8.238  66.465  1.00  0.00    -0.102 OA 
BRANCH   4   5
HETATM    5  C   UNL     1      -8.809   9.144  67.444  1.00  0.00    -0.118 C  
HETATM    6  C   UNL     1     -10.321   9.183  67.235  1.00  0.00    -0.338 C  
HETATM    7  C   UNL     1     -10.934  10.103  68.248  1.00  0.00    -0.299 A  
HETATM    8  C   UNL     1     -11.389  11.378  67.883  1.00  0.00    -0.371 A  
HETATM    9  C   UNL     1     -11.909  12.239  68.850  1.00  0.00    -0.355 A  
HETATM   10  C   UNL     1     -11.973  11.837  70.180  1.00  0.00    -0.421 A  
HETATM   11  C   UNL     1     -11.523  10.567  70.547  1.00  0.00    -0.433 A  
HETATM   12  C   UNL     1     -10.999   9.692  69.584  1.00  0.00    -0.229 A  
HETATM   13  N   UNL     1     -10.566   8.378  69.951  1.00  0.00    -0.227 N  
HETATM   14  C   UNL     1      -8.318   8.656  68.806  1.00  0.00    -0.121 A  
HETATM   15  C   UNL     1      -9.133   8.167  69.859  1.00  0.00    -0.151 A  
HETATM   16  C   UNL     1      -8.483   7.524  70.936  1.00  0.00    -0.125 A  
HETATM   17  C   UNL     1      -6.908   8.620  68.956  1.00  0.00    -0.056 A  
HETATM   18  C   UNL     1      -6.300   8.026  70.054  1.00  0.00    -0.033 A  
HETATM   19  C   UNL     1      -7.090   7.441  71.028  1.00  0.00    -0.060 A  
BRANCH  13  20
HETATM   20  C   UNL     1     -11.398   7.491  70.652  1.00  0.00    -0.281 C  
HETATM   21  H1  UNL     1     -12.305   7.181  72.451  1.00  0.00     0.000 HD 
HETATM   22  O   UNL     1     -11.933   6.477  70.207  1.00  0.00    -0.394 OA 
HETATM   23  N   UNL     1     -11.699   7.825  71.942  1.00  0.00    -0.279 N  
HETATM   24  H2  UNL     1     -11.338   8.675  72.375  1.00  0.00     0.000 HD 
ENDBRANCH  13  20
ENDBRANCH   4   5
ENDBRANCH   2   4
TORSDOF 3
ENDMDL
MODEL       88
REMARK 921   NORMALIZED FREE ENERGY PREDICTED BY IDOCK:   -3.80 KCAL/MOL
REMARK 922        TOTAL FREE ENERGY PREDICTED BY IDOCK:   -5.02 KCAL/MOL
REMARK 923 INTER-LIGAND FREE ENERGY PREDICTED BY IDOCK:   -4.64 KCAL/MOL
REMARK 924 INTRA-LIGAND FREE ENERGY PREDICTED BY IDOCK:   -0.38 KCAL/MOL
REMARK 927      BINDING AFFINITY PREDICTED BY RF-SCORE:    0.00 PKD
ROOT
HETATM    1  C   UNL     1      -9.994   4.372  74.218  1.00  0.00    -0.207 C  
HETATM    2  C   UNL     1     -10.530   3.768  72.956  1.00  0.00    -0.174 C  
HETATM    3  O   UNL     1     -10.650   2.567  72.766  1.00  0.00    -0.157 OA 
ENDROOT
BRANCH   2   4
HETATM    4  O   UNL     1     -10.829   4.740  72.056  1.00  0.00    -0.111 OA 
BRANCH   4   5
HETATM    5  C   UNL     1      -9.727   5.241  71.255  1.00  0.00    -0.166 C  
HETATM    6  C   UNL     1      -9.606   4.369  70.007  1.00  0.00    -0.273 C  
HETATM    7  C   UNL     1      -8.482   4.880  69.158  1.00  0.00    -0.086 A  
HETATM    8  C   UNL     1      -7.256   4.200  69.098  1.00  0.00    -0.051 A  
HETATM    9  C   UNL     1      -6.204   4.719  68.343  1.00  0.00    -0.032 A  
HETATM   10  C   UNL     1      -6.366   5.914  67.649  1.00  0.00    -0.041 A  
HETATM   11  C   UNL     1      -7.586   6.591  67.704  1.00  0.00    -0.105 A  
HETATM   12  C   UNL     1      -8.652   6.080  68.459  1.00  0.00    -0.111 A  
HETATM   13  N   UNL     1      -9.914   6.755  68.493  1.00  0.00    -0.145 N  
HETATM   14  C   UNL     1     -10.012   6.724  71.028  1.00  0.00    -0.196 A  
HETATM   15  C   UNL     1     -10.249   7.345  69.775  1.00  0.00    -0.209 A  
HETATM   16  C   UNL     1     -10.747   8.667  69.792  1.00  0.00    -0.215 A  
HETATM   17  C   UNL     1     -10.132   7.498  72.212  1.00  0.00    -0.244 A  
HETATM   18  C   UNL     1     -10.576   8.814  72.188  1.00  0.00    -0.386 A  
HETATM   19  C   UNL     1     -10.922   9.387  70.977  1.00  0.00    -0.409 A  
BRANCH  13  20
HETATM   20  C   UNL     1     -10.600   7.103  67.319  1.00  0.00    -0.327 C  
HETATM   21  H1  UNL     1     -11.853   6.375  65.886  1.00  0.00     0.000 HD 
HETATM   22  O   UNL     1     -10.641   8.213  66.791  1.00  0.00    -0.313 OA 
HETATM   23  N   UNL     1     -11.354   6.122  66.738  1.00  0.00    -0.681 N  
HETATM   24  H2  UNL     1     -11.416   5.186  67.138  1.00  0.00     0.000 HD 
ENDBRANCH  13  20
ENDBRANCH   4   5
ENDBRANCH   2   4
TORSDOF 3
ENDMDL
MODEL       89
REMARK 921   NORMALIZED FREE ENERGY PREDICTED BY IDOCK:   -3.77 KCAL/MOL
REMARK 922        TOTAL FREE ENERGY PREDICTED BY IDOCK:   -4.99 KCAL/MOL
REMARK 923 INTER-LIGAND FREE ENERGY PREDICTED BY IDOCK:   -4.90 KCAL/MOL
REMARK 924 INTRA-LIGAND FREE ENERGY PREDICTED BY IDOCK:   -0.09 KCAL/MOL
REMARK 927      BINDING AFFINITY PREDICTED BY RF-SCORE:    0.00 PKD
ROOT
HETATM    1  C   UNL     1     -12.860  14.907  70.499  1.00  0.00    -0.376 C  
HETATM    2  C   UNL     1     -12.300  15.198  69.140  1.00  0.00    -0.052 C  
HETATM    3  O   UNL     1     -12.086  16.322  68.712  1.00  0.00    -0.098 OA 
ENDROOT
BRANCH   2   4
HETATM    4  O   UNL     1     -12.097  14.043  68.454  1.00  0.00    -0.354 OA 
BRANCH   4   5
HETATM    5  C   UNL     1     -11.288  13.034  69.113  1.00  0.00    -0.273 C  
HETATM    6  C   UNL     1     -11.978  11.682  68.946  1.00  0.00    -0.355 C  
HETATM    7  C   UNL     1     -11.149  10.623  69.607  1.00  0.00    -0.342 A  
HETATM    8  C   UNL     1     -11.535  10.065  70.835  1.00  0.00    -0.452 A  
HETATM    9  C   UNL     1     -10.723   9.118  71.459  1.00  0.00    -0.437 A  
HETATM   10  C   UNL     1      -9.527   8.725  70.868  1.00  0.00    -0.269 A  
HETATM   11  C   UNL     1      -9.141   9.276  69.644  1.00  0.00    -0.173 A  
HETATM   12  C   UNL     1      -9.949  10.229  69.006  1.00  0.00    -0.213 A  
HETATM   13  N   UNL     1      -9.571  10.772  67.736  1.00  0.00    -0.161 N  
HETATM   14  C   UNL     1      -9.887  13.166  68.518  1.00  0.00    -0.155 A  
HETATM   15  C   UNL     1      -9.206  12.176  67.765  1.00  0.00    -0.189 A  
HETATM   16  C   UNL     1      -8.033  12.574  67.085  1.00  0.00    -0.140 A  
HETATM   17  C   UNL     1      -9.286  14.440  68.681  1.00  0.00    -0.181 A  
HETATM   18  C   UNL     1      -8.103  14.782  68.038  1.00  0.00    -0.140 A  
HETATM   19  C   UNL     1      -7.496  13.859  67.206  1.00  0.00    -0.051 A  
BRANCH  13  20
HETATM   20  C   UNL     1      -9.261   9.951  66.641  1.00  0.00    -0.153 C  
HETATM   21  H1  UNL     1     -10.059   9.073  64.983  1.00  0.00     0.000 HD 
HETATM   22  O   UNL     1      -8.153   9.509  66.343  1.00  0.00    -0.110 OA 
HETATM   23  N   UNL     1     -10.284   9.669  65.779  1.00  0.00    -0.229 N  
HETATM   24  H2  UNL     1     -11.225  10.036  65.924  1.00  0.00     0.000 HD 
ENDBRANCH  13  20
ENDBRANCH   4   5
ENDBRANCH   2   4
TORSDOF 3
ENDMDL
MODEL       90
REMARK 921   NORMALIZED FREE ENERGY PREDICTED BY IDOCK:   -3.75 KCAL/MOL
REMARK 922        TOTAL FREE ENERGY PREDICTED BY IDOCK:   -4.96 KCAL/MOL
REMARK 923 INTER-LIGAND FREE ENERGY PREDICTED BY IDOCK:   -4.94 KCAL/MOL
REMARK 924 INTRA-LIGAND FREE ENERGY PREDICTED BY IDOCK:   -0.02 KCAL/MOL
REMARK 927      BINDING AFFINITY PREDICTED BY RF-SCORE:    0.00 PKD
ROOT
HETATM    1  C   UNL     1      -9.963   6.678  66.683  1.00  0.00    -0.203 C  
HETATM    2  C   UNL     1     -10.557   7.201  67.956  1.00  0.00    -0.196 C  
HETATM    3  O   UNL     1     -10.310   8.300  68.429  1.00  0.00    -0.206 OA 
ENDROOT
BRANCH   2   4
HETATM    4  O   UNL     1     -11.377   6.271  68.513  1.00  0.00    -0.324 OA 
BRANCH   4   5
HETATM    5  C   UNL     1     -10.968   5.739  69.800  1.00  0.00    -0.327 C  
HETATM    6  C   UNL     1      -9.462   5.490  69.760  1.00  0.00    -0.195 C  
HETATM    7  C   UNL     1      -9.017   4.956  71.088  1.00  0.00    -0.167 A  
HETATM    8  C   UNL     1      -8.695   3.600  71.249  1.00  0.00    -0.123 A  
HETATM    9  C   UNL     1      -8.333   3.111  72.504  1.00  0.00    -0.075 A  
HETATM   10  C   UNL     1      -8.293   3.966  73.601  1.00  0.00    -0.088 A  
HETATM   11  C   UNL     1      -8.609   5.317  73.443  1.00  0.00    -0.116 A  
HETATM   12  C   UNL     1      -8.974   5.821  72.187  1.00  0.00    -0.136 A  
HETATM   13  N   UNL     1      -9.269   7.211  72.015  1.00  0.00    -0.134 N  
HETATM   14  C   UNL     1     -11.469   6.736  70.844  1.00  0.00    -0.384 A  
HETATM   15  C   UNL     1     -10.660   7.502  71.721  1.00  0.00    -0.206 A  
HETATM   16  C   UNL     1     -11.287   8.551  72.430  1.00  0.00    -0.412 A  
HETATM   17  C   UNL     1     -12.872   6.951  70.840  1.00  0.00    -0.134 A  
HETATM   18  C   UNL     1     -13.463   7.960  71.590  1.00  0.00    -0.386 A  
HETATM   19  C   UNL     1     -12.663   8.787  72.357  1.00  0.00    -0.433 A  
BRANCH  13  20
HETATM   20  C   UNL     1      -8.376   8.215  72.424  1.00  0.00    -0.170 C  
HETATM   21  H1  UNL     1      -7.063   9.610  71.730  1.00  0.00     0.000 HD 
HETATM   22  O   UNL     1      -8.175   8.596  73.575  1.00  0.00    -0.404 OA 
HETATM   23  N   UNL     1      -7.711   8.881  71.433  1.00  0.00    -0.117 N  
HETATM   24  H2  UNL     1      -7.856   8.661  70.448  1.00  0.00     0.000 HD 
ENDBRANCH  13  20
ENDBRANCH   4   5
ENDBRANCH   2   4
TORSDOF 3
ENDMDL
MODEL       91
REMARK 921   NORMALIZED FREE ENERGY PREDICTED BY IDOCK:   -3.71 KCAL/MOL
REMARK 922        TOTAL FREE ENERGY PREDICTED BY IDOCK:   -4.92 KCAL/MOL
REMARK 923 INTER-LIGAND FREE ENERGY PREDICTED BY IDOCK:   -4.58 KCAL/MOL
REMARK 924 INTRA-LIGAND FREE ENERGY PREDICTED BY IDOCK:   -0.34 KCAL/MOL
REMARK 927      BINDING AFFINITY PREDICTED BY RF-SCORE:    0.00 PKD
ROOT
HETATM    1  C   UNL     1     -10.728   5.959  67.946  1.00  0.00    -0.336 C  
HETATM    2  C   UNL     1     -11.016   6.780  69.167  1.00  0.00    -0.244 C  
HETATM    3  O   UNL     1     -11.198   6.313  70.281  1.00  0.00    -0.333 OA 
ENDROOT
BRANCH   2   4
HETATM    4  O   UNL     1     -11.072   8.099  68.848  1.00  0.00     0.074 OA 
BRANCH   4   5
HETATM    5  C   UNL     1      -9.957   8.918  69.286  1.00  0.00    -0.192 C  
HETATM    6  C   UNL     1      -8.871   8.862  68.213  1.00  0.00    -0.134 C  
HETATM    7  C   UNL     1      -7.715   9.716  68.640  1.00  0.00    -0.080 A  
HETATM    8  C   UNL     1      -6.527   9.138  69.112  1.00  0.00    -0.042 A  
HETATM    9  C   UNL     1      -5.482   9.949  69.553  1.00  0.00    -0.034 A  
HETATM   10  C   UNL     1      -5.615  11.334  69.529  1.00  0.00    -0.057 A  
HETATM   11  C   UNL     1      -6.795  11.912  69.057  1.00  0.00    -0.105 A  
HETATM   12  C   UNL     1      -7.853  11.108  68.610  1.00  0.00    -0.138 A  
HETATM   13  N   UNL     1      -9.052  11.698  68.097  1.00  0.00    -0.177 N  
HETATM   14  C   UNL     1     -10.542  10.294  69.596  1.00  0.00    -0.288 A  
HETATM   15  C   UNL     1     -10.225  11.505  68.930  1.00  0.00    -0.149 A  
HETATM   16  C   UNL     1     -11.054  12.620  69.183  1.00  0.00    -0.252 A  
HETATM   17  C   UNL     1     -11.558  10.302  70.588  1.00  0.00    -0.435 A  
HETATM   18  C   UNL     1     -12.321  11.433  70.849  1.00  0.00    -0.483 A  
HETATM   19  C   UNL     1     -12.094  12.584  70.116  1.00  0.00    -0.368 A  
BRANCH  13  20
HETATM   20  C   UNL     1      -9.028  12.652  67.067  1.00  0.00    -0.216 C  
HETATM   21  H1  UNL     1      -9.418  12.923  65.086  1.00  0.00     0.000 HD 
HETATM   22  O   UNL     1      -8.734  13.841  67.173  1.00  0.00    -0.214 OA 
HETATM   23  N   UNL     1      -9.436  12.229  65.833  1.00  0.00    -0.376 N  
HETATM   24  H2  UNL     1      -9.743  11.271  65.668  1.00  0.00     0.000 HD 
ENDBRANCH  13  20
ENDBRANCH   4   5
ENDBRANCH   2   4
TORSDOF 3
ENDMDL
MODEL       92
REMARK 921   NORMALIZED FREE ENERGY PREDICTED BY IDOCK:   -3.71 KCAL/MOL
REMARK 922        TOTAL FREE ENERGY PREDICTED BY IDOCK:   -4.91 KCAL/MOL
REMARK 923 INTER-LIGAND FREE ENERGY PREDICTED BY IDOCK:   -4.57 KCAL/MOL
REMARK 924 INTRA-LIGAND FREE ENERGY PREDICTED BY IDOCK:   -0.34 KCAL/MOL
REMARK 927      BINDING AFFINITY PREDICTED BY RF-SCORE:    0.00 PKD
ROOT
HETATM    1  C   UNL     1     -13.290  10.221  72.037  1.00  0.00    -0.466 C  
HETATM    2  C   UNL     1     -12.209  10.252  70.999  1.00  0.00    -0.384 C  
HETATM    3  O   UNL     1     -11.700  11.274  70.568  1.00  0.00    -0.329 OA 
ENDROOT
BRANCH   2   4
HETATM    4  O   UNL     1     -11.906   8.990  70.595  1.00  0.00    -0.255 OA 
BRANCH   4   5
HETATM    5  C   UNL     1     -10.507   8.609  70.663  1.00  0.00    -0.204 C  
HETATM    6  C   UNL     1     -10.249   7.978  72.029  1.00  0.00    -0.288 C  
HETATM    7  C   UNL     1      -8.811   7.562  72.114  1.00  0.00    -0.153 A  
HETATM    8  C   UNL     1      -7.890   8.297  72.875  1.00  0.00    -0.186 A  
HETATM    9  C   UNL     1      -6.547   7.923  72.900  1.00  0.00    -0.078 A  
HETATM   10  C   UNL     1      -6.114   6.823  72.166  1.00  0.00    -0.038 A  
HETATM   11  C   UNL     1      -7.029   6.088  71.409  1.00  0.00    -0.072 A  
HETATM   12  C   UNL     1      -8.382   6.452  71.377  1.00  0.00    -0.122 A  
HETATM   13  N   UNL     1      -9.328   5.682  70.627  1.00  0.00    -0.156 N  
HETATM   14  C   UNL     1     -10.253   7.726  69.442  1.00  0.00    -0.208 A  
HETATM   15  C   UNL     1      -9.874   6.360  69.466  1.00  0.00    -0.154 A  
HETATM   16  C   UNL     1      -9.937   5.649  68.247  1.00  0.00    -0.197 A  
HETATM   17  C   UNL     1     -10.519   8.344  68.192  1.00  0.00    -0.228 A  
HETATM   18  C   UNL     1     -10.522   7.625  67.003  1.00  0.00    -0.419 A  
HETATM   19  C   UNL     1     -10.269   6.265  67.037  1.00  0.00    -0.256 A  
BRANCH  13  20
HETATM   20  C   UNL     1      -9.459   4.295  70.801  1.00  0.00    -0.171 C  
HETATM   21  H1  UNL     1     -10.337   2.874  71.968  1.00  0.00     0.000 HD 
HETATM   22  O   UNL     1      -8.992   3.416  70.079  1.00  0.00    -0.081 OA 
HETATM   23  N   UNL     1     -10.242   3.881  71.842  1.00  0.00    -0.126 N  
HETATM   24  H2  UNL     1     -10.707   4.545  72.461  1.00  0.00     0.000 HD 
ENDBRANCH  13  20
ENDBRANCH   4   5
ENDBRANCH   2   4
TORSDOF 3
ENDMDL
MODEL       93
REMARK 921   NORMALIZED FREE ENERGY PREDICTED BY IDOCK:   -3.63 KCAL/MOL
REMARK 922        TOTAL FREE ENERGY PREDICTED BY IDOCK:   -4.82 KCAL/MOL
REMARK 923 INTER-LIGAND FREE ENERGY PREDICTED BY IDOCK:   -4.72 KCAL/MOL
REMARK 924 INTRA-LIGAND FREE ENERGY PREDICTED BY IDOCK:   -0.11 KCAL/MOL
REMARK 927      BINDING AFFINITY PREDICTED BY RF-SCORE:    0.00 PKD
ROOT
HETATM    1  C   UNL     1     -10.682   4.411  65.299  1.00  0.00    -0.150 C  
HETATM    2  C   UNL     1      -9.634   4.137  66.334  1.00  0.00    -0.202 C  
HETATM    3  O   UNL     1      -8.485   3.810  66.080  1.00  0.00    -0.108 OA 
ENDROOT
BRANCH   2   4
HETATM    4  O   UNL     1     -10.155   4.275  67.582  1.00  0.00    -0.076 OA 
BRANCH   4   5
HETATM    5  C   UNL     1      -9.549   5.289  68.425  1.00  0.00    -0.134 C  
HETATM    6  C   UNL     1     -10.221   6.627  68.124  1.00  0.00    -0.193 C  
HETATM    7  C   UNL     1      -9.621   7.687  68.998  1.00  0.00    -0.151 A  
HETATM    8  C   UNL     1      -8.723   8.630  68.476  1.00  0.00    -0.139 A  
HETATM    9  C   UNL     1      -8.135   9.576  69.315  1.00  0.00    -0.103 A  
HETATM   10  C   UNL     1      -8.433   9.585  70.674  1.00  0.00    -0.166 A  
HETATM   11  C   UNL     1      -9.328   8.649  71.197  1.00  0.00    -0.274 A  
HETATM   12  C   UNL     1      -9.927   7.694  70.363  1.00  0.00    -0.188 A  
HETATM   13  N   UNL     1     -10.869   6.753  70.890  1.00  0.00    -0.240 N  
HETATM   14  C   UNL     1      -9.668   4.771  69.857  1.00  0.00    -0.274 A  
HETATM   15  C   UNL     1     -10.405   5.378  70.905  1.00  0.00    -0.242 A  
HETATM   16  C   UNL     1     -10.606   4.619  72.080  1.00  0.00    -0.139 A  
HETATM   17  C   UNL     1      -9.043   3.519  70.093  1.00  0.00    -0.202 A  
HETATM   18  C   UNL     1      -9.219   2.821  71.282  1.00  0.00    -0.194 A  
HETATM   19  C   UNL     1     -10.035   3.356  72.262  1.00  0.00    -0.234 A  
BRANCH  13  20
HETATM   20  C   UNL     1     -11.991   7.161  71.629  1.00  0.00    -0.318 C  
HETATM   21  H1  UNL     1     -12.560   8.047  73.374  1.00  0.00     0.000 HD 
HETATM   22  O   UNL     1     -13.167   7.099  71.276  1.00  0.00    -0.377 OA 
HETATM   23  N   UNL     1     -11.745   7.750  72.838  1.00  0.00    -0.616 N  
HETATM   24  H2  UNL     1     -10.796   7.885  73.186  1.00  0.00     0.000 HD 
ENDBRANCH  13  20
ENDBRANCH   4   5
ENDBRANCH   2   4
TORSDOF 3
ENDMDL
MODEL       94
REMARK 921   NORMALIZED FREE ENERGY PREDICTED BY IDOCK:   -3.63 KCAL/MOL
REMARK 922        TOTAL FREE ENERGY PREDICTED BY IDOCK:   -4.82 KCAL/MOL
REMARK 923 INTER-LIGAND FREE ENERGY PREDICTED BY IDOCK:   -5.29 KCAL/MOL
REMARK 924 INTRA-LIGAND FREE ENERGY PREDICTED BY IDOCK:    0.47 KCAL/MOL
REMARK 927      BINDING AFFINITY PREDICTED BY RF-SCORE:    0.00 PKD
ROOT
HETATM    1  C   UNL     1     -10.793  16.855  65.477  1.00  0.00    -0.101 C  
HETATM    2  C   UNL     1     -10.059  15.549  65.506  1.00  0.00    -0.373 C  
HETATM    3  O   UNL     1     -10.215  14.655  64.689  1.00  0.00    -0.298 OA 
ENDROOT
BRANCH   2   4
HETATM    4  O   UNL     1      -9.227  15.498  66.579  1.00  0.00    -0.245 OA 
BRANCH   4   5
HETATM    5  C   UNL     1      -9.531  14.496  67.584  1.00  0.00    -0.209 C  
HETATM    6  C   UNL     1     -10.953  13.993  67.344  1.00  0.00    -0.302 C  
HETATM    7  C   UNL     1     -11.282  12.943  68.363  1.00  0.00    -0.305 A  
HETATM    8  C   UNL     1     -12.136  13.225  69.440  1.00  0.00    -0.301 A  
HETATM    9  C   UNL     1     -12.389  12.251  70.405  1.00  0.00    -0.309 A  
HETATM   10  C   UNL     1     -11.791  10.999  70.307  1.00  0.00    -0.456 A  
HETATM   11  C   UNL     1     -10.942  10.714  69.235  1.00  0.00    -0.294 A  
HETATM   12  C   UNL     1     -10.681  11.684  68.257  1.00  0.00    -0.213 A  
HETATM   13  N   UNL     1      -9.836  11.386  67.140  1.00  0.00    -0.189 N  
HETATM   14  C   UNL     1      -8.414  13.458  67.494  1.00  0.00    -0.192 A  
HETATM   15  C   UNL     1      -8.570  12.095  67.135  1.00  0.00    -0.185 A  
HETATM   16  C   UNL     1      -7.396  11.360  66.857  1.00  0.00    -0.147 A  
HETATM   17  C   UNL     1      -7.107  13.967  67.708  1.00  0.00    -0.181 A  
HETATM   18  C   UNL     1      -5.972  13.200  67.474  1.00  0.00    -0.092 A  
HETATM   19  C   UNL     1      -6.117  11.905  67.009  1.00  0.00    -0.149 A  
BRANCH  13  20
HETATM   20  C   UNL     1     -10.061  10.272  66.316  1.00  0.00    -0.236 C  
HETATM   21  H1  UNL     1     -10.195   8.239  66.324  1.00  0.00     0.000 HD 
HETATM   22  O   UNL     1     -10.342  10.287  65.119  1.00  0.00    -0.286 OA 
HETATM   23  N   UNL     1     -10.031   9.047  66.923  1.00  0.00    -0.222 N  
HETATM   24  H2  UNL     1      -9.854   8.948  67.922  1.00  0.00     0.000 HD 
ENDBRANCH  13  20
ENDBRANCH   4   5
ENDBRANCH   2   4
TORSDOF 3
ENDMDL
MODEL       95
REMARK 921   NORMALIZED FREE ENERGY PREDICTED BY IDOCK:   -3.62 KCAL/MOL
REMARK 922        TOTAL FREE ENERGY PREDICTED BY IDOCK:   -4.80 KCAL/MOL
REMARK 923 INTER-LIGAND FREE ENERGY PREDICTED BY IDOCK:   -4.39 KCAL/MOL
REMARK 924 INTRA-LIGAND FREE ENERGY PREDICTED BY IDOCK:   -0.42 KCAL/MOL
REMARK 927      BINDING AFFINITY PREDICTED BY RF-SCORE:    0.00 PKD
ROOT
HETATM    1  C   UNL     1      -5.177   9.914  67.063  1.00  0.00    -0.041 C  
HETATM    2  C   UNL     1      -6.251   9.872  68.106  1.00  0.00    -0.054 C  
HETATM    3  O   UNL     1      -6.098   9.424  69.232  1.00  0.00    -0.037 OA 
ENDROOT
BRANCH   2   4
HETATM    4  O   UNL     1      -7.413  10.371  67.610  1.00  0.00    -0.088 OA 
BRANCH   4   5
HETATM    5  C   UNL     1      -7.841  11.655  68.136  1.00  0.00    -0.133 C  
HETATM    6  C   UNL     1      -7.547  12.725  67.087  1.00  0.00    -0.050 C  
HETATM    7  C   UNL     1      -7.998  14.057  67.605  1.00  0.00    -0.186 A  
HETATM    8  C   UNL     1      -7.070  15.007  68.057  1.00  0.00    -0.142 A  
HETATM    9  C   UNL     1      -7.511  16.221  68.583  1.00  0.00    -0.185 A  
HETATM   10  C   UNL     1      -8.873  16.492  68.666  1.00  0.00    -0.237 A  
HETATM   11  C   UNL     1      -9.799  15.550  68.214  1.00  0.00    -0.213 A  
HETATM   12  C   UNL     1      -9.369  14.326  67.682  1.00  0.00    -0.201 A  
HETATM   13  N   UNL     1     -10.315  13.371  67.190  1.00  0.00    -0.245 N  
HETATM   14  C   UNL     1      -9.303  11.476  68.541  1.00  0.00    -0.171 A  
HETATM   15  C   UNL     1     -10.413  12.157  67.978  1.00  0.00    -0.212 A  
HETATM   16  C   UNL     1     -11.700  11.673  68.300  1.00  0.00    -0.374 A  
HETATM   17  C   UNL     1      -9.536  10.463  69.506  1.00  0.00    -0.182 A  
HETATM   18  C   UNL     1     -10.819  10.045  69.839  1.00  0.00    -0.328 A  
HETATM   19  C   UNL     1     -11.903  10.626  69.204  1.00  0.00    -0.287 A  
BRANCH  13  20
HETATM   20  C   UNL     1     -11.289  13.714  66.239  1.00  0.00    -0.312 C  
HETATM   21  H1  UNL     1     -11.865  13.403  64.309  1.00  0.00     0.000 HD 
HETATM   22  O   UNL     1     -12.280  14.418  66.423  1.00  0.00    -0.417 OA 
HETATM   23  N   UNL     1     -11.157  13.154  64.999  1.00  0.00    -0.293 N  
HETATM   24  H2  UNL     1     -10.391  12.519  64.776  1.00  0.00     0.000 HD 
ENDBRANCH  13  20
ENDBRANCH   4   5
ENDBRANCH   2   4
TORSDOF 3
ENDMDL
MODEL       96
REMARK 921   NORMALIZED FREE ENERGY PREDICTED BY IDOCK:   -3.61 KCAL/MOL
REMARK 922        TOTAL FREE ENERGY PREDICTED BY IDOCK:   -4.80 KCAL/MOL
REMARK 923 INTER-LIGAND FREE ENERGY PREDICTED BY IDOCK:   -5.35 KCAL/MOL
REMARK 924 INTRA-LIGAND FREE ENERGY PREDICTED BY IDOCK:    0.55 KCAL/MOL
REMARK 927      BINDING AFFINITY PREDICTED BY RF-SCORE:    0.00 PKD
ROOT
HETATM    1  C   UNL     1      -5.470  17.792  65.959  1.00  0.00    -0.242 C  
HETATM    2  C   UNL     1      -6.334  18.902  65.444  1.00  0.00    -0.283 C  
HETATM    3  O   UNL     1      -6.485  19.162  64.260  1.00  0.00    -0.367 OA 
ENDROOT
BRANCH   2   4
HETATM    4  O   UNL     1      -6.892  19.586  66.476  1.00  0.00    -0.191 OA 
BRANCH   4   5
HETATM    5  C   UNL     1      -7.779  18.834  67.345  1.00  0.00    -0.228 C  
HETATM    6  C   UNL     1      -8.196  17.559  66.614  1.00  0.00    -0.288 C  
HETATM    7  C   UNL     1      -9.101  16.759  67.502  1.00  0.00    -0.211 A  
HETATM    8  C   UNL     1     -10.483  16.707  67.266  1.00  0.00    -0.313 A  
HETATM    9  C   UNL     1     -11.315  15.999  68.132  1.00  0.00    -0.289 A  
HETATM   10  C   UNL     1     -10.778  15.345  69.236  1.00  0.00    -0.251 A  
HETATM   11  C   UNL     1      -9.403  15.391  69.473  1.00  0.00    -0.252 A  
HETATM   12  C   UNL     1      -8.555  16.099  68.608  1.00  0.00    -0.210 A  
HETATM   13  N   UNL     1      -7.141  16.124  68.830  1.00  0.00    -0.154 N  
HETATM   14  C   UNL     1      -7.024  18.653  68.661  1.00  0.00    -0.297 A  
HETATM   15  C   UNL     1      -6.613  17.417  69.222  1.00  0.00    -0.240 A  
HETATM   16  C   UNL     1      -5.708  17.468  70.306  1.00  0.00    -0.196 A  
HETATM   17  C   UNL     1      -6.641  19.860  69.301  1.00  0.00    -0.378 A  
HETATM   18  C   UNL     1      -5.789  19.871  70.398  1.00  0.00    -0.348 A  
HETATM   19  C   UNL     1      -5.290  18.673  70.877  1.00  0.00    -0.248 A  
BRANCH  13  20
HETATM   20  C   UNL     1      -6.394  14.945  68.983  1.00  0.00    -0.099 C  
HETATM   21  H1  UNL     1      -4.895  13.844  68.149  1.00  0.00     0.000 HD 
HETATM   22  O   UNL     1      -6.469  14.141  69.911  1.00  0.00    -0.139 OA 
HETATM   23  N   UNL     1      -5.438  14.700  68.037  1.00  0.00    -0.129 N  
HETATM   24  H2  UNL     1      -5.275  15.340  67.260  1.00  0.00     0.000 HD 
ENDBRANCH  13  20
ENDBRANCH   4   5
ENDBRANCH   2   4
TORSDOF 3
ENDMDL
MODEL       97
REMARK 921   NORMALIZED FREE ENERGY PREDICTED BY IDOCK:   -3.60 KCAL/MOL
REMARK 922        TOTAL FREE ENERGY PREDICTED BY IDOCK:   -4.79 KCAL/MOL
REMARK 923 INTER-LIGAND FREE ENERGY PREDICTED BY IDOCK:   -4.33 KCAL/MOL
REMARK 924 INTRA-LIGAND FREE ENERGY PREDICTED BY IDOCK:   -0.46 KCAL/MOL
REMARK 927      BINDING AFFINITY PREDICTED BY RF-SCORE:    0.00 PKD
ROOT
HETATM    1  C   UNL     1      -9.862   6.318  72.686  1.00  0.00    -0.175 C  
HETATM    2  C   UNL     1     -11.190   5.893  72.137  1.00  0.00    -0.287 C  
HETATM    3  O   UNL     1     -12.104   5.451  72.815  1.00  0.00    -0.182 OA 
ENDROOT
BRANCH   2   4
HETATM    4  O   UNL     1     -11.214   6.044  70.786  1.00  0.00    -0.303 OA 
BRANCH   4   5
HETATM    5  C   UNL     1      -9.935   5.960  70.105  1.00  0.00    -0.191 C  
HETATM    6  C   UNL     1      -9.732   4.518  69.644  1.00  0.00    -0.288 C  
HETATM    7  C   UNL     1      -8.423   4.413  68.922  1.00  0.00    -0.095 A  
HETATM    8  C   UNL     1      -7.310   3.810  69.529  1.00  0.00    -0.052 A  
HETATM    9  C   UNL     1      -6.087   3.768  68.861  1.00  0.00    -0.028 A  
HETATM   10  C   UNL     1      -5.964   4.326  67.593  1.00  0.00    -0.024 A  
HETATM   11  C   UNL     1      -7.070   4.924  66.985  1.00  0.00    -0.072 A  
HETATM   12  C   UNL     1      -8.306   4.972  67.645  1.00  0.00    -0.105 A  
HETATM   13  N   UNL     1      -9.450   5.557  67.012  1.00  0.00    -0.126 N  
HETATM   14  C   UNL     1      -9.970   7.028  69.013  1.00  0.00    -0.164 A  
HETATM   15  C   UNL     1      -9.907   6.794  67.616  1.00  0.00    -0.128 A  
HETATM   16  C   UNL     1     -10.212   7.879  66.763  1.00  0.00    -0.358 A  
HETATM   17  C   UNL     1     -10.175   8.352  69.479  1.00  0.00    -0.207 A  
HETATM   18  C   UNL     1     -10.422   9.408  68.610  1.00  0.00    -0.236 A  
HETATM   19  C   UNL     1     -10.479   9.162  67.250  1.00  0.00    -0.335 A  
BRANCH  13  20
HETATM   20  C   UNL     1      -9.877   5.155  65.737  1.00  0.00    -0.084 C  
HETATM   21  H1  UNL     1     -11.439   4.321  64.728  1.00  0.00     0.000 HD 
HETATM   22  O   UNL     1      -9.268   5.296  64.679  1.00  0.00     0.001 OA 
HETATM   23  N   UNL     1     -11.129   4.612  65.655  1.00  0.00    -0.893 N  
HETATM   24  H2  UNL     1     -11.722   4.504  66.477  1.00  0.00     0.000 HD 
ENDBRANCH  13  20
ENDBRANCH   4   5
ENDBRANCH   2   4
TORSDOF 3
ENDMDL
MODEL       98
REMARK 921   NORMALIZED FREE ENERGY PREDICTED BY IDOCK:   -3.58 KCAL/MOL
REMARK 922        TOTAL FREE ENERGY PREDICTED BY IDOCK:   -4.77 KCAL/MOL
REMARK 923 INTER-LIGAND FREE ENERGY PREDICTED BY IDOCK:   -4.23 KCAL/MOL
REMARK 924 INTRA-LIGAND FREE ENERGY PREDICTED BY IDOCK:   -0.53 KCAL/MOL
REMARK 927      BINDING AFFINITY PREDICTED BY RF-SCORE:    0.00 PKD
ROOT
HETATM    1  C   UNL     1      -9.031   2.000  66.878  1.00  0.00    -0.133 C  
HETATM    2  C   UNL     1      -7.889   2.604  67.637  1.00  0.00    -0.064 C  
HETATM    3  O   UNL     1      -6.873   2.000  67.945  1.00  0.00    -0.035 OA 
ENDROOT
BRANCH   2   4
HETATM    4  O   UNL     1      -8.161   3.897  67.953  1.00  0.00    -0.091 OA 
BRANCH   4   5
HETATM    5  C   UNL     1      -9.143   4.112  69.000  1.00  0.00    -0.129 C  
HETATM    6  C   UNL     1      -8.429   4.042  70.348  1.00  0.00    -0.093 C  
HETATM    7  C   UNL     1      -9.424   4.278  71.444  1.00  0.00    -0.225 A  
HETATM    8  C   UNL     1      -9.888   3.219  72.239  1.00  0.00    -0.232 A  
HETATM    9  C   UNL     1     -10.852   3.450  73.220  1.00  0.00    -0.287 A  
HETATM   10  C   UNL     1     -11.360   4.731  73.410  1.00  0.00    -0.397 A  
HETATM   11  C   UNL     1     -10.899   5.788  72.623  1.00  0.00    -0.296 A  
HETATM   12  C   UNL     1      -9.929   5.569  71.634  1.00  0.00    -0.182 A  
HETATM   13  N   UNL     1      -9.432   6.656  70.846  1.00  0.00    -0.165 N  
HETATM   14  C   UNL     1      -9.837   5.431  68.661  1.00  0.00    -0.204 A  
HETATM   15  C   UNL     1      -9.813   6.611  69.447  1.00  0.00    -0.151 A  
HETATM   16  C   UNL     1     -10.293   7.797  68.848  1.00  0.00    -0.224 A  
HETATM   17  C   UNL     1     -10.476   5.461  67.395  1.00  0.00    -0.253 A  
HETATM   18  C   UNL     1     -10.985   6.636  66.856  1.00  0.00    -0.396 A  
HETATM   19  C   UNL     1     -10.857   7.815  67.569  1.00  0.00    -0.182 A  
BRANCH  13  20
HETATM   20  C   UNL     1      -8.914   7.821  71.433  1.00  0.00    -0.133 C  
HETATM   21  H1  UNL     1      -7.188   8.852  71.764  1.00  0.00     0.000 HD 
HETATM   22  O   UNL     1      -9.556   8.722  71.970  1.00  0.00    -0.290 OA 
HETATM   23  N   UNL     1      -7.563   8.005  71.337  1.00  0.00    -0.075 N  
HETATM   24  H2  UNL     1      -6.962   7.331  70.865  1.00  0.00     0.000 HD 
ENDBRANCH  13  20
ENDBRANCH   4   5
ENDBRANCH   2   4
TORSDOF 3
ENDMDL
MODEL       99
REMARK 921   NORMALIZED FREE ENERGY PREDICTED BY IDOCK:   -3.58 KCAL/MOL
REMARK 922        TOTAL FREE ENERGY PREDICTED BY IDOCK:   -4.76 KCAL/MOL
REMARK 923 INTER-LIGAND FREE ENERGY PREDICTED BY IDOCK:   -4.85 KCAL/MOL
REMARK 924 INTRA-LIGAND FREE ENERGY PREDICTED BY IDOCK:    0.10 KCAL/MOL
REMARK 927      BINDING AFFINITY PREDICTED BY RF-SCORE:    0.00 PKD
ROOT
HETATM    1  C   UNL     1     -10.391   7.196  66.962  1.00  0.00    -0.368 C  
HETATM    2  C   UNL     1      -9.501   8.335  67.358  1.00  0.00    -0.151 C  
HETATM    3  O   UNL     1      -9.510   8.864  68.459  1.00  0.00    -0.146 OA 
ENDROOT
BRANCH   2   4
HETATM    4  O   UNL     1      -8.714   8.705  66.314  1.00  0.00    -0.128 OA 
BRANCH   4   5
HETATM    5  C   UNL     1      -9.065   9.948  65.651  1.00  0.00    -0.178 C  
HETATM    6  C   UNL     1     -10.560  10.191  65.848  1.00  0.00    -0.042 C  
HETATM    7  C   UNL     1     -10.940  11.480  65.184  1.00  0.00    -0.298 A  
HETATM    8  C   UNL     1     -11.644  11.486  63.971  1.00  0.00    -0.280 A  
HETATM    9  C   UNL     1     -11.944  12.694  63.342  1.00  0.00    -0.613 A  
HETATM   10  C   UNL     1     -11.542  13.897  63.913  1.00  0.00    -0.158 A  
HETATM   11  C   UNL     1     -10.843  13.895  65.122  1.00  0.00    -0.364 A  
HETATM   12  C   UNL     1     -10.536  12.687  65.765  1.00  0.00    -0.272 A  
HETATM   13  N   UNL     1      -9.847  12.682  67.020  1.00  0.00    -0.221 N  
HETATM   14  C   UNL     1      -8.119  11.007  66.215  1.00  0.00    -0.159 A  
HETATM   15  C   UNL     1      -8.499  12.148  66.967  1.00  0.00    -0.183 A  
HETATM   16  C   UNL     1      -7.471  12.865  67.618  1.00  0.00    -0.148 A  
HETATM   17  C   UNL     1      -6.739  10.738  66.025  1.00  0.00    -0.109 A  
HETATM   18  C   UNL     1      -5.751  11.496  66.639  1.00  0.00    -0.139 A  
HETATM   19  C   UNL     1      -6.120  12.539  67.470  1.00  0.00    -0.154 A  
BRANCH  13  20
HETATM   20  C   UNL     1     -10.302  13.427  68.119  1.00  0.00    -0.247 C  
HETATM   21  H1  UNL     1     -11.555  13.365  69.725  1.00  0.00     0.000 HD 
HETATM   22  O   UNL     1      -9.915  14.542  68.464  1.00  0.00    -0.226 OA 
HETATM   23  N   UNL     1     -11.225  12.823  68.927  1.00  0.00    -0.270 N  
HETATM   24  H2  UNL     1     -11.565  11.880  68.742  1.00  0.00     0.000 HD 
ENDBRANCH  13  20
ENDBRANCH   4   5
ENDBRANCH   2   4
TORSDOF 3
ENDMDL
MODEL      100
REMARK 921   NORMALIZED FREE ENERGY PREDICTED BY IDOCK:   -3.55 KCAL/MOL
REMARK 922        TOTAL FREE ENERGY PREDICTED BY IDOCK:   -4.72 KCAL/MOL
REMARK 923 INTER-LIGAND FREE ENERGY PREDICTED BY IDOCK:   -4.74 KCAL/MOL
REMARK 924 INTRA-LIGAND FREE ENERGY PREDICTED BY IDOCK:    0.02 KCAL/MOL
REMARK 927      BINDING AFFINITY PREDICTED BY RF-SCORE:    0.00 PKD
ROOT
HETATM    1  C   UNL     1     -10.346   8.459  70.411  1.00  0.00    -0.219 C  
HETATM    2  C   UNL     1      -9.587   8.718  69.144  1.00  0.00    -0.162 C  
HETATM    3  O   UNL     1      -8.377   8.875  69.088  1.00  0.00    -0.119 OA 
ENDROOT
BRANCH   2   4
HETATM    4  O   UNL     1     -10.438   8.782  68.087  1.00  0.00    -0.216 OA 
BRANCH   4   5
HETATM    5  C   UNL     1     -10.507  10.053  67.389  1.00  0.00    -0.260 C  
HETATM    6  C   UNL     1     -10.590  11.167  68.430  1.00  0.00    -0.223 C  
HETATM    7  C   UNL     1     -10.644  12.491  67.730  1.00  0.00    -0.235 A  
HETATM    8  C   UNL     1     -11.844  13.213  67.644  1.00  0.00    -0.405 A  
HETATM    9  C   UNL     1     -11.887  14.418  66.944  1.00  0.00    -0.433 A  
HETATM   10  C   UNL     1     -10.741  14.906  66.324  1.00  0.00    -0.320 A  
HETATM   11  C   UNL     1      -9.545  14.192  66.409  1.00  0.00    -0.310 A  
HETATM   12  C   UNL     1      -9.488  12.979  67.111  1.00  0.00    -0.230 A  
HETATM   13  N   UNL     1      -8.256  12.259  67.227  1.00  0.00    -0.175 N  
HETATM   14  C   UNL     1      -9.302  10.082  66.450  1.00  0.00    -0.211 A  
HETATM   15  C   UNL     1      -8.223  11.000  66.508  1.00  0.00    -0.161 A  
HETATM   16  C   UNL     1      -7.084  10.709  65.724  1.00  0.00    -0.096 A  
HETATM   17  C   UNL     1      -9.254   9.022  65.508  1.00  0.00    -0.262 A  
HETATM   18  C   UNL     1      -8.136   8.795  64.714  1.00  0.00    -0.151 A  
HETATM   19  C   UNL     1      -7.033   9.618  64.852  1.00  0.00    -0.113 A  
BRANCH  13  20
HETATM   20  C   UNL     1      -7.085  12.866  67.706  1.00  0.00    -0.137 C  
HETATM   21  H1  UNL     1      -5.763  12.862  69.257  1.00  0.00     0.000 HD 
HETATM   22  O   UNL     1      -6.406  13.714  67.129  1.00  0.00    -0.216 OA 
HETATM   23  N   UNL     1      -6.614  12.421  68.910  1.00  0.00    -0.089 N  
HETATM   24  H2  UNL     1      -7.089  11.685  69.433  1.00  0.00     0.000 HD 
ENDBRANCH  13  20
ENDBRANCH   4   5
ENDBRANCH   2   4
TORSDOF 3
ENDMDL
MODEL      101
REMARK 921   NORMALIZED FREE ENERGY PREDICTED BY IDOCK:   -3.53 KCAL/MOL
REMARK 922        TOTAL FREE ENERGY PREDICTED BY IDOCK:   -4.70 KCAL/MOL
REMARK 923 INTER-LIGAND FREE ENERGY PREDICTED BY IDOCK:   -5.05 KCAL/MOL
REMARK 924 INTRA-LIGAND FREE ENERGY PREDICTED BY IDOCK:    0.35 KCAL/MOL
REMARK 927      BINDING AFFINITY PREDICTED BY RF-SCORE:    0.00 PKD
ROOT
HETATM    1  C   UNL     1     -12.396  14.683  64.441  1.00  0.00    -0.420 C  
HETATM    2  C   UNL     1     -12.320  13.572  65.443  1.00  0.00    -0.478 C  
HETATM    3  O   UNL     1     -12.858  12.484  65.304  1.00  0.00    -0.613 OA 
ENDROOT
BRANCH   2   4
HETATM    4  O   UNL     1     -11.600  13.961  66.527  1.00  0.00    -0.337 OA 
BRANCH   4   5
HETATM    5  C   UNL     1     -10.278  14.500  66.264  1.00  0.00    -0.297 C  
HETATM    6  C   UNL     1     -10.023  15.644  67.242  1.00  0.00    -0.236 C  
HETATM    7  C   UNL     1      -8.655  16.204  66.998  1.00  0.00    -0.233 A  
HETATM    8  C   UNL     1      -8.484  17.435  66.347  1.00  0.00    -0.292 A  
HETATM    9  C   UNL     1      -7.202  17.915  66.082  1.00  0.00    -0.339 A  
HETATM   10  C   UNL     1      -6.087  17.173  66.460  1.00  0.00    -0.237 A  
HETATM   11  C   UNL     1      -6.253  15.949  67.111  1.00  0.00    -0.014 A  
HETATM   12  C   UNL     1      -7.537  15.456  67.384  1.00  0.00    -0.203 A  
HETATM   13  N   UNL     1      -7.711  14.216  68.079  1.00  0.00    -0.131 N  
HETATM   14  C   UNL     1      -9.319  13.312  66.336  1.00  0.00    -0.185 A  
HETATM   15  C   UNL     1      -8.268  13.145  67.273  1.00  0.00    -0.168 A  
HETATM   16  C   UNL     1      -7.660  11.872  67.344  1.00  0.00    -0.151 A  
HETATM   17  C   UNL     1      -9.597  12.264  65.422  1.00  0.00    -0.079 A  
HETATM   18  C   UNL     1      -8.943  11.040  65.486  1.00  0.00    -0.208 A  
HETATM   19  C   UNL     1      -7.999  10.830  66.476  1.00  0.00    -0.144 A  
BRANCH  13  20
HETATM   20  C   UNL     1      -7.093  13.965  69.314  1.00  0.00    -0.027 C  
HETATM   21  H1  UNL     1      -7.017  14.583  71.254  1.00  0.00     0.000 HD 
HETATM   22  O   UNL     1      -6.297  13.064  69.569  1.00  0.00    -0.111 OA 
HETATM   23  N   UNL     1      -7.466  14.766  70.357  1.00  0.00    -0.148 N  
HETATM   24  H2  UNL     1      -8.158  15.507  70.245  1.00  0.00     0.000 HD 
ENDBRANCH  13  20
ENDBRANCH   4   5
ENDBRANCH   2   4
TORSDOF 3
ENDMDL
MODEL      102
REMARK 921   NORMALIZED FREE ENERGY PREDICTED BY IDOCK:   -3.53 KCAL/MOL
REMARK 922        TOTAL FREE ENERGY PREDICTED BY IDOCK:   -4.70 KCAL/MOL
REMARK 923 INTER-LIGAND FREE ENERGY PREDICTED BY IDOCK:   -4.35 KCAL/MOL
REMARK 924 INTRA-LIGAND FREE ENERGY PREDICTED BY IDOCK:   -0.35 KCAL/MOL
REMARK 927      BINDING AFFINITY PREDICTED BY RF-SCORE:    0.00 PKD
ROOT
HETATM    1  C   UNL     1     -11.272   4.697  73.472  1.00  0.00    -0.400 C  
HETATM    2  C   UNL     1     -10.468   4.645  72.209  1.00  0.00    -0.170 C  
HETATM    3  O   UNL     1      -9.813   3.678  71.851  1.00  0.00    -0.159 OA 
ENDROOT
BRANCH   2   4
HETATM    4  O   UNL     1     -10.552   5.828  71.546  1.00  0.00    -0.229 OA 
BRANCH   4   5
HETATM    5  C   UNL     1      -9.902   5.888  70.249  1.00  0.00    -0.185 C  
HETATM    6  C   UNL     1     -10.982   5.849  69.170  1.00  0.00    -0.382 C  
HETATM    7  C   UNL     1     -10.332   5.927  67.821  1.00  0.00    -0.262 A  
HETATM    8  C   UNL     1     -10.227   4.792  67.003  1.00  0.00    -0.205 A  
HETATM    9  C   UNL     1      -9.573   4.873  65.774  1.00  0.00    -0.181 A  
HETATM   10  C   UNL     1      -9.019   6.078  65.357  1.00  0.00     0.015 A  
HETATM   11  C   UNL     1      -9.123   7.211  66.167  1.00  0.00    -0.155 A  
HETATM   12  C   UNL     1      -9.779   7.143  67.405  1.00  0.00    -0.148 A  
HETATM   13  N   UNL     1      -9.915   8.309  68.224  1.00  0.00    -0.184 N  
HETATM   14  C   UNL     1      -9.013   7.130  70.282  1.00  0.00    -0.152 A  
HETATM   15  C   UNL     1      -9.149   8.275  69.456  1.00  0.00    -0.154 A  
HETATM   16  C   UNL     1      -8.400   9.419  69.808  1.00  0.00    -0.161 A  
HETATM   17  C   UNL     1      -8.032   7.136  71.308  1.00  0.00    -0.102 A  
HETATM   18  C   UNL     1      -7.275   8.265  71.595  1.00  0.00    -0.093 A  
HETATM   19  C   UNL     1      -7.488   9.422  70.867  1.00  0.00    -0.097 A  
BRANCH  13  20
HETATM   20  C   UNL     1     -10.463   9.503  67.730  1.00  0.00    -0.254 C  
HETATM   21  H1  UNL     1     -11.968  10.847  68.015  1.00  0.00     0.000 HD 
HETATM   22  O   UNL     1     -10.017  10.195  66.816  1.00  0.00    -0.193 OA 
HETATM   23  N   UNL     1     -11.570   9.980  68.374  1.00  0.00    -0.499 N  
HETATM   24  H2  UNL     1     -11.977   9.494  69.173  1.00  0.00     0.000 HD 
ENDBRANCH  13  20
ENDBRANCH   4   5
ENDBRANCH   2   4
TORSDOF 3
ENDMDL
MODEL      103
REMARK 921   NORMALIZED FREE ENERGY PREDICTED BY IDOCK:   -3.52 KCAL/MOL
REMARK 922        TOTAL FREE ENERGY PREDICTED BY IDOCK:   -4.69 KCAL/MOL
REMARK 923 INTER-LIGAND FREE ENERGY PREDICTED BY IDOCK:   -4.74 KCAL/MOL
REMARK 924 INTRA-LIGAND FREE ENERGY PREDICTED BY IDOCK:    0.04 KCAL/MOL
REMARK 927      BINDING AFFINITY PREDICTED BY RF-SCORE:    0.00 PKD
ROOT
HETATM    1  C   UNL     1      -9.633  10.821  68.935  1.00  0.00    -0.204 C  
HETATM    2  C   UNL     1      -9.598  10.655  67.446  1.00  0.00    -0.158 C  
HETATM    3  O   UNL     1     -10.399   9.988  66.810  1.00  0.00    -0.225 OA 
ENDROOT
BRANCH   2   4
HETATM    4  O   UNL     1      -8.538  11.324  66.920  1.00  0.00    -0.139 OA 
BRANCH   4   5
HETATM    5  C   UNL     1      -8.754  12.722  66.594  1.00  0.00    -0.058 C  
HETATM    6  C   UNL     1     -10.259  12.964  66.501  1.00  0.00    -0.264 C  
HETATM    7  C   UNL     1     -10.505  14.408  66.181  1.00  0.00    -0.295 A  
HETATM    8  C   UNL     1     -10.903  14.805  64.895  1.00  0.00    -0.433 A  
HETATM    9  C   UNL     1     -11.077  16.157  64.603  1.00  0.00    -0.310 A  
HETATM   10  C   UNL     1     -10.852  17.118  65.583  1.00  0.00    -0.050 A  
HETATM   11  C   UNL     1     -10.459  16.726  66.865  1.00  0.00    -0.269 A  
HETATM   12  C   UNL     1     -10.282  15.370  67.172  1.00  0.00    -0.251 A  
HETATM   13  N   UNL     1      -9.908  14.963  68.493  1.00  0.00    -0.211 N  
HETATM   14  C   UNL     1      -7.997  13.522  67.652  1.00  0.00    -0.177 A  
HETATM   15  C   UNL     1      -8.573  14.407  68.599  1.00  0.00    -0.161 A  
HETATM   16  C   UNL     1      -7.747  14.852  69.655  1.00  0.00    -0.072 A  
HETATM   17  C   UNL     1      -6.604  13.257  67.717  1.00  0.00    -0.156 A  
HETATM   18  C   UNL     1      -5.809  13.754  68.742  1.00  0.00    -0.084 A  
HETATM   19  C   UNL     1      -6.391  14.522  69.736  1.00  0.00    -0.148 A  
BRANCH  13  20
HETATM   20  C   UNL     1     -10.630  15.371  69.626  1.00  0.00    -0.279 C  
HETATM   21  H1  UNL     1     -11.732  14.678  71.194  1.00  0.00     0.000 HD 
HETATM   22  O   UNL     1     -10.746  16.519  70.051  1.00  0.00    -0.312 OA 
HETATM   23  N   UNL     1     -11.208  14.381  70.371  1.00  0.00    -0.484 N  
HETATM   24  H2  UNL     1     -11.120  13.397  70.118  1.00  0.00     0.000 HD 
ENDBRANCH  13  20
ENDBRANCH   4   5
ENDBRANCH   2   4
TORSDOF 3
ENDMDL
MODEL      104
REMARK 921   NORMALIZED FREE ENERGY PREDICTED BY IDOCK:   -3.49 KCAL/MOL
REMARK 922        TOTAL FREE ENERGY PREDICTED BY IDOCK:   -4.66 KCAL/MOL
REMARK 923 INTER-LIGAND FREE ENERGY PREDICTED BY IDOCK:   -4.97 KCAL/MOL
REMARK 924 INTRA-LIGAND FREE ENERGY PREDICTED BY IDOCK:    0.31 KCAL/MOL
REMARK 927      BINDING AFFINITY PREDICTED BY RF-SCORE:    0.00 PKD
ROOT
HETATM    1  C   UNL     1     -10.359   6.802  73.871  1.00  0.00    -0.397 C  
HETATM    2  C   UNL     1     -10.610   5.504  73.167  1.00  0.00    -0.247 C  
HETATM    3  O   UNL     1     -11.652   4.871  73.243  1.00  0.00    -0.336 OA 
ENDROOT
BRANCH   2   4
HETATM    4  O   UNL     1      -9.509   5.126  72.465  1.00  0.00    -0.144 OA 
BRANCH   4   5
HETATM    5  C   UNL     1      -9.392   5.651  71.117  1.00  0.00    -0.153 C  
HETATM    6  C   UNL     1     -10.795   5.957  70.598  1.00  0.00    -0.363 C  
HETATM    7  C   UNL     1     -10.695   6.517  69.211  1.00  0.00    -0.329 A  
HETATM    8  C   UNL     1     -11.032   5.739  68.093  1.00  0.00    -0.150 A  
HETATM    9  C   UNL     1     -10.884   6.260  66.808  1.00  0.00    -0.367 A  
HETATM   10  C   UNL     1     -10.396   7.551  66.630  1.00  0.00    -0.252 A  
HETATM   11  C   UNL     1     -10.062   8.329  67.741  1.00  0.00    -0.262 A  
HETATM   12  C   UNL     1     -10.208   7.817  69.038  1.00  0.00    -0.208 A  
HETATM   13  N   UNL     1      -9.896   8.622  70.181  1.00  0.00    -0.177 N  
HETATM   14  C   UNL     1      -8.424   6.829  71.208  1.00  0.00    -0.124 A  
HETATM   15  C   UNL     1      -8.732   8.185  70.928  1.00  0.00    -0.140 A  
HETATM   16  C   UNL     1      -7.784   9.157  71.316  1.00  0.00    -0.065 A  
HETATM   17  C   UNL     1      -7.136   6.507  71.708  1.00  0.00    -0.084 A  
HETATM   18  C   UNL     1      -6.206   7.487  72.031  1.00  0.00    -0.039 A  
HETATM   19  C   UNL     1      -6.547   8.818  71.871  1.00  0.00    -0.064 A  
BRANCH  13  20
HETATM   20  C   UNL     1     -10.454   9.897  70.363  1.00  0.00    -0.285 C  
HETATM   21  H1  UNL     1     -10.364  11.825  69.710  1.00  0.00     0.000 HD 
HETATM   22  O   UNL     1     -11.382  10.194  71.114  1.00  0.00    -0.346 OA 
HETATM   23  N   UNL     1      -9.959  10.900  69.577  1.00  0.00    -0.437 N  
HETATM   24  H2  UNL     1      -9.222  10.730  68.893  1.00  0.00     0.000 HD 
ENDBRANCH  13  20
ENDBRANCH   4   5
ENDBRANCH   2   4
TORSDOF 3
ENDMDL
MODEL      105
REMARK 921   NORMALIZED FREE ENERGY PREDICTED BY IDOCK:   -3.49 KCAL/MOL
REMARK 922        TOTAL FREE ENERGY PREDICTED BY IDOCK:   -4.65 KCAL/MOL
REMARK 923 INTER-LIGAND FREE ENERGY PREDICTED BY IDOCK:   -4.71 KCAL/MOL
REMARK 924 INTRA-LIGAND FREE ENERGY PREDICTED BY IDOCK:    0.06 KCAL/MOL
REMARK 927      BINDING AFFINITY PREDICTED BY RF-SCORE:    0.00 PKD
ROOT
HETATM    1  C   UNL     1     -11.002  15.746  66.466  1.00  0.00    -0.165 C  
HETATM    2  C   UNL     1     -11.435  14.803  67.547  1.00  0.00    -0.354 C  
HETATM    3  O   UNL     1     -11.792  15.153  68.662  1.00  0.00    -0.339 OA 
ENDROOT
BRANCH   2   4
HETATM    4  O   UNL     1     -11.343  13.517  67.118  1.00  0.00    -0.298 OA 
BRANCH   4   5
HETATM    5  C   UNL     1     -10.006  12.959  67.033  1.00  0.00    -0.244 C  
HETATM    6  C   UNL     1      -9.721  12.199  68.327  1.00  0.00    -0.216 C  
HETATM    7  C   UNL     1      -8.349  11.600  68.253  1.00  0.00    -0.159 A  
HETATM    8  C   UNL     1      -7.280  12.153  68.973  1.00  0.00    -0.037 A  
HETATM    9  C   UNL     1      -6.000  11.613  68.851  1.00  0.00    -0.050 A  
HETATM   10  C   UNL     1      -5.779  10.526  68.012  1.00  0.00    -0.040 A  
HETATM   11  C   UNL     1      -6.841   9.971  67.296  1.00  0.00    -0.082 A  
HETATM   12  C   UNL     1      -8.133  10.504  67.411  1.00  0.00    -0.111 A  
HETATM   13  N   UNL     1      -9.230   9.918  66.702  1.00  0.00    -0.150 N  
HETATM   14  C   UNL     1      -9.972  12.146  65.740  1.00  0.00    -0.271 A  
HETATM   15  C   UNL     1      -9.776  10.745  65.642  1.00  0.00    -0.237 A  
HETATM   16  C   UNL     1     -10.032  10.142  64.391  1.00  0.00    -0.229 A  
HETATM   17  C   UNL     1     -10.256  12.884  64.562  1.00  0.00    -0.334 A  
HETATM   18  C   UNL     1     -10.452  12.263  63.335  1.00  0.00    -0.408 A  
HETATM   19  C   UNL     1     -10.378  10.884  63.258  1.00  0.00    -0.242 A  
BRANCH  13  20
HETATM   20  C   UNL     1      -9.528   8.549  66.798  1.00  0.00    -0.194 C  
HETATM   21  H1  UNL     1      -9.425   6.783  65.786  1.00  0.00     0.000 HD 
HETATM   22  O   UNL     1      -9.992   7.964  67.774  1.00  0.00    -0.155 OA 
HETATM   23  N   UNL     1      -9.209   7.777  65.716  1.00  0.00    -0.397 N  
HETATM   24  H2  UNL     1      -8.776   8.174  64.882  1.00  0.00     0.000 HD 
ENDBRANCH  13  20
ENDBRANCH   4   5
ENDBRANCH   2   4
TORSDOF 3
ENDMDL
MODEL      106
REMARK 921   NORMALIZED FREE ENERGY PREDICTED BY IDOCK:   -3.47 KCAL/MOL
REMARK 922        TOTAL FREE ENERGY PREDICTED BY IDOCK:   -4.63 KCAL/MOL
REMARK 923 INTER-LIGAND FREE ENERGY PREDICTED BY IDOCK:   -4.34 KCAL/MOL
REMARK 924 INTRA-LIGAND FREE ENERGY PREDICTED BY IDOCK:   -0.29 KCAL/MOL
REMARK 927      BINDING AFFINITY PREDICTED BY RF-SCORE:    0.00 PKD
ROOT
HETATM    1  C   UNL     1     -10.155   9.999  69.539  1.00  0.00    -0.248 C  
HETATM    2  C   UNL     1     -10.788   9.784  68.198  1.00  0.00    -0.214 C  
HETATM    3  O   UNL     1     -11.479  10.610  67.623  1.00  0.00    -0.474 OA 
ENDROOT
BRANCH   2   4
HETATM    4  O   UNL     1     -10.506   8.537  67.736  1.00  0.00    -0.237 OA 
BRANCH   4   5
HETATM    5  C   UNL     1     -10.020   7.581  68.715  1.00  0.00    -0.172 C  
HETATM    6  C   UNL     1     -11.130   6.568  68.987  1.00  0.00    -0.375 C  
HETATM    7  C   UNL     1     -10.642   5.561  69.984  1.00  0.00    -0.384 A  
HETATM    8  C   UNL     1     -11.079   5.593  71.317  1.00  0.00    -0.205 A  
HETATM    9  C   UNL     1     -10.575   4.680  72.242  1.00  0.00    -0.203 A  
HETATM   10  C   UNL     1      -9.632   3.736  71.847  1.00  0.00    -0.220 A  
HETATM   11  C   UNL     1      -9.196   3.699  70.521  1.00  0.00    -0.210 A  
HETATM   12  C   UNL     1      -9.697   4.611  69.581  1.00  0.00    -0.213 A  
HETATM   13  N   UNL     1      -9.276   4.556  68.214  1.00  0.00    -0.125 N  
HETATM   14  C   UNL     1      -8.713   7.029  68.149  1.00  0.00    -0.127 A  
HETATM   15  C   UNL     1      -8.466   5.681  67.785  1.00  0.00    -0.102 A  
HETATM   16  C   UNL     1      -7.293   5.415  67.045  1.00  0.00    -0.083 A  
HETATM   17  C   UNL     1      -7.713   8.003  67.896  1.00  0.00    -0.114 A  
HETATM   18  C   UNL     1      -6.545   7.696  67.209  1.00  0.00    -0.063 A  
HETATM   19  C   UNL     1      -6.353   6.406  66.748  1.00  0.00    -0.041 A  
BRANCH  13  20
HETATM   20  C   UNL     1      -9.352   3.373  67.462  1.00  0.00    -0.204 C  
HETATM   21  H1  UNL     1     -10.140   2.569  65.763  1.00  0.00     0.000 HD 
HETATM   22  O   UNL     1      -8.780   2.311  67.700  1.00  0.00    -0.093 OA 
HETATM   23  N   UNL     1     -10.085   3.428  66.309  1.00  0.00    -0.234 N  
HETATM   24  H2  UNL     1     -10.553   4.284  66.011  1.00  0.00     0.000 HD 
ENDBRANCH  13  20
ENDBRANCH   4   5
ENDBRANCH   2   4
TORSDOF 3
ENDMDL
MODEL      107
REMARK 921   NORMALIZED FREE ENERGY PREDICTED BY IDOCK:   -3.42 KCAL/MOL
REMARK 922        TOTAL FREE ENERGY PREDICTED BY IDOCK:   -4.58 KCAL/MOL
REMARK 923 INTER-LIGAND FREE ENERGY PREDICTED BY IDOCK:   -4.72 KCAL/MOL
REMARK 924 INTRA-LIGAND FREE ENERGY PREDICTED BY IDOCK:    0.14 KCAL/MOL
REMARK 927      BINDING AFFINITY PREDICTED BY RF-SCORE:    0.00 PKD
ROOT
HETATM    1  C   UNL     1      -5.921   6.839  66.823  1.00  0.00    -0.025 C  
HETATM    2  C   UNL     1      -6.509   7.223  68.147  1.00  0.00    -0.045 C  
HETATM    3  O   UNL     1      -6.613   6.464  69.098  1.00  0.00    -0.044 OA 
ENDROOT
BRANCH   2   4
HETATM    4  O   UNL     1      -6.930   8.514  68.121  1.00  0.00    -0.071 OA 
BRANCH   4   5
HETATM    5  C   UNL     1      -8.304   8.753  68.523  1.00  0.00    -0.129 C  
HETATM    6  C   UNL     1      -8.290   9.576  69.809  1.00  0.00    -0.170 C  
HETATM    7  C   UNL     1      -9.702   9.849  70.233  1.00  0.00    -0.211 A  
HETATM    8  C   UNL     1     -10.277   9.162  71.313  1.00  0.00    -0.400 A  
HETATM    9  C   UNL     1     -11.608   9.391  71.660  1.00  0.00    -0.466 A  
HETATM   10  C   UNL     1     -12.371  10.300  70.934  1.00  0.00    -0.471 A  
HETATM   11  C   UNL     1     -11.802  10.988  69.860  1.00  0.00    -0.431 A  
HETATM   12  C   UNL     1     -10.464  10.766  69.502  1.00  0.00    -0.170 A  
HETATM   13  N   UNL     1      -9.868  11.493  68.422  1.00  0.00    -0.199 N  
HETATM   14  C   UNL     1      -8.992   9.385  67.314  1.00  0.00    -0.143 A  
HETATM   15  C   UNL     1      -9.547  10.688  67.258  1.00  0.00    -0.163 A  
HETATM   16  C   UNL     1      -9.906  11.185  65.985  1.00  0.00    -0.270 A  
HETATM   17  C   UNL     1      -8.970   8.596  66.135  1.00  0.00    -0.221 A  
HETATM   18  C   UNL     1      -9.380   9.099  64.906  1.00  0.00    -0.050 A  
HETATM   19  C   UNL     1      -9.812  10.411  64.824  1.00  0.00    -0.406 A  
BRANCH  13  20
HETATM   20  C   UNL     1      -9.901  12.895  68.363  1.00  0.00    -0.197 C  
HETATM   21  H1  UNL     1     -11.123  14.508  68.600  1.00  0.00     0.000 HD 
HETATM   22  O   UNL     1      -8.951  13.645  68.147  1.00  0.00    -0.180 OA 
HETATM   23  N   UNL     1     -11.100  13.490  68.642  1.00  0.00    -0.258 N  
HETATM   24  H2  UNL     1     -11.927  12.944  68.880  1.00  0.00     0.000 HD 
ENDBRANCH  13  20
ENDBRANCH   4   5
ENDBRANCH   2   4
TORSDOF 3
ENDMDL
MODEL      108
REMARK 921   NORMALIZED FREE ENERGY PREDICTED BY IDOCK:   -3.42 KCAL/MOL
REMARK 922        TOTAL FREE ENERGY PREDICTED BY IDOCK:   -4.58 KCAL/MOL
REMARK 923 INTER-LIGAND FREE ENERGY PREDICTED BY IDOCK:   -4.18 KCAL/MOL
REMARK 924 INTRA-LIGAND FREE ENERGY PREDICTED BY IDOCK:   -0.40 KCAL/MOL
REMARK 927      BINDING AFFINITY PREDICTED BY RF-SCORE:    0.00 PKD
ROOT
HETATM    1  C   UNL     1      -9.080   8.573  65.826  1.00  0.00    -0.222 C  
HETATM    2  C   UNL     1      -9.707   9.029  67.108  1.00  0.00    -0.181 C  
HETATM    3  O   UNL     1      -9.914   8.302  68.068  1.00  0.00    -0.170 OA 
ENDROOT
BRANCH   2   4
HETATM    4  O   UNL     1     -10.034  10.345  67.033  1.00  0.00    -0.190 OA 
BRANCH   4   5
HETATM    5  C   UNL     1      -9.213  11.259  67.807  1.00  0.00    -0.156 C  
HETATM    6  C   UNL     1      -8.156  11.856  66.880  1.00  0.00    -0.146 C  
HETATM    7  C   UNL     1      -7.307  12.816  67.657  1.00  0.00    -0.144 A  
HETATM    8  C   UNL     1      -6.002  12.476  68.045  1.00  0.00    -0.081 A  
HETATM    9  C   UNL     1      -5.246  13.362  68.812  1.00  0.00    -0.072 A  
HETATM   10  C   UNL     1      -5.785  14.585  69.199  1.00  0.00    -0.091 A  
HETATM   11  C   UNL     1      -7.082  14.928  68.812  1.00  0.00    -0.115 A  
HETATM   12  C   UNL     1      -7.852  14.047  68.040  1.00  0.00    -0.152 A  
HETATM   13  N   UNL     1      -9.171  14.409  67.617  1.00  0.00    -0.191 N  
HETATM   14  C   UNL     1     -10.182  12.241  68.464  1.00  0.00    -0.213 A  
HETATM   15  C   UNL     1     -10.236  13.639  68.232  1.00  0.00    -0.243 A  
HETATM   16  C   UNL     1     -11.359  14.335  68.731  1.00  0.00    -0.303 A  
HETATM   17  C   UNL     1     -11.156  11.646  69.306  1.00  0.00    -0.291 A  
HETATM   18  C   UNL     1     -12.222  12.371  69.823  1.00  0.00    -0.198 A  
HETATM   19  C   UNL     1     -12.345  13.711  69.502  1.00  0.00    -0.232 A  
BRANCH  13  20
HETATM   20  C   UNL     1      -9.427  15.608  66.934  1.00  0.00    -0.229 C  
HETATM   21  H1  UNL     1      -9.802  16.387  65.088  1.00  0.00     0.000 HD 
HETATM   22  O   UNL     1      -9.559  16.724  67.433  1.00  0.00    -0.232 OA 
HETATM   23  N   UNL     1      -9.615  15.515  65.584  1.00  0.00    -0.325 N  
HETATM   24  H2  UNL     1      -9.572  14.620  65.096  1.00  0.00     0.000 HD 
ENDBRANCH  13  20
ENDBRANCH   4   5
ENDBRANCH   2   4
TORSDOF 3
ENDMDL
MODEL      109
REMARK 921   NORMALIZED FREE ENERGY PREDICTED BY IDOCK:   -3.42 KCAL/MOL
REMARK 922        TOTAL FREE ENERGY PREDICTED BY IDOCK:   -4.58 KCAL/MOL
REMARK 923 INTER-LIGAND FREE ENERGY PREDICTED BY IDOCK:   -4.65 KCAL/MOL
REMARK 924 INTRA-LIGAND FREE ENERGY PREDICTED BY IDOCK:    0.07 KCAL/MOL
REMARK 927      BINDING AFFINITY PREDICTED BY RF-SCORE:    0.00 PKD
ROOT
HETATM    1  C   UNL     1      -9.583   4.923  73.533  1.00  0.00    -0.142 C  
HETATM    2  C   UNL     1     -10.522   5.272  72.419  1.00  0.00    -0.215 C  
HETATM    3  O   UNL     1     -11.740   5.232  72.508  1.00  0.00    -0.177 OA 
ENDROOT
BRANCH   2   4
HETATM    4  O   UNL     1      -9.826   5.606  71.301  1.00  0.00    -0.166 OA 
BRANCH   4   5
HETATM    5  C   UNL     1     -10.248   6.814  70.615  1.00  0.00    -0.195 C  
HETATM    6  C   UNL     1     -10.291   7.952  71.631  1.00  0.00    -0.250 C  
HETATM    7  C   UNL     1     -10.709   9.214  70.938  1.00  0.00    -0.343 A  
HETATM    8  C   UNL     1     -12.002   9.734  71.104  1.00  0.00    -0.463 A  
HETATM    9  C   UNL     1     -12.389  10.880  70.410  1.00  0.00    -0.436 A  
HETATM   10  C   UNL     1     -11.496  11.510  69.549  1.00  0.00    -0.378 A  
HETATM   11  C   UNL     1     -10.208  10.997  69.384  1.00  0.00    -0.097 A  
HETATM   12  C   UNL     1      -9.806   9.846  70.077  1.00  0.00    -0.243 A  
HETATM   13  N   UNL     1      -8.476   9.335  69.934  1.00  0.00    -0.146 N  
HETATM   14  C   UNL     1      -9.291   6.984  69.436  1.00  0.00    -0.146 A  
HETATM   15  C   UNL     1      -8.389   8.061  69.244  1.00  0.00    -0.134 A  
HETATM   16  C   UNL     1      -7.410   7.914  68.237  1.00  0.00    -0.098 A  
HETATM   17  C   UNL     1      -9.269   5.898  68.523  1.00  0.00    -0.119 A  
HETATM   18  C   UNL     1      -8.323   5.809  67.509  1.00  0.00    -0.104 A  
HETATM   19  C   UNL     1      -7.366   6.801  67.391  1.00  0.00    -0.095 A  
BRANCH  13  20
HETATM   20  C   UNL     1      -7.346  10.142  70.138  1.00  0.00    -0.147 C  
HETATM   21  H1  UNL     1      -6.406  11.827  69.483  1.00  0.00     0.000 HD 
HETATM   22  O   UNL     1      -6.485   9.997  71.003  1.00  0.00    -0.283 OA 
HETATM   23  N   UNL     1      -7.227  11.241  69.334  1.00  0.00    -0.271 N  
HETATM   24  H2  UNL     1      -7.923  11.464  68.623  1.00  0.00     0.000 HD 
ENDBRANCH  13  20
ENDBRANCH   4   5
ENDBRANCH   2   4
TORSDOF 3
ENDMDL
MODEL      110
REMARK 921   NORMALIZED FREE ENERGY PREDICTED BY IDOCK:   -3.41 KCAL/MOL
REMARK 922        TOTAL FREE ENERGY PREDICTED BY IDOCK:   -4.57 KCAL/MOL
REMARK 923 INTER-LIGAND FREE ENERGY PREDICTED BY IDOCK:   -4.44 KCAL/MOL
REMARK 924 INTRA-LIGAND FREE ENERGY PREDICTED BY IDOCK:   -0.12 KCAL/MOL
REMARK 927      BINDING AFFINITY PREDICTED BY RF-SCORE:    0.00 PKD
ROOT
HETATM    1  C   UNL     1     -10.146  12.329  68.569  1.00  0.00    -0.192 C  
HETATM    2  C   UNL     1     -11.174  11.298  68.922  1.00  0.00    -0.253 C  
HETATM    3  O   UNL     1     -12.277  11.223  68.403  1.00  0.00    -0.604 OA 
ENDROOT
BRANCH   2   4
HETATM    4  O   UNL     1     -10.714  10.489  69.912  1.00  0.00    -0.267 OA 
BRANCH   4   5
HETATM    5  C   UNL     1     -10.528   9.091  69.569  1.00  0.00    -0.219 C  
HETATM    6  C   UNL     1      -9.934   9.017  68.164  1.00  0.00    -0.206 C  
HETATM    7  C   UNL     1      -9.719   7.580  67.796  1.00  0.00    -0.176 A  
HETATM    8  C   UNL     1     -10.571   6.931  66.890  1.00  0.00    -0.372 A  
HETATM    9  C   UNL     1     -10.386   5.579  66.601  1.00  0.00    -0.322 A  
HETATM   10  C   UNL     1      -9.358   4.869  67.212  1.00  0.00    -0.142 A  
HETATM   11  C   UNL     1      -8.506   5.512  68.112  1.00  0.00    -0.098 A  
HETATM   12  C   UNL     1      -8.681   6.871  68.411  1.00  0.00    -0.124 A  
HETATM   13  N   UNL     1      -7.791   7.541  69.310  1.00  0.00    -0.116 N  
HETATM   14  C   UNL     1      -9.693   8.489  70.697  1.00  0.00    -0.207 A  
HETATM   15  C   UNL     1      -8.391   7.940  70.569  1.00  0.00    -0.124 A  
HETATM   16  C   UNL     1      -7.683   7.671  71.761  1.00  0.00    -0.089 A  
HETATM   17  C   UNL     1     -10.272   8.591  71.989  1.00  0.00    -0.391 A  
HETATM   18  C   UNL     1      -9.563   8.268  73.139  1.00  0.00    -0.240 A  
HETATM   19  C   UNL     1      -8.251   7.844  73.027  1.00  0.00    -0.208 A  
BRANCH  13  20
HETATM   20  C   UNL     1      -6.399   7.514  69.133  1.00  0.00    -0.035 C  
HETATM   21  H1  UNL     1      -4.787   8.684  68.698  1.00  0.00     0.000 HD 
HETATM   22  O   UNL     1      -5.657   6.545  69.281  1.00  0.00    -0.013 OA 
HETATM   23  N   UNL     1      -5.799   8.704  68.827  1.00  0.00    -0.043 N  
HETATM   24  H2  UNL     1      -6.334   9.567  68.733  1.00  0.00     0.000 HD 
ENDBRANCH  13  20
ENDBRANCH   4   5
ENDBRANCH   2   4
TORSDOF 3
ENDMDL
MODEL      111
REMARK 921   NORMALIZED FREE ENERGY PREDICTED BY IDOCK:   -3.40 KCAL/MOL
REMARK 922        TOTAL FREE ENERGY PREDICTED BY IDOCK:   -4.55 KCAL/MOL
REMARK 923 INTER-LIGAND FREE ENERGY PREDICTED BY IDOCK:   -4.02 KCAL/MOL
REMARK 924 INTRA-LIGAND FREE ENERGY PREDICTED BY IDOCK:   -0.53 KCAL/MOL
REMARK 927      BINDING AFFINITY PREDICTED BY RF-SCORE:    0.00 PKD
ROOT
HETATM    1  C   UNL     1      -9.992   9.955  65.677  1.00  0.00    -0.353 C  
HETATM    2  C   UNL     1      -8.725  10.203  66.438  1.00  0.00    -0.130 C  
HETATM    3  O   UNL     1      -7.706  10.660  65.944  1.00  0.00    -0.151 OA 
ENDROOT
BRANCH   2   4
HETATM    4  O   UNL     1      -8.869   9.821  67.734  1.00  0.00    -0.128 OA 
BRANCH   4   5
HETATM    5  C   UNL     1      -9.351   8.471  67.959  1.00  0.00    -0.136 C  
HETATM    6  C   UNL     1      -8.204   7.501  67.683  1.00  0.00    -0.118 C  
HETATM    7  C   UNL     1      -8.677   6.099  67.926  1.00  0.00    -0.113 A  
HETATM    8  C   UNL     1      -8.954   5.235  66.856  1.00  0.00    -0.109 A  
HETATM    9  C   UNL     1      -9.442   3.952  67.101  1.00  0.00    -0.231 A  
HETATM   10  C   UNL     1      -9.659   3.526  68.408  1.00  0.00    -0.154 A  
HETATM   11  C   UNL     1      -9.381   4.382  69.475  1.00  0.00    -0.226 A  
HETATM   12  C   UNL     1      -8.889   5.674  69.242  1.00  0.00    -0.111 A  
HETATM   13  N   UNL     1      -8.574   6.544  70.335  1.00  0.00    -0.145 N  
HETATM   14  C   UNL     1      -9.929   8.462  69.373  1.00  0.00    -0.191 A  
HETATM   15  C   UNL     1      -9.450   7.693  70.464  1.00  0.00    -0.164 A  
HETATM   16  C   UNL     1      -9.948   8.011  71.748  1.00  0.00    -0.245 A  
HETATM   17  C   UNL     1     -10.982   9.386  69.594  1.00  0.00    -0.216 A  
HETATM   18  C   UNL     1     -11.485   9.638  70.864  1.00  0.00    -0.427 A  
HETATM   19  C   UNL     1     -10.938   8.977  71.949  1.00  0.00    -0.423 A  
BRANCH  13  20
HETATM   20  C   UNL     1      -7.718   6.148  71.375  1.00  0.00    -0.100 C  
HETATM   21  H1  UNL     1      -5.865   6.450  72.166  1.00  0.00     0.000 HD 
HETATM   22  O   UNL     1      -7.983   5.370  72.289  1.00  0.00    -0.104 OA 
HETATM   23  N   UNL     1      -6.486   6.738  71.410  1.00  0.00    -0.042 N  
HETATM   24  H2  UNL     1      -6.203   7.431  70.718  1.00  0.00     0.000 HD 
ENDBRANCH  13  20
ENDBRANCH   4   5
ENDBRANCH   2   4
TORSDOF 3
ENDMDL
MODEL      112
REMARK 921   NORMALIZED FREE ENERGY PREDICTED BY IDOCK:   -3.37 KCAL/MOL
REMARK 922        TOTAL FREE ENERGY PREDICTED BY IDOCK:   -4.52 KCAL/MOL
REMARK 923 INTER-LIGAND FREE ENERGY PREDICTED BY IDOCK:   -4.64 KCAL/MOL
REMARK 924 INTRA-LIGAND FREE ENERGY PREDICTED BY IDOCK:    0.12 KCAL/MOL
REMARK 927      BINDING AFFINITY PREDICTED BY RF-SCORE:    0.00 PKD
ROOT
HETATM    1  C   UNL     1     -10.427   9.554  70.777  1.00  0.00    -0.384 C  
HETATM    2  C   UNL     1     -10.797   8.767  71.998  1.00  0.00    -0.358 C  
HETATM    3  O   UNL     1     -11.935   8.661  72.428  1.00  0.00    -0.375 OA 
ENDROOT
BRANCH   2   4
HETATM    4  O   UNL     1      -9.688   8.223  72.563  1.00  0.00    -0.253 OA 
BRANCH   4   5
HETATM    5  C   UNL     1      -9.297   6.910  72.083  1.00  0.00    -0.138 C  
HETATM    6  C   UNL     1     -10.564   6.099  71.819  1.00  0.00    -0.268 C  
HETATM    7  C   UNL     1     -10.182   4.744  71.306  1.00  0.00    -0.229 A  
HETATM    8  C   UNL     1     -10.270   3.610  72.127  1.00  0.00    -0.171 A  
HETATM    9  C   UNL     1      -9.862   2.365  71.648  1.00  0.00    -0.216 A  
HETATM   10  C   UNL     1      -9.361   2.245  70.356  1.00  0.00    -0.190 A  
HETATM   11  C   UNL     1      -9.274   3.371  69.535  1.00  0.00    -0.225 A  
HETATM   12  C   UNL     1      -9.682   4.628  70.004  1.00  0.00    -0.207 A  
HETATM   13  N   UNL     1      -9.623   5.779  69.155  1.00  0.00    -0.130 N  
HETATM   14  C   UNL     1      -8.381   7.157  70.885  1.00  0.00    -0.121 A  
HETATM   15  C   UNL     1      -8.637   6.769  69.546  1.00  0.00    -0.133 A  
HETATM   16  C   UNL     1      -7.800   7.309  68.544  1.00  0.00    -0.122 A  
HETATM   17  C   UNL     1      -7.222   7.926  71.168  1.00  0.00    -0.058 A  
HETATM   18  C   UNL     1      -6.390   8.399  70.161  1.00  0.00    -0.038 A  
HETATM   19  C   UNL     1      -6.703   8.122  68.842  1.00  0.00    -0.049 A  
BRANCH  13  20
HETATM   20  C   UNL     1     -10.220   5.794  67.884  1.00  0.00    -0.187 C  
HETATM   21  H1  UNL     1     -11.649   6.721  66.764  1.00  0.00     0.000 HD 
HETATM   22  O   UNL     1      -9.900   5.112  66.913  1.00  0.00    -0.148 OA 
HETATM   23  N   UNL     1     -11.216   6.710  67.688  1.00  0.00    -0.637 N  
HETATM   24  H2  UNL     1     -11.511   7.349  68.426  1.00  0.00     0.000 HD 
ENDBRANCH  13  20
ENDBRANCH   4   5
ENDBRANCH   2   4
TORSDOF 3
ENDMDL
MODEL      113
REMARK 921   NORMALIZED FREE ENERGY PREDICTED BY IDOCK:   -3.34 KCAL/MOL
REMARK 922        TOTAL FREE ENERGY PREDICTED BY IDOCK:   -4.48 KCAL/MOL
REMARK 923 INTER-LIGAND FREE ENERGY PREDICTED BY IDOCK:   -4.34 KCAL/MOL
REMARK 924 INTRA-LIGAND FREE ENERGY PREDICTED BY IDOCK:   -0.14 KCAL/MOL
REMARK 927      BINDING AFFINITY PREDICTED BY RF-SCORE:    0.00 PKD
ROOT
HETATM    1  C   UNL     1      -5.758   3.466  68.930  1.00  0.00    -0.022 C  
HETATM    2  C   UNL     1      -6.180   4.490  69.939  1.00  0.00    -0.026 C  
HETATM    3  O   UNL     1      -5.960   4.406  71.137  1.00  0.00    -0.016 OA 
ENDROOT
BRANCH   2   4
HETATM    4  O   UNL     1      -6.862   5.498  69.333  1.00  0.00    -0.056 OA 
BRANCH   4   5
HETATM    5  C   UNL     1      -8.143   5.852  69.917  1.00  0.00    -0.116 C  
HETATM    6  C   UNL     1      -7.964   7.139  70.720  1.00  0.00    -0.100 C  
HETATM    7  C   UNL     1      -9.281   7.532  71.318  1.00  0.00    -0.155 A  
HETATM    8  C   UNL     1      -9.537   7.347  72.685  1.00  0.00    -0.204 A  
HETATM    9  C   UNL     1     -10.786   7.671  73.213  1.00  0.00    -0.379 A  
HETATM   10  C   UNL     1     -11.784   8.175  72.386  1.00  0.00    -0.461 A  
HETATM   11  C   UNL     1     -11.532   8.362  71.025  1.00  0.00    -0.302 A  
HETATM   12  C   UNL     1     -10.280   8.042  70.482  1.00  0.00    -0.198 A  
HETATM   13  N   UNL     1     -10.008   8.262  69.094  1.00  0.00    -0.190 N  
HETATM   14  C   UNL     1      -9.133   5.904  68.755  1.00  0.00    -0.116 A  
HETATM   15  C   UNL     1      -9.839   7.052  68.312  1.00  0.00    -0.144 A  
HETATM   16  C   UNL     1     -10.507   6.961  67.070  1.00  0.00    -0.374 A  
HETATM   17  C   UNL     1      -9.261   4.695  68.024  1.00  0.00    -0.158 A  
HETATM   18  C   UNL     1      -9.969   4.628  66.831  1.00  0.00    -0.239 A  
HETATM   19  C   UNL     1     -10.561   5.775  66.333  1.00  0.00    -0.219 A  
BRANCH  13  20
HETATM   20  C   UNL     1     -10.218   9.510  68.486  1.00  0.00    -0.199 C  
HETATM   21  H1  UNL     1     -11.666  10.749  67.765  1.00  0.00     0.000 HD 
HETATM   22  O   UNL     1      -9.365  10.359  68.234  1.00  0.00    -0.142 OA 
HETATM   23  N   UNL     1     -11.514   9.842  68.206  1.00  0.00    -0.520 N  
HETATM   24  H2  UNL     1     -12.288   9.217  68.427  1.00  0.00     0.000 HD 
ENDBRANCH  13  20
ENDBRANCH   4   5
ENDBRANCH   2   4
TORSDOF 3
ENDMDL
MODEL      114
REMARK 921   NORMALIZED FREE ENERGY PREDICTED BY IDOCK:   -3.33 KCAL/MOL
REMARK 922        TOTAL FREE ENERGY PREDICTED BY IDOCK:   -4.47 KCAL/MOL
REMARK 923 INTER-LIGAND FREE ENERGY PREDICTED BY IDOCK:   -4.36 KCAL/MOL
REMARK 924 INTRA-LIGAND FREE ENERGY PREDICTED BY IDOCK:   -0.11 KCAL/MOL
REMARK 927      BINDING AFFINITY PREDICTED BY RF-SCORE:    0.00 PKD
ROOT
HETATM    1  C   UNL     1     -11.722  10.702  70.502  1.00  0.00    -0.451 C  
HETATM    2  C   UNL     1     -11.584  10.625  69.012  1.00  0.00    -0.261 C  
HETATM    3  O   UNL     1     -12.151  11.372  68.230  1.00  0.00    -0.606 OA 
ENDROOT
BRANCH   2   4
HETATM    4  O   UNL     1     -10.768   9.595  68.665  1.00  0.00    -0.220 OA 
BRANCH   4   5
HETATM    5  C   UNL     1     -10.341   8.719  69.742  1.00  0.00    -0.211 C  
HETATM    6  C   UNL     1     -11.117   7.408  69.628  1.00  0.00    -0.129 C  
HETATM    7  C   UNL     1     -10.678   6.482  70.722  1.00  0.00    -0.290 A  
HETATM    8  C   UNL     1     -11.494   6.247  71.839  1.00  0.00    -0.360 A  
HETATM    9  C   UNL     1     -11.047   5.422  72.871  1.00  0.00    -0.360 A  
HETATM   10  C   UNL     1      -9.789   4.834  72.799  1.00  0.00    -0.184 A  
HETATM   11  C   UNL     1      -8.975   5.064  71.688  1.00  0.00    -0.152 A  
HETATM   12  C   UNL     1      -9.413   5.890  70.643  1.00  0.00    -0.171 A  
HETATM   13  N   UNL     1      -8.594   6.103  69.488  1.00  0.00    -0.126 N  
HETATM   14  C   UNL     1      -8.820   8.626  69.629  1.00  0.00    -0.137 A  
HETATM   15  C   UNL     1      -8.075   7.451  69.356  1.00  0.00    -0.129 A  
HETATM   16  C   UNL     1      -6.708   7.611  69.037  1.00  0.00    -0.049 A  
HETATM   17  C   UNL     1      -8.138   9.867  69.725  1.00  0.00    -0.185 A  
HETATM   18  C   UNL     1      -6.780   9.981  69.454  1.00  0.00    -0.060 A  
HETATM   19  C   UNL     1      -6.072   8.856  69.071  1.00  0.00    -0.043 A  
BRANCH  13  20
HETATM   20  C   UNL     1      -8.071   5.035  68.743  1.00  0.00    -0.084 C  
HETATM   21  H1  UNL     1      -6.611   3.612  68.736  1.00  0.00     0.000 HD 
HETATM   22  O   UNL     1      -8.518   4.582  67.691  1.00  0.00    -0.103 OA 
HETATM   23  N   UNL     1      -6.991   4.389  69.277  1.00  0.00    -0.049 N  
HETATM   24  H2  UNL     1      -6.586   4.668  70.170  1.00  0.00     0.000 HD 
ENDBRANCH  13  20
ENDBRANCH   4   5
ENDBRANCH   2   4
TORSDOF 3
ENDMDL
MODEL      115
REMARK 921   NORMALIZED FREE ENERGY PREDICTED BY IDOCK:   -3.32 KCAL/MOL
REMARK 922        TOTAL FREE ENERGY PREDICTED BY IDOCK:   -4.45 KCAL/MOL
REMARK 923 INTER-LIGAND FREE ENERGY PREDICTED BY IDOCK:   -4.35 KCAL/MOL
REMARK 924 INTRA-LIGAND FREE ENERGY PREDICTED BY IDOCK:   -0.11 KCAL/MOL
REMARK 927      BINDING AFFINITY PREDICTED BY RF-SCORE:    0.00 PKD
ROOT
HETATM    1  C   UNL     1      -7.363   6.750  62.379  1.00  0.00    -0.060 C  
HETATM    2  C   UNL     1      -7.189   8.156  62.868  1.00  0.00    -0.097 C  
HETATM    3  O   UNL     1      -6.229   8.862  62.602  1.00  0.00    -0.094 OA 
ENDROOT
BRANCH   2   4
HETATM    4  O   UNL     1      -8.230   8.511  63.666  1.00  0.00    -0.164 OA 
BRANCH   4   5
HETATM    5  C   UNL     1      -7.906   8.835  65.044  1.00  0.00    -0.111 C  
HETATM    6  C   UNL     1      -7.998  10.350  65.214  1.00  0.00    -0.143 C  
HETATM    7  C   UNL     1      -7.683  10.704  66.636  1.00  0.00    -0.132 A  
HETATM    8  C   UNL     1      -6.450  11.278  66.981  1.00  0.00    -0.114 A  
HETATM    9  C   UNL     1      -6.155  11.553  68.316  1.00  0.00    -0.045 A  
HETATM   10  C   UNL     1      -7.080  11.255  69.311  1.00  0.00    -0.112 A  
HETATM   11  C   UNL     1      -8.309  10.686  68.971  1.00  0.00    -0.153 A  
HETATM   12  C   UNL     1      -8.619  10.406  67.632  1.00  0.00    -0.118 A  
HETATM   13  N   UNL     1      -9.890   9.851  67.277  1.00  0.00    -0.174 N  
HETATM   14  C   UNL     1      -8.844   7.991  65.905  1.00  0.00    -0.189 A  
HETATM   15  C   UNL     1      -9.838   8.487  66.786  1.00  0.00    -0.257 A  
HETATM   16  C   UNL     1     -10.772   7.558  67.297  1.00  0.00    -0.365 A  
HETATM   17  C   UNL     1      -8.739   6.590  65.707  1.00  0.00    -0.129 A  
HETATM   18  C   UNL     1      -9.645   5.698  66.266  1.00  0.00    -0.166 A  
HETATM   19  C   UNL     1     -10.688   6.188  67.031  1.00  0.00    -0.423 A  
BRANCH  13  20
HETATM   20  C   UNL     1     -11.097  10.445  67.681  1.00  0.00    -0.293 C  
HETATM   21  H1  UNL     1     -12.420  10.560  69.226  1.00  0.00     0.000 HD 
HETATM   22  O   UNL     1     -11.761  11.264  67.049  1.00  0.00    -0.503 OA 
HETATM   23  N   UNL     1     -11.544  10.129  68.934  1.00  0.00    -0.504 N  
HETATM   24  H2  UNL     1     -11.028   9.495  69.544  1.00  0.00     0.000 HD 
ENDBRANCH  13  20
ENDBRANCH   4   5
ENDBRANCH   2   4
TORSDOF 3
ENDMDL
MODEL      116
REMARK 921   NORMALIZED FREE ENERGY PREDICTED BY IDOCK:   -3.25 KCAL/MOL
REMARK 922        TOTAL FREE ENERGY PREDICTED BY IDOCK:   -4.37 KCAL/MOL
REMARK 923 INTER-LIGAND FREE ENERGY PREDICTED BY IDOCK:   -3.93 KCAL/MOL
REMARK 924 INTRA-LIGAND FREE ENERGY PREDICTED BY IDOCK:   -0.44 KCAL/MOL
REMARK 927      BINDING AFFINITY PREDICTED BY RF-SCORE:    0.00 PKD
ROOT
HETATM    1  C   UNL     1     -10.609  12.485  63.523  1.00  0.00    -0.394 C  
HETATM    2  C   UNL     1     -10.401  12.924  64.940  1.00  0.00    -0.308 C  
HETATM    3  O   UNL     1     -11.075  13.774  65.502  1.00  0.00    -0.293 OA 
ENDROOT
BRANCH   2   4
HETATM    4  O   UNL     1      -9.346  12.267  65.489  1.00  0.00    -0.097 OA 
BRANCH   4   5
HETATM    5  C   UNL     1      -9.468  11.906  66.890  1.00  0.00    -0.199 C  
HETATM    6  C   UNL     1     -10.028  10.488  66.971  1.00  0.00    -0.244 C  
HETATM    7  C   UNL     1     -10.147  10.088  68.411  1.00  0.00    -0.186 A  
HETATM    8  C   UNL     1     -11.397  10.043  69.047  1.00  0.00    -0.136 A  
HETATM    9  C   UNL     1     -11.482   9.720  70.401  1.00  0.00    -0.347 A  
HETATM   10  C   UNL     1     -10.328   9.445  71.127  1.00  0.00    -0.377 A  
HETATM   11  C   UNL     1      -9.082   9.486  70.497  1.00  0.00    -0.276 A  
HETATM   12  C   UNL     1      -8.983   9.809  69.136  1.00  0.00    -0.161 A  
HETATM   13  N   UNL     1      -7.711   9.822  68.479  1.00  0.00    -0.080 N  
HETATM   14  C   UNL     1      -8.088  12.134  67.505  1.00  0.00    -0.163 A  
HETATM   15  C   UNL     1      -7.254  11.138  68.072  1.00  0.00    -0.079 A  
HETATM   16  C   UNL     1      -5.917  11.496  68.353  1.00  0.00    -0.045 A  
HETATM   17  C   UNL     1      -7.598  13.461  67.396  1.00  0.00    -0.138 A  
HETATM   18  C   UNL     1      -6.290  13.790  67.730  1.00  0.00    -0.171 A  
HETATM   19  C   UNL     1      -5.436  12.796  68.172  1.00  0.00    -0.081 A  
BRANCH  13  20
HETATM   20  C   UNL     1      -6.841   8.721  68.526  1.00  0.00    -0.064 C  
HETATM   21  H1  UNL     1      -5.987   7.267  67.382  1.00  0.00     0.000 HD 
HETATM   22  O   UNL     1      -6.211   8.322  69.504  1.00  0.00    -0.033 OA 
HETATM   23  N   UNL     1      -6.619   8.066  67.347  1.00  0.00    -0.057 N  
HETATM   24  H2  UNL     1      -7.063   8.361  66.478  1.00  0.00     0.000 HD 
ENDBRANCH  13  20
ENDBRANCH   4   5
ENDBRANCH   2   4
TORSDOF 3
ENDMDL
MODEL      117
REMARK 921   NORMALIZED FREE ENERGY PREDICTED BY IDOCK:   -3.16 KCAL/MOL
REMARK 922        TOTAL FREE ENERGY PREDICTED BY IDOCK:   -4.26 KCAL/MOL
REMARK 923 INTER-LIGAND FREE ENERGY PREDICTED BY IDOCK:   -4.05 KCAL/MOL
REMARK 924 INTRA-LIGAND FREE ENERGY PREDICTED BY IDOCK:   -0.21 KCAL/MOL
REMARK 927      BINDING AFFINITY PREDICTED BY RF-SCORE:    0.00 PKD
ROOT
HETATM    1  C   UNL     1      -9.391   7.684  66.419  1.00  0.00    -0.228 C  
HETATM    2  C   UNL     1      -9.848   8.545  67.557  1.00  0.00    -0.177 C  
HETATM    3  O   UNL     1     -10.613   9.490  67.439  1.00  0.00    -0.268 OA 
ENDROOT
BRANCH   2   4
HETATM    4  O   UNL     1      -9.268   8.142  68.718  1.00  0.00    -0.144 OA 
BRANCH   4   5
HETATM    5  C   UNL     1      -9.669   6.841  69.222  1.00  0.00    -0.151 C  
HETATM    6  C   UNL     1      -8.421   5.970  69.344  1.00  0.00    -0.115 C  
HETATM    7  C   UNL     1      -8.812   4.625  69.880  1.00  0.00    -0.129 A  
HETATM    8  C   UNL     1      -8.862   3.501  69.042  1.00  0.00    -0.159 A  
HETATM    9  C   UNL     1      -9.277   2.269  69.547  1.00  0.00    -0.185 A  
HETATM   10  C   UNL     1      -9.647   2.152  70.883  1.00  0.00    -0.184 A  
HETATM   11  C   UNL     1      -9.596   3.268  71.720  1.00  0.00    -0.226 A  
HETATM   12  C   UNL     1      -9.179   4.512  71.225  1.00  0.00    -0.140 A  
HETATM   13  N   UNL     1      -9.096   5.651  72.088  1.00  0.00    -0.140 N  
HETATM   14  C   UNL     1     -10.444   7.111  70.510  1.00  0.00    -0.228 A  
HETATM   15  C   UNL     1     -10.070   6.691  71.812  1.00  0.00    -0.183 A  
HETATM   16  C   UNL     1     -10.772   7.253  72.901  1.00  0.00    -0.365 A  
HETATM   17  C   UNL     1     -11.588   7.936  70.358  1.00  0.00    -0.092 A  
HETATM   18  C   UNL     1     -12.289   8.431  71.451  1.00  0.00    -0.328 A  
HETATM   19  C   UNL     1     -11.855   8.120  72.727  1.00  0.00    -0.296 A  
BRANCH  13  20
HETATM   20  C   UNL     1      -8.371   5.619  73.290  1.00  0.00    -0.117 C  
HETATM   21  H1  UNL     1      -6.554   6.041  74.110  1.00  0.00     0.000 HD 
HETATM   22  O   UNL     1      -8.795   5.290  74.396  1.00  0.00    -0.117 OA 
HETATM   23  N   UNL     1      -7.080   6.064  73.237  1.00  0.00    -0.084 N  
HETATM   24  H2  UNL     1      -6.664   6.401  72.369  1.00  0.00     0.000 HD 
ENDBRANCH  13  20
ENDBRANCH   4   5
ENDBRANCH   2   4
TORSDOF 3
ENDMDL
MODEL      118
REMARK 921   NORMALIZED FREE ENERGY PREDICTED BY IDOCK:   -3.15 KCAL/MOL
REMARK 922        TOTAL FREE ENERGY PREDICTED BY IDOCK:   -4.26 KCAL/MOL
REMARK 923 INTER-LIGAND FREE ENERGY PREDICTED BY IDOCK:   -4.04 KCAL/MOL
REMARK 924 INTRA-LIGAND FREE ENERGY PREDICTED BY IDOCK:   -0.22 KCAL/MOL
REMARK 927      BINDING AFFINITY PREDICTED BY RF-SCORE:    0.00 PKD
ROOT
HETATM    1  C   UNL     1     -10.239   4.777  66.558  1.00  0.00    -0.294 C  
HETATM    2  C   UNL     1      -8.858   5.117  67.030  1.00  0.00    -0.109 C  
HETATM    3  O   UNL     1      -7.940   5.441  66.291  1.00  0.00    -0.103 OA 
ENDROOT
BRANCH   2   4
HETATM    4  O   UNL     1      -8.772   4.984  68.379  1.00  0.00    -0.101 OA 
BRANCH   4   5
HETATM    5  C   UNL     1      -9.397   6.028  69.171  1.00  0.00    -0.125 C  
HETATM    6  C   UNL     1     -10.459   5.385  70.059  1.00  0.00    -0.373 C  
HETATM    7  C   UNL     1     -11.106   6.445  70.899  1.00  0.00    -0.354 A  
HETATM    8  C   UNL     1     -12.398   6.909  70.607  1.00  0.00    -0.248 A  
HETATM    9  C   UNL     1     -12.962   7.932  71.368  1.00  0.00    -0.301 A  
HETATM   10  C   UNL     1     -12.245   8.499  72.416  1.00  0.00    -0.432 A  
HETATM   11  C   UNL     1     -10.960   8.038  72.711  1.00  0.00    -0.449 A  
HETATM   12  C   UNL     1     -10.382   7.009  71.954  1.00  0.00    -0.192 A  
HETATM   13  N   UNL     1      -9.077   6.513  72.273  1.00  0.00    -0.139 N  
HETATM   14  C   UNL     1      -8.257   6.753  69.884  1.00  0.00    -0.127 A  
HETATM   15  C   UNL     1      -8.057   6.817  71.287  1.00  0.00    -0.111 A  
HETATM   16  C   UNL     1      -6.815   7.310  71.742  1.00  0.00    -0.058 A  
HETATM   17  C   UNL     1      -7.283   7.325  69.025  1.00  0.00    -0.089 A  
HETATM   18  C   UNL     1      -6.091   7.850  69.511  1.00  0.00    -0.033 A  
HETATM   19  C   UNL     1      -5.840   7.806  70.871  1.00  0.00    -0.034 A  
BRANCH  13  20
HETATM   20  C   UNL     1      -8.746   6.073  73.565  1.00  0.00    -0.125 C  
HETATM   21  H1  UNL     1      -8.539   4.404  74.716  1.00  0.00     0.000 HD 
HETATM   22  O   UNL     1      -8.373   6.770  74.506  1.00  0.00    -0.136 OA 
HETATM   23  N   UNL     1      -8.780   4.723  73.778  1.00  0.00    -0.106 N  
HETATM   24  H2  UNL     1      -9.031   4.069  73.037  1.00  0.00     0.000 HD 
ENDBRANCH  13  20
ENDBRANCH   4   5
ENDBRANCH   2   4
TORSDOF 3
ENDMDL
MODEL      119
REMARK 921   NORMALIZED FREE ENERGY PREDICTED BY IDOCK:   -3.14 KCAL/MOL
REMARK 922        TOTAL FREE ENERGY PREDICTED BY IDOCK:   -4.25 KCAL/MOL
REMARK 923 INTER-LIGAND FREE ENERGY PREDICTED BY IDOCK:   -4.00 KCAL/MOL
REMARK 924 INTRA-LIGAND FREE ENERGY PREDICTED BY IDOCK:   -0.25 KCAL/MOL
REMARK 927      BINDING AFFINITY PREDICTED BY RF-SCORE:    0.00 PKD
ROOT
HETATM    1  C   UNL     1     -11.409  11.100  68.697  1.00  0.00    -0.342 C  
HETATM    2  C   UNL     1     -11.136  11.066  67.224  1.00  0.00    -0.294 C  
HETATM    3  O   UNL     1     -11.727  11.747  66.400  1.00  0.00    -0.511 OA 
ENDROOT
BRANCH   2   4
HETATM    4  O   UNL     1     -10.168  10.155  66.943  1.00  0.00    -0.215 OA 
BRANCH   4   5
HETATM    5  C   UNL     1      -9.873   9.186  67.982  1.00  0.00    -0.168 C  
HETATM    6  C   UNL     1     -10.710   7.935  67.721  1.00  0.00    -0.189 C  
HETATM    7  C   UNL     1     -10.407   6.913  68.775  1.00  0.00    -0.200 A  
HETATM    8  C   UNL     1     -11.316   6.654  69.812  1.00  0.00    -0.412 A  
HETATM    9  C   UNL     1     -10.994   5.737  70.812  1.00  0.00    -0.312 A  
HETATM   10  C   UNL     1      -9.769   5.079  70.788  1.00  0.00    -0.263 A  
HETATM   11  C   UNL     1      -8.863   5.332  69.756  1.00  0.00    -0.123 A  
HETATM   12  C   UNL     1      -9.175   6.251  68.744  1.00  0.00    -0.125 A  
HETATM   13  N   UNL     1      -8.261   6.491  67.668  1.00  0.00    -0.121 N  
HETATM   14  C   UNL     1      -8.355   9.008  67.971  1.00  0.00    -0.117 A  
HETATM   15  C   UNL     1      -7.659   7.810  67.669  1.00  0.00    -0.113 A  
HETATM   16  C   UNL     1      -6.265   7.908  67.460  1.00  0.00    -0.051 A  
HETATM   17  C   UNL     1      -7.613  10.195  68.202  1.00  0.00    -0.087 A  
HETATM   18  C   UNL     1      -6.235  10.244  68.037  1.00  0.00    -0.056 A  
HETATM   19  C   UNL     1      -5.564   9.106  67.626  1.00  0.00    -0.038 A  
BRANCH  13  20
HETATM   20  C   UNL     1      -7.744   5.444  66.888  1.00  0.00    -0.100 C  
HETATM   21  H1  UNL     1      -7.459   4.830  64.966  1.00  0.00     0.000 HD 
HETATM   22  O   UNL     1      -7.164   4.439  67.295  1.00  0.00    -0.067 OA 
HETATM   23  N   UNL     1      -7.835   5.590  65.532  1.00  0.00    -0.095 N  
HETATM   24  H2  UNL     1      -8.257   6.416  65.108  1.00  0.00     0.000 HD 
ENDBRANCH  13  20
ENDBRANCH   4   5
ENDBRANCH   2   4
TORSDOF 3
ENDMDL
MODEL      120
REMARK 921   NORMALIZED FREE ENERGY PREDICTED BY IDOCK:   -3.11 KCAL/MOL
REMARK 922        TOTAL FREE ENERGY PREDICTED BY IDOCK:   -4.21 KCAL/MOL
REMARK 923 INTER-LIGAND FREE ENERGY PREDICTED BY IDOCK:   -3.95 KCAL/MOL
REMARK 924 INTRA-LIGAND FREE ENERGY PREDICTED BY IDOCK:   -0.25 KCAL/MOL
REMARK 927      BINDING AFFINITY PREDICTED BY RF-SCORE:    0.00 PKD
ROOT
HETATM    1  C   UNL     1      -8.111   7.016  65.695  1.00  0.00    -0.129 C  
HETATM    2  C   UNL     1      -8.193   8.426  66.196  1.00  0.00    -0.113 C  
HETATM    3  O   UNL     1      -8.398   9.397  65.484  1.00  0.00    -0.124 OA 
ENDROOT
BRANCH   2   4
HETATM    4  O   UNL     1      -7.979   8.465  67.537  1.00  0.00    -0.104 OA 
BRANCH   4   5
HETATM    5  C   UNL     1      -8.725   7.511  68.337  1.00  0.00    -0.123 C  
HETATM    6  C   UNL     1      -7.727   6.618  69.072  1.00  0.00    -0.109 C  
HETATM    7  C   UNL     1      -8.478   5.635  69.918  1.00  0.00    -0.121 A  
HETATM    8  C   UNL     1      -8.586   4.289  69.538  1.00  0.00    -0.106 A  
HETATM    9  C   UNL     1      -9.332   3.401  70.312  1.00  0.00    -0.243 A  
HETATM   10  C   UNL     1      -9.975   3.847  71.462  1.00  0.00    -0.209 A  
HETATM   11  C   UNL     1      -9.868   5.186  71.845  1.00  0.00    -0.230 A  
HETATM   12  C   UNL     1      -9.120   6.089  71.076  1.00  0.00    -0.143 A  
HETATM   13  N   UNL     1      -8.982   7.455  71.482  1.00  0.00    -0.125 N  
HETATM   14  C   UNL     1      -9.670   8.340  69.206  1.00  0.00    -0.177 A  
HETATM   15  C   UNL     1      -9.653   8.412  70.622  1.00  0.00    -0.171 A  
HETATM   16  C   UNL     1     -10.429   9.424  71.229  1.00  0.00    -0.385 A  
HETATM   17  C   UNL     1     -10.571   9.167  68.487  1.00  0.00    -0.209 A  
HETATM   18  C   UNL     1     -11.360  10.119  69.121  1.00  0.00    -0.198 A  
HETATM   19  C   UNL     1     -11.260  10.274  70.492  1.00  0.00    -0.408 A  
BRANCH  13  20
HETATM   20  C   UNL     1      -8.532   7.805  72.765  1.00  0.00    -0.146 C  
HETATM   21  H1  UNL     1      -6.904   8.467  73.798  1.00  0.00     0.000 HD 
HETATM   22  O   UNL     1      -9.201   7.841  73.796  1.00  0.00    -0.269 OA 
HETATM   23  N   UNL     1      -7.231   8.212  72.866  1.00  0.00    -0.107 N  
HETATM   24  H2  UNL     1      -6.619   8.259  72.052  1.00  0.00     0.000 HD 
ENDBRANCH  13  20
ENDBRANCH   4   5
ENDBRANCH   2   4
TORSDOF 3
ENDMDL
MODEL      121
REMARK 921   NORMALIZED FREE ENERGY PREDICTED BY IDOCK:   -3.11 KCAL/MOL
REMARK 922        TOTAL FREE ENERGY PREDICTED BY IDOCK:   -4.20 KCAL/MOL
REMARK 923 INTER-LIGAND FREE ENERGY PREDICTED BY IDOCK:   -4.00 KCAL/MOL
REMARK 924 INTRA-LIGAND FREE ENERGY PREDICTED BY IDOCK:   -0.20 KCAL/MOL
REMARK 927      BINDING AFFINITY PREDICTED BY RF-SCORE:    0.00 PKD
ROOT
HETATM    1  C   UNL     1     -12.192  10.512  71.089  1.00  0.00    -0.496 C  
HETATM    2  C   UNL     1     -11.739   9.181  71.608  1.00  0.00    -0.378 C  
HETATM    3  O   UNL     1     -12.484   8.340  72.086  1.00  0.00    -0.329 OA 
ENDROOT
BRANCH   2   4
HETATM    4  O   UNL     1     -10.389   9.064  71.496  1.00  0.00    -0.291 OA 
BRANCH   4   5
HETATM    5  C   UNL     1      -9.903   8.078  70.549  1.00  0.00    -0.182 C  
HETATM    6  C   UNL     1     -10.571   8.340  69.200  1.00  0.00    -0.179 C  
HETATM    7  C   UNL     1     -10.069   7.341  68.201  1.00  0.00    -0.201 A  
HETATM    8  C   UNL     1     -10.873   6.269  67.787  1.00  0.00    -0.424 A  
HETATM    9  C   UNL     1     -10.370   5.321  66.896  1.00  0.00    -0.303 A  
HETATM   10  C   UNL     1      -9.068   5.433  66.419  1.00  0.00    -0.141 A  
HETATM   11  C   UNL     1      -8.266   6.500  66.827  1.00  0.00    -0.110 A  
HETATM   12  C   UNL     1      -8.760   7.461  67.722  1.00  0.00    -0.126 A  
HETATM   13  N   UNL     1      -7.951   8.573  68.119  1.00  0.00    -0.110 N  
HETATM   14  C   UNL     1      -8.379   8.174  70.588  1.00  0.00    -0.123 A  
HETATM   15  C   UNL     1      -7.540   8.555  69.510  1.00  0.00    -0.089 A  
HETATM   16  C   UNL     1      -6.188   8.833  69.809  1.00  0.00    -0.035 A  
HETATM   17  C   UNL     1      -7.798   7.938  71.861  1.00  0.00    -0.120 A  
HETATM   18  C   UNL     1      -6.451   8.173  72.108  1.00  0.00    -0.063 A  
HETATM   19  C   UNL     1      -5.653   8.660  71.089  1.00  0.00    -0.035 A  
BRANCH  13  20
HETATM   20  C   UNL     1      -7.338   9.417  67.179  1.00  0.00    -0.087 C  
HETATM   21  H1  UNL     1      -7.501  11.231  66.264  1.00  0.00     0.000 HD 
HETATM   22  O   UNL     1      -6.280   9.213  66.588  1.00  0.00    -0.063 OA 
HETATM   23  N   UNL     1      -7.948  10.618  66.947  1.00  0.00    -0.120 N  
HETATM   24  H2  UNL     1      -8.803  10.888  67.431  1.00  0.00     0.000 HD 
ENDBRANCH  13  20
ENDBRANCH   4   5
ENDBRANCH   2   4
TORSDOF 3
ENDMDL
MODEL      122
REMARK 921   NORMALIZED FREE ENERGY PREDICTED BY IDOCK:   -3.10 KCAL/MOL
REMARK 922        TOTAL FREE ENERGY PREDICTED BY IDOCK:   -4.20 KCAL/MOL
REMARK 923 INTER-LIGAND FREE ENERGY PREDICTED BY IDOCK:   -3.83 KCAL/MOL
REMARK 924 INTRA-LIGAND FREE ENERGY PREDICTED BY IDOCK:   -0.36 KCAL/MOL
REMARK 927      BINDING AFFINITY PREDICTED BY RF-SCORE:    0.00 PKD
ROOT
HETATM    1  C   UNL     1     -11.352   8.907  71.521  1.00  0.00    -0.395 C  
HETATM    2  C   UNL     1     -11.296   7.571  70.844  1.00  0.00    -0.277 C  
HETATM    3  O   UNL     1     -12.198   6.749  70.871  1.00  0.00    -0.385 OA 
ENDROOT
BRANCH   2   4
HETATM    4  O   UNL     1     -10.096   7.403  70.229  1.00  0.00    -0.194 OA 
BRANCH   4   5
HETATM    5  C   UNL     1     -10.072   7.614  68.793  1.00  0.00    -0.194 C  
HETATM    6  C   UNL     1      -9.381   8.948  68.516  1.00  0.00    -0.141 C  
HETATM    7  C   UNL     1      -9.331   9.177  67.035  1.00  0.00    -0.188 A  
HETATM    8  C   UNL     1     -10.186  10.102  66.418  1.00  0.00    -0.288 A  
HETATM    9  C   UNL     1     -10.160  10.264  65.033  1.00  0.00    -0.353 A  
HETATM   10  C   UNL     1      -9.289   9.505  64.258  1.00  0.00    -0.077 A  
HETATM   11  C   UNL     1      -8.434   8.585  64.869  1.00  0.00    -0.166 A  
HETATM   12  C   UNL     1      -8.450   8.414  66.261  1.00  0.00    -0.127 A  
HETATM   13  N   UNL     1      -7.554   7.493  66.894  1.00  0.00    -0.100 N  
HETATM   14  C   UNL     1      -9.418   6.368  68.197  1.00  0.00    -0.114 A  
HETATM   15  C   UNL     1      -8.195   6.331  67.479  1.00  0.00    -0.113 A  
HETATM   16  C   UNL     1      -7.627   5.061  67.233  1.00  0.00    -0.091 A  
HETATM   17  C   UNL     1     -10.080   5.148  68.488  1.00  0.00    -0.214 A  
HETATM   18  C   UNL     1      -9.517   3.915  68.186  1.00  0.00    -0.219 A  
HETATM   19  C   UNL     1      -8.268   3.872  67.592  1.00  0.00    -0.093 A  
BRANCH  13  20
HETATM   20  C   UNL     1      -6.168   7.540  66.675  1.00  0.00    -0.045 C  
HETATM   21  H1  UNL     1      -4.381   7.855  67.602  1.00  0.00     0.000 HD 
HETATM   22  O   UNL     1      -5.580   7.294  65.624  1.00  0.00    -0.031 OA 
HETATM   23  N   UNL     1      -5.387   7.822  67.761  1.00  0.00    -0.030 N  
HETATM   24  H2  UNL     1      -5.790   7.991  68.683  1.00  0.00     0.000 HD 
ENDBRANCH  13  20
ENDBRANCH   4   5
ENDBRANCH   2   4
TORSDOF 3
ENDMDL
MODEL      123
REMARK 921   NORMALIZED FREE ENERGY PREDICTED BY IDOCK:   -3.09 KCAL/MOL
REMARK 922        TOTAL FREE ENERGY PREDICTED BY IDOCK:   -4.19 KCAL/MOL
REMARK 923 INTER-LIGAND FREE ENERGY PREDICTED BY IDOCK:   -4.50 KCAL/MOL
REMARK 924 INTRA-LIGAND FREE ENERGY PREDICTED BY IDOCK:    0.31 KCAL/MOL
REMARK 927      BINDING AFFINITY PREDICTED BY RF-SCORE:    0.00 PKD
ROOT
HETATM    1  C   UNL     1     -13.842   7.679  71.488  1.00  0.00    -0.466 C  
HETATM    2  C   UNL     1     -12.572   6.886  71.433  1.00  0.00    -0.353 C  
HETATM    3  O   UNL     1     -12.006   6.427  72.413  1.00  0.00    -0.263 OA 
ENDROOT
BRANCH   2   4
HETATM    4  O   UNL     1     -12.136   6.780  70.151  1.00  0.00    -0.289 OA 
BRANCH   4   5
HETATM    5  C   UNL     1     -10.866   7.415  69.846  1.00  0.00    -0.246 C  
HETATM    6  C   UNL     1     -10.859   8.801  70.488  1.00  0.00    -0.268 C  
HETATM    7  C   UNL     1      -9.548   9.469  70.199  1.00  0.00    -0.290 A  
HETATM    8  C   UNL     1      -9.456  10.497  69.249  1.00  0.00    -0.191 A  
HETATM    9  C   UNL     1      -8.219  11.070  68.957  1.00  0.00    -0.101 A  
HETATM   10  C   UNL     1      -7.072  10.623  69.604  1.00  0.00    -0.143 A  
HETATM   11  C   UNL     1      -7.160   9.602  70.553  1.00  0.00    -0.137 A  
HETATM   12  C   UNL     1      -8.398   9.018  70.856  1.00  0.00    -0.197 A  
HETATM   13  N   UNL     1      -8.498   7.992  71.851  1.00  0.00    -0.124 N  
HETATM   14  C   UNL     1      -9.786   6.440  70.312  1.00  0.00    -0.192 A  
HETATM   15  C   UNL     1      -8.832   6.679  71.333  1.00  0.00    -0.139 A  
HETATM   16  C   UNL     1      -8.087   5.571  71.795  1.00  0.00    -0.118 A  
HETATM   17  C   UNL     1      -9.836   5.159  69.703  1.00  0.00    -0.286 A  
HETATM   18  C   UNL     1      -9.051   4.103  70.149  1.00  0.00    -0.181 A  
HETATM   19  C   UNL     1      -8.203   4.300  71.224  1.00  0.00    -0.083 A  
BRANCH  13  20
HETATM   20  C   UNL     1      -7.993   8.167  73.149  1.00  0.00    -0.167 C  
HETATM   21  H1  UNL     1      -6.271   8.193  74.239  1.00  0.00     0.000 HD 
HETATM   22  O   UNL     1      -8.635   8.460  74.155  1.00  0.00    -0.172 OA 
HETATM   23  N   UNL     1      -6.638   8.066  73.296  1.00  0.00    -0.090 N  
HETATM   24  H2  UNL     1      -6.025   7.873  72.504  1.00  0.00     0.000 HD 
ENDBRANCH  13  20
ENDBRANCH   4   5
ENDBRANCH   2   4
TORSDOF 3
ENDMDL
MODEL      124
REMARK 921   NORMALIZED FREE ENERGY PREDICTED BY IDOCK:   -3.09 KCAL/MOL
REMARK 922        TOTAL FREE ENERGY PREDICTED BY IDOCK:   -4.18 KCAL/MOL
REMARK 923 INTER-LIGAND FREE ENERGY PREDICTED BY IDOCK:   -4.05 KCAL/MOL
REMARK 924 INTRA-LIGAND FREE ENERGY PREDICTED BY IDOCK:   -0.14 KCAL/MOL
REMARK 927      BINDING AFFINITY PREDICTED BY RF-SCORE:    0.00 PKD
ROOT
HETATM    1  C   UNL     1      -5.393   7.699  73.026  1.00  0.00    -0.040 C  
HETATM    2  C   UNL     1      -6.793   7.204  73.228  1.00  0.00    -0.065 C  
HETATM    3  O   UNL     1      -7.375   7.209  74.302  1.00  0.00    -0.097 OA 
ENDROOT
BRANCH   2   4
HETATM    4  O   UNL     1      -7.299   6.726  72.061  1.00  0.00    -0.086 OA 
BRANCH   4   5
HETATM    5  C   UNL     1      -8.743   6.605  71.986  1.00  0.00    -0.127 C  
HETATM    6  C   UNL     1      -9.320   7.968  71.608  1.00  0.00    -0.208 C  
HETATM    7  C   UNL     1     -10.811   7.861  71.509  1.00  0.00    -0.268 A  
HETATM    8  C   UNL     1     -11.641   8.385  72.511  1.00  0.00    -0.426 A  
HETATM    9  C   UNL     1     -13.024   8.230  72.427  1.00  0.00    -0.231 A  
HETATM   10  C   UNL     1     -13.586   7.551  71.351  1.00  0.00    -0.397 A  
HETATM   11  C   UNL     1     -12.763   7.029  70.350  1.00  0.00     0.237 A  
HETATM   12  C   UNL     1     -11.371   7.180  70.423  1.00  0.00    -0.289 A  
HETATM   13  N   UNL     1     -10.527   6.674  69.383  1.00  0.00    -0.205 N  
HETATM   14  C   UNL     1      -9.018   5.455  71.019  1.00  0.00    -0.156 A  
HETATM   15  C   UNL     1      -9.691   5.554  69.775  1.00  0.00    -0.176 A  
HETATM   16  C   UNL     1      -9.621   4.439  68.910  1.00  0.00    -0.233 A  
HETATM   17  C   UNL     1      -8.455   4.209  71.398  1.00  0.00    -0.111 A  
HETATM   18  C   UNL     1      -8.449   3.114  70.542  1.00  0.00    -0.099 A  
HETATM   19  C   UNL     1      -8.999   3.243  69.279  1.00  0.00    -0.180 A  
BRANCH  13  20
HETATM   20  C   UNL     1     -10.732   7.005  68.034  1.00  0.00    -0.194 C  
HETATM   21  H1  UNL     1     -10.641   8.544  66.701  1.00  0.00     0.000 HD 
HETATM   22  O   UNL     1     -11.046   6.237  67.127  1.00  0.00    -0.358 OA 
HETATM   23  N   UNL     1     -10.492   8.304  67.681  1.00  0.00    -0.335 N  
HETATM   24  H2  UNL     1     -10.180   8.996  68.361  1.00  0.00     0.000 HD 
ENDBRANCH  13  20
ENDBRANCH   4   5
ENDBRANCH   2   4
TORSDOF 3
ENDMDL
MODEL      125
REMARK 921   NORMALIZED FREE ENERGY PREDICTED BY IDOCK:   -3.08 KCAL/MOL
REMARK 922        TOTAL FREE ENERGY PREDICTED BY IDOCK:   -4.17 KCAL/MOL
REMARK 923 INTER-LIGAND FREE ENERGY PREDICTED BY IDOCK:   -4.16 KCAL/MOL
REMARK 924 INTRA-LIGAND FREE ENERGY PREDICTED BY IDOCK:   -0.01 KCAL/MOL
REMARK 927      BINDING AFFINITY PREDICTED BY RF-SCORE:    0.00 PKD
ROOT
HETATM    1  C   UNL     1      -8.012   7.869  63.909  1.00  0.00    -0.121 C  
HETATM    2  C   UNL     1      -8.157   9.235  64.507  1.00  0.00    -0.139 C  
HETATM    3  O   UNL     1      -7.224   9.991  64.727  1.00  0.00    -0.129 OA 
ENDROOT
BRANCH   2   4
HETATM    4  O   UNL     1      -9.461   9.490  64.793  1.00  0.00    -0.242 OA 
BRANCH   4   5
HETATM    5  C   UNL     1      -9.830   9.469  66.197  1.00  0.00    -0.272 C  
HETATM    6  C   UNL     1      -9.048   8.350  66.881  1.00  0.00    -0.179 C  
HETATM    7  C   UNL     1      -9.402   8.323  68.337  1.00  0.00    -0.136 A  
HETATM    8  C   UNL     1     -10.241   7.326  68.857  1.00  0.00    -0.196 A  
HETATM    9  C   UNL     1     -10.601   7.346  70.204  1.00  0.00    -0.240 A  
HETATM   10  C   UNL     1     -10.133   8.358  71.036  1.00  0.00    -0.242 A  
HETATM   11  C   UNL     1      -9.296   9.350  70.523  1.00  0.00    -0.319 A  
HETATM   12  C   UNL     1      -8.925   9.340  69.171  1.00  0.00    -0.144 A  
HETATM   13  N   UNL     1      -8.042  10.339  68.648  1.00  0.00    -0.107 N  
HETATM   14  C   UNL     1      -9.591  10.887  66.715  1.00  0.00    -0.210 A  
HETATM   15  C   UNL     1      -8.659  11.263  67.715  1.00  0.00    -0.126 A  
HETATM   16  C   UNL     1      -8.402  12.642  67.874  1.00  0.00    -0.172 A  
HETATM   17  C   UNL     1     -10.325  11.899  66.044  1.00  0.00    -0.268 A  
HETATM   18  C   UNL     1     -10.082  13.250  66.262  1.00  0.00    -0.294 A  
HETATM   19  C   UNL     1      -9.090  13.621  67.151  1.00  0.00    -0.241 A  
BRANCH  13  20
HETATM   20  C   UNL     1      -6.795  10.605  69.234  1.00  0.00    -0.086 C  
HETATM   21  H1  UNL     1      -4.786  10.518  68.904  1.00  0.00     0.000 HD 
HETATM   22  O   UNL     1      -6.593  11.120  70.332  1.00  0.00    -0.263 OA 
HETATM   23  N   UNL     1      -5.691  10.324  68.478  1.00  0.00    -0.038 N  
HETATM   24  H2  UNL     1      -5.770   9.941  67.536  1.00  0.00     0.000 HD 
ENDBRANCH  13  20
ENDBRANCH   4   5
ENDBRANCH   2   4
TORSDOF 3
ENDMDL
MODEL      126
REMARK 921   NORMALIZED FREE ENERGY PREDICTED BY IDOCK:   -3.08 KCAL/MOL
REMARK 922        TOTAL FREE ENERGY PREDICTED BY IDOCK:   -4.17 KCAL/MOL
REMARK 923 INTER-LIGAND FREE ENERGY PREDICTED BY IDOCK:   -4.62 KCAL/MOL
REMARK 924 INTRA-LIGAND FREE ENERGY PREDICTED BY IDOCK:    0.45 KCAL/MOL
REMARK 927      BINDING AFFINITY PREDICTED BY RF-SCORE:    0.00 PKD
ROOT
HETATM    1  C   UNL     1     -13.640   8.967  72.697  1.00  0.00    -0.411 C  
HETATM    2  C   UNL     1     -12.441   8.095  72.481  1.00  0.00    -0.199 C  
HETATM    3  O   UNL     1     -11.588   7.877  73.328  1.00  0.00    -0.252 OA 
ENDROOT
BRANCH   2   4
HETATM    4  O   UNL     1     -12.428   7.615  71.210  1.00  0.00    -0.318 OA 
BRANCH   4   5
HETATM    5  C   UNL     1     -11.744   8.427  70.220  1.00  0.00     0.108 C  
HETATM    6  C   UNL     1     -11.325   9.738  70.882  1.00  0.00    -0.439 C  
HETATM    7  C   UNL     1     -10.601  10.585  69.880  1.00  0.00    -0.261 A  
HETATM    8  C   UNL     1     -11.221  11.701  69.296  1.00  0.00    -0.328 A  
HETATM    9  C   UNL     1     -10.550  12.446  68.328  1.00  0.00    -0.236 A  
HETATM   10  C   UNL     1      -9.266  12.085  67.934  1.00  0.00    -0.190 A  
HETATM   11  C   UNL     1      -8.645  10.977  68.515  1.00  0.00    -0.158 A  
HETATM   12  C   UNL     1      -9.308  10.219  69.491  1.00  0.00    -0.178 A  
HETATM   13  N   UNL     1      -8.663   9.102  70.110  1.00  0.00    -0.162 N  
HETATM   14  C   UNL     1     -10.622   7.553  69.662  1.00  0.00    -0.243 A  
HETATM   15  C   UNL     1      -9.232   7.811  69.771  1.00  0.00    -0.150 A  
HETATM   16  C   UNL     1      -8.350   6.765  69.421  1.00  0.00    -0.132 A  
HETATM   17  C   UNL     1     -11.051   6.338  69.068  1.00  0.00    -0.446 A  
HETATM   18  C   UNL     1     -10.153   5.349  68.687  1.00  0.00    -0.246 A  
HETATM   19  C   UNL     1      -8.801   5.548  68.900  1.00  0.00    -0.110 A  
BRANCH  13  20
HETATM   20  C   UNL     1      -7.401   9.215  70.715  1.00  0.00    -0.114 C  
HETATM   21  H1  UNL     1      -6.346   8.732  72.390  1.00  0.00     0.000 HD 
HETATM   22  O   UNL     1      -6.393   9.718  70.223  1.00  0.00    -0.063 OA 
HETATM   23  N   UNL     1      -7.263   8.649  71.951  1.00  0.00    -0.092 N  
HETATM   24  H2  UNL     1      -8.036   8.169  72.411  1.00  0.00     0.000 HD 
ENDBRANCH  13  20
ENDBRANCH   4   5
ENDBRANCH   2   4
TORSDOF 3
ENDMDL
MODEL      127
REMARK 921   NORMALIZED FREE ENERGY PREDICTED BY IDOCK:   -3.07 KCAL/MOL
REMARK 922        TOTAL FREE ENERGY PREDICTED BY IDOCK:   -4.17 KCAL/MOL
REMARK 923 INTER-LIGAND FREE ENERGY PREDICTED BY IDOCK:   -4.02 KCAL/MOL
REMARK 924 INTRA-LIGAND FREE ENERGY PREDICTED BY IDOCK:   -0.15 KCAL/MOL
REMARK 927      BINDING AFFINITY PREDICTED BY RF-SCORE:    0.00 PKD
ROOT
HETATM    1  C   UNL     1      -5.891  10.084  68.981  1.00  0.00    -0.034 C  
HETATM    2  C   UNL     1      -7.212  10.668  69.381  1.00  0.00    -0.126 C  
HETATM    3  O   UNL     1      -7.625  11.754  69.006  1.00  0.00    -0.089 OA 
ENDROOT
BRANCH   2   4
HETATM    4  O   UNL     1      -7.859   9.832  70.235  1.00  0.00    -0.166 OA 
BRANCH   4   5
HETATM    5  C   UNL     1      -8.477   8.658  69.646  1.00  0.00    -0.129 C  
HETATM    6  C   UNL     1      -7.530   7.475  69.830  1.00  0.00    -0.084 C  
HETATM    7  C   UNL     1      -8.157   6.247  69.242  1.00  0.00    -0.110 A  
HETATM    8  C   UNL     1      -7.712   5.724  68.019  1.00  0.00    -0.096 A  
HETATM    9  C   UNL     1      -8.343   4.612  67.463  1.00  0.00    -0.104 A  
HETATM   10  C   UNL     1      -9.418   4.019  68.117  1.00  0.00    -0.215 A  
HETATM   11  C   UNL     1      -9.861   4.535  69.336  1.00  0.00    -0.260 A  
HETATM   12  C   UNL     1      -9.235   5.653  69.907  1.00  0.00    -0.146 A  
HETATM   13  N   UNL     1      -9.668   6.165  71.172  1.00  0.00    -0.175 N  
HETATM   14  C   UNL     1      -9.855   8.539  70.295  1.00  0.00    -0.194 A  
HETATM   15  C   UNL     1     -10.303   7.469  71.110  1.00  0.00    -0.200 A  
HETATM   16  C   UNL     1     -11.506   7.658  71.824  1.00  0.00    -0.302 A  
HETATM   17  C   UNL     1     -10.700   9.664  70.113  1.00  0.00    -0.321 A  
HETATM   18  C   UNL     1     -11.905   9.796  70.793  1.00  0.00    -0.400 A  
HETATM   19  C   UNL     1     -12.289   8.808  71.682  1.00  0.00    -0.394 A  
BRANCH  13  20
HETATM   20  C   UNL     1      -9.773   5.347  72.307  1.00  0.00    -0.157 C  
HETATM   21  H1  UNL     1      -8.852   4.863  74.060  1.00  0.00     0.000 HD 
HETATM   22  O   UNL     1     -10.698   4.585  72.582  1.00  0.00    -0.200 OA 
HETATM   23  N   UNL     1      -8.775   5.458  73.235  1.00  0.00    -0.116 N  
HETATM   24  H2  UNL     1      -7.995   6.102  73.109  1.00  0.00     0.000 HD 
ENDBRANCH  13  20
ENDBRANCH   4   5
ENDBRANCH   2   4
TORSDOF 3
ENDMDL
MODEL      128
REMARK 921   NORMALIZED FREE ENERGY PREDICTED BY IDOCK:   -3.06 KCAL/MOL
REMARK 922        TOTAL FREE ENERGY PREDICTED BY IDOCK:   -4.15 KCAL/MOL
REMARK 923 INTER-LIGAND FREE ENERGY PREDICTED BY IDOCK:   -3.72 KCAL/MOL
REMARK 924 INTRA-LIGAND FREE ENERGY PREDICTED BY IDOCK:   -0.43 KCAL/MOL
REMARK 927      BINDING AFFINITY PREDICTED BY RF-SCORE:    0.00 PKD
ROOT
HETATM    1  C   UNL     1     -13.403   8.391  72.005  1.00  0.00    -0.367 C  
HETATM    2  C   UNL     1     -12.501   9.198  71.121  1.00  0.00    -0.254 C  
HETATM    3  O   UNL     1     -12.260  10.384  71.286  1.00  0.00    -0.356 OA 
ENDROOT
BRANCH   2   4
HETATM    4  O   UNL     1     -12.022   8.431  70.107  1.00  0.00     0.167 OA 
BRANCH   4   5
HETATM    5  C   UNL     1     -10.601   8.138  70.135  1.00  0.00    -0.237 C  
HETATM    6  C   UNL     1     -10.413   6.730  70.696  1.00  0.00    -0.243 C  
HETATM    7  C   UNL     1      -8.950   6.401  70.717  1.00  0.00    -0.144 A  
HETATM    8  C   UNL     1      -8.229   6.398  71.920  1.00  0.00    -0.109 A  
HETATM    9  C   UNL     1      -6.858   6.141  71.913  1.00  0.00    -0.065 A  
HETATM   10  C   UNL     1      -6.201   5.890  70.713  1.00  0.00    -0.034 A  
HETATM   11  C   UNL     1      -6.917   5.889  69.514  1.00  0.00    -0.063 A  
HETATM   12  C   UNL     1      -8.295   6.146  69.507  1.00  0.00    -0.120 A  
HETATM   13  N   UNL     1      -9.038   6.116  68.284  1.00  0.00    -0.114 N  
HETATM   14  C   UNL     1     -10.094   8.382  68.714  1.00  0.00    -0.209 A  
HETATM   15  C   UNL     1      -9.538   7.406  67.849  1.00  0.00    -0.141 A  
HETATM   16  C   UNL     1      -9.368   7.765  66.493  1.00  0.00    -0.243 A  
HETATM   17  C   UNL     1     -10.300   9.698  68.224  1.00  0.00    -0.240 A  
HETATM   18  C   UNL     1     -10.073  10.030  66.894  1.00  0.00    -0.287 A  
HETATM   19  C   UNL     1      -9.643   9.050  66.018  1.00  0.00    -0.342 A  
BRANCH  13  20
HETATM   20  C   UNL     1      -8.998   5.010  67.419  1.00  0.00    -0.110 C  
HETATM   21  H1  UNL     1     -10.062   3.388  66.796  1.00  0.00     0.000 HD 
HETATM   22  O   UNL     1      -8.108   4.737  66.616  1.00  0.00    -0.106 OA 
HETATM   23  N   UNL     1     -10.091   4.190  67.425  1.00  0.00    -0.107 N  
HETATM   24  H2  UNL     1     -10.895   4.371  68.026  1.00  0.00     0.000 HD 
ENDBRANCH  13  20
ENDBRANCH   4   5
ENDBRANCH   2   4
TORSDOF 3
ENDMDL
MODEL      129
REMARK 921   NORMALIZED FREE ENERGY PREDICTED BY IDOCK:   -3.06 KCAL/MOL
REMARK 922        TOTAL FREE ENERGY PREDICTED BY IDOCK:   -4.15 KCAL/MOL
REMARK 923 INTER-LIGAND FREE ENERGY PREDICTED BY IDOCK:   -4.34 KCAL/MOL
REMARK 924 INTRA-LIGAND FREE ENERGY PREDICTED BY IDOCK:    0.19 KCAL/MOL
REMARK 927      BINDING AFFINITY PREDICTED BY RF-SCORE:    0.00 PKD
ROOT
HETATM    1  C   UNL     1     -11.272  10.167  67.817  1.00  0.00    -0.205 C  
HETATM    2  C   UNL     1     -10.667  10.283  69.183  1.00  0.00    -0.228 C  
HETATM    3  O   UNL     1     -11.289  10.601  70.185  1.00  0.00    -0.286 OA 
ENDROOT
BRANCH   2   4
HETATM    4  O   UNL     1      -9.336  10.013  69.136  1.00  0.00    -0.171 OA 
BRANCH   4   5
HETATM    5  C   UNL     1      -8.859   8.964  70.018  1.00  0.00    -0.160 C  
HETATM    6  C   UNL     1      -9.257   9.322  71.448  1.00  0.00    -0.091 C  
HETATM    7  C   UNL     1      -8.787   8.241  72.375  1.00  0.00    -0.286 A  
HETATM    8  C   UNL     1      -7.673   8.436  73.205  1.00  0.00    -0.129 A  
HETATM    9  C   UNL     1      -7.220   7.401  74.022  1.00  0.00    -0.109 A  
HETATM   10  C   UNL     1      -7.868   6.170  74.013  1.00  0.00    -0.099 A  
HETATM   11  C   UNL     1      -8.979   5.973  73.190  1.00  0.00    -0.130 A  
HETATM   12  C   UNL     1      -9.445   7.007  72.364  1.00  0.00    -0.142 A  
HETATM   13  N   UNL     1     -10.602   6.819  71.542  1.00  0.00    -0.218 N  
HETATM   14  C   UNL     1      -9.421   7.658  69.459  1.00  0.00    -0.152 A  
HETATM   15  C   UNL     1     -10.332   6.793  70.117  1.00  0.00    -0.202 A  
HETATM   16  C   UNL     1     -10.931   5.775  69.343  1.00  0.00    -0.352 A  
HETATM   17  C   UNL     1      -9.040   7.367  68.123  1.00  0.00    -0.131 A  
HETATM   18  C   UNL     1      -9.613   6.324  67.406  1.00  0.00    -0.129 A  
HETATM   19  C   UNL     1     -10.590   5.551  68.005  1.00  0.00    -0.213 A  
BRANCH  13  20
HETATM   20  C   UNL     1     -11.822   6.367  72.070  1.00  0.00    -0.333 C  
HETATM   21  H1  UNL     1     -13.754   6.917  72.411  1.00  0.00     0.000 HD 
HETATM   22  O   UNL     1     -12.062   5.246  72.512  1.00  0.00    -0.062 OA 
HETATM   23  N   UNL     1     -12.868   7.246  72.028  1.00  0.00    -0.508 N  
HETATM   24  H2  UNL     1     -12.768   8.181  71.633  1.00  0.00     0.000 HD 
ENDBRANCH  13  20
ENDBRANCH   4   5
ENDBRANCH   2   4
TORSDOF 3
ENDMDL
MODEL      130
REMARK 921   NORMALIZED FREE ENERGY PREDICTED BY IDOCK:   -3.03 KCAL/MOL
REMARK 922        TOTAL FREE ENERGY PREDICTED BY IDOCK:   -4.12 KCAL/MOL
REMARK 923 INTER-LIGAND FREE ENERGY PREDICTED BY IDOCK:   -4.00 KCAL/MOL
REMARK 924 INTRA-LIGAND FREE ENERGY PREDICTED BY IDOCK:   -0.12 KCAL/MOL
REMARK 927      BINDING AFFINITY PREDICTED BY RF-SCORE:    0.00 PKD
ROOT
HETATM    1  C   UNL     1     -13.112  14.800  70.997  1.00  0.00    -0.433 C  
HETATM    2  C   UNL     1     -12.277  15.370  69.891  1.00  0.00    -0.334 C  
HETATM    3  O   UNL     1     -12.496  16.442  69.348  1.00  0.00     0.202 OA 
ENDROOT
BRANCH   2   4
HETATM    4  O   UNL     1     -11.273  14.514  69.567  1.00  0.00    -0.251 OA 
BRANCH   4   5
HETATM    5  C   UNL     1     -10.181  15.067  68.786  1.00  0.00    -0.235 C  
HETATM    6  C   UNL     1      -9.104  15.559  69.749  1.00  0.00    -0.062 C  
HETATM    7  C   UNL     1      -7.958  16.119  68.961  1.00  0.00    -0.236 A  
HETATM    8  C   UNL     1      -7.753  17.504  68.869  1.00  0.00    -0.207 A  
HETATM    9  C   UNL     1      -6.713  18.008  68.089  1.00  0.00    -0.201 A  
HETATM   10  C   UNL     1      -5.877  17.139  67.395  1.00  0.00    -0.170 A  
HETATM   11  C   UNL     1      -6.076  15.760  67.486  1.00  0.00    -0.162 A  
HETATM   12  C   UNL     1      -7.118  15.240  68.268  1.00  0.00    -0.115 A  
HETATM   13  N   UNL     1      -7.306  13.826  68.388  1.00  0.00    -0.107 N  
HETATM   14  C   UNL     1      -9.771  13.970  67.803  1.00  0.00    -0.228 A  
HETATM   15  C   UNL     1      -8.511  13.321  67.757  1.00  0.00    -0.181 A  
HETATM   16  C   UNL     1      -8.409  12.163  66.955  1.00  0.00    -0.151 A  
HETATM   17  C   UNL     1     -10.803  13.530  66.935  1.00  0.00    -0.286 A  
HETATM   18  C   UNL     1     -10.652  12.416  66.119  1.00  0.00    -0.283 A  
HETATM   19  C   UNL     1      -9.464  11.708  66.159  1.00  0.00    -0.240 A  
BRANCH  13  20
HETATM   20  C   UNL     1      -6.265  12.970  68.781  1.00  0.00    -0.079 C  
HETATM   21  H1  UNL     1      -4.456  12.232  68.203  1.00  0.00     0.000 HD 
HETATM   22  O   UNL     1      -6.174  12.363  69.846  1.00  0.00    -0.137 OA 
HETATM   23  N   UNL     1      -5.212  12.853  67.918  1.00  0.00    -0.098 N  
HETATM   24  H2  UNL     1      -5.184  13.361  67.034  1.00  0.00     0.000 HD 
ENDBRANCH  13  20
ENDBRANCH   4   5
ENDBRANCH   2   4
TORSDOF 3
ENDMDL
MODEL      131
REMARK 921   NORMALIZED FREE ENERGY PREDICTED BY IDOCK:   -3.02 KCAL/MOL
REMARK 922        TOTAL FREE ENERGY PREDICTED BY IDOCK:   -4.10 KCAL/MOL
REMARK 923 INTER-LIGAND FREE ENERGY PREDICTED BY IDOCK:   -5.62 KCAL/MOL
REMARK 924 INTRA-LIGAND FREE ENERGY PREDICTED BY IDOCK:    1.52 KCAL/MOL
REMARK 927      BINDING AFFINITY PREDICTED BY RF-SCORE:    0.00 PKD
ROOT
HETATM    1  C   UNL     1      -7.626   8.242  72.346  1.00  0.00    -0.160 C  
HETATM    2  C   UNL     1      -7.673   7.159  73.381  1.00  0.00    -0.085 C  
HETATM    3  O   UNL     1      -6.952   6.173  73.377  1.00  0.00    -0.078 OA 
ENDROOT
BRANCH   2   4
HETATM    4  O   UNL     1      -8.646   7.418  74.293  1.00  0.00    -0.189 OA 
BRANCH   4   5
HETATM    5  C   UNL     1     -10.014   7.213  73.854  1.00  0.00    -0.318 C  
HETATM    6  C   UNL     1     -10.327   8.237  72.766  1.00  0.00    -0.330 C  
HETATM    7  C   UNL     1     -11.733   8.030  72.286  1.00  0.00    -0.428 A  
HETATM    8  C   UNL     1     -12.760   8.910  72.661  1.00  0.00    -0.289 A  
HETATM    9  C   UNL     1     -14.070   8.672  72.247  1.00  0.00    -0.491 A  
HETATM   10  C   UNL     1     -14.364   7.559  71.465  1.00  0.00    -0.603 A  
HETATM   11  C   UNL     1     -13.344   6.683  71.089  1.00  0.00     0.186 A  
HETATM   12  C   UNL     1     -12.022   6.912  71.497  1.00  0.00    -0.344 A  
HETATM   13  N   UNL     1     -10.969   6.033  71.087  1.00  0.00    -0.276 N  
HETATM   14  C   UNL     1     -10.111   5.740  73.457  1.00  0.00    -0.202 A  
HETATM   15  C   UNL     1     -10.389   5.244  72.158  1.00  0.00    -0.212 A  
HETATM   16  C   UNL     1     -10.182   3.865  71.934  1.00  0.00    -0.143 A  
HETATM   17  C   UNL     1      -9.798   4.821  74.492  1.00  0.00    -0.211 A  
HETATM   18  C   UNL     1      -9.653   3.461  74.247  1.00  0.00    -0.129 A  
HETATM   19  C   UNL     1      -9.807   2.988  72.956  1.00  0.00    -0.181 A  
BRANCH  13  20
HETATM   20  C   UNL     1     -10.749   5.718  69.737  1.00  0.00    -0.348 C  
HETATM   21  H1  UNL     1     -11.185   6.304  67.834  1.00  0.00     0.000 HD 
HETATM   22  O   UNL     1     -10.030   4.823  69.297  1.00  0.00    -0.200 OA 
HETATM   23  N   UNL     1     -11.345   6.533  68.815  1.00  0.00    -0.590 N  
HETATM   24  H2  UNL     1     -11.918   7.328  69.093  1.00  0.00     0.000 HD 
ENDBRANCH  13  20
ENDBRANCH   4   5
ENDBRANCH   2   4
TORSDOF 3
ENDMDL
MODEL      132
REMARK 921   NORMALIZED FREE ENERGY PREDICTED BY IDOCK:   -3.01 KCAL/MOL
REMARK 922        TOTAL FREE ENERGY PREDICTED BY IDOCK:   -4.09 KCAL/MOL
REMARK 923 INTER-LIGAND FREE ENERGY PREDICTED BY IDOCK:   -3.98 KCAL/MOL
REMARK 924 INTRA-LIGAND FREE ENERGY PREDICTED BY IDOCK:   -0.11 KCAL/MOL
REMARK 927      BINDING AFFINITY PREDICTED BY RF-SCORE:    0.00 PKD
ROOT
HETATM    1  C   UNL     1     -10.818  13.759  67.381  1.00  0.00    -0.285 C  
HETATM    2  C   UNL     1     -11.310  12.344  67.414  1.00  0.00    -0.321 C  
HETATM    3  O   UNL     1     -12.095  11.870  66.608  1.00  0.00    -0.587 OA 
ENDROOT
BRANCH   2   4
HETATM    4  O   UNL     1     -10.782  11.685  68.479  1.00  0.00    -0.199 OA 
BRANCH   4   5
HETATM    5  C   UNL     1     -10.047  10.469  68.185  1.00  0.00    -0.158 C  
HETATM    6  C   UNL     1      -8.778  10.848  67.425  1.00  0.00    -0.130 C  
HETATM    7  C   UNL     1      -7.994   9.606  67.125  1.00  0.00    -0.106 A  
HETATM    8  C   UNL     1      -7.965   9.065  65.831  1.00  0.00    -0.103 A  
HETATM    9  C   UNL     1      -7.272   7.880  65.584  1.00  0.00    -0.070 A  
HETATM   10  C   UNL     1      -6.611   7.229  66.619  1.00  0.00    -0.056 A  
HETATM   11  C   UNL     1      -6.636   7.766  67.908  1.00  0.00    -0.056 A  
HETATM   12  C   UNL     1      -7.327   8.957  68.170  1.00  0.00    -0.084 A  
HETATM   13  N   UNL     1      -7.329   9.527  69.484  1.00  0.00    -0.071 N  
HETATM   14  C   UNL     1      -9.855   9.759  69.524  1.00  0.00    -0.230 A  
HETATM   15  C   UNL     1      -8.614   9.492  70.156  1.00  0.00    -0.224 A  
HETATM   16  C   UNL     1      -8.652   9.062  71.501  1.00  0.00    -0.111 A  
HETATM   17  C   UNL     1     -11.057   9.436  70.206  1.00  0.00    -0.299 A  
HETATM   18  C   UNL     1     -11.057   8.966  71.513  1.00  0.00    -0.397 A  
HETATM   19  C   UNL     1      -9.851   8.816  72.176  1.00  0.00    -0.347 A  
BRANCH  13  20
HETATM   20  C   UNL     1      -6.138   9.785  70.181  1.00  0.00    -0.058 C  
HETATM   21  H1  UNL     1      -4.454  10.932  70.163  1.00  0.00     0.000 HD 
HETATM   22  O   UNL     1      -5.785   9.281  71.246  1.00  0.00    -0.052 OA 
HETATM   23  N   UNL     1      -5.318  10.745  69.656  1.00  0.00    -0.038 N  
HETATM   24  H2  UNL     1      -5.559  11.247  68.802  1.00  0.00     0.000 HD 
ENDBRANCH  13  20
ENDBRANCH   4   5
ENDBRANCH   2   4
TORSDOF 3
ENDMDL
MODEL      133
REMARK 921   NORMALIZED FREE ENERGY PREDICTED BY IDOCK:   -3.00 KCAL/MOL
REMARK 922        TOTAL FREE ENERGY PREDICTED BY IDOCK:   -4.08 KCAL/MOL
REMARK 923 INTER-LIGAND FREE ENERGY PREDICTED BY IDOCK:   -4.08 KCAL/MOL
REMARK 924 INTRA-LIGAND FREE ENERGY PREDICTED BY IDOCK:    0.00 KCAL/MOL
REMARK 927      BINDING AFFINITY PREDICTED BY RF-SCORE:    0.00 PKD
ROOT
HETATM    1  C   UNL     1     -10.883   9.012  70.319  1.00  0.00    -0.269 C  
HETATM    2  C   UNL     1      -9.989   8.338  69.324  1.00  0.00    -0.192 C  
HETATM    3  O   UNL     1      -8.769   8.336  69.388  1.00  0.00    -0.139 OA 
ENDROOT
BRANCH   2   4
HETATM    4  O   UNL     1     -10.726   7.763  68.338  1.00  0.00    -0.150 OA 
BRANCH   4   5
HETATM    5  C   UNL     1     -10.498   8.254  66.991  1.00  0.00    -0.314 C  
HETATM    6  C   UNL     1     -10.112   9.729  67.079  1.00  0.00    -0.277 C  
HETATM    7  C   UNL     1      -9.856  10.253  65.698  1.00  0.00    -0.332 A  
HETATM    8  C   UNL     1     -10.785  11.086  65.057  1.00  0.00    -0.264 A  
HETATM    9  C   UNL     1     -10.552  11.520  63.753  1.00  0.00    -0.465 A  
HETATM   10  C   UNL     1      -9.400  11.126  63.081  1.00  0.00    -0.339 A  
HETATM   11  C   UNL     1      -8.471  10.299  63.716  1.00  0.00    -0.179 A  
HETATM   12  C   UNL     1      -8.693   9.856  65.028  1.00  0.00    -0.174 A  
HETATM   13  N   UNL     1      -7.728   9.034  65.694  1.00  0.00    -0.090 N  
HETATM   14  C   UNL     1      -9.466   7.313  66.370  1.00  0.00    -0.185 A  
HETATM   15  C   UNL     1      -8.163   7.672  65.940  1.00  0.00    -0.133 A  
HETATM   16  C   UNL     1      -7.271   6.621  65.634  1.00  0.00    -0.070 A  
HETATM   17  C   UNL     1      -9.855   5.950  66.321  1.00  0.00    -0.119 A  
HETATM   18  C   UNL     1      -8.965   4.944  65.965  1.00  0.00    -0.129 A  
HETATM   19  C   UNL     1      -7.658   5.278  65.659  1.00  0.00    -0.082 A  
BRANCH  13  20
HETATM   20  C   UNL     1      -6.379   9.407  65.793  1.00  0.00    -0.068 C  
HETATM   21  H1  UNL     1      -4.905   9.855  67.128  1.00  0.00     0.000 HD 
HETATM   22  O   UNL     1      -5.579   9.531  64.868  1.00  0.00    -0.056 OA 
HETATM   23  N   UNL     1      -5.886   9.585  67.056  1.00  0.00    -0.051 N  
HETATM   24  H2  UNL     1      -6.468   9.453  67.883  1.00  0.00     0.000 HD 
ENDBRANCH  13  20
ENDBRANCH   4   5
ENDBRANCH   2   4
TORSDOF 3
ENDMDL
MODEL      134
REMARK 921   NORMALIZED FREE ENERGY PREDICTED BY IDOCK:   -2.92 KCAL/MOL
REMARK 922        TOTAL FREE ENERGY PREDICTED BY IDOCK:   -3.98 KCAL/MOL
REMARK 923 INTER-LIGAND FREE ENERGY PREDICTED BY IDOCK:   -3.59 KCAL/MOL
REMARK 924 INTRA-LIGAND FREE ENERGY PREDICTED BY IDOCK:   -0.39 KCAL/MOL
REMARK 927      BINDING AFFINITY PREDICTED BY RF-SCORE:    0.00 PKD
ROOT
HETATM    1  C   UNL     1      -8.175   2.379  73.195  1.00  0.00    -0.065 C  
HETATM    2  C   UNL     1      -7.735   2.676  71.794  1.00  0.00    -0.048 C  
HETATM    3  O   UNL     1      -6.661   2.334  71.324  1.00  0.00    -0.022 OA 
ENDROOT
BRANCH   2   4
HETATM    4  O   UNL     1      -8.684   3.399  71.143  1.00  0.00    -0.073 OA 
BRANCH   4   5
HETATM    5  C   UNL     1      -8.364   4.790  70.875  1.00  0.00    -0.098 C  
HETATM    6  C   UNL     1      -7.669   4.868  69.518  1.00  0.00    -0.067 C  
HETATM    7  C   UNL     1      -7.345   6.300  69.214  1.00  0.00    -0.092 A  
HETATM    8  C   UNL     1      -6.031   6.780  69.314  1.00  0.00    -0.022 A  
HETATM    9  C   UNL     1      -5.757   8.127  69.078  1.00  0.00    -0.035 A  
HETATM   10  C   UNL     1      -6.787   9.000  68.745  1.00  0.00    -0.061 A  
HETATM   11  C   UNL     1      -8.097   8.526  68.641  1.00  0.00    -0.121 A  
HETATM   12  C   UNL     1      -8.385   7.173  68.876  1.00  0.00    -0.126 A  
HETATM   13  N   UNL     1      -9.721   6.677  68.740  1.00  0.00    -0.130 N  
HETATM   14  C   UNL     1      -9.678   5.557  71.016  1.00  0.00    -0.229 A  
HETATM   15  C   UNL     1     -10.343   6.268  69.985  1.00  0.00    -0.199 A  
HETATM   16  C   UNL     1     -11.665   6.693  70.241  1.00  0.00    -0.432 A  
HETATM   17  C   UNL     1     -10.300   5.447  72.287  1.00  0.00    -0.260 A  
HETATM   18  C   UNL     1     -11.585   5.923  72.520  1.00  0.00    -0.327 A  
HETATM   19  C   UNL     1     -12.284   6.512  71.482  1.00  0.00    -0.328 A  
BRANCH  13  20
HETATM   20  C   UNL     1     -10.472   6.881  67.572  1.00  0.00    -0.247 C  
HETATM   21  H1  UNL     1     -11.232   5.934  65.935  1.00  0.00     0.000 HD 
HETATM   22  O   UNL     1     -11.008   7.929  67.216  1.00  0.00    -0.199 OA 
HETATM   23  N   UNL     1     -10.686   5.785  66.783  1.00  0.00    -0.411 N  
HETATM   24  H2  UNL     1     -10.319   4.867  67.030  1.00  0.00     0.000 HD 
ENDBRANCH  13  20
ENDBRANCH   4   5
ENDBRANCH   2   4
TORSDOF 3
ENDMDL
MODEL      135
REMARK 921   NORMALIZED FREE ENERGY PREDICTED BY IDOCK:   -2.89 KCAL/MOL
REMARK 922        TOTAL FREE ENERGY PREDICTED BY IDOCK:   -3.95 KCAL/MOL
REMARK 923 INTER-LIGAND FREE ENERGY PREDICTED BY IDOCK:   -4.65 KCAL/MOL
REMARK 924 INTRA-LIGAND FREE ENERGY PREDICTED BY IDOCK:    0.70 KCAL/MOL
REMARK 927      BINDING AFFINITY PREDICTED BY RF-SCORE:    0.00 PKD
ROOT
HETATM    1  C   UNL     1     -12.624  15.980  73.554  1.00  0.00    -0.688 C  
HETATM    2  C   UNL     1     -12.861  15.700  72.101  1.00  0.00    -0.439 C  
HETATM    3  O   UNL     1     -13.812  16.129  71.465  1.00  0.00     0.002 OA 
ENDROOT
BRANCH   2   4
HETATM    4  O   UNL     1     -11.891  14.885  71.611  1.00  0.00    -0.347 OA 
BRANCH   4   5
HETATM    5  C   UNL     1     -11.821  14.761  70.166  1.00  0.00    -0.307 C  
HETATM    6  C   UNL     1     -10.560  15.476  69.686  1.00  0.00    -0.285 C  
HETATM    7  C   UNL     1     -10.459  15.346  68.196  1.00  0.00    -0.247 A  
HETATM    8  C   UNL     1     -10.749  16.431  67.355  1.00  0.00    -0.278 A  
HETATM    9  C   UNL     1     -10.700  16.276  65.970  1.00  0.00    -0.217 A  
HETATM   10  C   UNL     1     -10.367  15.043  65.417  1.00  0.00    -0.410 A  
HETATM   11  C   UNL     1     -10.076  13.961  66.251  1.00  0.00    -0.306 A  
HETATM   12  C   UNL     1     -10.121  14.105  67.645  1.00  0.00    -0.236 A  
HETATM   13  N   UNL     1      -9.792  13.006  68.503  1.00  0.00    -0.194 N  
HETATM   14  C   UNL     1     -11.915  13.266  69.868  1.00  0.00    -0.400 A  
HETATM   15  C   UNL     1     -10.912  12.473  69.256  1.00  0.00    -0.080 A  
HETATM   16  C   UNL     1     -11.079  11.071  69.299  1.00  0.00    -0.312 A  
HETATM   17  C   UNL     1     -13.094  12.635  70.343  1.00  0.00     0.533 A  
HETATM   18  C   UNL     1     -13.249  11.255  70.324  1.00  0.00     0.459 A  
HETATM   19  C   UNL     1     -12.220  10.468  69.836  1.00  0.00    -0.289 A  
BRANCH  13  20
HETATM   20  C   UNL     1      -8.585  12.301  68.375  1.00  0.00    -0.136 C  
HETATM   21  H1  UNL     1      -7.618  10.606  68.961  1.00  0.00     0.000 HD 
HETATM   22  O   UNL     1      -7.626  12.606  67.670  1.00  0.00    -0.127 OA 
HETATM   23  N   UNL     1      -8.494  11.118  69.054  1.00  0.00    -0.345 N  
HETATM   24  H2  UNL     1      -9.263  10.766  69.624  1.00  0.00     0.000 HD 
ENDBRANCH  13  20
ENDBRANCH   4   5
ENDBRANCH   2   4
TORSDOF 3
ENDMDL
MODEL      136
REMARK 921   NORMALIZED FREE ENERGY PREDICTED BY IDOCK:   -2.89 KCAL/MOL
REMARK 922        TOTAL FREE ENERGY PREDICTED BY IDOCK:   -3.95 KCAL/MOL
REMARK 923 INTER-LIGAND FREE ENERGY PREDICTED BY IDOCK:   -4.34 KCAL/MOL
REMARK 924 INTRA-LIGAND FREE ENERGY PREDICTED BY IDOCK:    0.40 KCAL/MOL
REMARK 927      BINDING AFFINITY PREDICTED BY RF-SCORE:    0.00 PKD
ROOT
HETATM    1  C   UNL     1      -8.692   7.568  72.252  1.00  0.00    -0.148 C  
HETATM    2  C   UNL     1      -8.448   8.732  71.341  1.00  0.00    -0.188 C  
HETATM    3  O   UNL     1      -7.359   9.019  70.870  1.00  0.00    -0.089 OA 
ENDROOT
BRANCH   2   4
HETATM    4  O   UNL     1      -9.598   9.428  71.145  1.00  0.00    -0.253 OA 
BRANCH   4   5
HETATM    5  C   UNL     1     -10.057   9.543  69.772  1.00  0.00    -0.216 C  
HETATM    6  C   UNL     1      -9.114  10.488  69.030  1.00  0.00    -0.188 C  
HETATM    7  C   UNL     1      -9.561  10.608  67.604  1.00  0.00    -0.178 A  
HETATM    8  C   UNL     1     -10.214  11.762  67.146  1.00  0.00    -0.236 A  
HETATM    9  C   UNL     1     -10.668  11.834  65.830  1.00  0.00    -0.328 A  
HETATM   10  C   UNL     1     -10.479  10.759  64.967  1.00  0.00    -0.307 A  
HETATM   11  C   UNL     1      -9.827   9.610  65.418  1.00  0.00    -0.322 A  
HETATM   12  C   UNL     1      -9.365   9.526  66.739  1.00  0.00    -0.153 A  
HETATM   13  N   UNL     1      -8.668   8.361  67.196  1.00  0.00    -0.125 N  
HETATM   14  C   UNL     1     -10.151   8.114  69.240  1.00  0.00    -0.202 A  
HETATM   15  C   UNL     1      -9.392   7.570  68.174  1.00  0.00    -0.136 A  
HETATM   16  C   UNL     1      -9.434   6.169  67.998  1.00  0.00    -0.113 A  
HETATM   17  C   UNL     1     -11.026   7.264  69.965  1.00  0.00    -0.273 A  
HETATM   18  C   UNL     1     -11.081   5.895  69.732  1.00  0.00    -0.422 A  
HETATM   19  C   UNL     1     -10.253   5.341  68.772  1.00  0.00    -0.231 A  
BRANCH  13  20
HETATM   20  C   UNL     1      -7.548   7.854  66.519  1.00  0.00    -0.092 C  
HETATM   21  H1  UNL     1      -5.512   7.788  66.557  1.00  0.00     0.000 HD 
HETATM   22  O   UNL     1      -7.554   7.117  65.535  1.00  0.00    -0.087 OA 
HETATM   23  N   UNL     1      -6.325   8.157  67.049  1.00  0.00    -0.055 N  
HETATM   24  H2  UNL     1      -6.231   8.722  67.893  1.00  0.00     0.000 HD 
ENDBRANCH  13  20
ENDBRANCH   4   5
ENDBRANCH   2   4
TORSDOF 3
ENDMDL
MODEL      137
REMARK 921   NORMALIZED FREE ENERGY PREDICTED BY IDOCK:   -2.85 KCAL/MOL
REMARK 922        TOTAL FREE ENERGY PREDICTED BY IDOCK:   -3.90 KCAL/MOL
REMARK 923 INTER-LIGAND FREE ENERGY PREDICTED BY IDOCK:   -3.73 KCAL/MOL
REMARK 924 INTRA-LIGAND FREE ENERGY PREDICTED BY IDOCK:   -0.18 KCAL/MOL
REMARK 927      BINDING AFFINITY PREDICTED BY RF-SCORE:    0.00 PKD
ROOT
HETATM    1  C   UNL     1     -12.155  11.003  69.822  1.00  0.00    -0.424 C  
HETATM    2  C   UNL     1     -11.834  10.758  68.378  1.00  0.00    -0.050 C  
HETATM    3  O   UNL     1     -12.170  11.496  67.465  1.00  0.00    -0.463 OA 
ENDROOT
BRANCH   2   4
HETATM    4  O   UNL     1     -11.150   9.592  68.237  1.00  0.00    -0.168 OA 
BRANCH   4   5
HETATM    5  C   UNL     1     -10.128   9.320  69.230  1.00  0.00    -0.200 C  
HETATM    6  C   UNL     1     -10.625   8.192  70.132  1.00  0.00    -0.237 C  
HETATM    7  C   UNL     1      -9.575   7.883  71.156  1.00  0.00    -0.181 A  
HETATM    8  C   UNL     1      -9.724   8.292  72.490  1.00  0.00    -0.368 A  
HETATM    9  C   UNL     1      -8.713   8.041  73.417  1.00  0.00    -0.323 A  
HETATM   10  C   UNL     1      -7.551   7.387  73.021  1.00  0.00    -0.099 A  
HETATM   11  C   UNL     1      -7.400   6.975  71.696  1.00  0.00    -0.083 A  
HETATM   12  C   UNL     1      -8.410   7.221  70.754  1.00  0.00    -0.124 A  
HETATM   13  N   UNL     1      -8.271   6.773  69.401  1.00  0.00    -0.126 N  
HETATM   14  C   UNL     1      -8.842   9.054  68.448  1.00  0.00    -0.134 A  
HETATM   15  C   UNL     1      -8.117   7.836  68.426  1.00  0.00    -0.124 A  
HETATM   16  C   UNL     1      -7.106   7.702  67.449  1.00  0.00    -0.086 A  
HETATM   17  C   UNL     1      -8.422  10.120  67.611  1.00  0.00    -0.118 A  
HETATM   18  C   UNL     1      -7.388   9.971  66.695  1.00  0.00    -0.103 A  
HETATM   19  C   UNL     1      -6.754   8.746  66.587  1.00  0.00    -0.072 A  
BRANCH  13  20
HETATM   20  C   UNL     1      -7.976   5.437  69.089  1.00  0.00    -0.094 C  
HETATM   21  H1  UNL     1      -8.753   3.745  68.260  1.00  0.00     0.000 HD 
HETATM   22  O   UNL     1      -6.898   4.865  69.247  1.00  0.00    -0.047 OA 
HETATM   23  N   UNL     1      -8.969   4.716  68.487  1.00  0.00    -0.105 N  
HETATM   24  H2  UNL     1      -9.877   5.127  68.275  1.00  0.00     0.000 HD 
ENDBRANCH  13  20
ENDBRANCH   4   5
ENDBRANCH   2   4
TORSDOF 3
ENDMDL
MODEL      138
REMARK 921   NORMALIZED FREE ENERGY PREDICTED BY IDOCK:   -2.85 KCAL/MOL
REMARK 922        TOTAL FREE ENERGY PREDICTED BY IDOCK:   -3.90 KCAL/MOL
REMARK 923 INTER-LIGAND FREE ENERGY PREDICTED BY IDOCK:   -3.69 KCAL/MOL
REMARK 924 INTRA-LIGAND FREE ENERGY PREDICTED BY IDOCK:   -0.21 KCAL/MOL
REMARK 927      BINDING AFFINITY PREDICTED BY RF-SCORE:    0.00 PKD
ROOT
HETATM    1  C   UNL     1     -10.485  11.953  64.696  1.00  0.00    -0.340 C  
HETATM    2  C   UNL     1      -9.577  10.775  64.507  1.00  0.00    -0.270 C  
HETATM    3  O   UNL     1      -8.664  10.735  63.697  1.00  0.00    -0.166 OA 
ENDROOT
BRANCH   2   4
HETATM    4  O   UNL     1      -9.937   9.763  65.339  1.00  0.00    -0.320 OA 
BRANCH   4   5
HETATM    5  C   UNL     1      -9.017   9.459  66.420  1.00  0.00    -0.152 C  
HETATM    6  C   UNL     1      -9.642   9.939  67.729  1.00  0.00    -0.163 C  
HETATM    7  C   UNL     1      -8.715   9.619  68.862  1.00  0.00    -0.132 A  
HETATM    8  C   UNL     1      -7.955  10.624  69.479  1.00  0.00    -0.079 A  
HETATM    9  C   UNL     1      -7.060  10.299  70.497  1.00  0.00     0.074 A  
HETATM   10  C   UNL     1      -6.913   8.977  70.902  1.00  0.00    -0.093 A  
HETATM   11  C   UNL     1      -7.670   7.974  70.293  1.00  0.00    -0.086 A  
HETATM   12  C   UNL     1      -8.575   8.287  69.268  1.00  0.00    -0.138 A  
HETATM   13  N   UNL     1      -9.374   7.266  68.662  1.00  0.00    -0.139 N  
HETATM   14  C   UNL     1      -8.720   7.964  66.311  1.00  0.00    -0.174 A  
HETATM   15  C   UNL     1      -9.040   6.978  67.279  1.00  0.00    -0.125 A  
HETATM   16  C   UNL     1      -8.920   5.626  66.890  1.00  0.00    -0.112 A  
HETATM   17  C   UNL     1      -8.154   7.556  65.076  1.00  0.00    -0.127 A  
HETATM   18  C   UNL     1      -8.002   6.215  64.745  1.00  0.00    -0.124 A  
HETATM   19  C   UNL     1      -8.423   5.247  65.639  1.00  0.00    -0.135 A  
BRANCH  13  20
HETATM   20  C   UNL     1     -10.170   6.397  69.425  1.00  0.00    -0.192 C  
HETATM   21  H1  UNL     1     -12.040   5.599  69.564  1.00  0.00     0.000 HD 
HETATM   22  O   UNL     1      -9.811   5.726  70.390  1.00  0.00    -0.172 OA 
HETATM   23  N   UNL     1     -11.462   6.230  69.010  1.00  0.00    -0.523 N  
HETATM   24  H2  UNL     1     -11.829   6.712  68.189  1.00  0.00     0.000 HD 
ENDBRANCH  13  20
ENDBRANCH   4   5
ENDBRANCH   2   4
TORSDOF 3
ENDMDL
MODEL      139
REMARK 921   NORMALIZED FREE ENERGY PREDICTED BY IDOCK:   -2.81 KCAL/MOL
REMARK 922        TOTAL FREE ENERGY PREDICTED BY IDOCK:   -3.86 KCAL/MOL
REMARK 923 INTER-LIGAND FREE ENERGY PREDICTED BY IDOCK:   -3.98 KCAL/MOL
REMARK 924 INTRA-LIGAND FREE ENERGY PREDICTED BY IDOCK:    0.11 KCAL/MOL
REMARK 927      BINDING AFFINITY PREDICTED BY RF-SCORE:    0.00 PKD
ROOT
HETATM    1  C   UNL     1      -7.453   1.698  69.310  1.00  0.00    -0.043 C  
HETATM    2  C   UNL     1      -8.452   2.379  68.424  1.00  0.00    -0.069 C  
HETATM    3  O   UNL     1      -8.467   2.284  67.206  1.00  0.00    -0.081 OA 
ENDROOT
BRANCH   2   4
HETATM    4  O   UNL     1      -9.307   3.131  69.165  1.00  0.00    -0.151 OA 
BRANCH   4   5
HETATM    5  C   UNL     1      -8.706   4.152  70.005  1.00  0.00    -0.070 C  
HETATM    6  C   UNL     1      -8.730   5.475  69.241  1.00  0.00    -0.107 C  
HETATM    7  C   UNL     1      -8.129   6.547  70.098  1.00  0.00    -0.121 A  
HETATM    8  C   UNL     1      -6.840   7.039  69.842  1.00  0.00    -0.053 A  
HETATM    9  C   UNL     1      -6.277   8.000  70.681  1.00  0.00    -0.036 A  
HETATM   10  C   UNL     1      -6.990   8.472  71.778  1.00  0.00    -0.099 A  
HETATM   11  C   UNL     1      -8.275   7.987  72.035  1.00  0.00    -0.174 A  
HETATM   12  C   UNL     1      -8.852   7.021  71.198  1.00  0.00    -0.141 A  
HETATM   13  N   UNL     1     -10.180   6.545  71.441  1.00  0.00    -0.196 N  
HETATM   14  C   UNL     1      -9.470   4.111  71.327  1.00  0.00    -0.230 A  
HETATM   15  C   UNL     1     -10.257   5.160  71.868  1.00  0.00    -0.209 A  
HETATM   16  C   UNL     1     -11.089   4.846  72.965  1.00  0.00    -0.368 A  
HETATM   17  C   UNL     1      -9.437   2.862  71.998  1.00  0.00    -0.197 A  
HETATM   18  C   UNL     1     -10.231   2.602  73.108  1.00  0.00    -0.213 A  
HETATM   19  C   UNL     1     -11.089   3.584  73.568  1.00  0.00    -0.317 A  
BRANCH  13  20
HETATM   20  C   UNL     1     -11.268   7.421  71.579  1.00  0.00    -0.243 C  
HETATM   21  H1  UNL     1     -12.612   8.152  72.926  1.00  0.00     0.000 HD 
HETATM   22  O   UNL     1     -11.737   8.155  70.712  1.00  0.00    -0.276 OA 
HETATM   23  N   UNL     1     -11.822   7.515  72.826  1.00  0.00    -0.581 N  
HETATM   24  H2  UNL     1     -11.463   6.978  73.615  1.00  0.00     0.000 HD 
ENDBRANCH  13  20
ENDBRANCH   4   5
ENDBRANCH   2   4
TORSDOF 3
ENDMDL
MODEL      140
REMARK 921   NORMALIZED FREE ENERGY PREDICTED BY IDOCK:   -2.78 KCAL/MOL
REMARK 922        TOTAL FREE ENERGY PREDICTED BY IDOCK:   -3.83 KCAL/MOL
REMARK 923 INTER-LIGAND FREE ENERGY PREDICTED BY IDOCK:   -4.40 KCAL/MOL
REMARK 924 INTRA-LIGAND FREE ENERGY PREDICTED BY IDOCK:    0.58 KCAL/MOL
REMARK 927      BINDING AFFINITY PREDICTED BY RF-SCORE:    0.00 PKD
ROOT
HETATM    1  C   UNL     1     -10.862  14.081  67.150  1.00  0.00    -0.288 C  
HETATM    2  C   UNL     1     -11.253  12.645  67.328  1.00  0.00    -0.298 C  
HETATM    3  O   UNL     1     -12.058  12.060  66.620  1.00  0.00    -0.615 OA 
ENDROOT
BRANCH   2   4
HETATM    4  O   UNL     1     -10.608  12.108  68.396  1.00  0.00    -0.212 OA 
BRANCH   4   5
HETATM    5  C   UNL     1     -10.066  10.773  68.219  1.00  0.00    -0.171 C  
HETATM    6  C   UNL     1     -11.013   9.988  67.313  1.00  0.00    -0.225 C  
HETATM    7  C   UNL     1     -10.462   8.610  67.103  1.00  0.00    -0.360 A  
HETATM    8  C   UNL     1     -11.024   7.501  67.753  1.00  0.00    -0.057 A  
HETATM    9  C   UNL     1     -10.466   6.234  67.586  1.00  0.00    -0.288 A  
HETATM   10  C   UNL     1      -9.347   6.066  66.777  1.00  0.00    -0.148 A  
HETATM   11  C   UNL     1      -8.785   7.167  66.127  1.00  0.00    -0.164 A  
HETATM   12  C   UNL     1      -9.338   8.446  66.286  1.00  0.00    -0.219 A  
HETATM   13  N   UNL     1      -8.785   9.572  65.596  1.00  0.00    -0.140 N  
HETATM   14  C   UNL     1      -8.637  10.964  67.713  1.00  0.00    -0.128 A  
HETATM   15  C   UNL     1      -8.136  10.546  66.454  1.00  0.00    -0.135 A  
HETATM   16  C   UNL     1      -6.870  11.038  66.066  1.00  0.00    -0.017 A  
HETATM   17  C   UNL     1      -7.793  11.711  68.575  1.00  0.00    -0.140 A  
HETATM   18  C   UNL     1      -6.530  12.135  68.181  1.00  0.00    -0.056 A  
HETATM   19  C   UNL     1      -6.084  11.830  66.907  1.00  0.00    -0.140 A  
BRANCH  13  20
HETATM   20  C   UNL     1      -8.591   9.568  64.206  1.00  0.00    -0.198 C  
HETATM   21  H1  UNL     1      -9.389  10.218  62.447  1.00  0.00     0.000 HD 
HETATM   22  O   UNL     1      -7.636   9.091  63.597  1.00  0.00    -0.108 OA 
HETATM   23  N   UNL     1      -9.530  10.221  63.457  1.00  0.00    -0.293 N  
HETATM   24  H2  UNL     1     -10.330  10.687  63.885  1.00  0.00     0.000 HD 
ENDBRANCH  13  20
ENDBRANCH   4   5
ENDBRANCH   2   4
TORSDOF 3
ENDMDL
MODEL      141
REMARK 921   NORMALIZED FREE ENERGY PREDICTED BY IDOCK:   -2.78 KCAL/MOL
REMARK 922        TOTAL FREE ENERGY PREDICTED BY IDOCK:   -3.82 KCAL/MOL
REMARK 923 INTER-LIGAND FREE ENERGY PREDICTED BY IDOCK:   -3.57 KCAL/MOL
REMARK 924 INTRA-LIGAND FREE ENERGY PREDICTED BY IDOCK:   -0.25 KCAL/MOL
REMARK 927      BINDING AFFINITY PREDICTED BY RF-SCORE:    0.00 PKD
ROOT
HETATM    1  C   UNL     1     -11.592  11.428  67.533  1.00  0.00    -0.298 C  
HETATM    2  C   UNL     1     -10.580  12.266  66.814  1.00  0.00    -0.224 C  
HETATM    3  O   UNL     1     -10.789  13.398  66.407  1.00  0.00    -0.286 OA 
ENDROOT
BRANCH   2   4
HETATM    4  O   UNL     1      -9.420  11.576  66.657  1.00  0.00    -0.184 OA 
BRANCH   4   5
HETATM    5  C   UNL     1      -9.354  10.272  67.292  1.00  0.00    -0.149 C  
HETATM    6  C   UNL     1      -9.673   9.211  66.241  1.00  0.00    -0.344 C  
HETATM    7  C   UNL     1      -9.593   7.854  66.873  1.00  0.00    -0.263 A  
HETATM    8  C   UNL     1     -10.756   7.132  67.181  1.00  0.00    -0.422 A  
HETATM    9  C   UNL     1     -10.663   5.894  67.816  1.00  0.00    -0.346 A  
HETATM   10  C   UNL     1      -9.418   5.372  68.150  1.00  0.00    -0.142 A  
HETATM   11  C   UNL     1      -8.258   6.087  67.843  1.00  0.00    -0.112 A  
HETATM   12  C   UNL     1      -8.338   7.333  67.204  1.00  0.00    -0.118 A  
HETATM   13  N   UNL     1      -7.150   8.055  66.860  1.00  0.00    -0.080 N  
HETATM   14  C   UNL     1      -7.975  10.194  67.947  1.00  0.00    -0.101 A  
HETATM   15  C   UNL     1      -6.946   9.277  67.615  1.00  0.00    -0.078 A  
HETATM   16  C   UNL     1      -5.661   9.525  68.147  1.00  0.00    -0.040 A  
HETATM   17  C   UNL     1      -7.712  11.205  68.906  1.00  0.00    -0.137 A  
HETATM   18  C   UNL     1      -6.447  11.390  69.450  1.00  0.00    -0.108 A  
HETATM   19  C   UNL     1      -5.410  10.572  69.039  1.00  0.00    -0.041 A  
BRANCH  13  20
HETATM   20  C   UNL     1      -6.117   7.469  66.111  1.00  0.00    -0.038 C  
HETATM   21  H1  UNL     1      -5.219   7.483  64.282  1.00  0.00     0.000 HD 
HETATM   22  O   UNL     1      -5.295   6.646  66.509  1.00  0.00    -0.016 OA 
HETATM   23  N   UNL     1      -5.969   7.909  64.826  1.00  0.00    -0.044 N  
HETATM   24  H2  UNL     1      -6.577   8.625  64.430  1.00  0.00     0.000 HD 
ENDBRANCH  13  20
ENDBRANCH   4   5
ENDBRANCH   2   4
TORSDOF 3
ENDMDL
MODEL      142
REMARK 921   NORMALIZED FREE ENERGY PREDICTED BY IDOCK:   -2.76 KCAL/MOL
REMARK 922        TOTAL FREE ENERGY PREDICTED BY IDOCK:   -3.79 KCAL/MOL
REMARK 923 INTER-LIGAND FREE ENERGY PREDICTED BY IDOCK:   -4.11 KCAL/MOL
REMARK 924 INTRA-LIGAND FREE ENERGY PREDICTED BY IDOCK:    0.31 KCAL/MOL
REMARK 927      BINDING AFFINITY PREDICTED BY RF-SCORE:    0.00 PKD
ROOT
HETATM    1  C   UNL     1      -9.880   5.176  70.960  1.00  0.00    -0.261 C  
HETATM    2  C   UNL     1      -9.094   6.197  70.197  1.00  0.00    -0.152 C  
HETATM    3  O   UNL     1      -9.119   6.315  68.981  1.00  0.00    -0.129 OA 
ENDROOT
BRANCH   2   4
HETATM    4  O   UNL     1      -8.338   6.943  71.044  1.00  0.00    -0.123 OA 
BRANCH   4   5
HETATM    5  C   UNL     1      -8.292   8.370  70.782  1.00  0.00    -0.130 C  
HETATM    6  C   UNL     1      -7.591   8.589  69.443  1.00  0.00    -0.090 C  
HETATM    7  C   UNL     1      -7.548  10.058  69.146  1.00  0.00    -0.096 A  
HETATM    8  C   UNL     1      -6.357  10.787  69.280  1.00  0.00    -0.061 A  
HETATM    9  C   UNL     1      -6.349  12.162  69.049  1.00  0.00    -0.087 A  
HETATM   10  C   UNL     1      -7.522  12.817  68.688  1.00  0.00    -0.092 A  
HETATM   11  C   UNL     1      -8.709  12.094  68.551  1.00  0.00    -0.079 A  
HETATM   12  C   UNL     1      -8.730  10.710  68.780  1.00  0.00    -0.157 A  
HETATM   13  N   UNL     1      -9.938   9.961  68.610  1.00  0.00    -0.159 N  
HETATM   14  C   UNL     1      -9.734   8.863  70.888  1.00  0.00    -0.300 A  
HETATM   15  C   UNL     1     -10.500   9.433  69.839  1.00  0.00    -0.233 A  
HETATM   16  C   UNL     1     -11.886   9.587  70.060  1.00  0.00     0.053 A  
HETATM   17  C   UNL     1     -10.355   8.628  72.142  1.00  0.00    -0.403 A  
HETATM   18  C   UNL     1     -11.714   8.840  72.341  1.00  0.00    -0.337 A  
HETATM   19  C   UNL     1     -12.489   9.284  71.285  1.00  0.00    -0.389 A  
BRANCH  13  20
HETATM   20  C   UNL     1     -10.685  10.017  67.423  1.00  0.00    -0.274 C  
HETATM   21  H1  UNL     1     -10.877   9.178  65.576  1.00  0.00     0.000 HD 
HETATM   22  O   UNL     1     -11.659  10.734  67.199  1.00  0.00    -0.385 OA 
HETATM   23  N   UNL     1     -10.334   9.137  66.438  1.00  0.00    -0.223 N  
HETATM   24  H2  UNL     1      -9.570   8.473  66.559  1.00  0.00     0.000 HD 
ENDBRANCH  13  20
ENDBRANCH   4   5
ENDBRANCH   2   4
TORSDOF 3
ENDMDL
MODEL      143
REMARK 921   NORMALIZED FREE ENERGY PREDICTED BY IDOCK:   -2.68 KCAL/MOL
REMARK 922        TOTAL FREE ENERGY PREDICTED BY IDOCK:   -3.70 KCAL/MOL
REMARK 923 INTER-LIGAND FREE ENERGY PREDICTED BY IDOCK:   -4.49 KCAL/MOL
REMARK 924 INTRA-LIGAND FREE ENERGY PREDICTED BY IDOCK:    0.79 KCAL/MOL
REMARK 927      BINDING AFFINITY PREDICTED BY RF-SCORE:    0.00 PKD
ROOT
HETATM    1  C   UNL     1      -8.688   7.416  73.830  1.00  0.00    -0.240 C  
HETATM    2  C   UNL     1      -7.661   8.079  72.963  1.00  0.00    -0.144 C  
HETATM    3  O   UNL     1      -6.480   7.770  72.939  1.00  0.00    -0.060 OA 
ENDROOT
BRANCH   2   4
HETATM    4  O   UNL     1      -8.227   9.082  72.242  1.00  0.00    -0.354 OA 
BRANCH   4   5
HETATM    5  C   UNL     1      -8.622   8.756  70.883  1.00  0.00    -0.192 C  
HETATM    6  C   UNL     1      -7.577   7.810  70.295  1.00  0.00    -0.087 C  
HETATM    7  C   UNL     1      -7.975   7.448  68.896  1.00  0.00    -0.126 A  
HETATM    8  C   UNL     1      -7.315   8.003  67.790  1.00  0.00    -0.093 A  
HETATM    9  C   UNL     1      -7.733   7.694  66.497  1.00  0.00    -0.097 A  
HETATM   10  C   UNL     1      -8.810   6.836  66.298  1.00  0.00    -0.158 A  
HETATM   11  C   UNL     1      -9.468   6.279  67.396  1.00  0.00    -0.120 A  
HETATM   12  C   UNL     1      -9.056   6.581  68.702  1.00  0.00    -0.128 A  
HETATM   13  N   UNL     1      -9.709   5.987  69.830  1.00  0.00    -0.155 N  
HETATM   14  C   UNL     1     -10.051   8.224  70.978  1.00  0.00    -0.230 A  
HETATM   15  C   UNL     1     -10.476   6.914  70.641  1.00  0.00    -0.210 A  
HETATM   16  C   UNL     1     -11.778   6.534  71.037  1.00  0.00    -0.402 A  
HETATM   17  C   UNL     1     -10.988   9.127  71.543  1.00  0.00    -0.434 A  
HETATM   18  C   UNL     1     -12.279   8.734  71.874  1.00  0.00    -0.429 A  
HETATM   19  C   UNL     1     -12.662   7.423  71.656  1.00  0.00    -0.399 A  
BRANCH  13  20
HETATM   20  C   UNL     1      -9.869   4.597  69.946  1.00  0.00    -0.226 C  
HETATM   21  H1  UNL     1      -9.935   2.867  68.871  1.00  0.00     0.000 HD 
HETATM   22  O   UNL     1      -9.990   3.956  70.988  1.00  0.00    -0.173 OA 
HETATM   23  N   UNL     1      -9.819   3.877  68.786  1.00  0.00    -0.032 N  
HETATM   24  H2  UNL     1      -9.672   4.325  67.882  1.00  0.00     0.000 HD 
ENDBRANCH  13  20
ENDBRANCH   4   5
ENDBRANCH   2   4
TORSDOF 3
ENDMDL
MODEL      144
REMARK 921   NORMALIZED FREE ENERGY PREDICTED BY IDOCK:   -2.65 KCAL/MOL
REMARK 922        TOTAL FREE ENERGY PREDICTED BY IDOCK:   -3.67 KCAL/MOL
REMARK 923 INTER-LIGAND FREE ENERGY PREDICTED BY IDOCK:   -3.71 KCAL/MOL
REMARK 924 INTRA-LIGAND FREE ENERGY PREDICTED BY IDOCK:    0.04 KCAL/MOL
REMARK 927      BINDING AFFINITY PREDICTED BY RF-SCORE:    0.00 PKD
ROOT
HETATM    1  C   UNL     1     -11.797   8.484  71.931  1.00  0.00    -0.407 C  
HETATM    2  C   UNL     1     -12.226   7.055  72.066  1.00  0.00    -0.282 C  
HETATM    3  O   UNL     1     -13.272   6.606  71.623  1.00  0.00    -0.245 OA 
ENDROOT
BRANCH   2   4
HETATM    4  O   UNL     1     -11.304   6.349  72.772  1.00  0.00    -0.251 OA 
BRANCH   4   5
HETATM    5  C   UNL     1     -10.214   5.767  72.009  1.00  0.00    -0.201 C  
HETATM    6  C   UNL     1     -10.671   5.617  70.560  1.00  0.00    -0.344 C  
HETATM    7  C   UNL     1      -9.553   5.032  69.750  1.00  0.00    -0.240 A  
HETATM    8  C   UNL     1      -9.585   3.692  69.337  1.00  0.00    -0.196 A  
HETATM    9  C   UNL     1      -8.512   3.152  68.629  1.00  0.00    -0.101 A  
HETATM   10  C   UNL     1      -7.404   3.939  68.334  1.00  0.00    -0.055 A  
HETATM   11  C   UNL     1      -7.369   5.274  68.741  1.00  0.00    -0.070 A  
HETATM   12  C   UNL     1      -8.443   5.830  69.453  1.00  0.00    -0.112 A  
HETATM   13  N   UNL     1      -8.424   7.207  69.845  1.00  0.00    -0.139 N  
HETATM   14  C   UNL     1      -9.003   6.665  72.256  1.00  0.00    -0.134 A  
HETATM   15  C   UNL     1      -8.317   7.425  71.276  1.00  0.00    -0.110 A  
HETATM   16  C   UNL     1      -7.390   8.387  71.735  1.00  0.00    -0.117 A  
HETATM   17  C   UNL     1      -8.619   6.790  73.616  1.00  0.00    -0.149 A  
HETATM   18  C   UNL     1      -7.665   7.712  74.028  1.00  0.00    -0.182 A  
HETATM   19  C   UNL     1      -7.078   8.540  73.089  1.00  0.00    -0.052 A  
BRANCH  13  20
HETATM   20  C   UNL     1      -8.192   8.238  68.922  1.00  0.00    -0.116 C  
HETATM   21  H1  UNL     1      -9.129   9.586  67.714  1.00  0.00     0.000 HD 
HETATM   22  O   UNL     1      -7.102   8.698  68.591  1.00  0.00    -0.066 OA 
HETATM   23  N   UNL     1      -9.298   8.837  68.384  1.00  0.00    -0.137 N  
HETATM   24  H2  UNL     1     -10.242   8.550  68.641  1.00  0.00     0.000 HD 
ENDBRANCH  13  20
ENDBRANCH   4   5
ENDBRANCH   2   4
TORSDOF 3
ENDMDL
MODEL      145
REMARK 921   NORMALIZED FREE ENERGY PREDICTED BY IDOCK:   -2.61 KCAL/MOL
REMARK 922        TOTAL FREE ENERGY PREDICTED BY IDOCK:   -3.62 KCAL/MOL
REMARK 923 INTER-LIGAND FREE ENERGY PREDICTED BY IDOCK:   -3.93 KCAL/MOL
REMARK 924 INTRA-LIGAND FREE ENERGY PREDICTED BY IDOCK:    0.31 KCAL/MOL
REMARK 927      BINDING AFFINITY PREDICTED BY RF-SCORE:    0.00 PKD
ROOT
HETATM    1  C   UNL     1     -12.223  10.581  71.105  1.00  0.00    -0.496 C  
HETATM    2  C   UNL     1     -11.700   9.281  71.634  1.00  0.00    -0.392 C  
HETATM    3  O   UNL     1     -12.405   8.372  72.044  1.00  0.00    -0.320 OA 
ENDROOT
BRANCH   2   4
HETATM    4  O   UNL     1     -10.341   9.276  71.619  1.00  0.00    -0.340 OA 
BRANCH   4   5
HETATM    5  C   UNL     1      -9.711   8.772  70.413  1.00  0.00    -0.180 C  
HETATM    6  C   UNL     1     -10.564   9.189  69.217  1.00  0.00    -0.229 C  
HETATM    7  C   UNL     1      -9.920   8.692  67.957  1.00  0.00    -0.221 A  
HETATM    8  C   UNL     1     -10.445   7.590  67.265  1.00  0.00    -0.391 A  
HETATM    9  C   UNL     1      -9.802   7.110  66.124  1.00  0.00     0.100 A  
HETATM   10  C   UNL     1      -8.638   7.720  65.670  1.00  0.00    -0.147 A  
HETATM   11  C   UNL     1      -8.114   8.819  66.355  1.00  0.00    -0.103 A  
HETATM   12  C   UNL     1      -8.751   9.312  67.503  1.00  0.00    -0.115 A  
HETATM   13  N   UNL     1      -8.235  10.457  68.190  1.00  0.00    -0.113 N  
HETATM   14  C   UNL     1      -8.274   9.290  70.442  1.00  0.00    -0.199 A  
HETATM   15  C   UNL     1      -7.689  10.178  69.504  1.00  0.00    -0.155 A  
HETATM   16  C   UNL     1      -6.437  10.742  69.840  1.00  0.00    -0.135 A  
HETATM   17  C   UNL     1      -7.519   8.893  71.576  1.00  0.00    -0.084 A  
HETATM   18  C   UNL     1      -6.267   9.429  71.850  1.00  0.00     0.105 A  
HETATM   19  C   UNL     1      -5.742  10.386  71.000  1.00  0.00    -0.057 A  
BRANCH  13  20
HETATM   20  C   UNL     1      -7.976  11.666  67.524  1.00  0.00    -0.141 C  
HETATM   21  H1  UNL     1      -8.801  13.460  67.020  1.00  0.00     0.000 HD 
HETATM   22  O   UNL     1      -6.913  12.010  67.011  1.00  0.00    -0.142 OA 
HETATM   23  N   UNL     1      -8.990  12.582  67.503  1.00  0.00    -0.176 N  
HETATM   24  H2  UNL     1      -9.889  12.397  67.948  1.00  0.00     0.000 HD 
ENDBRANCH  13  20
ENDBRANCH   4   5
ENDBRANCH   2   4
TORSDOF 3
ENDMDL
MODEL      146
REMARK 921   NORMALIZED FREE ENERGY PREDICTED BY IDOCK:   -2.60 KCAL/MOL
REMARK 922        TOTAL FREE ENERGY PREDICTED BY IDOCK:   -3.61 KCAL/MOL
REMARK 923 INTER-LIGAND FREE ENERGY PREDICTED BY IDOCK:   -3.68 KCAL/MOL
REMARK 924 INTRA-LIGAND FREE ENERGY PREDICTED BY IDOCK:    0.06 KCAL/MOL
REMARK 927      BINDING AFFINITY PREDICTED BY RF-SCORE:    0.00 PKD
ROOT
HETATM    1  C   UNL     1      -8.729   8.704  71.985  1.00  0.00    -0.235 C  
HETATM    2  C   UNL     1      -8.158   7.428  71.446  1.00  0.00    -0.097 C  
HETATM    3  O   UNL     1      -8.097   6.383  72.076  1.00  0.00    -0.108 OA 
ENDROOT
BRANCH   2   4
HETATM    4  O   UNL     1      -7.697   7.612  70.182  1.00  0.00    -0.088 OA 
BRANCH   4   5
HETATM    5  C   UNL     1      -8.408   8.583  69.371  1.00  0.00    -0.119 C  
HETATM    6  C   UNL     1      -7.385   9.540  68.761  1.00  0.00    -0.074 C  
HETATM    7  C   UNL     1      -8.099  10.542  67.905  1.00  0.00    -0.107 A  
HETATM    8  C   UNL     1      -8.279  11.864  68.339  1.00  0.00    -0.160 A  
HETATM    9  C   UNL     1      -8.991  12.768  67.551  1.00  0.00    -0.192 A  
HETATM   10  C   UNL     1      -9.528  12.362  66.334  1.00  0.00    -0.240 A  
HETATM   11  C   UNL     1      -9.348  11.048  65.898  1.00  0.00    -0.229 A  
HETATM   12  C   UNL     1      -8.633  10.129  66.680  1.00  0.00    -0.126 A  
HETATM   13  N   UNL     1      -8.421   8.789  66.221  1.00  0.00    -0.119 N  
HETATM   14  C   UNL     1      -9.255   7.772  68.391  1.00  0.00    -0.137 A  
HETATM   15  C   UNL     1      -9.125   7.772  66.979  1.00  0.00    -0.138 A  
HETATM   16  C   UNL     1      -9.820   6.770  66.265  1.00  0.00    -0.011 A  
HETATM   17  C   UNL     1     -10.183   6.886  68.996  1.00  0.00    -0.189 A  
HETATM   18  C   UNL     1     -10.890   5.945  68.257  1.00  0.00    -0.325 A  
HETATM   19  C   UNL     1     -10.677   5.861  66.892  1.00  0.00    -0.395 A  
BRANCH  13  20
HETATM   20  C   UNL     1      -7.861   8.516  64.963  1.00  0.00    -0.112 C  
HETATM   21  H1  UNL     1      -8.302   8.370  62.979  1.00  0.00     0.000 HD 
HETATM   22  O   UNL     1      -6.677   8.296  64.717  1.00  0.00    -0.066 OA 
HETATM   23  N   UNL     1      -8.709   8.567  63.893  1.00  0.00    -0.413 N  
HETATM   24  H2  UNL     1      -9.698   8.792  64.002  1.00  0.00     0.000 HD 
ENDBRANCH  13  20
ENDBRANCH   4   5
ENDBRANCH   2   4
TORSDOF 3
ENDMDL
MODEL      147
REMARK 921   NORMALIZED FREE ENERGY PREDICTED BY IDOCK:   -2.50 KCAL/MOL
REMARK 922        TOTAL FREE ENERGY PREDICTED BY IDOCK:   -3.49 KCAL/MOL
REMARK 923 INTER-LIGAND FREE ENERGY PREDICTED BY IDOCK:   -3.47 KCAL/MOL
REMARK 924 INTRA-LIGAND FREE ENERGY PREDICTED BY IDOCK:   -0.02 KCAL/MOL
REMARK 927      BINDING AFFINITY PREDICTED BY RF-SCORE:    0.00 PKD
ROOT
HETATM    1  C   UNL     1     -12.501   8.254  71.799  1.00  0.00    -0.367 C  
HETATM    2  C   UNL     1     -11.315   8.739  71.022  1.00  0.00    -0.278 C  
HETATM    3  O   UNL     1     -11.021   9.916  70.879  1.00  0.00    -0.319 OA 
ENDROOT
BRANCH   2   4
HETATM    4  O   UNL     1     -10.642   7.689  70.482  1.00  0.00    -0.218 OA 
BRANCH   4   5
HETATM    5  C   UNL     1      -9.402   7.312  71.135  1.00  0.00    -0.156 C  
HETATM    6  C   UNL     1      -9.613   7.393  72.646  1.00  0.00    -0.204 C  
HETATM    7  C   UNL     1      -8.347   6.991  73.341  1.00  0.00    -0.140 A  
HETATM    8  C   UNL     1      -7.519   7.949  73.945  1.00  0.00    -0.190 A  
HETATM    9  C   UNL     1      -6.320   7.562  74.541  1.00  0.00    -0.089 A  
HETATM   10  C   UNL     1      -5.938   6.224  74.536  1.00  0.00    -0.064 A  
HETATM   11  C   UNL     1      -6.761   5.267  73.938  1.00  0.00    -0.075 A  
HETATM   12  C   UNL     1      -7.970   5.644  73.336  1.00  0.00    -0.110 A  
HETATM   13  N   UNL     1      -8.830   4.661  72.749  1.00  0.00    -0.116 N  
HETATM   14  C   UNL     1      -9.028   5.944  70.568  1.00  0.00    -0.151 A  
HETATM   15  C   UNL     1      -8.934   4.735  71.304  1.00  0.00    -0.129 A  
HETATM   16  C   UNL     1      -8.829   3.535  70.565  1.00  0.00    -0.142 A  
HETATM   17  C   UNL     1      -8.855   5.907  69.161  1.00  0.00    -0.117 A  
HETATM   18  C   UNL     1      -8.702   4.712  68.470  1.00  0.00    -0.113 A  
HETATM   19  C   UNL     1      -8.729   3.519  69.171  1.00  0.00    -0.136 A  
BRANCH  13  20
HETATM   20  C   UNL     1      -9.262   3.532  73.463  1.00  0.00    -0.100 C  
HETATM   21  H1  UNL     1     -10.880   2.708  74.388  1.00  0.00     0.000 HD 
HETATM   22  O   UNL     1      -8.606   2.522  73.709  1.00  0.00    -0.070 OA 
HETATM   23  N   UNL     1     -10.567   3.528  73.869  1.00  0.00    -0.185 N  
HETATM   24  H2  UNL     1     -11.195   4.305  73.665  1.00  0.00     0.000 HD 
ENDBRANCH  13  20
ENDBRANCH   4   5
ENDBRANCH   2   4
TORSDOF 3
ENDMDL
MODEL      148
REMARK 921   NORMALIZED FREE ENERGY PREDICTED BY IDOCK:   -2.28 KCAL/MOL
REMARK 922        TOTAL FREE ENERGY PREDICTED BY IDOCK:   -3.24 KCAL/MOL
REMARK 923 INTER-LIGAND FREE ENERGY PREDICTED BY IDOCK:   -3.63 KCAL/MOL
REMARK 924 INTRA-LIGAND FREE ENERGY PREDICTED BY IDOCK:    0.40 KCAL/MOL
REMARK 927      BINDING AFFINITY PREDICTED BY RF-SCORE:    0.00 PKD
ROOT
HETATM    1  C   UNL     1     -10.892   6.618  68.165  1.00  0.00    -0.334 C  
HETATM    2  C   UNL     1     -10.743   6.375  69.636  1.00  0.00    -0.282 C  
HETATM    3  O   UNL     1     -10.485   5.289  70.130  1.00  0.00    -0.282 OA 
ENDROOT
BRANCH   2   4
HETATM    4  O   UNL     1     -10.966   7.522  70.330  1.00  0.00    -0.245 OA 
BRANCH   4   5
HETATM    5  C   UNL     1      -9.828   8.410  70.492  1.00  0.00    -0.184 C  
HETATM    6  C   UNL     1      -8.554   7.570  70.433  1.00  0.00    -0.143 C  
HETATM    7  C   UNL     1      -7.365   8.471  70.581  1.00  0.00    -0.061 A  
HETATM    8  C   UNL     1      -6.640   8.518  71.781  1.00  0.00    -0.072 A  
HETATM    9  C   UNL     1      -5.569   9.400  71.918  1.00  0.00    -0.065 A  
HETATM   10  C   UNL     1      -5.218  10.240  70.866  1.00  0.00    -0.073 A  
HETATM   11  C   UNL     1      -5.936  10.195  69.669  1.00  0.00    -0.044 A  
HETATM   12  C   UNL     1      -7.014   9.311  69.519  1.00  0.00    -0.052 A  
HETATM   13  N   UNL     1      -7.733   9.240  68.282  1.00  0.00    -0.087 N  
HETATM   14  C   UNL     1      -9.985   9.491  69.424  1.00  0.00    -0.199 A  
HETATM   15  C   UNL     1      -9.096   9.734  68.346  1.00  0.00    -0.123 A  
HETATM   16  C   UNL     1      -9.539  10.601  67.323  1.00  0.00    -0.186 A  
HETATM   17  C   UNL     1     -11.188  10.239  69.503  1.00  0.00    -0.314 A  
HETATM   18  C   UNL     1     -11.571  11.124  68.503  1.00  0.00    -0.385 A  
HETATM   19  C   UNL     1     -10.762  11.275  67.391  1.00  0.00    -0.285 A  
BRANCH  13  20
HETATM   20  C   UNL     1      -7.081   9.030  67.057  1.00  0.00    -0.079 C  
HETATM   21  H1  UNL     1      -6.240   9.995  65.471  1.00  0.00     0.000 HD 
HETATM   22  O   UNL     1      -6.753   7.948  66.574  1.00  0.00    -0.056 OA 
HETATM   23  N   UNL     1      -6.714  10.148  66.361  1.00  0.00    -0.086 N  
HETATM   24  H2  UNL     1      -6.904  11.086  66.713  1.00  0.00     0.000 HD 
ENDBRANCH  13  20
ENDBRANCH   4   5
ENDBRANCH   2   4
TORSDOF 3
ENDMDL
MODEL      149
REMARK 921   NORMALIZED FREE ENERGY PREDICTED BY IDOCK:   -2.28 KCAL/MOL
REMARK 922        TOTAL FREE ENERGY PREDICTED BY IDOCK:   -3.24 KCAL/MOL
REMARK 923 INTER-LIGAND FREE ENERGY PREDICTED BY IDOCK:   -3.22 KCAL/MOL
REMARK 924 INTRA-LIGAND FREE ENERGY PREDICTED BY IDOCK:   -0.02 KCAL/MOL
REMARK 927      BINDING AFFINITY PREDICTED BY RF-SCORE:    0.00 PKD
ROOT
HETATM    1  C   UNL     1     -11.426  10.613  69.011  1.00  0.00    -0.342 C  
HETATM    2  C   UNL     1     -10.842  10.411  67.646  1.00  0.00    -0.306 C  
HETATM    3  O   UNL     1     -10.585  11.317  66.867  1.00  0.00    -0.233 OA 
ENDROOT
BRANCH   2   4
HETATM    4  O   UNL     1     -10.670   9.086  67.395  1.00  0.00    -0.271 OA 
BRANCH   4   5
HETATM    5  C   UNL     1      -9.406   8.509  67.813  1.00  0.00    -0.137 C  
HETATM    6  C   UNL     1      -9.681   7.518  68.942  1.00  0.00    -0.151 C  
HETATM    7  C   UNL     1      -8.388   6.897  69.377  1.00  0.00    -0.132 A  
HETATM    8  C   UNL     1      -7.776   7.275  70.581  1.00  0.00    -0.093 A  
HETATM    9  C   UNL     1      -6.547   6.724  70.944  1.00  0.00    -0.053 A  
HETATM   10  C   UNL     1      -5.923   5.801  70.112  1.00  0.00    -0.025 A  
HETATM   11  C   UNL     1      -6.531   5.420  68.914  1.00  0.00    -0.042 A  
HETATM   12  C   UNL     1      -7.767   5.966  68.538  1.00  0.00    -0.094 A  
HETATM   13  N   UNL     1      -8.408   5.555  67.325  1.00  0.00    -0.104 N  
HETATM   14  C   UNL     1      -8.763   7.944  66.548  1.00  0.00    -0.162 A  
HETATM   15  C   UNL     1      -8.472   6.579  66.299  1.00  0.00    -0.129 A  
HETATM   16  C   UNL     1      -8.120   6.222  64.978  1.00  0.00    -0.136 A  
HETATM   17  C   UNL     1      -8.537   8.893  65.518  1.00  0.00    -0.191 A  
HETATM   18  C   UNL     1      -8.140   8.513  64.242  1.00  0.00    -0.155 A  
HETATM   19  C   UNL     1      -7.969   7.169  63.961  1.00  0.00    -0.078 A  
BRANCH  13  20
HETATM   20  C   UNL     1      -8.647   4.203  67.034  1.00  0.00    -0.105 C  
HETATM   21  H1  UNL     1      -7.738   2.476  66.447  1.00  0.00     0.000 HD 
HETATM   22  O   UNL     1      -9.716   3.605  67.140  1.00  0.00    -0.199 OA 
HETATM   23  N   UNL     1      -7.564   3.458  66.658  1.00  0.00    -0.076 N  
HETATM   24  H2  UNL     1      -6.631   3.864  66.592  1.00  0.00     0.000 HD 
ENDBRANCH  13  20
ENDBRANCH   4   5
ENDBRANCH   2   4
TORSDOF 3
ENDMDL
MODEL      150
REMARK 921   NORMALIZED FREE ENERGY PREDICTED BY IDOCK:   -2.24 KCAL/MOL
REMARK 922        TOTAL FREE ENERGY PREDICTED BY IDOCK:   -3.19 KCAL/MOL
REMARK 923 INTER-LIGAND FREE ENERGY PREDICTED BY IDOCK:   -4.33 KCAL/MOL
REMARK 924 INTRA-LIGAND FREE ENERGY PREDICTED BY IDOCK:    1.14 KCAL/MOL
REMARK 927      BINDING AFFINITY PREDICTED BY RF-SCORE:    0.00 PKD
ROOT
HETATM    1  C   UNL     1      -6.068  17.028  66.140  1.00  0.00     0.181 C  
HETATM    2  C   UNL     1      -7.155  17.993  66.505  1.00  0.00    -0.228 C  
HETATM    3  O   UNL     1      -7.827  18.610  65.692  1.00  0.00    -0.478 OA 
ENDROOT
BRANCH   2   4
HETATM    4  O   UNL     1      -7.260  18.101  67.855  1.00  0.00    -0.215 OA 
BRANCH   4   5
HETATM    5  C   UNL     1      -8.157  17.166  68.509  1.00  0.00    -0.260 C  
HETATM    6  C   UNL     1      -9.300  16.847  67.548  1.00  0.00    -0.232 C  
HETATM    7  C   UNL     1     -10.231  15.869  68.199  1.00  0.00    -0.232 A  
HETATM    8  C   UNL     1     -11.477  16.279  68.697  1.00  0.00    -0.288 A  
HETATM    9  C   UNL     1     -12.307  15.365  69.346  1.00  0.00    -0.161 A  
HETATM   10  C   UNL     1     -11.901  14.044  69.504  1.00  0.00    -0.378 A  
HETATM   11  C   UNL     1     -10.663  13.632  69.007  1.00  0.00    -0.194 A  
HETATM   12  C   UNL     1      -9.819  14.541  68.353  1.00  0.00    -0.227 A  
HETATM   13  N   UNL     1      -8.563  14.114  67.815  1.00  0.00    -0.172 N  
HETATM   14  C   UNL     1      -7.288  15.990  68.952  1.00  0.00    -0.176 A  
HETATM   15  C   UNL     1      -7.400  14.652  68.496  1.00  0.00    -0.117 A  
HETATM   16  C   UNL     1      -6.350  13.766  68.823  1.00  0.00    -0.092 A  
HETATM   17  C   UNL     1      -6.228  16.329  69.833  1.00  0.00    -0.161 A  
HETATM   18  C   UNL     1      -5.238  15.417  70.176  1.00  0.00    -0.121 A  
HETATM   19  C   UNL     1      -5.278  14.143  69.637  1.00  0.00    -0.091 A  
BRANCH  13  20
HETATM   20  C   UNL     1      -8.464  13.023  66.936  1.00  0.00    -0.078 C  
HETATM   21  H1  UNL     1      -7.198  11.568  66.280  1.00  0.00     0.000 HD 
HETATM   22  O   UNL     1      -9.359  12.566  66.227  1.00  0.00    -0.232 OA 
HETATM   23  N   UNL     1      -7.269  12.360  66.917  1.00  0.00    -0.377 N  
HETATM   24  H2  UNL     1      -6.489  12.643  67.510  1.00  0.00     0.000 HD 
ENDBRANCH  13  20
ENDBRANCH   4   5
ENDBRANCH   2   4
TORSDOF 3
ENDMDL
MODEL      151
REMARK 921   NORMALIZED FREE ENERGY PREDICTED BY IDOCK:   -2.22 KCAL/MOL
REMARK 922        TOTAL FREE ENERGY PREDICTED BY IDOCK:   -3.17 KCAL/MOL
REMARK 923 INTER-LIGAND FREE ENERGY PREDICTED BY IDOCK:   -3.28 KCAL/MOL
REMARK 924 INTRA-LIGAND FREE ENERGY PREDICTED BY IDOCK:    0.11 KCAL/MOL
REMARK 927      BINDING AFFINITY PREDICTED BY RF-SCORE:    0.00 PKD
ROOT
HETATM    1  C   UNL     1      -7.756   6.794  63.593  1.00  0.00    -0.107 C  
HETATM    2  C   UNL     1      -8.041   8.165  64.127  1.00  0.00    -0.128 C  
HETATM    3  O   UNL     1      -8.448   9.096  63.449  1.00  0.00    -0.189 OA 
ENDROOT
BRANCH   2   4
HETATM    4  O   UNL     1      -7.755   8.225  65.454  1.00  0.00    -0.093 OA 
BRANCH   4   5
HETATM    5  C   UNL     1      -8.434   7.265  66.305  1.00  0.00    -0.134 C  
HETATM    6  C   UNL     1      -7.416   6.219  66.754  1.00  0.00    -0.087 C  
HETATM    7  C   UNL     1      -8.094   5.226  67.649  1.00  0.00    -0.100 A  
HETATM    8  C   UNL     1      -8.412   3.939  67.188  1.00  0.00    -0.100 A  
HETATM    9  C   UNL     1      -9.089   3.046  68.019  1.00  0.00    -0.226 A  
HETATM   10  C   UNL     1      -9.455   3.430  69.305  1.00  0.00    -0.212 A  
HETATM   11  C   UNL     1      -9.137   4.709  69.767  1.00  0.00    -0.162 A  
HETATM   12  C   UNL     1      -8.456   5.615  68.943  1.00  0.00    -0.102 A  
HETATM   13  N   UNL     1      -8.101   6.916  69.424  1.00  0.00    -0.125 N  
HETATM   14  C   UNL     1      -9.106   8.082  67.407  1.00  0.00    -0.147 A  
HETATM   15  C   UNL     1      -8.817   8.009  68.793  1.00  0.00    -0.138 A  
HETATM   16  C   UNL     1      -9.355   9.020  69.621  1.00  0.00    -0.169 A  
HETATM   17  C   UNL     1     -10.034   9.053  66.949  1.00  0.00    -0.313 A  
HETATM   18  C   UNL     1     -10.586  10.002  67.801  1.00  0.00    -0.311 A  
HETATM   19  C   UNL     1     -10.214  10.009  69.133  1.00  0.00    -0.224 A  
BRANCH  13  20
HETATM   20  C   UNL     1      -7.384   7.095  70.618  1.00  0.00    -0.075 C  
HETATM   21  H1  UNL     1      -7.569   7.091  72.647  1.00  0.00     0.000 HD 
HETATM   22  O   UNL     1      -6.177   7.300  70.727  1.00  0.00    -0.035 OA 
HETATM   23  N   UNL     1      -8.090   6.961  71.780  1.00  0.00    -0.101 N  
HETATM   24  H2  UNL     1      -9.086   6.743  71.781  1.00  0.00     0.000 HD 
ENDBRANCH  13  20
ENDBRANCH   4   5
ENDBRANCH   2   4
TORSDOF 3
ENDMDL
MODEL      152
REMARK 921   NORMALIZED FREE ENERGY PREDICTED BY IDOCK:   -2.18 KCAL/MOL
REMARK 922        TOTAL FREE ENERGY PREDICTED BY IDOCK:   -3.12 KCAL/MOL
REMARK 923 INTER-LIGAND FREE ENERGY PREDICTED BY IDOCK:   -3.67 KCAL/MOL
REMARK 924 INTRA-LIGAND FREE ENERGY PREDICTED BY IDOCK:    0.55 KCAL/MOL
REMARK 927      BINDING AFFINITY PREDICTED BY RF-SCORE:    0.00 PKD
ROOT
HETATM    1  C   UNL     1      -7.820   7.447  70.138  1.00  0.00    -0.099 C  
HETATM    2  C   UNL     1      -7.718   8.937  70.268  1.00  0.00    -0.090 C  
HETATM    3  O   UNL     1      -8.419   9.612  71.006  1.00  0.00    -0.234 OA 
ENDROOT
BRANCH   2   4
HETATM    4  O   UNL     1      -6.761   9.420  69.433  1.00  0.00    -0.047 OA 
BRANCH   4   5
HETATM    5  C   UNL     1      -7.227  10.002  68.187  1.00  0.00    -0.081 C  
HETATM    6  C   UNL     1      -8.640   9.488  67.917  1.00  0.00    -0.119 C  
HETATM    7  C   UNL     1      -9.146  10.091  66.642  1.00  0.00    -0.169 A  
HETATM    8  C   UNL     1      -9.222   9.332  65.464  1.00  0.00    -0.292 A  
HETATM    9  C   UNL     1      -9.647   9.924  64.276  1.00  0.00    -0.220 A  
HETATM   10  C   UNL     1      -9.993  11.271  64.252  1.00  0.00    -0.347 A  
HETATM   11  C   UNL     1      -9.922  12.030  65.423  1.00  0.00    -0.279 A  
HETATM   12  C   UNL     1      -9.497  11.445  66.625  1.00  0.00    -0.189 A  
HETATM   13  N   UNL     1      -9.452  12.212  67.833  1.00  0.00    -0.188 N  
HETATM   14  C   UNL     1      -7.067  11.513  68.344  1.00  0.00    -0.081 A  
HETATM   15  C   UNL     1      -8.116  12.468  68.337  1.00  0.00    -0.136 A  
HETATM   16  C   UNL     1      -7.799  13.780  68.752  1.00  0.00    -0.059 A  
HETATM   17  C   UNL     1      -5.743  11.949  68.608  1.00  0.00    -0.052 A  
HETATM   18  C   UNL     1      -5.458  13.262  68.964  1.00  0.00    -0.070 A  
HETATM   19  C   UNL     1      -6.496  14.170  69.074  1.00  0.00    -0.099 A  
BRANCH  13  20
HETATM   20  C   UNL     1     -10.565  12.930  68.298  1.00  0.00    -0.246 C  
HETATM   21  H1  UNL     1     -12.555  12.767  68.706  1.00  0.00     0.000 HD 
HETATM   22  O   UNL     1     -10.576  14.090  68.704  1.00  0.00    -0.246 OA 
HETATM   23  N   UNL     1     -11.747  12.246  68.368  1.00  0.00    -0.323 N  
HETATM   24  H2  UNL     1     -11.816  11.265  68.098  1.00  0.00     0.000 HD 
ENDBRANCH  13  20
ENDBRANCH   4   5
ENDBRANCH   2   4
TORSDOF 3
ENDMDL
MODEL      153
REMARK 921   NORMALIZED FREE ENERGY PREDICTED BY IDOCK:   -2.16 KCAL/MOL
REMARK 922        TOTAL FREE ENERGY PREDICTED BY IDOCK:   -3.09 KCAL/MOL
REMARK 923 INTER-LIGAND FREE ENERGY PREDICTED BY IDOCK:   -3.37 KCAL/MOL
REMARK 924 INTRA-LIGAND FREE ENERGY PREDICTED BY IDOCK:    0.28 KCAL/MOL
REMARK 927      BINDING AFFINITY PREDICTED BY RF-SCORE:    0.00 PKD
ROOT
HETATM    1  C   UNL     1      -9.719   5.018  71.034  1.00  0.00    -0.249 C  
HETATM    2  C   UNL     1      -8.817   5.126  69.842  1.00  0.00    -0.103 C  
HETATM    3  O   UNL     1      -9.120   4.762  68.716  1.00  0.00    -0.102 OA 
ENDROOT
BRANCH   2   4
HETATM    4  O   UNL     1      -7.618   5.652  70.203  1.00  0.00    -0.080 OA 
BRANCH   4   5
HETATM    5  C   UNL     1      -7.286   6.948  69.640  1.00  0.00    -0.086 C  
HETATM    6  C   UNL     1      -7.263   6.817  68.118  1.00  0.00    -0.091 C  
HETATM    7  C   UNL     1      -6.938   8.151  67.515  1.00  0.00    -0.075 A  
HETATM    8  C   UNL     1      -5.669   8.410  66.977  1.00  0.00    -0.042 A  
HETATM    9  C   UNL     1      -5.370   9.673  66.468  1.00  0.00    -0.044 A  
HETATM   10  C   UNL     1      -6.327  10.682  66.495  1.00  0.00    -0.102 A  
HETATM   11  C   UNL     1      -7.593  10.427  67.027  1.00  0.00    -0.101 A  
HETATM   12  C   UNL     1      -7.907   9.160  67.542  1.00  0.00    -0.100 A  
HETATM   13  N   UNL     1      -9.213   8.886  68.060  1.00  0.00    -0.139 N  
HETATM   14  C   UNL     1      -8.298   7.932  70.226  1.00  0.00    -0.126 A  
HETATM   15  C   UNL     1      -9.261   8.672  69.495  1.00  0.00    -0.150 A  
HETATM   16  C   UNL     1     -10.270   9.328  70.233  1.00  0.00    -0.270 A  
HETATM   17  C   UNL     1      -8.299   8.014  71.643  1.00  0.00    -0.151 A  
HETATM   18  C   UNL     1      -9.279   8.712  72.338  1.00  0.00    -0.257 A  
HETATM   19  C   UNL     1     -10.290   9.338  71.631  1.00  0.00    -0.300 A  
BRANCH  13  20
HETATM   20  C   UNL     1     -10.374   9.133  67.312  1.00  0.00    -0.270 C  
HETATM   21  H1  UNL     1     -11.798   8.232  66.165  1.00  0.00     0.000 HD 
HETATM   22  O   UNL     1     -10.958  10.209  67.192  1.00  0.00    -0.235 OA 
HETATM   23  N   UNL     1     -10.954   8.052  66.709  1.00  0.00    -0.292 N  
HETATM   24  H2  UNL     1     -10.563   7.115  66.797  1.00  0.00     0.000 HD 
ENDBRANCH  13  20
ENDBRANCH   4   5
ENDBRANCH   2   4
TORSDOF 3
ENDMDL
MODEL      154
REMARK 921   NORMALIZED FREE ENERGY PREDICTED BY IDOCK:   -2.15 KCAL/MOL
REMARK 922        TOTAL FREE ENERGY PREDICTED BY IDOCK:   -3.09 KCAL/MOL
REMARK 923 INTER-LIGAND FREE ENERGY PREDICTED BY IDOCK:   -3.70 KCAL/MOL
REMARK 924 INTRA-LIGAND FREE ENERGY PREDICTED BY IDOCK:    0.62 KCAL/MOL
REMARK 927      BINDING AFFINITY PREDICTED BY RF-SCORE:    0.00 PKD
ROOT
HETATM    1  C   UNL     1     -11.943  11.067  69.132  1.00  0.00    -0.394 C  
HETATM    2  C   UNL     1     -10.855  10.613  70.057  1.00  0.00    -0.217 C  
HETATM    3  O   UNL     1     -11.029   9.868  71.009  1.00  0.00    -0.335 OA 
ENDROOT
BRANCH   2   4
HETATM    4  O   UNL     1      -9.668  11.169  69.700  1.00  0.00     0.177 OA 
BRANCH   4   5
HETATM    5  C   UNL     1      -8.651  10.259  69.206  1.00  0.00    -0.168 C  
HETATM    6  C   UNL     1      -8.627   9.030  70.112  1.00  0.00    -0.169 C  
HETATM    7  C   UNL     1      -7.593   8.068  69.608  1.00  0.00    -0.096 A  
HETATM    8  C   UNL     1      -6.365   7.917  70.270  1.00  0.00    -0.037 A  
HETATM    9  C   UNL     1      -5.396   7.056  69.757  1.00  0.00    -0.015 A  
HETATM   10  C   UNL     1      -5.641   6.347  68.585  1.00  0.00    -0.015 A  
HETATM   11  C   UNL     1      -6.863   6.493  67.926  1.00  0.00    -0.074 A  
HETATM   12  C   UNL     1      -7.847   7.355  68.432  1.00  0.00    -0.122 A  
HETATM   13  N   UNL     1      -9.113   7.485  67.775  1.00  0.00    -0.130 N  
HETATM   14  C   UNL     1      -8.982  10.018  67.734  1.00  0.00    -0.133 A  
HETATM   15  C   UNL     1      -9.342   8.775  67.153  1.00  0.00    -0.150 A  
HETATM   16  C   UNL     1      -9.860   8.801  65.840  1.00  0.00    -0.136 A  
HETATM   17  C   UNL     1      -9.009  11.186  66.929  1.00  0.00    -0.164 A  
HETATM   18  C   UNL     1      -9.477  11.167  65.621  1.00  0.00    -0.252 A  
HETATM   19  C   UNL     1      -9.940   9.977  65.088  1.00  0.00    -0.350 A  
BRANCH  13  20
HETATM   20  C   UNL     1      -9.908   6.368  67.471  1.00  0.00    -0.123 C  
HETATM   21  H1  UNL     1     -11.838   5.750  67.260  1.00  0.00     0.000 HD 
HETATM   22  O   UNL     1      -9.513   5.252  67.141  1.00  0.00    -0.118 OA 
HETATM   23  N   UNL     1     -11.261   6.561  67.481  1.00  0.00    -0.679 N  
HETATM   24  H2  UNL     1     -11.672   7.469  67.696  1.00  0.00     0.000 HD 
ENDBRANCH  13  20
ENDBRANCH   4   5
ENDBRANCH   2   4
TORSDOF 3
ENDMDL
MODEL      155
REMARK 921   NORMALIZED FREE ENERGY PREDICTED BY IDOCK:   -2.12 KCAL/MOL
REMARK 922        TOTAL FREE ENERGY PREDICTED BY IDOCK:   -3.05 KCAL/MOL
REMARK 923 INTER-LIGAND FREE ENERGY PREDICTED BY IDOCK:   -3.68 KCAL/MOL
REMARK 924 INTRA-LIGAND FREE ENERGY PREDICTED BY IDOCK:    0.63 KCAL/MOL
REMARK 927      BINDING AFFINITY PREDICTED BY RF-SCORE:    0.00 PKD
ROOT
HETATM    1  C   UNL     1     -12.321  11.592  68.955  1.00  0.00     0.095 C  
HETATM    2  C   UNL     1     -12.031  10.917  70.261  1.00  0.00    -0.361 C  
HETATM    3  O   UNL     1     -12.850  10.774  71.156  1.00  0.00    -0.367 OA 
ENDROOT
BRANCH   2   4
HETATM    4  O   UNL     1     -10.733  10.521  70.311  1.00  0.00    -0.253 OA 
BRANCH   4   5
HETATM    5  C   UNL     1     -10.353   9.440  69.420  1.00  0.00    -0.212 C  
HETATM    6  C   UNL     1      -8.982   9.764  68.831  1.00  0.00    -0.144 C  
HETATM    7  C   UNL     1      -8.563   8.651  67.919  1.00  0.00    -0.137 A  
HETATM    8  C   UNL     1      -8.604   8.805  66.525  1.00  0.00    -0.126 A  
HETATM    9  C   UNL     1      -8.260   7.741  65.693  1.00  0.00    -0.135 A  
HETATM   10  C   UNL     1      -7.879   6.521  66.241  1.00  0.00    -0.105 A  
HETATM   11  C   UNL     1      -7.834   6.364  67.628  1.00  0.00    -0.106 A  
HETATM   12  C   UNL     1      -8.177   7.427  68.476  1.00  0.00    -0.125 A  
HETATM   13  N   UNL     1      -8.103   7.279  69.898  1.00  0.00    -0.125 N  
HETATM   14  C   UNL     1     -10.458   8.158  70.246  1.00  0.00    -0.219 A  
HETATM   15  C   UNL     1      -9.386   7.289  70.574  1.00  0.00    -0.158 A  
HETATM   16  C   UNL     1      -9.631   6.302  71.555  1.00  0.00    -0.168 A  
HETATM   17  C   UNL     1     -11.743   7.900  70.787  1.00  0.00    -0.230 A  
HETATM   18  C   UNL     1     -11.961   6.886  71.712  1.00  0.00    -0.372 A  
HETATM   19  C   UNL     1     -10.893   6.111  72.127  1.00  0.00    -0.289 A  
BRANCH  13  20
HETATM   20  C   UNL     1      -6.936   6.832  70.538  1.00  0.00    -0.063 C  
HETATM   21  H1  UNL     1      -5.872   6.965  72.271  1.00  0.00     0.000 HD 
HETATM   22  O   UNL     1      -6.119   6.025  70.098  1.00  0.00    -0.024 OA 
HETATM   23  N   UNL     1      -6.720   7.291  71.807  1.00  0.00    -0.051 N  
HETATM   24  H2  UNL     1      -7.373   7.926  72.266  1.00  0.00     0.000 HD 
ENDBRANCH  13  20
ENDBRANCH   4   5
ENDBRANCH   2   4
TORSDOF 3
ENDMDL
MODEL      156
REMARK 921   NORMALIZED FREE ENERGY PREDICTED BY IDOCK:   -2.09 KCAL/MOL
REMARK 922        TOTAL FREE ENERGY PREDICTED BY IDOCK:   -3.02 KCAL/MOL
REMARK 923 INTER-LIGAND FREE ENERGY PREDICTED BY IDOCK:   -4.07 KCAL/MOL
REMARK 924 INTRA-LIGAND FREE ENERGY PREDICTED BY IDOCK:    1.05 KCAL/MOL
REMARK 927      BINDING AFFINITY PREDICTED BY RF-SCORE:    0.00 PKD
ROOT
HETATM    1  C   UNL     1      -5.546  12.044  67.383  1.00  0.00    -0.120 C  
HETATM    2  C   UNL     1      -6.414  12.787  68.352  1.00  0.00    -0.080 C  
HETATM    3  O   UNL     1      -6.712  12.375  69.463  1.00  0.00    -0.080 OA 
ENDROOT
BRANCH   2   4
HETATM    4  O   UNL     1      -6.840  13.956  67.806  1.00  0.00    -0.146 OA 
BRANCH   4   5
HETATM    5  C   UNL     1      -8.098  13.910  67.083  1.00  0.00    -0.083 C  
HETATM    6  C   UNL     1      -8.423  12.449  66.781  1.00  0.00    -0.095 C  
HETATM    7  C   UNL     1      -9.729  12.378  66.047  1.00  0.00    -0.253 A  
HETATM    8  C   UNL     1      -9.770  12.114  64.670  1.00  0.00    -0.059 A  
HETATM    9  C   UNL     1     -10.990  12.103  63.995  1.00  0.00    -0.438 A  
HETATM   10  C   UNL     1     -12.171  12.358  64.685  1.00  0.00    -0.499 A  
HETATM   11  C   UNL     1     -12.134  12.618  66.056  1.00  0.00    -0.429 A  
HETATM   12  C   UNL     1     -10.914  12.631  66.747  1.00  0.00    -0.262 A  
HETATM   13  N   UNL     1     -10.876  12.867  68.158  1.00  0.00    -0.227 N  
HETATM   14  C   UNL     1      -9.105  14.672  67.943  1.00  0.00    -0.189 A  
HETATM   15  C   UNL     1     -10.268  14.127  68.544  1.00  0.00    -0.247 A  
HETATM   16  C   UNL     1     -10.930  14.920  69.507  1.00  0.00    -0.289 A  
HETATM   17  C   UNL     1      -8.759  16.021  68.213  1.00  0.00    -0.177 A  
HETATM   18  C   UNL     1      -9.465  16.791  69.129  1.00  0.00    -0.162 A  
HETATM   19  C   UNL     1     -10.529  16.225  69.807  1.00  0.00    -0.260 A  
BRANCH  13  20
HETATM   20  C   UNL     1     -11.649  12.116  69.057  1.00  0.00    -0.319 C  
HETATM   21  H1  UNL     1     -13.165  10.757  69.163  1.00  0.00     0.000 HD 
HETATM   22  O   UNL     1     -11.519  12.067  70.278  1.00  0.00    -0.144 OA 
HETATM   23  N   UNL     1     -12.603  11.303  68.510  1.00  0.00     0.490 N  
HETATM   24  H2  UNL     1     -12.746  11.246  67.502  1.00  0.00     0.000 HD 
ENDBRANCH  13  20
ENDBRANCH   4   5
ENDBRANCH   2   4
TORSDOF 3
ENDMDL
MODEL      157
REMARK 921   NORMALIZED FREE ENERGY PREDICTED BY IDOCK:   -2.06 KCAL/MOL
REMARK 922        TOTAL FREE ENERGY PREDICTED BY IDOCK:   -2.97 KCAL/MOL
REMARK 923 INTER-LIGAND FREE ENERGY PREDICTED BY IDOCK:   -2.96 KCAL/MOL
REMARK 924 INTRA-LIGAND FREE ENERGY PREDICTED BY IDOCK:   -0.01 KCAL/MOL
REMARK 927      BINDING AFFINITY PREDICTED BY RF-SCORE:    0.00 PKD
ROOT
HETATM    1  C   UNL     1      -9.395   9.098  65.838  1.00  0.00    -0.306 C  
HETATM    2  C   UNL     1      -8.321   8.921  66.868  1.00  0.00    -0.112 C  
HETATM    3  O   UNL     1      -7.184   9.352  66.755  1.00  0.00    -0.082 OA 
ENDROOT
BRANCH   2   4
HETATM    4  O   UNL     1      -8.786   8.194  67.917  1.00  0.00    -0.130 OA 
BRANCH   4   5
HETATM    5  C   UNL     1      -8.900   6.761  67.709  1.00  0.00    -0.118 C  
HETATM    6  C   UNL     1      -7.508   6.210  67.404  1.00  0.00    -0.082 C  
HETATM    7  C   UNL     1      -7.601   4.728  67.202  1.00  0.00    -0.087 A  
HETATM    8  C   UNL     1      -7.519   4.167  65.919  1.00  0.00    -0.081 A  
HETATM    9  C   UNL     1      -7.659   2.790  65.746  1.00  0.00    -0.073 A  
HETATM   10  C   UNL     1      -7.885   1.969  66.845  1.00  0.00    -0.067 A  
HETATM   11  C   UNL     1      -7.964   2.522  68.125  1.00  0.00    -0.063 A  
HETATM   12  C   UNL     1      -7.824   3.905  68.312  1.00  0.00    -0.069 A  
HETATM   13  N   UNL     1      -7.875   4.473  69.625  1.00  0.00    -0.058 N  
HETATM   14  C   UNL     1      -9.596   6.211  68.952  1.00  0.00    -0.144 A  
HETATM   15  C   UNL     1      -9.041   5.297  69.883  1.00  0.00    -0.130 A  
HETATM   16  C   UNL     1      -9.737   5.106  71.097  1.00  0.00    -0.235 A  
HETATM   17  C   UNL     1     -10.880   6.758  69.209  1.00  0.00    -0.303 A  
HETATM   18  C   UNL     1     -11.561   6.509  70.394  1.00  0.00    -0.470 A  
HETATM   19  C   UNL     1     -10.970   5.712  71.357  1.00  0.00    -0.260 A  
BRANCH  13  20
HETATM   20  C   UNL     1      -7.055   4.008  70.666  1.00  0.00    -0.037 C  
HETATM   21  H1  UNL     1      -6.986   2.698  72.226  1.00  0.00     0.000 HD 
HETATM   22  O   UNL     1      -5.894   4.340  70.893  1.00  0.00    -0.012 OA 
HETATM   23  N   UNL     1      -7.582   3.035  71.470  1.00  0.00    -0.043 N  
HETATM   24  H2  UNL     1      -8.521   2.667  71.322  1.00  0.00     0.000 HD 
ENDBRANCH  13  20
ENDBRANCH   4   5
ENDBRANCH   2   4
TORSDOF 3
ENDMDL
MODEL      158
REMARK 921   NORMALIZED FREE ENERGY PREDICTED BY IDOCK:   -2.04 KCAL/MOL
REMARK 922        TOTAL FREE ENERGY PREDICTED BY IDOCK:   -2.95 KCAL/MOL
REMARK 923 INTER-LIGAND FREE ENERGY PREDICTED BY IDOCK:   -3.17 KCAL/MOL
REMARK 924 INTRA-LIGAND FREE ENERGY PREDICTED BY IDOCK:    0.22 KCAL/MOL
REMARK 927      BINDING AFFINITY PREDICTED BY RF-SCORE:    0.00 PKD
ROOT
HETATM    1  C   UNL     1     -12.514  15.943  72.963  1.00  0.00    -0.599 C  
HETATM    2  C   UNL     1     -13.203  15.222  71.844  1.00  0.00    -0.415 C  
HETATM    3  O   UNL     1     -14.371  14.868  71.872  1.00  0.00    -0.475 OA 
ENDROOT
BRANCH   2   4
HETATM    4  O   UNL     1     -12.337  14.999  70.821  1.00  0.00    -0.295 OA 
BRANCH   4   5
HETATM    5  C   UNL     1     -11.670  13.709  70.809  1.00  0.00     0.068 C  
HETATM    6  C   UNL     1     -12.657  12.665  70.291  1.00  0.00    -0.044 C  
HETATM    7  C   UNL     1     -11.982  11.327  70.255  1.00  0.00    -0.466 A  
HETATM    8  C   UNL     1     -12.274  10.345  71.214  1.00  0.00    -0.491 A  
HETATM    9  C   UNL     1     -11.598   9.126  71.196  1.00  0.00    -0.386 A  
HETATM   10  C   UNL     1     -10.630   8.879  70.228  1.00  0.00    -0.246 A  
HETATM   11  C   UNL     1     -10.339   9.853  69.270  1.00  0.00    -0.235 A  
HETATM   12  C   UNL     1     -11.012  11.083  69.277  1.00  0.00    -0.252 A  
HETATM   13  N   UNL     1     -10.738  12.071  68.278  1.00  0.00    -0.215 N  
HETATM   14  C   UNL     1     -10.391  13.905  69.997  1.00  0.00     0.953 A  
HETATM   15  C   UNL     1     -10.075  13.263  68.773  1.00  0.00    -0.073 A  
HETATM   16  C   UNL     1      -8.972  13.762  68.046  1.00  0.00    -0.187 A  
HETATM   17  C   UNL     1      -9.508  14.893  70.503  1.00  0.00     1.144 A  
HETATM   18  C   UNL     1      -8.400  15.326  69.784  1.00  0.00     0.006 A  
HETATM   19  C   UNL     1      -8.154  14.786  68.534  1.00  0.00    -0.146 A  
BRANCH  13  20
HETATM   20  C   UNL     1     -10.798  11.775  66.907  1.00  0.00    -0.271 C  
HETATM   21  H1  UNL     1     -10.357  10.342  65.527  1.00  0.00     0.000 HD 
HETATM   22  O   UNL     1     -11.296  12.473  66.025  1.00  0.00    -0.309 OA 
HETATM   23  N   UNL     1     -10.313  10.557  66.523  1.00  0.00    -0.240 N  
HETATM   24  H2  UNL     1      -9.927   9.896  67.197  1.00  0.00     0.000 HD 
ENDBRANCH  13  20
ENDBRANCH   4   5
ENDBRANCH   2   4
TORSDOF 3
ENDMDL
MODEL      159
REMARK 921   NORMALIZED FREE ENERGY PREDICTED BY IDOCK:   -2.04 KCAL/MOL
REMARK 922        TOTAL FREE ENERGY PREDICTED BY IDOCK:   -2.95 KCAL/MOL
REMARK 923 INTER-LIGAND FREE ENERGY PREDICTED BY IDOCK:   -2.98 KCAL/MOL
REMARK 924 INTRA-LIGAND FREE ENERGY PREDICTED BY IDOCK:    0.03 KCAL/MOL
REMARK 927      BINDING AFFINITY PREDICTED BY RF-SCORE:    0.00 PKD
ROOT
HETATM    1  C   UNL     1      -9.695   5.165  67.494  1.00  0.00    -0.177 C  
HETATM    2  C   UNL     1      -8.434   5.626  66.829  1.00  0.00    -0.111 C  
HETATM    3  O   UNL     1      -8.339   5.881  65.638  1.00  0.00    -0.130 OA 
ENDROOT
BRANCH   2   4
HETATM    4  O   UNL     1      -7.418   5.686  67.730  1.00  0.00    -0.076 OA 
BRANCH   4   5
HETATM    5  C   UNL     1      -7.125   6.995  68.285  1.00  0.00    -0.082 C  
HETATM    6  C   UNL     1      -7.429   8.046  67.219  1.00  0.00    -0.093 C  
HETATM    7  C   UNL     1      -7.149   9.408  67.778  1.00  0.00    -0.082 A  
HETATM    8  C   UNL     1      -6.005  10.125  67.394  1.00  0.00    -0.054 A  
HETATM    9  C   UNL     1      -5.734  11.368  67.964  1.00  0.00    -0.042 A  
HETATM   10  C   UNL     1      -6.594  11.901  68.919  1.00  0.00    -0.087 A  
HETATM   11  C   UNL     1      -7.735  11.191  69.302  1.00  0.00    -0.027 A  
HETATM   12  C   UNL     1      -8.019   9.941  68.736  1.00  0.00    -0.093 A  
HETATM   13  N   UNL     1      -9.203   9.225  69.103  1.00  0.00    -0.146 N  
HETATM   14  C   UNL     1      -7.922   7.088  69.585  1.00  0.00    -0.124 A  
HETATM   15  C   UNL     1      -8.965   8.010  69.859  1.00  0.00    -0.145 A  
HETATM   16  C   UNL     1      -9.751   7.774  71.009  1.00  0.00    -0.174 A  
HETATM   17  C   UNL     1      -7.621   6.086  70.543  1.00  0.00    -0.092 A  
HETATM   18  C   UNL     1      -8.385   5.914  71.691  1.00  0.00    -0.127 A  
HETATM   19  C   UNL     1      -9.476   6.736  71.904  1.00  0.00    -0.146 A  
BRANCH  13  20
HETATM   20  C   UNL     1     -10.476   9.812  69.034  1.00  0.00    -0.213 C  
HETATM   21  H1  UNL     1     -12.128   9.990  67.853  1.00  0.00     0.000 HD 
HETATM   22  O   UNL     1     -11.028  10.478  69.908  1.00  0.00    -0.270 OA 
HETATM   23  N   UNL     1     -11.204   9.563  67.903  1.00  0.00    -0.489 N  
HETATM   24  H2  UNL     1     -10.841   8.980  67.149  1.00  0.00     0.000 HD 
ENDBRANCH  13  20
ENDBRANCH   4   5
ENDBRANCH   2   4
TORSDOF 3
ENDMDL
MODEL      160
REMARK 921   NORMALIZED FREE ENERGY PREDICTED BY IDOCK:   -2.03 KCAL/MOL
REMARK 922        TOTAL FREE ENERGY PREDICTED BY IDOCK:   -2.94 KCAL/MOL
REMARK 923 INTER-LIGAND FREE ENERGY PREDICTED BY IDOCK:   -3.43 KCAL/MOL
REMARK 924 INTRA-LIGAND FREE ENERGY PREDICTED BY IDOCK:    0.48 KCAL/MOL
REMARK 927      BINDING AFFINITY PREDICTED BY RF-SCORE:    0.00 PKD
ROOT
HETATM    1  C   UNL     1      -5.980   8.900  67.132  1.00  0.00    -0.057 C  
HETATM    2  C   UNL     1      -5.878  10.368  66.847  1.00  0.00    -0.052 C  
HETATM    3  O   UNL     1      -5.856  10.850  65.725  1.00  0.00    -0.138 OA 
ENDROOT
BRANCH   2   4
HETATM    4  O   UNL     1      -5.785  11.070  68.007  1.00  0.00    -0.043 OA 
BRANCH   4   5
HETATM    5  C   UNL     1      -7.012  11.229  68.766  1.00  0.00    -0.091 C  
HETATM    6  C   UNL     1      -8.182  10.817  67.875  1.00  0.00    -0.113 C  
HETATM    7  C   UNL     1      -9.460  10.959  68.647  1.00  0.00    -0.192 A  
HETATM    8  C   UNL     1     -10.340  12.022  68.397  1.00  0.00    -0.220 A  
HETATM    9  C   UNL     1     -11.498  12.166  69.160  1.00  0.00    -0.352 A  
HETATM   10  C   UNL     1     -11.783  11.258  70.174  1.00  0.00    -0.429 A  
HETATM   11  C   UNL     1     -10.911  10.197  70.424  1.00  0.00    -0.365 A  
HETATM   12  C   UNL     1      -9.743  10.040  69.663  1.00  0.00    -0.229 A  
HETATM   13  N   UNL     1      -8.862   8.936  69.896  1.00  0.00    -0.143 N  
HETATM   14  C   UNL     1      -6.817  10.429  70.053  1.00  0.00    -0.151 A  
HETATM   15  C   UNL     1      -7.573   9.299  70.454  1.00  0.00    -0.127 A  
HETATM   16  C   UNL     1      -7.080   8.543  71.541  1.00  0.00    -0.096 A  
HETATM   17  C   UNL     1      -5.711  10.832  70.845  1.00  0.00    -0.066 A  
HETATM   18  C   UNL     1      -5.283  10.093  71.940  1.00  0.00    -0.022 A  
HETATM   19  C   UNL     1      -5.946   8.923  72.265  1.00  0.00    -0.066 A  
BRANCH  13  20
HETATM   20  C   UNL     1      -9.322   7.609  69.902  1.00  0.00    -0.150 C  
HETATM   21  H1  UNL     1     -10.298   6.227  71.037  1.00  0.00     0.000 HD 
HETATM   22  O   UNL     1      -9.259   6.805  68.975  1.00  0.00    -0.137 OA 
HETATM   23  N   UNL     1      -9.964   7.191  71.034  1.00  0.00    -0.188 N  
HETATM   24  H2  UNL     1     -10.103   7.809  71.832  1.00  0.00     0.000 HD 
ENDBRANCH  13  20
ENDBRANCH   4   5
ENDBRANCH   2   4
TORSDOF 3
ENDMDL
MODEL      161
REMARK 921   NORMALIZED FREE ENERGY PREDICTED BY IDOCK:   -2.03 KCAL/MOL
REMARK 922        TOTAL FREE ENERGY PREDICTED BY IDOCK:   -2.94 KCAL/MOL
REMARK 923 INTER-LIGAND FREE ENERGY PREDICTED BY IDOCK:   -2.87 KCAL/MOL
REMARK 924 INTRA-LIGAND FREE ENERGY PREDICTED BY IDOCK:   -0.06 KCAL/MOL
REMARK 927      BINDING AFFINITY PREDICTED BY RF-SCORE:    0.00 PKD
ROOT
HETATM    1  C   UNL     1      -8.530   6.288  73.426  1.00  0.00    -0.122 C  
HETATM    2  C   UNL     1      -8.650   5.149  72.459  1.00  0.00    -0.121 C  
HETATM    3  O   UNL     1      -9.281   4.126  72.677  1.00  0.00    -0.111 OA 
ENDROOT
BRANCH   2   4
HETATM    4  O   UNL     1      -7.938   5.408  71.332  1.00  0.00    -0.109 OA 
BRANCH   4   5
HETATM    5  C   UNL     1      -7.948   6.782  70.863  1.00  0.00    -0.106 C  
HETATM    6  C   UNL     1      -6.512   7.190  70.542  1.00  0.00    -0.047 C  
HETATM    7  C   UNL     1      -6.502   8.602  70.040  1.00  0.00    -0.038 A  
HETATM    8  C   UNL     1      -6.052   9.654  70.852  1.00  0.00    -0.086 A  
HETATM    9  C   UNL     1      -6.099  10.967  70.386  1.00  0.00    -0.131 A  
HETATM   10  C   UNL     1      -6.596  11.240  69.116  1.00  0.00    -0.088 A  
HETATM   11  C   UNL     1      -7.043  10.195  68.304  1.00  0.00    -0.075 A  
HETATM   12  C   UNL     1      -7.000   8.870  68.761  1.00  0.00    -0.063 A  
HETATM   13  N   UNL     1      -7.428   7.794  67.919  1.00  0.00    -0.102 N  
HETATM   14  C   UNL     1      -8.946   6.824  69.707  1.00  0.00    -0.144 A  
HETATM   15  C   UNL     1      -8.643   7.132  68.356  1.00  0.00    -0.123 A  
HETATM   16  C   UNL     1      -9.642   6.869  67.393  1.00  0.00    -0.163 A  
HETATM   17  C   UNL     1     -10.265   6.425  70.041  1.00  0.00    -0.221 A  
HETATM   18  C   UNL     1     -11.241   6.224  69.072  1.00  0.00    -0.415 A  
HETATM   19  C   UNL     1     -10.916   6.409  67.740  1.00  0.00    -0.425 A  
BRANCH  13  20
HETATM   20  C   UNL     1      -6.916   7.616  66.624  1.00  0.00    -0.078 C  
HETATM   21  H1  UNL     1      -6.063   6.244  65.382  1.00  0.00     0.000 HD 
HETATM   22  O   UNL     1      -6.909   8.444  65.716  1.00  0.00    -0.065 OA 
HETATM   23  N   UNL     1      -6.435   6.372  66.323  1.00  0.00    -0.042 N  
HETATM   24  H2  UNL     1      -6.448   5.613  67.003  1.00  0.00     0.000 HD 
ENDBRANCH  13  20
ENDBRANCH   4   5
ENDBRANCH   2   4
TORSDOF 3
ENDMDL
MODEL      162
REMARK 921   NORMALIZED FREE ENERGY PREDICTED BY IDOCK:   -2.03 KCAL/MOL
REMARK 922        TOTAL FREE ENERGY PREDICTED BY IDOCK:   -2.94 KCAL/MOL
REMARK 923 INTER-LIGAND FREE ENERGY PREDICTED BY IDOCK:   -3.27 KCAL/MOL
REMARK 924 INTRA-LIGAND FREE ENERGY PREDICTED BY IDOCK:    0.33 KCAL/MOL
REMARK 927      BINDING AFFINITY PREDICTED BY RF-SCORE:    0.00 PKD
ROOT
HETATM    1  C   UNL     1     -10.422   6.927  72.254  1.00  0.00    -0.233 C  
HETATM    2  C   UNL     1     -10.607   6.800  70.772  1.00  0.00    -0.222 C  
HETATM    3  O   UNL     1     -11.586   6.297  70.243  1.00  0.00    -0.395 OA 
ENDROOT
BRANCH   2   4
HETATM    4  O   UNL     1      -9.525   7.293  70.116  1.00  0.00    -0.165 OA 
BRANCH   4   5
HETATM    5  C   UNL     1      -9.118   6.583  68.916  1.00  0.00    -0.131 C  
HETATM    6  C   UNL     1     -10.268   6.642  67.913  1.00  0.00    -0.203 C  
HETATM    7  C   UNL     1      -9.862   5.929  66.659  1.00  0.00    -0.197 A  
HETATM    8  C   UNL     1     -10.371   4.657  66.355  1.00  0.00    -0.264 A  
HETATM    9  C   UNL     1      -9.942   3.987  65.210  1.00  0.00    -0.193 A  
HETATM   10  C   UNL     1      -9.005   4.575  64.367  1.00  0.00    -0.152 A  
HETATM   11  C   UNL     1      -8.498   5.841  64.664  1.00  0.00    -0.061 A  
HETATM   12  C   UNL     1      -8.922   6.526  65.812  1.00  0.00    -0.039 A  
HETATM   13  N   UNL     1      -8.427   7.838  66.104  1.00  0.00    -0.131 N  
HETATM   14  C   UNL     1      -7.797   7.215  68.482  1.00  0.00    -0.122 A  
HETATM   15  C   UNL     1      -7.566   7.913  67.269  1.00  0.00    -0.101 A  
HETATM   16  C   UNL     1      -6.361   8.643  67.162  1.00  0.00    -0.057 A  
HETATM   17  C   UNL     1      -6.759   7.153  69.447  1.00  0.00    -0.049 A  
HETATM   18  C   UNL     1      -5.564   7.842  69.287  1.00  0.00    -0.027 A  
HETATM   19  C   UNL     1      -5.381   8.622  68.159  1.00  0.00    -0.035 A  
BRANCH  13  20
HETATM   20  C   UNL     1      -8.493   8.881  65.167  1.00  0.00    -0.173 C  
HETATM   21  H1  UNL     1      -9.232  10.756  64.863  1.00  0.00     0.000 HD 
HETATM   22  O   UNL     1      -7.945   8.918  64.067  1.00  0.00    -0.136 OA 
HETATM   23  N   UNL     1      -9.185   9.998  65.544  1.00  0.00    -0.182 N  
HETATM   24  H2  UNL     1      -9.629  10.071  66.459  1.00  0.00     0.000 HD 
ENDBRANCH  13  20
ENDBRANCH   4   5
ENDBRANCH   2   4
TORSDOF 3
ENDMDL
MODEL      163
REMARK 921   NORMALIZED FREE ENERGY PREDICTED BY IDOCK:   -1.96 KCAL/MOL
REMARK 922        TOTAL FREE ENERGY PREDICTED BY IDOCK:   -2.85 KCAL/MOL
REMARK 923 INTER-LIGAND FREE ENERGY PREDICTED BY IDOCK:   -2.85 KCAL/MOL
REMARK 924 INTRA-LIGAND FREE ENERGY PREDICTED BY IDOCK:   -0.01 KCAL/MOL
REMARK 927      BINDING AFFINITY PREDICTED BY RF-SCORE:    0.00 PKD
ROOT
HETATM    1  C   UNL     1      -7.384   6.989  74.294  1.00  0.00    -0.109 C  
HETATM    2  C   UNL     1      -6.544   7.475  73.152  1.00  0.00    -0.066 C  
HETATM    3  O   UNL     1      -5.336   7.314  73.070  1.00  0.00    -0.037 OA 
ENDROOT
BRANCH   2   4
HETATM    4  O   UNL     1      -7.312   8.139  72.249  1.00  0.00    -0.089 OA 
BRANCH   4   5
HETATM    5  C   UNL     1      -7.824   7.357  71.138  1.00  0.00    -0.092 C  
HETATM    6  C   UNL     1      -6.892   6.166  70.921  1.00  0.00    -0.063 C  
HETATM    7  C   UNL     1      -7.412   5.335  69.788  1.00  0.00    -0.065 A  
HETATM    8  C   UNL     1      -6.795   5.363  68.528  1.00  0.00    -0.056 A  
HETATM    9  C   UNL     1      -7.324   4.623  67.472  1.00  0.00    -0.074 A  
HETATM   10  C   UNL     1      -8.469   3.857  67.662  1.00  0.00    -0.102 A  
HETATM   11  C   UNL     1      -9.086   3.824  68.915  1.00  0.00    -0.201 A  
HETATM   12  C   UNL     1      -8.562   4.563  69.985  1.00  0.00    -0.076 A  
HETATM   13  N   UNL     1      -9.174   4.508  71.279  1.00  0.00    -0.133 N  
HETATM   14  C   UNL     1      -9.276   7.034  71.486  1.00  0.00    -0.153 A  
HETATM   15  C   UNL     1      -9.815   5.740  71.698  1.00  0.00    -0.167 A  
HETATM   16  C   UNL     1     -11.108   5.661  72.260  1.00  0.00    -0.318 A  
HETATM   17  C   UNL     1     -10.106   8.166  71.694  1.00  0.00    -0.259 A  
HETATM   18  C   UNL     1     -11.395   8.050  72.200  1.00  0.00    -0.387 A  
HETATM   19  C   UNL     1     -11.882   6.796  72.521  1.00  0.00    -0.145 A  
BRANCH  13  20
HETATM   20  C   UNL     1      -9.421   3.289  71.930  1.00  0.00    -0.139 C  
HETATM   21  H1  UNL     1      -8.760   2.077  73.429  1.00  0.00     0.000 HD 
HETATM   22  O   UNL     1     -10.351   2.514  71.713  1.00  0.00    -0.037 OA 
HETATM   23  N   UNL     1      -8.579   2.962  72.956  1.00  0.00    -0.079 N  
HETATM   24  H2  UNL     1      -7.811   3.572  73.235  1.00  0.00     0.000 HD 
ENDBRANCH  13  20
ENDBRANCH   4   5
ENDBRANCH   2   4
TORSDOF 3
ENDMDL
MODEL      164
REMARK 921   NORMALIZED FREE ENERGY PREDICTED BY IDOCK:   -1.96 KCAL/MOL
REMARK 922        TOTAL FREE ENERGY PREDICTED BY IDOCK:   -2.85 KCAL/MOL
REMARK 923 INTER-LIGAND FREE ENERGY PREDICTED BY IDOCK:   -2.32 KCAL/MOL
REMARK 924 INTRA-LIGAND FREE ENERGY PREDICTED BY IDOCK:   -0.53 KCAL/MOL
REMARK 927      BINDING AFFINITY PREDICTED BY RF-SCORE:    0.00 PKD
ROOT
HETATM    1  C   UNL     1     -10.910  17.238  69.272  1.00  0.00     0.075 C  
HETATM    2  C   UNL     1      -9.811  16.382  69.825  1.00  0.00     0.088 C  
HETATM    3  O   UNL     1      -8.629  16.687  69.808  1.00  0.00     0.397 OA 
ENDROOT
BRANCH   2   4
HETATM    4  O   UNL     1     -10.317  15.220  70.314  1.00  0.00    -0.253 OA 
BRANCH   4   5
HETATM    5  C   UNL     1     -11.005  14.365  69.363  1.00  0.00    -0.231 C  
HETATM    6  C   UNL     1      -9.957  13.700  68.473  1.00  0.00    -0.208 C  
HETATM    7  C   UNL     1     -10.646  12.798  67.493  1.00  0.00    -0.240 A  
HETATM    8  C   UNL     1     -10.780  13.165  66.146  1.00  0.00    -0.289 A  
HETATM    9  C   UNL     1     -11.469  12.336  65.261  1.00  0.00    -0.399 A  
HETATM   10  C   UNL     1     -12.029  11.145  65.711  1.00  0.00     1.370 A  
HETATM   11  C   UNL     1     -11.895  10.776  67.051  1.00  0.00     1.015 A  
HETATM   12  C   UNL     1     -11.204  11.600  67.951  1.00  0.00    -0.269 A  
HETATM   13  N   UNL     1     -11.037  11.209  69.319  1.00  0.00    -0.241 N  
HETATM   14  C   UNL     1     -11.885  13.434  70.196  1.00  0.00    -0.342 A  
HETATM   15  C   UNL     1     -11.767  12.023  70.272  1.00  0.00    -0.179 A  
HETATM   16  C   UNL     1     -12.499  11.367  71.287  1.00  0.00    -0.423 A  
HETATM   17  C   UNL     1     -12.835  14.090  71.020  1.00  0.00    -0.410 A  
HETATM   18  C   UNL     1     -13.578  13.406  71.974  1.00  0.00    -0.577 A  
HETATM   19  C   UNL     1     -13.380  12.046  72.134  1.00  0.00    -0.396 A  
BRANCH  13  20
HETATM   20  C   UNL     1     -10.497   9.963  69.674  1.00  0.00    -0.249 C  
HETATM   21  H1  UNL     1      -8.836   9.064  70.440  1.00  0.00     0.000 HD 
HETATM   22  O   UNL     1     -11.067   8.875  69.631  1.00  0.00    -0.175 OA 
HETATM   23  N   UNL     1      -9.228   9.970  70.182  1.00  0.00    -0.384 N  
HETATM   24  H2  UNL     1      -8.701  10.835  70.298  1.00  0.00     0.000 HD 
ENDBRANCH  13  20
ENDBRANCH   4   5
ENDBRANCH   2   4
TORSDOF 3
ENDMDL
MODEL      165
REMARK 921   NORMALIZED FREE ENERGY PREDICTED BY IDOCK:   -1.91 KCAL/MOL
REMARK 922        TOTAL FREE ENERGY PREDICTED BY IDOCK:   -2.80 KCAL/MOL
REMARK 923 INTER-LIGAND FREE ENERGY PREDICTED BY IDOCK:   -2.89 KCAL/MOL
REMARK 924 INTRA-LIGAND FREE ENERGY PREDICTED BY IDOCK:    0.09 KCAL/MOL
REMARK 927      BINDING AFFINITY PREDICTED BY RF-SCORE:    0.00 PKD
ROOT
HETATM    1  C   UNL     1      -9.790   4.661  71.022  1.00  0.00    -0.268 C  
HETATM    2  C   UNL     1      -9.016   3.786  70.083  1.00  0.00    -0.109 C  
HETATM    3  O   UNL     1      -9.514   2.911  69.391  1.00  0.00    -0.150 OA 
ENDROOT
BRANCH   2   4
HETATM    4  O   UNL     1      -7.692   4.086  70.138  1.00  0.00    -0.048 OA 
BRANCH   4   5
HETATM    5  C   UNL     1      -7.198   5.011  69.134  1.00  0.00    -0.057 C  
HETATM    6  C   UNL     1      -7.864   4.672  67.802  1.00  0.00    -0.086 C  
HETATM    7  C   UNL     1      -7.379   5.627  66.753  1.00  0.00    -0.083 A  
HETATM    8  C   UNL     1      -6.452   5.221  65.781  1.00  0.00    -0.036 A  
HETATM    9  C   UNL     1      -5.973   6.138  64.845  1.00  0.00    -0.026 A  
HETATM   10  C   UNL     1      -6.410   7.458  64.875  1.00  0.00    -0.038 A  
HETATM   11  C   UNL     1      -7.334   7.865  65.839  1.00  0.00    -0.076 A  
HETATM   12  C   UNL     1      -7.824   6.952  66.785  1.00  0.00    -0.107 A  
HETATM   13  N   UNL     1      -8.795   7.358  67.756  1.00  0.00    -0.128 N  
HETATM   14  C   UNL     1      -7.453   6.411  69.690  1.00  0.00    -0.085 A  
HETATM   15  C   UNL     1      -8.307   7.390  69.122  1.00  0.00    -0.132 A  
HETATM   16  C   UNL     1      -8.611   8.520  69.913  1.00  0.00    -0.131 A  
HETATM   17  C   UNL     1      -6.829   6.681  70.935  1.00  0.00    -0.063 A  
HETATM   18  C   UNL     1      -7.112   7.829  71.664  1.00  0.00    -0.064 A  
HETATM   19  C   UNL     1      -8.036   8.732  71.169  1.00  0.00    -0.192 A  
BRANCH  13  20
HETATM   20  C   UNL     1      -9.996   7.985  67.387  1.00  0.00    -0.207 C  
HETATM   21  H1  UNL     1     -11.979   7.648  67.064  1.00  0.00     0.000 HD 
HETATM   22  O   UNL     1     -10.162   9.183  67.166  1.00  0.00    -0.220 OA 
HETATM   23  N   UNL     1     -11.108   7.192  67.331  1.00  0.00    -0.583 N  
HETATM   24  H2  UNL     1     -11.068   6.196  67.547  1.00  0.00     0.000 HD 
ENDBRANCH  13  20
ENDBRANCH   4   5
ENDBRANCH   2   4
TORSDOF 3
ENDMDL
MODEL      166
REMARK 921   NORMALIZED FREE ENERGY PREDICTED BY IDOCK:   -1.90 KCAL/MOL
REMARK 922        TOTAL FREE ENERGY PREDICTED BY IDOCK:   -2.79 KCAL/MOL
REMARK 923 INTER-LIGAND FREE ENERGY PREDICTED BY IDOCK:   -2.46 KCAL/MOL
REMARK 924 INTRA-LIGAND FREE ENERGY PREDICTED BY IDOCK:   -0.33 KCAL/MOL
REMARK 927      BINDING AFFINITY PREDICTED BY RF-SCORE:    0.00 PKD
ROOT
HETATM    1  C   UNL     1      -9.199  11.728  67.870  1.00  0.00    -0.181 C  
HETATM    2  C   UNL     1      -7.945  10.988  68.225  1.00  0.00    -0.124 C  
HETATM    3  O   UNL     1      -6.817  11.413  68.027  1.00  0.00    -0.064 OA 
ENDROOT
BRANCH   2   4
HETATM    4  O   UNL     1      -8.247   9.777  68.763  1.00  0.00    -0.101 OA 
BRANCH   4   5
HETATM    5  C   UNL     1      -8.392   8.674  67.831  1.00  0.00    -0.123 C  
HETATM    6  C   UNL     1      -6.998   8.224  67.400  1.00  0.00    -0.075 C  
HETATM    7  C   UNL     1      -7.125   7.073  66.449  1.00  0.00    -0.074 A  
HETATM    8  C   UNL     1      -6.910   7.246  65.073  1.00  0.00    -0.047 A  
HETATM    9  C   UNL     1      -7.083   6.175  64.197  1.00  0.00    -0.053 A  
HETATM   10  C   UNL     1      -7.475   4.932  64.684  1.00  0.00    -0.072 A  
HETATM   11  C   UNL     1      -7.687   4.755  66.052  1.00  0.00    -0.091 A  
HETATM   12  C   UNL     1      -7.515   5.824  66.944  1.00  0.00    -0.084 A  
HETATM   13  N   UNL     1      -7.702   5.639  68.351  1.00  0.00    -0.091 N  
HETATM   14  C   UNL     1      -9.257   7.635  68.542  1.00  0.00    -0.143 A  
HETATM   15  C   UNL     1      -8.857   6.323  68.902  1.00  0.00    -0.124 A  
HETATM   16  C   UNL     1      -9.703   5.605  69.777  1.00  0.00    -0.220 A  
HETATM   17  C   UNL     1     -10.539   8.095  68.939  1.00  0.00    -0.161 A  
HETATM   18  C   UNL     1     -11.369   7.341  69.759  1.00  0.00    -0.098 A  
HETATM   19  C   UNL     1     -10.932   6.109  70.211  1.00  0.00    -0.417 A  
BRANCH  13  20
HETATM   20  C   UNL     1      -7.036   4.627  69.061  1.00  0.00    -0.051 C  
HETATM   21  H1  UNL     1      -5.331   4.216  70.099  1.00  0.00     0.000 HD 
HETATM   22  O   UNL     1      -7.461   3.501  69.311  1.00  0.00    -0.051 OA 
HETATM   23  N   UNL     1      -5.815   4.951  69.584  1.00  0.00    -0.016 N  
HETATM   24  H2  UNL     1      -5.409   5.879  69.465  1.00  0.00     0.000 HD 
ENDBRANCH  13  20
ENDBRANCH   4   5
ENDBRANCH   2   4
TORSDOF 3
ENDMDL
MODEL      167
REMARK 921   NORMALIZED FREE ENERGY PREDICTED BY IDOCK:   -1.81 KCAL/MOL
REMARK 922        TOTAL FREE ENERGY PREDICTED BY IDOCK:   -2.68 KCAL/MOL
REMARK 923 INTER-LIGAND FREE ENERGY PREDICTED BY IDOCK:   -3.03 KCAL/MOL
REMARK 924 INTRA-LIGAND FREE ENERGY PREDICTED BY IDOCK:    0.35 KCAL/MOL
REMARK 927      BINDING AFFINITY PREDICTED BY RF-SCORE:    0.00 PKD
ROOT
HETATM    1  C   UNL     1     -12.213  12.864  64.154  1.00  0.00    -0.487 C  
HETATM    2  C   UNL     1     -11.367  11.734  63.651  1.00  0.00    -0.436 C  
HETATM    3  O   UNL     1     -11.690  10.987  62.740  1.00  0.00     0.740 OA 
ENDROOT
BRANCH   2   4
HETATM    4  O   UNL     1     -10.217  11.647  64.370  1.00  0.00    -0.264 OA 
BRANCH   4   5
HETATM    5  C   UNL     1     -10.314  11.003  65.667  1.00  0.00    -0.251 C  
HETATM    6  C   UNL     1      -9.870   9.550  65.514  1.00  0.00    -0.304 C  
HETATM    7  C   UNL     1      -9.947   8.870  66.847  1.00  0.00    -0.315 A  
HETATM    8  C   UNL     1     -10.978   7.963  67.138  1.00  0.00     0.006 A  
HETATM    9  C   UNL     1     -11.062   7.380  68.401  1.00  0.00     0.129 A  
HETATM   10  C   UNL     1     -10.126   7.698  69.380  1.00  0.00    -0.196 A  
HETATM   11  C   UNL     1      -9.096   8.597  69.094  1.00  0.00    -0.142 A  
HETATM   12  C   UNL     1      -9.000   9.190  67.827  1.00  0.00    -0.127 A  
HETATM   13  N   UNL     1      -7.929  10.088  67.520  1.00  0.00    -0.106 N  
HETATM   14  C   UNL     1      -9.501  11.869  66.628  1.00  0.00    -0.217 A  
HETATM   15  C   UNL     1      -8.334  11.468  67.327  1.00  0.00    -0.154 A  
HETATM   16  C   UNL     1      -7.581  12.480  67.963  1.00  0.00    -0.127 A  
HETATM   17  C   UNL     1      -9.935  13.216  66.731  1.00  0.00    -0.250 A  
HETATM   18  C   UNL     1      -9.195  14.177  67.409  1.00  0.00    -0.204 A  
HETATM   19  C   UNL     1      -7.994  13.815  67.993  1.00  0.00    -0.156 A  
BRANCH  13  20
HETATM   20  C   UNL     1      -6.585   9.735  67.720  1.00  0.00    -0.068 C  
HETATM   21  H1  UNL     1      -5.366   8.484  68.771  1.00  0.00     0.000 HD 
HETATM   22  O   UNL     1      -5.609  10.185  67.123  1.00  0.00    -0.045 OA 
HETATM   23  N   UNL     1      -6.343   8.741  68.626  1.00  0.00    -0.053 N  
HETATM   24  H2  UNL     1      -7.099   8.279  69.131  1.00  0.00     0.000 HD 
ENDBRANCH  13  20
ENDBRANCH   4   5
ENDBRANCH   2   4
TORSDOF 3
ENDMDL
MODEL      168
REMARK 921   NORMALIZED FREE ENERGY PREDICTED BY IDOCK:   -1.60 KCAL/MOL
REMARK 922        TOTAL FREE ENERGY PREDICTED BY IDOCK:   -2.43 KCAL/MOL
REMARK 923 INTER-LIGAND FREE ENERGY PREDICTED BY IDOCK:   -3.29 KCAL/MOL
REMARK 924 INTRA-LIGAND FREE ENERGY PREDICTED BY IDOCK:    0.86 KCAL/MOL
REMARK 927      BINDING AFFINITY PREDICTED BY RF-SCORE:    0.00 PKD
ROOT
HETATM    1  C   UNL     1     -12.824   7.061  71.024  1.00  0.00    -0.258 C  
HETATM    2  C   UNL     1     -11.455   6.647  70.577  1.00  0.00    -0.376 C  
HETATM    3  O   UNL     1     -10.478   6.602  71.308  1.00  0.00    -0.211 OA 
ENDROOT
BRANCH   2   4
HETATM    4  O   UNL     1     -11.458   6.362  69.248  1.00  0.00    -0.381 OA 
BRANCH   4   5
HETATM    5  C   UNL     1     -10.559   7.145  68.419  1.00  0.00    -0.186 C  
HETATM    6  C   UNL     1     -10.209   8.428  69.171  1.00  0.00    -0.217 C  
HETATM    7  C   UNL     1      -9.268   9.244  68.337  1.00  0.00    -0.132 A  
HETATM    8  C   UNL     1      -9.710  10.394  67.666  1.00  0.00    -0.191 A  
HETATM    9  C   UNL     1      -8.832  11.111  66.854  1.00  0.00    -0.157 A  
HETATM   10  C   UNL     1      -7.515  10.687  66.704  1.00  0.00    -0.129 A  
HETATM   11  C   UNL     1      -7.071   9.544  67.373  1.00  0.00    -0.086 A  
HETATM   12  C   UNL     1      -7.944   8.815  68.193  1.00  0.00    -0.106 A  
HETATM   13  N   UNL     1      -7.484   7.661  68.905  1.00  0.00    -0.093 N  
HETATM   14  C   UNL     1      -9.397   6.218  68.069  1.00  0.00    -0.114 A  
HETATM   15  C   UNL     1      -8.041   6.404  68.442  1.00  0.00    -0.113 A  
HETATM   16  C   UNL     1      -7.162   5.316  68.248  1.00  0.00    -0.067 A  
HETATM   17  C   UNL     1      -9.764   5.031  67.384  1.00  0.00    -0.183 A  
HETATM   18  C   UNL     1      -8.860   4.000  67.163  1.00  0.00    -0.128 A  
HETATM   19  C   UNL     1      -7.565   4.127  67.632  1.00  0.00    -0.069 A  
BRANCH  13  20
HETATM   20  C   UNL     1      -6.355   7.705  69.739  1.00  0.00    -0.031 C  
HETATM   21  H1  UNL     1      -4.637   8.738  70.103  1.00  0.00     0.000 HD 
HETATM   22  O   UNL     1      -6.121   6.975  70.700  1.00  0.00    -0.030 OA 
HETATM   23  N   UNL     1      -5.456   8.706  69.497  1.00  0.00    -0.030 N  
HETATM   24  H2  UNL     1      -5.597   9.386  68.750  1.00  0.00     0.000 HD 
ENDBRANCH  13  20
ENDBRANCH   4   5
ENDBRANCH   2   4
TORSDOF 3
ENDMDL
MODEL      169
REMARK 921   NORMALIZED FREE ENERGY PREDICTED BY IDOCK:   -1.59 KCAL/MOL
REMARK 922        TOTAL FREE ENERGY PREDICTED BY IDOCK:   -2.42 KCAL/MOL
REMARK 923 INTER-LIGAND FREE ENERGY PREDICTED BY IDOCK:   -3.37 KCAL/MOL
REMARK 924 INTRA-LIGAND FREE ENERGY PREDICTED BY IDOCK:    0.95 KCAL/MOL
REMARK 927      BINDING AFFINITY PREDICTED BY RF-SCORE:    0.00 PKD
ROOT
HETATM    1  C   UNL     1     -13.013  10.552  71.452  1.00  0.00    -0.542 C  
HETATM    2  C   UNL     1     -11.876   9.637  71.109  1.00  0.00    -0.367 C  
HETATM    3  O   UNL     1     -10.985   9.328  71.884  1.00  0.00    -0.363 OA 
ENDROOT
BRANCH   2   4
HETATM    4  O   UNL     1     -11.969   9.232  69.815  1.00  0.00     0.259 OA 
BRANCH   4   5
HETATM    5  C   UNL     1     -11.140   9.940  68.857  1.00  0.00    -0.140 C  
HETATM    6  C   UNL     1     -10.712  11.266  69.481  1.00  0.00    -0.147 C  
HETATM    7  C   UNL     1      -9.840  12.007  68.512  1.00  0.00    -0.177 A  
HETATM    8  C   UNL     1     -10.328  13.113  67.801  1.00  0.00    -0.230 A  
HETATM    9  C   UNL     1      -9.518  13.757  66.866  1.00  0.00    -0.265 A  
HETATM   10  C   UNL     1      -8.225  13.302  66.632  1.00  0.00     0.306 A  
HETATM   11  C   UNL     1      -7.734  12.203  67.340  1.00  0.00    -0.165 A  
HETATM   12  C   UNL     1      -8.538  11.547  68.283  1.00  0.00    -0.161 A  
HETATM   13  N   UNL     1      -8.028  10.439  69.033  1.00  0.00    -0.121 N  
HETATM   14  C   UNL     1     -10.022   8.972  68.473  1.00  0.00    -0.193 A  
HETATM   15  C   UNL     1      -8.637   9.162  68.712  1.00  0.00    -0.131 A  
HETATM   16  C   UNL     1      -7.789   8.048  68.520  1.00  0.00    -0.115 A  
HETATM   17  C   UNL     1     -10.460   7.746  67.910  1.00  0.00    -0.263 A  
HETATM   18  C   UNL     1      -9.589   6.687  67.685  1.00  0.00    -0.135 A  
HETATM   19  C   UNL     1      -8.256   6.826  68.028  1.00  0.00    -0.114 A  
BRANCH  13  20
HETATM   20  C   UNL     1      -6.830  10.524  69.759  1.00  0.00    -0.138 C  
HETATM   21  H1  UNL     1      -5.215  11.718  70.108  1.00  0.00     0.000 HD 
HETATM   22  O   UNL     1      -6.411   9.714  70.584  1.00  0.00    -0.076 OA 
HETATM   23  N   UNL     1      -6.086  11.656  69.580  1.00  0.00    -0.091 N  
HETATM   24  H2  UNL     1      -6.385  12.401  68.951  1.00  0.00     0.000 HD 
ENDBRANCH  13  20
ENDBRANCH   4   5
ENDBRANCH   2   4
TORSDOF 3
ENDMDL
MODEL      170
REMARK 921   NORMALIZED FREE ENERGY PREDICTED BY IDOCK:   -1.59 KCAL/MOL
REMARK 922        TOTAL FREE ENERGY PREDICTED BY IDOCK:   -2.42 KCAL/MOL
REMARK 923 INTER-LIGAND FREE ENERGY PREDICTED BY IDOCK:   -2.15 KCAL/MOL
REMARK 924 INTRA-LIGAND FREE ENERGY PREDICTED BY IDOCK:   -0.27 KCAL/MOL
REMARK 927      BINDING AFFINITY PREDICTED BY RF-SCORE:    0.00 PKD
ROOT
HETATM    1  C   UNL     1      -9.241   9.739  64.078  1.00  0.00    -0.267 C  
HETATM    2  C   UNL     1      -9.227   9.084  65.426  1.00  0.00    -0.176 C  
HETATM    3  O   UNL     1      -8.958   7.907  65.616  1.00  0.00    -0.133 OA 
ENDROOT
BRANCH   2   4
HETATM    4  O   UNL     1      -9.584   9.974  66.389  1.00  0.00    -0.176 OA 
BRANCH   4   5
HETATM    5  C   UNL     1      -9.234  11.362  66.146  1.00  0.00    -0.210 C  
HETATM    6  C   UNL     1     -10.519  12.187  66.147  1.00  0.00    -0.281 C  
HETATM    7  C   UNL     1     -10.178  13.628  65.914  1.00  0.00    -0.318 A  
HETATM    8  C   UNL     1     -10.422  14.237  64.674  1.00  0.00    -0.325 A  
HETATM    9  C   UNL     1     -10.050  15.563  64.460  1.00  0.00     0.980 A  
HETATM   10  C   UNL     1      -9.432  16.287  65.475  1.00  0.00     0.076 A  
HETATM   11  C   UNL     1      -9.189  15.685  66.711  1.00  0.00    -0.275 A  
HETATM   12  C   UNL     1      -9.559  14.352  66.939  1.00  0.00    -0.256 A  
HETATM   13  N   UNL     1      -9.340  13.741  68.216  1.00  0.00    -0.207 N  
HETATM   14  C   UNL     1      -8.189  11.721  67.200  1.00  0.00    -0.169 A  
HETATM   15  C   UNL     1      -8.335  12.695  68.220  1.00  0.00    -0.165 A  
HETATM   16  C   UNL     1      -7.369  12.703  69.251  1.00  0.00     0.232 A  
HETATM   17  C   UNL     1      -7.016  10.922  67.176  1.00  0.00    -0.098 A  
HETATM   18  C   UNL     1      -6.058  10.992  68.180  1.00  0.00    -0.049 A  
HETATM   19  C   UNL     1      -6.255  11.858  69.241  1.00  0.00    -0.094 A  
BRANCH  13  20
HETATM   20  C   UNL     1      -9.804  14.324  69.406  1.00  0.00     0.231 C  
HETATM   21  H1  UNL     1     -11.288  14.225  70.799  1.00  0.00     0.000 HD 
HETATM   22  O   UNL     1      -9.255  15.213  70.053  1.00  0.00    -0.021 OA 
HETATM   23  N   UNL     1     -10.952  13.802  69.934  1.00  0.00    -0.446 N  
HETATM   24  H2  UNL     1     -11.446  13.030  69.488  1.00  0.00     0.000 HD 
ENDBRANCH  13  20
ENDBRANCH   4   5
ENDBRANCH   2   4
TORSDOF 3
ENDMDL
MODEL      171
REMARK 921   NORMALIZED FREE ENERGY PREDICTED BY IDOCK:   -1.56 KCAL/MOL
REMARK 922        TOTAL FREE ENERGY PREDICTED BY IDOCK:   -2.39 KCAL/MOL
REMARK 923 INTER-LIGAND FREE ENERGY PREDICTED BY IDOCK:   -2.73 KCAL/MOL
REMARK 924 INTRA-LIGAND FREE ENERGY PREDICTED BY IDOCK:    0.34 KCAL/MOL
REMARK 927      BINDING AFFINITY PREDICTED BY RF-SCORE:    0.00 PKD
ROOT
HETATM    1  C   UNL     1      -7.398   6.130  62.411  1.00  0.00    -0.054 C  
HETATM    2  C   UNL     1      -7.924   7.410  62.986  1.00  0.00    -0.105 C  
HETATM    3  O   UNL     1      -7.796   8.504  62.458  1.00  0.00    -0.126 OA 
ENDROOT
BRANCH   2   4
HETATM    4  O   UNL     1      -8.530   7.179  64.179  1.00  0.00     0.095 OA 
BRANCH   4   5
HETATM    5  C   UNL     1      -8.285   8.153  65.227  1.00  0.00    -0.149 C  
HETATM    6  C   UNL     1      -9.511   9.057  65.336  1.00  0.00    -0.163 C  
HETATM    7  C   UNL     1      -9.285  10.062  66.426  1.00  0.00    -0.191 A  
HETATM    8  C   UNL     1      -8.989  11.400  66.125  1.00  0.00    -0.207 A  
HETATM    9  C   UNL     1      -8.731  12.308  67.151  1.00  0.00    -0.193 A  
HETATM   10  C   UNL     1      -8.761  11.889  68.477  1.00  0.00    -0.108 A  
HETATM   11  C   UNL     1      -9.058  10.559  68.781  1.00  0.00    -0.166 A  
HETATM   12  C   UNL     1      -9.320   9.636  67.758  1.00  0.00    -0.127 A  
HETATM   13  N   UNL     1      -9.655   8.279  68.068  1.00  0.00    -0.150 N  
HETATM   14  C   UNL     1      -7.916   7.347  66.472  1.00  0.00    -0.111 A  
HETATM   15  C   UNL     1      -8.648   7.307  67.685  1.00  0.00    -0.126 A  
HETATM   16  C   UNL     1      -8.293   6.311  68.623  1.00  0.00    -0.112 A  
HETATM   17  C   UNL     1      -6.781   6.509  66.325  1.00  0.00    -0.053 A  
HETATM   18  C   UNL     1      -6.428   5.574  67.291  1.00  0.00    -0.048 A  
HETATM   19  C   UNL     1      -7.210   5.449  68.426  1.00  0.00    -0.071 A  
BRANCH  13  20
HETATM   20  C   UNL     1     -10.695   7.955  68.953  1.00  0.00    -0.073 C  
HETATM   21  H1  UNL     1     -11.795   8.675  70.510  1.00  0.00     0.000 HD 
HETATM   22  O   UNL     1     -11.368   6.926  68.953  1.00  0.00    -0.098 OA 
HETATM   23  N   UNL     1     -11.039   8.911  69.868  1.00  0.00    -0.392 N  
HETATM   24  H2  UNL     1     -10.564   9.813  69.905  1.00  0.00     0.000 HD 
ENDBRANCH  13  20
ENDBRANCH   4   5
ENDBRANCH   2   4
TORSDOF 3
ENDMDL
MODEL      172
REMARK 921   NORMALIZED FREE ENERGY PREDICTED BY IDOCK:   -1.35 KCAL/MOL
REMARK 922        TOTAL FREE ENERGY PREDICTED BY IDOCK:   -2.14 KCAL/MOL
REMARK 923 INTER-LIGAND FREE ENERGY PREDICTED BY IDOCK:   -2.79 KCAL/MOL
REMARK 924 INTRA-LIGAND FREE ENERGY PREDICTED BY IDOCK:    0.65 KCAL/MOL
REMARK 927      BINDING AFFINITY PREDICTED BY RF-SCORE:    0.00 PKD
ROOT
HETATM    1  C   UNL     1      -9.466   5.376  69.454  1.00  0.00    -0.181 C  
HETATM    2  C   UNL     1      -8.859   4.776  68.222  1.00  0.00    -0.104 C  
HETATM    3  O   UNL     1      -9.438   3.998  67.480  1.00  0.00    -0.169 OA 
ENDROOT
BRANCH   2   4
HETATM    4  O   UNL     1      -7.575   5.197  68.074  1.00  0.00    -0.081 OA 
BRANCH   4   5
HETATM    5  C   UNL     1      -7.380   6.415  67.308  1.00  0.00    -0.087 C  
HETATM    6  C   UNL     1      -8.509   6.523  66.285  1.00  0.00    -0.129 C  
HETATM    7  C   UNL     1      -8.336   7.784  65.494  1.00  0.00    -0.151 A  
HETATM    8  C   UNL     1      -7.864   7.748  64.173  1.00  0.00    -0.133 A  
HETATM    9  C   UNL     1      -7.660   8.935  63.470  1.00  0.00    -0.118 A  
HETATM   10  C   UNL     1      -7.919  10.159  64.077  1.00  0.00    -0.154 A  
HETATM   11  C   UNL     1      -8.391  10.199  65.391  1.00  0.00    -0.159 A  
HETATM   12  C   UNL     1      -8.601   9.013  66.108  1.00  0.00    -0.135 A  
HETATM   13  N   UNL     1      -9.114   9.048  67.445  1.00  0.00    -0.130 N  
HETATM   14  C   UNL     1      -7.274   7.543  68.333  1.00  0.00    -0.093 A  
HETATM   15  C   UNL     1      -8.169   8.635  68.465  1.00  0.00    -0.122 A  
HETATM   16  C   UNL     1      -8.053   9.429  69.628  1.00  0.00    -0.123 A  
HETATM   17  C   UNL     1      -6.223   7.399  69.274  1.00  0.00    -0.031 A  
HETATM   18  C   UNL     1      -6.107   8.231  70.380  1.00  0.00    -0.032 A  
HETATM   19  C   UNL     1      -7.049   9.225  70.578  1.00  0.00    -0.100 A  
BRANCH  13  20
HETATM   20  C   UNL     1     -10.296   9.734  67.767  1.00  0.00    -0.225 C  
HETATM   21  H1  UNL     1     -11.416  11.368  67.288  1.00  0.00     0.000 HD 
HETATM   22  O   UNL     1     -11.149   9.388  68.582  1.00  0.00    -0.089 OA 
HETATM   23  N   UNL     1     -10.557  10.870  67.054  1.00  0.00    -0.244 N  
HETATM   24  H2  UNL     1      -9.927  11.203  66.324  1.00  0.00     0.000 HD 
ENDBRANCH  13  20
ENDBRANCH   4   5
ENDBRANCH   2   4
TORSDOF 3
ENDMDL
MODEL      173
REMARK 921   NORMALIZED FREE ENERGY PREDICTED BY IDOCK:   -1.15 KCAL/MOL
REMARK 922        TOTAL FREE ENERGY PREDICTED BY IDOCK:   -1.91 KCAL/MOL
REMARK 923 INTER-LIGAND FREE ENERGY PREDICTED BY IDOCK:   -1.75 KCAL/MOL
REMARK 924 INTRA-LIGAND FREE ENERGY PREDICTED BY IDOCK:   -0.16 KCAL/MOL
REMARK 927      BINDING AFFINITY PREDICTED BY RF-SCORE:    0.00 PKD
ROOT
HETATM    1  C   UNL     1     -12.073  16.331  69.479  1.00  0.00     0.220 C  
HETATM    2  C   UNL     1     -11.668  15.073  70.186  1.00  0.00    -0.299 C  
HETATM    3  O   UNL     1     -11.611  14.955  71.400  1.00  0.00    -0.336 OA 
ENDROOT
BRANCH   2   4
HETATM    4  O   UNL     1     -11.351  14.106  69.286  1.00  0.00    -0.257 OA 
BRANCH   4   5
HETATM    5  C   UNL     1     -10.058  14.227  68.637  1.00  0.00    -0.238 C  
HETATM    6  C   UNL     1      -9.046  13.399  69.426  1.00  0.00     1.042 C  
HETATM    7  C   UNL     1      -7.706  13.498  68.762  1.00  0.00    -0.044 A  
HETATM    8  C   UNL     1      -6.684  14.287  69.312  1.00  0.00    -0.123 A  
HETATM    9  C   UNL     1      -5.461  14.407  68.653  1.00  0.00    -0.094 A  
HETATM   10  C   UNL     1      -5.252  13.749  67.446  1.00  0.00     0.312 A  
HETATM   11  C   UNL     1      -6.265  12.961  66.897  1.00  0.00     0.691 A  
HETATM   12  C   UNL     1      -7.499  12.831  67.550  1.00  0.00    -0.154 A  
HETATM   13  N   UNL     1      -8.530  11.999  67.006  1.00  0.00    -0.179 N  
HETATM   14  C   UNL     1     -10.281  13.827  67.179  1.00  0.00    -0.244 A  
HETATM   15  C   UNL     1      -9.693  12.718  66.520  1.00  0.00    -0.255 A  
HETATM   16  C   UNL     1     -10.216  12.363  65.257  1.00  0.00    -0.306 A  
HETATM   17  C   UNL     1     -11.238  14.611  66.485  1.00  0.00    -0.346 A  
HETATM   18  C   UNL     1     -11.694  14.262  65.220  1.00  0.00    -0.357 A  
HETATM   19  C   UNL     1     -11.210  13.112  64.621  1.00  0.00    -0.366 A  
BRANCH  13  20
HETATM   20  C   UNL     1      -8.297  10.657  66.667  1.00  0.00    -0.136 C  
HETATM   21  H1  UNL     1      -7.247   9.452  65.402  1.00  0.00     0.000 HD 
HETATM   22  O   UNL     1      -8.757   9.665  67.230  1.00  0.00    -0.131 OA 
HETATM   23  N   UNL     1      -7.416  10.428  65.647  1.00  0.00    -0.148 N  
HETATM   24  H2  UNL     1      -6.951  11.192  65.158  1.00  0.00     0.000 HD 
ENDBRANCH  13  20
ENDBRANCH   4   5
ENDBRANCH   2   4
TORSDOF 3
ENDMDL
MODEL      174
REMARK 921   NORMALIZED FREE ENERGY PREDICTED BY IDOCK:   -0.59 KCAL/MOL
REMARK 922        TOTAL FREE ENERGY PREDICTED BY IDOCK:   -1.25 KCAL/MOL
REMARK 923 INTER-LIGAND FREE ENERGY PREDICTED BY IDOCK:   -1.61 KCAL/MOL
REMARK 924 INTRA-LIGAND FREE ENERGY PREDICTED BY IDOCK:    0.36 KCAL/MOL
REMARK 927      BINDING AFFINITY PREDICTED BY RF-SCORE:    0.00 PKD
ROOT
HETATM    1  C   UNL     1     -12.361  13.941  63.707  1.00  0.00    -0.260 C  
HETATM    2  C   UNL     1     -11.162  13.162  64.155  1.00  0.00    -0.397 C  
HETATM    3  O   UNL     1     -11.031  11.957  64.005  1.00  0.00    -0.320 OA 
ENDROOT
BRANCH   2   4
HETATM    4  O   UNL     1     -10.269  13.979  64.772  1.00  0.00    -0.416 OA 
BRANCH   4   5
HETATM    5  C   UNL     1      -9.887  13.614  66.124  1.00  0.00    -0.293 C  
HETATM    6  C   UNL     1      -8.588  12.814  66.055  1.00  0.00     0.634 C  
HETATM    7  C   UNL     1      -8.167  12.441  67.445  1.00  0.00    -0.180 A  
HETATM    8  C   UNL     1      -8.322  11.130  67.919  1.00  0.00    -0.129 A  
HETATM    9  C   UNL     1      -7.972  10.814  69.231  1.00  0.00    -0.110 A  
HETATM   10  C   UNL     1      -7.471  11.799  70.076  1.00  0.00     1.260 A  
HETATM   11  C   UNL     1      -7.313  13.105  69.607  1.00  0.00     0.597 A  
HETATM   12  C   UNL     1      -7.660  13.435  68.289  1.00  0.00    -0.135 A  
HETATM   13  N   UNL     1      -7.471  14.766  67.796  1.00  0.00    -0.146 N  
HETATM   14  C   UNL     1      -9.845  14.920  66.916  1.00  0.00    -0.246 A  
HETATM   15  C   UNL     1      -8.698  15.490  67.524  1.00  0.00    -0.172 A  
HETATM   16  C   UNL     1      -8.804  16.821  67.986  1.00  0.00    -0.216 A  
HETATM   17  C   UNL     1     -11.067  15.641  66.944  1.00  0.00    -0.181 A  
HETATM   18  C   UNL     1     -11.148  16.931  67.454  1.00  0.00     0.036 A  
HETATM   19  C   UNL     1     -10.004  17.537  67.941  1.00  0.00    -0.312 A  
BRANCH  13  20
HETATM   20  C   UNL     1      -6.232  15.421  67.887  1.00  0.00    -0.150 C  
HETATM   21  H1  UNL     1      -5.312  17.069  68.655  1.00  0.00     0.000 HD 
HETATM   22  O   UNL     1      -5.154  15.020  67.452  1.00  0.00    -0.332 OA 
HETATM   23  N   UNL     1      -6.211  16.594  68.588  1.00  0.00    -0.138 N  
HETATM   24  H2  UNL     1      -7.052  16.974  69.024  1.00  0.00     0.000 HD 
ENDBRANCH  13  20
ENDBRANCH   4   5
ENDBRANCH   2   4
TORSDOF 3
ENDMDL
MODEL      175
REMARK 921   NORMALIZED FREE ENERGY PREDICTED BY IDOCK:   -0.22 KCAL/MOL
REMARK 922        TOTAL FREE ENERGY PREDICTED BY IDOCK:   -0.81 KCAL/MOL
REMARK 923 INTER-LIGAND FREE ENERGY PREDICTED BY IDOCK:   -0.96 KCAL/MOL
REMARK 924 INTRA-LIGAND FREE ENERGY PREDICTED BY IDOCK:    0.15 KCAL/MOL
REMARK 927      BINDING AFFINITY PREDICTED BY RF-SCORE:    0.00 PKD
ROOT
HETATM    1  C   UNL     1     -12.146   7.244  70.579  1.00  0.00    -0.154 C  
HETATM    2  C   UNL     1     -11.661   7.196  69.162  1.00  0.00     0.370 C  
HETATM    3  O   UNL     1     -11.899   6.285  68.384  1.00  0.00     0.500 OA 
ENDROOT
BRANCH   2   4
HETATM    4  O   UNL     1     -10.902   8.289  68.884  1.00  0.00    -0.116 OA 
BRANCH   4   5
HETATM    5  C   UNL     1      -9.553   8.291  69.420  1.00  0.00    -0.171 C  
HETATM    6  C   UNL     1      -9.151   6.846  69.709  1.00  0.00    -0.144 C  
HETATM    7  C   UNL     1      -7.752   6.825  70.248  1.00  0.00    -0.101 A  
HETATM    8  C   UNL     1      -7.507   6.602  71.612  1.00  0.00    -0.088 A  
HETATM    9  C   UNL     1      -6.203   6.637  72.104  1.00  0.00    -0.042 A  
HETATM   10  C   UNL     1      -5.140   6.897  71.245  1.00  0.00    -0.026 A  
HETATM   11  C   UNL     1      -5.380   7.116  69.886  1.00  0.00    -0.019 A  
HETATM   12  C   UNL     1      -6.687   7.083  69.379  1.00  0.00    -0.049 A  
HETATM   13  N   UNL     1      -6.933   7.276  67.982  1.00  0.00    -0.077 N  
HETATM   14  C   UNL     1      -8.699   9.048  68.404  1.00  0.00    -0.130 A  
HETATM   15  C   UNL     1      -7.621   8.511  67.656  1.00  0.00    -0.098 A  
HETATM   16  C   UNL     1      -7.124   9.289  66.587  1.00  0.00    -0.082 A  
HETATM   17  C   UNL     1      -9.114  10.382  68.151  1.00  0.00    -0.142 A  
HETATM   18  C   UNL     1      -8.567  11.139  67.123  1.00  0.00    -0.139 A  
HETATM   19  C   UNL     1      -7.597  10.576  66.313  1.00  0.00    -0.133 A  
BRANCH  13  20
HETATM   20  C   UNL     1      -6.278   6.515  67.001  1.00  0.00    -0.040 C  
HETATM   21  H1  UNL     1      -6.459   4.852  65.837  1.00  0.00     0.000 HD 
HETATM   22  O   UNL     1      -5.203   6.775  66.464  1.00  0.00    -0.016 OA 
HETATM   23  N   UNL     1      -6.935   5.405  66.549  1.00  0.00    -0.063 N  
HETATM   24  H2  UNL     1      -7.854   5.143  66.906  1.00  0.00     0.000 HD 
ENDBRANCH  13  20
ENDBRANCH   4   5
ENDBRANCH   2   4
TORSDOF 3
ENDMDL
MODEL      176
REMARK 921   NORMALIZED FREE ENERGY PREDICTED BY IDOCK:    0.13 KCAL/MOL
REMARK 922        TOTAL FREE ENERGY PREDICTED BY IDOCK:   -0.40 KCAL/MOL
REMARK 923 INTER-LIGAND FREE ENERGY PREDICTED BY IDOCK:   -2.52 KCAL/MOL
REMARK 924 INTRA-LIGAND FREE ENERGY PREDICTED BY IDOCK:    2.12 KCAL/MOL
REMARK 927      BINDING AFFINITY PREDICTED BY RF-SCORE:    0.00 PKD
ROOT
HETATM    1  C   UNL     1     -11.525   6.315  71.655  1.00  0.00    -0.351 C  
HETATM    2  C   UNL     1     -10.441   7.344  71.761  1.00  0.00    -0.196 C  
HETATM    3  O   UNL     1      -9.770   7.533  72.764  1.00  0.00    -0.158 OA 
ENDROOT
BRANCH   2   4
HETATM    4  O   UNL     1     -10.338   8.044  70.602  1.00  0.00    -0.199 OA 
BRANCH   4   5
HETATM    5  C   UNL     1      -9.336   7.585  69.657  1.00  0.00    -0.153 C  
HETATM    6  C   UNL     1      -9.708   8.110  68.272  1.00  0.00    -0.175 C  
HETATM    7  C   UNL     1      -8.676   7.660  67.282  1.00  0.00    -0.124 A  
HETATM    8  C   UNL     1      -8.948   6.625  66.375  1.00  0.00    -0.161 A  
HETATM    9  C   UNL     1      -7.958   6.185  65.497  1.00  0.00    -0.117 A  
HETATM   10  C   UNL     1      -6.695   6.768  65.521  1.00  0.00    -0.051 A  
HETATM   11  C   UNL     1      -6.421   7.800  66.421  1.00  0.00    -0.047 A  
HETATM   12  C   UNL     1      -7.409   8.252  67.308  1.00  0.00    -0.089 A  
HETATM   13  N   UNL     1      -7.141   9.331  68.211  1.00  0.00    -0.076 N  
HETATM   14  C   UNL     1      -7.990   8.035  70.220  1.00  0.00    -0.104 A  
HETATM   15  C   UNL     1      -7.095   8.950  69.610  1.00  0.00    -0.054 A  
HETATM   16  C   UNL     1      -6.028   9.436  70.399  1.00  0.00    -0.051 A  
HETATM   17  C   UNL     1      -7.688   7.538  71.515  1.00  0.00    -0.085 A  
HETATM   18  C   UNL     1      -6.599   8.000  72.244  1.00  0.00    -0.069 A  
HETATM   19  C   UNL     1      -5.790   8.982  71.699  1.00  0.00    -0.064 A  
BRANCH  13  20
HETATM   20  C   UNL     1      -6.639  10.564  67.765  1.00  0.00    -0.061 C  
HETATM   21  H1  UNL     1      -4.934  11.517  67.185  1.00  0.00     0.000 HD 
HETATM   22  O   UNL     1      -7.290  11.579  67.523  1.00  0.00    -0.098 OA 
HETATM   23  N   UNL     1      -5.298  10.621  67.509  1.00  0.00    -0.040 N  
HETATM   24  H2  UNL     1      -4.692   9.811  67.636  1.00  0.00     0.000 HD 
ENDBRANCH  13  20
ENDBRANCH   4   5
ENDBRANCH   2   4
TORSDOF 3
ENDMDL
MODEL      177
REMARK 921   NORMALIZED FREE ENERGY PREDICTED BY IDOCK:    0.42 KCAL/MOL
REMARK 922        TOTAL FREE ENERGY PREDICTED BY IDOCK:   -0.07 KCAL/MOL
REMARK 923 INTER-LIGAND FREE ENERGY PREDICTED BY IDOCK:   -0.37 KCAL/MOL
REMARK 924 INTRA-LIGAND FREE ENERGY PREDICTED BY IDOCK:    0.30 KCAL/MOL
REMARK 927      BINDING AFFINITY PREDICTED BY RF-SCORE:    0.00 PKD
ROOT
HETATM    1  C   UNL     1     -11.582   8.190  70.363  1.00  0.00    -0.063 C  
HETATM    2  C   UNL     1     -11.332   9.219  69.302  1.00  0.00     0.208 C  
HETATM    3  O   UNL     1     -12.099  10.132  69.037  1.00  0.00     0.042 OA 
ENDROOT
BRANCH   2   4
HETATM    4  O   UNL     1     -10.156   8.970  68.670  1.00  0.00    -0.178 OA 
BRANCH   4   5
HETATM    5  C   UNL     1      -9.990   7.638  68.117  1.00  0.00    -0.175 C  
HETATM    6  C   UNL     1     -10.093   7.734  66.596  1.00  0.00    -0.294 C  
HETATM    7  C   UNL     1      -9.907   6.370  66.004  1.00  0.00     0.153 A  
HETATM    8  C   UNL     1     -10.998   5.649  65.496  1.00  0.00     1.187 A  
HETATM    9  C   UNL     1     -10.814   4.360  64.996  1.00  0.00    -0.097 A  
HETATM   10  C   UNL     1      -9.548   3.784  65.003  1.00  0.00    -0.177 A  
HETATM   11  C   UNL     1      -8.459   4.499  65.505  1.00  0.00    -0.121 A  
HETATM   12  C   UNL     1      -8.631   5.796  66.009  1.00  0.00    -0.139 A  
HETATM   13  N   UNL     1      -7.512   6.545  66.496  1.00  0.00    -0.084 N  
HETATM   14  C   UNL     1      -8.672   7.111  68.681  1.00  0.00    -0.127 A  
HETATM   15  C   UNL     1      -7.517   6.776  67.929  1.00  0.00    -0.098 A  
HETATM   16  C   UNL     1      -6.320   6.554  68.645  1.00  0.00    -0.038 A  
HETATM   17  C   UNL     1      -8.610   7.050  70.097  1.00  0.00    -0.140 A  
HETATM   18  C   UNL     1      -7.426   6.777  70.770  1.00  0.00    -0.083 A  
HETATM   19  C   UNL     1      -6.269   6.567  70.042  1.00  0.00    -0.035 A  
BRANCH  13  20
HETATM   20  C   UNL     1      -6.358   6.742  65.721  1.00  0.00    -0.046 C  
HETATM   21  H1  UNL     1      -4.896   8.094  65.289  1.00  0.00     0.000 HD 
HETATM   22  O   UNL     1      -5.818   5.921  64.983  1.00  0.00    -0.023 OA 
HETATM   23  N   UNL     1      -5.734   7.951  65.852  1.00  0.00    -0.036 N  
HETATM   24  H2  UNL     1      -6.087   8.673  66.480  1.00  0.00     0.000 HD 
ENDBRANCH  13  20
ENDBRANCH   4   5
ENDBRANCH   2   4
TORSDOF 3
ENDMDL
MODEL      178
REMARK 921   NORMALIZED FREE ENERGY PREDICTED BY IDOCK:    0.50 KCAL/MOL
REMARK 922        TOTAL FREE ENERGY PREDICTED BY IDOCK:    0.04 KCAL/MOL
REMARK 923 INTER-LIGAND FREE ENERGY PREDICTED BY IDOCK:   -1.88 KCAL/MOL
REMARK 924 INTRA-LIGAND FREE ENERGY PREDICTED BY IDOCK:    1.92 KCAL/MOL
REMARK 927      BINDING AFFINITY PREDICTED BY RF-SCORE:    0.00 PKD
ROOT
HETATM    1  C   UNL     1      -5.363  12.847  66.773  1.00  0.00     0.956 C  
HETATM    2  C   UNL     1      -6.545  12.364  67.557  1.00  0.00    -0.147 C  
HETATM    3  O   UNL     1      -7.295  11.472  67.191  1.00  0.00    -0.122 OA 
ENDROOT
BRANCH   2   4
HETATM    4  O   UNL     1      -6.673  13.077  68.707  1.00  0.00    -0.089 OA 
BRANCH   4   5
HETATM    5  C   UNL     1      -7.739  14.062  68.740  1.00  0.00    -0.112 C  
HETATM    6  C   UNL     1      -7.349  15.220  67.824  1.00  0.00    -0.181 C  
HETATM    7  C   UNL     1      -8.445  16.242  67.831  1.00  0.00    -0.166 A  
HETATM    8  C   UNL     1      -8.301  17.450  68.530  1.00  0.00    -0.271 A  
HETATM    9  C   UNL     1      -9.352  18.366  68.567  1.00  0.00    -0.354 A  
HETATM   10  C   UNL     1     -10.548  18.084  67.915  1.00  0.00    -0.387 A  
HETATM   11  C   UNL     1     -10.693  16.884  67.216  1.00  0.00    -0.208 A  
HETATM   12  C   UNL     1      -9.644  15.955  67.170  1.00  0.00    -0.218 A  
HETATM   13  N   UNL     1      -9.779  14.737  66.428  1.00  0.00    -0.275 N  
HETATM   14  C   UNL     1      -9.019  13.308  68.382  1.00  0.00    -0.124 A  
HETATM   15  C   UNL     1      -9.830  13.537  67.242  1.00  0.00    -0.237 A  
HETATM   16  C   UNL     1     -10.822  12.575  66.950  1.00  0.00    -0.280 A  
HETATM   17  C   UNL     1      -9.339  12.230  69.248  1.00  0.00     0.803 A  
HETATM   18  C   UNL     1     -10.356  11.331  68.956  1.00  0.00    -0.189 A  
HETATM   19  C   UNL     1     -11.074  11.481  67.783  1.00  0.00    -0.319 A  
BRANCH  13  20
HETATM   20  C   UNL     1     -10.162  14.730  65.078  1.00  0.00    -0.344 C  
HETATM   21  H1  UNL     1     -11.278  13.719  63.705  1.00  0.00     0.000 HD 
HETATM   22  O   UNL     1      -9.872  15.568  64.226  1.00  0.00     0.767 OA 
HETATM   23  N   UNL     1     -10.999  13.723  64.686  1.00  0.00    -0.386 N  
HETATM   24  H2  UNL     1     -11.328  13.014  65.340  1.00  0.00     0.000 HD 
ENDBRANCH  13  20
ENDBRANCH   4   5
ENDBRANCH   2   4
TORSDOF 3
ENDMDL
MODEL      179
REMARK 921   NORMALIZED FREE ENERGY PREDICTED BY IDOCK:    1.76 KCAL/MOL
REMARK 922        TOTAL FREE ENERGY PREDICTED BY IDOCK:    1.51 KCAL/MOL
REMARK 923 INTER-LIGAND FREE ENERGY PREDICTED BY IDOCK:    1.23 KCAL/MOL
REMARK 924 INTRA-LIGAND FREE ENERGY PREDICTED BY IDOCK:    0.29 KCAL/MOL
REMARK 927      BINDING AFFINITY PREDICTED BY RF-SCORE:    0.00 PKD
ROOT
HETATM    1  C   UNL     1     -11.741  15.901  69.750  1.00  0.00    -0.323 C  
HETATM    2  C   UNL     1     -11.202  14.599  70.260  1.00  0.00    -0.151 C  
HETATM    3  O   UNL     1     -10.826  14.413  71.407  1.00  0.00     0.761 OA 
ENDROOT
BRANCH   2   4
HETATM    4  O   UNL     1     -11.166  13.678  69.262  1.00  0.00    -0.255 OA 
BRANCH   4   5
HETATM    5  C   UNL     1      -9.982  13.684  68.421  1.00  0.00    -0.235 C  
HETATM    6  C   UNL     1      -8.778  14.035  69.292  1.00  0.00     0.429 C  
HETATM    7  C   UNL     1      -7.541  14.030  68.445  1.00  0.00    -0.129 A  
HETATM    8  C   UNL     1      -6.930  15.230  68.052  1.00  0.00    -0.144 A  
HETATM    9  C   UNL     1      -5.810  15.206  67.221  1.00  0.00     0.337 A  
HETATM   10  C   UNL     1      -5.298  13.993  66.776  1.00  0.00     2.110 A  
HETATM   11  C   UNL     1      -5.901  12.796  67.167  1.00  0.00     0.121 A  
HETATM   12  C   UNL     1      -7.027  12.806  68.003  1.00  0.00    -0.107 A  
HETATM   13  N   UNL     1      -7.630  11.580  68.431  1.00  0.00    -0.117 N  
HETATM   14  C   UNL     1      -9.953  12.322  67.729  1.00  0.00    -0.200 A  
HETATM   15  C   UNL     1      -8.950  11.331  67.882  1.00  0.00    -0.146 A  
HETATM   16  C   UNL     1      -9.226  10.046  67.365  1.00  0.00    -0.153 A  
HETATM   17  C   UNL     1     -11.095  12.027  66.941  1.00  0.00    -0.352 A  
HETATM   18  C   UNL     1     -11.312  10.765  66.404  1.00  0.00     0.306 A  
HETATM   19  C   UNL     1     -10.393   9.760  66.651  1.00  0.00    -0.276 A  
BRANCH  13  20
HETATM   20  C   UNL     1      -6.885  10.563  69.049  1.00  0.00    -0.068 C  
HETATM   21  H1  UNL     1      -5.338   9.268  68.757  1.00  0.00     0.000 HD 
HETATM   22  O   UNL     1      -7.002  10.163  70.205  1.00  0.00    -0.140 OA 
HETATM   23  N   UNL     1      -5.880  10.006  68.308  1.00  0.00    -0.042 N  
HETATM   24  H2  UNL     1      -5.682  10.313  67.356  1.00  0.00     0.000 HD 
ENDBRANCH  13  20
ENDBRANCH   4   5
ENDBRANCH   2   4
TORSDOF 3
ENDMDL
MODEL      180
REMARK 921   NORMALIZED FREE ENERGY PREDICTED BY IDOCK:    1.76 KCAL/MOL
REMARK 922        TOTAL FREE ENERGY PREDICTED BY IDOCK:    1.52 KCAL/MOL
REMARK 923 INTER-LIGAND FREE ENERGY PREDICTED BY IDOCK:   -3.43 KCAL/MOL
REMARK 924 INTRA-LIGAND FREE ENERGY PREDICTED BY IDOCK:    4.95 KCAL/MOL
REMARK 927      BINDING AFFINITY PREDICTED BY RF-SCORE:    0.00 PKD
ROOT
HETATM    1  C   UNL     1     -10.514  18.231  68.935  1.00  0.00    -0.041 C  
HETATM    2  C   UNL     1      -9.044  18.337  68.659  1.00  0.00    -0.283 C  
HETATM    3  O   UNL     1      -8.555  19.073  67.816  1.00  0.00    -0.288 OA 
ENDROOT
BRANCH   2   4
HETATM    4  O   UNL     1      -8.351  17.481  69.454  1.00  0.00     0.136 OA 
BRANCH   4   5
HETATM    5  C   UNL     1      -7.778  16.316  68.804  1.00  0.00    -0.202 C  
HETATM    6  C   UNL     1      -7.663  15.198  69.838  1.00  0.00     0.041 C  
HETATM    7  C   UNL     1      -7.088  13.979  69.181  1.00  0.00    -0.085 A  
HETATM    8  C   UNL     1      -5.757  13.597  69.408  1.00  0.00    -0.092 A  
HETATM    9  C   UNL     1      -5.225  12.490  68.748  1.00  0.00    -0.055 A  
HETATM   10  C   UNL     1      -6.011  11.763  67.860  1.00  0.00    -0.050 A  
HETATM   11  C   UNL     1      -7.337  12.138  67.634  1.00  0.00    -0.122 A  
HETATM   12  C   UNL     1      -7.884  13.249  68.292  1.00  0.00    -0.143 A  
HETATM   13  N   UNL     1      -9.252  13.619  68.086  1.00  0.00    -0.200 N  
HETATM   14  C   UNL     1      -8.662  16.037  67.589  1.00  0.00    -0.180 A  
HETATM   15  C   UNL     1      -9.439  14.870  67.375  1.00  0.00    -0.206 A  
HETATM   16  C   UNL     1     -10.385  14.905  66.326  1.00  0.00    -0.302 A  
HETATM   17  C   UNL     1      -8.755  17.104  66.659  1.00  0.00    -0.281 A  
HETATM   18  C   UNL     1      -9.662  17.085  65.606  1.00  0.00     0.040 A  
HETATM   19  C   UNL     1     -10.506  15.999  65.463  1.00  0.00    -0.426 A  
BRANCH  13  20
HETATM   20  C   UNL     1     -10.301  12.702  68.255  1.00  0.00    -0.241 C  
HETATM   21  H1  UNL     1     -12.166  12.216  67.590  1.00  0.00     0.000 HD 
HETATM   22  O   UNL     1     -10.308  11.720  68.994  1.00  0.00    -0.167 OA 
HETATM   23  N   UNL     1     -11.404  12.883  67.468  1.00  0.00    -0.290 N  
HETATM   24  H2  UNL     1     -11.461  13.645  66.792  1.00  0.00     0.000 HD 
ENDBRANCH  13  20
ENDBRANCH   4   5
ENDBRANCH   2   4
TORSDOF 3
ENDMDL
MODEL      181
REMARK 921   NORMALIZED FREE ENERGY PREDICTED BY IDOCK:    1.89 KCAL/MOL
REMARK 922        TOTAL FREE ENERGY PREDICTED BY IDOCK:    1.67 KCAL/MOL
REMARK 923 INTER-LIGAND FREE ENERGY PREDICTED BY IDOCK:   -1.95 KCAL/MOL
REMARK 924 INTRA-LIGAND FREE ENERGY PREDICTED BY IDOCK:    3.62 KCAL/MOL
REMARK 927      BINDING AFFINITY PREDICTED BY RF-SCORE:    0.00 PKD
ROOT
HETATM    1  C   UNL     1      -5.358   6.064  69.795  1.00  0.00    -0.012 C  
HETATM    2  C   UNL     1      -6.425   5.214  70.415  1.00  0.00    -0.034 C  
HETATM    3  O   UNL     1      -6.217   4.142  70.963  1.00  0.00    -0.014 OA 
ENDROOT
BRANCH   2   4
HETATM    4  O   UNL     1      -7.644   5.791  70.253  1.00  0.00    -0.085 OA 
BRANCH   4   5
HETATM    5  C   UNL     1      -7.681   7.010  69.465  1.00  0.00    -0.107 C  
HETATM    6  C   UNL     1      -6.245   7.408  69.130  1.00  0.00    -0.031 C  
HETATM    7  C   UNL     1      -6.261   8.657  68.302  1.00  0.00    -0.054 A  
HETATM    8  C   UNL     1      -5.907   9.896  68.857  1.00  0.00    -0.034 A  
HETATM    9  C   UNL     1      -5.978  11.055  68.085  1.00  0.00    -0.049 A  
HETATM   10  C   UNL     1      -6.405  10.987  66.762  1.00  0.00    -0.114 A  
HETATM   11  C   UNL     1      -6.755   9.755  66.206  1.00  0.00    -0.087 A  
HETATM   12  C   UNL     1      -6.687   8.582  66.971  1.00  0.00    -0.062 A  
HETATM   13  N   UNL     1      -7.016   7.314  66.395  1.00  0.00    -0.067 N  
HETATM   14  C   UNL     1      -8.603   6.719  68.283  1.00  0.00    -0.124 A  
HETATM   15  C   UNL     1      -8.228   6.710  66.915  1.00  0.00    -0.113 A  
HETATM   16  C   UNL     1      -9.153   6.169  65.994  1.00  0.00    -0.136 A  
HETATM   17  C   UNL     1      -9.924   6.339  68.636  1.00  0.00    -0.166 A  
HETATM   18  C   UNL     1     -10.827   5.858  67.695  1.00  0.00    -0.331 A  
HETATM   19  C   UNL     1     -10.426   5.736  66.377  1.00  0.00    -0.217 A  
BRANCH  13  20
HETATM   20  C   UNL     1      -6.416   6.860  65.210  1.00  0.00    -0.043 C  
HETATM   21  H1  UNL     1      -6.371   7.142  63.192  1.00  0.00     0.000 HD 
HETATM   22  O   UNL     1      -5.532   6.011  65.112  1.00  0.00    -0.016 OA 
HETATM   23  N   UNL     1      -6.808   7.472  64.053  1.00  0.00    -0.055 N  
HETATM   24  H2  UNL     1      -7.501   8.220  64.049  1.00  0.00     0.000 HD 
ENDBRANCH  13  20
ENDBRANCH   4   5
ENDBRANCH   2   4
TORSDOF 3
ENDMDL
MODEL      182
REMARK 921   NORMALIZED FREE ENERGY PREDICTED BY IDOCK:    2.09 KCAL/MOL
REMARK 922        TOTAL FREE ENERGY PREDICTED BY IDOCK:    1.90 KCAL/MOL
REMARK 923 INTER-LIGAND FREE ENERGY PREDICTED BY IDOCK:    0.91 KCAL/MOL
REMARK 924 INTRA-LIGAND FREE ENERGY PREDICTED BY IDOCK:    0.99 KCAL/MOL
REMARK 927      BINDING AFFINITY PREDICTED BY RF-SCORE:    0.00 PKD
ROOT
HETATM    1  C   UNL     1      -5.776   8.842  68.260  1.00  0.00    -0.039 C  
HETATM    2  C   UNL     1      -5.654  10.013  67.333  1.00  0.00    -0.042 C  
HETATM    3  O   UNL     1      -5.159   9.957  66.218  1.00  0.00    -0.037 OA 
ENDROOT
BRANCH   2   4
HETATM    4  O   UNL     1      -6.143  11.136  67.921  1.00  0.00    -0.049 OA 
BRANCH   4   5
HETATM    5  C   UNL     1      -7.588  11.269  67.959  1.00  0.00    -0.105 C  
HETATM    6  C   UNL     1      -8.123  11.079  66.541  1.00  0.00    -0.161 C  
HETATM    7  C   UNL     1      -9.617  11.197  66.560  1.00  0.00    -0.222 A  
HETATM    8  C   UNL     1     -10.257  12.346  66.073  1.00  0.00    -0.267 A  
HETATM    9  C   UNL     1     -11.645  12.458  66.147  1.00  0.00    -0.452 A  
HETATM   10  C   UNL     1     -12.400  11.433  66.707  1.00  0.00     1.971 A  
HETATM   11  C   UNL     1     -11.766  10.286  67.190  1.00  0.00     1.320 A  
HETATM   12  C   UNL     1     -10.371  10.160  67.121  1.00  0.00    -0.238 A  
HETATM   13  N   UNL     1      -9.721   8.973  67.587  1.00  0.00    -0.150 N  
HETATM   14  C   UNL     1      -8.074  10.275  69.012  1.00  0.00    -0.132 A  
HETATM   15  C   UNL     1      -8.912   9.155  68.778  1.00  0.00    -0.136 A  
HETATM   16  C   UNL     1      -9.040   8.213  69.822  1.00  0.00    -0.148 A  
HETATM   17  C   UNL     1      -7.543  10.475  70.313  1.00  0.00     0.371 A  
HETATM   18  C   UNL     1      -7.732   9.553  71.334  1.00  0.00     0.440 A  
HETATM   19  C   UNL     1      -8.450   8.399  71.076  1.00  0.00    -0.167 A  
BRANCH  13  20
HETATM   20  C   UNL     1     -10.097   7.697  67.139  1.00  0.00    -0.253 C  
HETATM   21  H1  UNL     1      -9.606   6.221  65.823  1.00  0.00     0.000 HD 
HETATM   22  O   UNL     1     -11.005   6.998  67.585  1.00  0.00    -0.233 OA 
HETATM   23  N   UNL     1      -9.333   7.148  66.148  1.00  0.00    -0.360 N  
HETATM   24  H2  UNL     1      -8.530   7.639  65.754  1.00  0.00     0.000 HD 
ENDBRANCH  13  20
ENDBRANCH   4   5
ENDBRANCH   2   4
TORSDOF 3
ENDMDL
MODEL      183
REMARK 921   NORMALIZED FREE ENERGY PREDICTED BY IDOCK:    5.56 KCAL/MOL
REMARK 922        TOTAL FREE ENERGY PREDICTED BY IDOCK:    5.98 KCAL/MOL
REMARK 923 INTER-LIGAND FREE ENERGY PREDICTED BY IDOCK:    5.82 KCAL/MOL
REMARK 924 INTRA-LIGAND FREE ENERGY PREDICTED BY IDOCK:    0.16 KCAL/MOL
REMARK 927      BINDING AFFINITY PREDICTED BY RF-SCORE:    0.00 PKD
ROOT
HETATM    1  C   UNL     1      -6.027   8.847  68.085  1.00  0.00    -0.046 C  
HETATM    2  C   UNL     1      -5.810   9.862  67.005  1.00  0.00    -0.051 C  
HETATM    3  O   UNL     1      -5.131   9.670  66.008  1.00  0.00    -0.034 OA 
ENDROOT
BRANCH   2   4
HETATM    4  O   UNL     1      -6.446  11.023  67.312  1.00  0.00    -0.063 OA 
BRANCH   4   5
HETATM    5  C   UNL     1      -7.708  11.265  66.635  1.00  0.00    -0.148 C  
HETATM    6  C   UNL     1      -7.807  10.308  65.449  1.00  0.00    -0.149 C  
HETATM    7  C   UNL     1      -9.111  10.530  64.746  1.00  0.00    -0.242 A  
HETATM    8  C   UNL     1      -9.163  11.206  63.517  1.00  0.00    -0.195 A  
HETATM    9  C   UNL     1     -10.392  11.449  62.904  1.00  0.00    -0.159 A  
HETATM   10  C   UNL     1     -11.570  11.025  63.509  1.00  0.00     0.677 A  
HETATM   11  C   UNL     1     -11.522  10.350  64.730  1.00  0.00     2.189 A  
HETATM   12  C   UNL     1     -10.293  10.099  65.357  1.00  0.00    -0.106 A  
HETATM   13  N   UNL     1     -10.238   9.379  66.594  1.00  0.00    -0.258 N  
HETATM   14  C   UNL     1      -8.790  11.140  67.707  1.00  0.00    -0.135 A  
HETATM   15  C   UNL     1      -9.826  10.173  67.736  1.00  0.00    -0.163 A  
HETATM   16  C   UNL     1     -10.569  10.056  68.932  1.00  0.00    -0.239 A  
HETATM   17  C   UNL     1      -8.655  12.036  68.799  1.00  0.00     0.076 A  
HETATM   18  C   UNL     1      -9.438  11.926  69.941  1.00  0.00     2.230 A  
HETATM   19  C   UNL     1     -10.371  10.908  70.023  1.00  0.00     0.272 A  
BRANCH  13  20
HETATM   20  C   UNL     1     -10.846   8.123  66.749  1.00  0.00     0.214 C  
HETATM   21  H1  UNL     1     -10.562   6.127  66.452  1.00  0.00     0.000 HD 
HETATM   22  O   UNL     1     -11.935   7.891  67.268  1.00  0.00     2.602 OA 
HETATM   23  N   UNL     1     -10.120   7.039  66.339  1.00  0.00    -0.448 N  
HETATM   24  H2  UNL     1      -9.186   7.138  65.941  1.00  0.00     0.000 HD 
ENDBRANCH  13  20
ENDBRANCH   4   5
ENDBRANCH   2   4
TORSDOF 3
ENDMDL
MODEL      184
REMARK 921   NORMALIZED FREE ENERGY PREDICTED BY IDOCK:    5.74 KCAL/MOL
REMARK 922        TOTAL FREE ENERGY PREDICTED BY IDOCK:    6.19 KCAL/MOL
REMARK 923 INTER-LIGAND FREE ENERGY PREDICTED BY IDOCK:    5.54 KCAL/MOL
REMARK 924 INTRA-LIGAND FREE ENERGY PREDICTED BY IDOCK:    0.65 KCAL/MOL
REMARK 927      BINDING AFFINITY PREDICTED BY RF-SCORE:    0.00 PKD
ROOT
HETATM    1  C   UNL     1      -5.697  16.818  65.093  1.00  0.00     3.469 C  
HETATM    2  C   UNL     1      -6.928  17.488  65.624  1.00  0.00     0.149 C  
HETATM    3  O   UNL     1      -6.938  18.591  66.149  1.00  0.00    -0.225 OA 
ENDROOT
BRANCH   2   4
HETATM    4  O   UNL     1      -8.011  16.683  65.465  1.00  0.00     0.207 OA 
BRANCH   4   5
HETATM    5  C   UNL     1      -8.963  16.657  66.560  1.00  0.00    -0.277 C  
HETATM    6  C   UNL     1      -8.234  16.188  67.817  1.00  0.00    -0.162 C  
HETATM    7  C   UNL     1      -9.197  16.170  68.966  1.00  0.00    -0.252 A  
HETATM    8  C   UNL     1      -9.709  14.961  69.460  1.00  0.00    -0.046 A  
HETATM    9  C   UNL     1     -10.643  14.968  70.495  1.00  0.00    -0.040 A  
HETATM   10  C   UNL     1     -11.074  16.173  71.039  1.00  0.00    -0.178 A  
HETATM   11  C   UNL     1     -10.564  17.379  70.551  1.00  0.00     1.171 A  
HETATM   12  C   UNL     1      -9.623  17.386  69.512  1.00  0.00     0.317 A  
HETATM   13  N   UNL     1      -9.076  18.618  69.030  1.00  0.00    -0.171 N  
HETATM   14  C   UNL     1      -9.584  18.052  66.610  1.00  0.00    -0.315 A  
HETATM   15  C   UNL     1      -9.480  18.973  67.683  1.00  0.00    -0.306 A  
HETATM   16  C   UNL     1      -9.899  20.300  67.440  1.00  0.00    -0.586 A  
HETATM   17  C   UNL     1     -10.239  18.457  65.418  1.00  0.00     0.530 A  
HETATM   18  C   UNL     1     -10.687  19.759  65.231  1.00  0.00     0.032 A  
HETATM   19  C   UNL     1     -10.481  20.693  66.231  1.00  0.00     0.325 A  
BRANCH  13  20
HETATM   20  C   UNL     1      -8.483  19.553  69.894  1.00  0.00     0.844 C  
HETATM   21  H1  UNL     1      -6.691  20.187  70.628  1.00  0.00     0.000 HD 
HETATM   22  O   UNL     1      -9.055  20.446  70.516  1.00  0.00     1.051 OA 
HETATM   23  N   UNL     1      -7.121  19.507  70.002  1.00  0.00     0.004 N  
HETATM   24  H2  UNL     1      -6.564  18.829  69.482  1.00  0.00     0.000 HD 
ENDBRANCH  13  20
ENDBRANCH   4   5
ENDBRANCH   2   4
TORSDOF 3
ENDMDL
MODEL      185
REMARK 921   NORMALIZED FREE ENERGY PREDICTED BY IDOCK:    6.75 KCAL/MOL
REMARK 922        TOTAL FREE ENERGY PREDICTED BY IDOCK:    7.38 KCAL/MOL
REMARK 923 INTER-LIGAND FREE ENERGY PREDICTED BY IDOCK:   -0.29 KCAL/MOL
REMARK 924 INTRA-LIGAND FREE ENERGY PREDICTED BY IDOCK:    7.67 KCAL/MOL
REMARK 927      BINDING AFFINITY PREDICTED BY RF-SCORE:    0.00 PKD
ROOT
HETATM    1  C   UNL     1     -10.077  16.140  70.157  1.00  0.00     0.171 C  
HETATM    2  C   UNL     1     -10.058  15.468  68.817  1.00  0.00    -0.211 C  
HETATM    3  O   UNL     1     -10.228  16.047  67.756  1.00  0.00    -0.249 OA 
ENDROOT
BRANCH   2   4
HETATM    4  O   UNL     1      -9.857  14.132  68.961  1.00  0.00    -0.153 OA 
BRANCH   4   5
HETATM    5  C   UNL     1      -9.161  13.464  67.876  1.00  0.00    -0.216 C  
HETATM    6  C   UNL     1      -9.213  11.958  68.129  1.00  0.00    -0.187 C  
HETATM    7  C   UNL     1      -8.514  11.248  67.010  1.00  0.00    -0.150 A  
HETATM    8  C   UNL     1      -7.238  10.693  67.193  1.00  0.00    -0.097 A  
HETATM    9  C   UNL     1      -6.581  10.081  66.126  1.00  0.00    -0.088 A  
HETATM   10  C   UNL     1      -7.187  10.022  64.875  1.00  0.00    -0.140 A  
HETATM   11  C   UNL     1      -8.458  10.570  64.690  1.00  0.00    -0.141 A  
HETATM   12  C   UNL     1      -9.129  11.188  65.756  1.00  0.00    -0.206 A  
HETATM   13  N   UNL     1     -10.445  11.724  65.577  1.00  0.00    -0.257 N  
HETATM   14  C   UNL     1      -9.813  13.964  66.588  1.00  0.00    -0.288 A  
HETATM   15  C   UNL     1     -10.523  13.171  65.651  1.00  0.00    -0.282 A  
HETATM   16  C   UNL     1     -11.269  13.850  64.662  1.00  0.00    -0.380 A  
HETATM   17  C   UNL     1      -9.757  15.368  66.397  1.00  0.00    -0.311 A  
HETATM   18  C   UNL     1     -10.463  16.001  65.381  1.00  0.00    -0.415 A  
HETATM   19  C   UNL     1     -11.253  15.242  64.535  1.00  0.00    -0.291 A  
BRANCH  13  20
HETATM   20  C   UNL     1     -11.494  10.954  65.049  1.00  0.00     0.655 C  
HETATM   21  H1  UNL     1     -12.863  10.880  63.541  1.00  0.00     0.000 HD 
HETATM   22  O   UNL     1     -11.882   9.862  65.457  1.00  0.00     3.217 OA 
HETATM   23  N   UNL     1     -12.101  11.440  63.925  1.00  0.00    -0.269 N  
HETATM   24  H2  UNL     1     -11.808  12.315  63.492  1.00  0.00     0.000 HD 
ENDBRANCH  13  20
ENDBRANCH   4   5
ENDBRANCH   2   4
TORSDOF 3
ENDMDL
MODEL      186
REMARK 921   NORMALIZED FREE ENERGY PREDICTED BY IDOCK:   12.53 KCAL/MOL
REMARK 922        TOTAL FREE ENERGY PREDICTED BY IDOCK:   14.18 KCAL/MOL
REMARK 923 INTER-LIGAND FREE ENERGY PREDICTED BY IDOCK:   11.00 KCAL/MOL
REMARK 924 INTRA-LIGAND FREE ENERGY PREDICTED BY IDOCK:    3.18 KCAL/MOL
REMARK 927      BINDING AFFINITY PREDICTED BY RF-SCORE:    0.00 PKD
ROOT
HETATM    1  C   UNL     1     -12.212  10.740  64.962  1.00  0.00     3.191 C  
HETATM    2  C   UNL     1     -11.250  11.362  65.927  1.00  0.00    -0.107 C  
HETATM    3  O   UNL     1     -11.580  12.066  66.869  1.00  0.00    -0.432 OA 
ENDROOT
BRANCH   2   4
HETATM    4  O   UNL     1      -9.971  11.054  65.585  1.00  0.00    -0.225 OA 
BRANCH   4   5
HETATM    5  C   UNL     1      -8.925  11.646  66.399  1.00  0.00    -0.198 C  
HETATM    6  C   UNL     1      -8.576  13.012  65.812  1.00  0.00     1.209 C  
HETATM    7  C   UNL     1      -7.508  13.648  66.649  1.00  0.00     1.173 A  
HETATM    8  C   UNL     1      -6.181  13.713  66.199  1.00  0.00     5.178 A  
HETATM    9  C   UNL     1      -5.191  14.262  67.014  1.00  0.00     1.238 A  
HETATM   10  C   UNL     1      -5.516  14.744  68.278  1.00  0.00    -0.117 A  
HETATM   11  C   UNL     1      -6.836  14.684  68.728  1.00  0.00    -0.095 A  
HETATM   12  C   UNL     1      -7.841  14.135  67.918  1.00  0.00    -0.155 A  
HETATM   13  N   UNL     1      -9.201  14.100  68.364  1.00  0.00    -0.202 N  
HETATM   14  C   UNL     1      -9.451  11.632  67.834  1.00  0.00    -0.181 A  
HETATM   15  C   UNL     1      -9.713  12.771  68.636  1.00  0.00    -0.043 A  
HETATM   16  C   UNL     1     -10.435  12.566  69.834  1.00  0.00     1.242 A  
HETATM   17  C   UNL     1      -9.777  10.346  68.337  1.00  0.00    -0.167 A  
HETATM   18  C   UNL     1     -10.442  10.177  69.546  1.00  0.00    -0.263 A  
HETATM   19  C   UNL     1     -10.806  11.294  70.277  1.00  0.00     0.455 A  
BRANCH  13  20
HETATM   20  C   UNL     1      -9.863  15.253  68.815  1.00  0.00    -0.217 C  
HETATM   21  H1  UNL     1      -9.618  16.945  69.925  1.00  0.00     0.000 HD 
HETATM   22  O   UNL     1     -11.007  15.604  68.532  1.00  0.00    -0.271 OA 
HETATM   23  N   UNL     1      -9.137  16.107  69.598  1.00  0.00    -0.020 N  
HETATM   24  H2  UNL     1      -8.165  15.918  69.841  1.00  0.00     0.000 HD 
ENDBRANCH  13  20
ENDBRANCH   4   5
ENDBRANCH   2   4
TORSDOF 3
ENDMDL
MODEL      187
REMARK 921   NORMALIZED FREE ENERGY PREDICTED BY IDOCK:   13.57 KCAL/MOL
REMARK 922        TOTAL FREE ENERGY PREDICTED BY IDOCK:   15.39 KCAL/MOL
REMARK 923 INTER-LIGAND FREE ENERGY PREDICTED BY IDOCK:   14.82 KCAL/MOL
REMARK 924 INTRA-LIGAND FREE ENERGY PREDICTED BY IDOCK:    0.57 KCAL/MOL
REMARK 927      BINDING AFFINITY PREDICTED BY RF-SCORE:    0.00 PKD
ROOT
HETATM    1  C   UNL     1     -12.526   4.373  67.453  1.00  0.00    14.677 C  
HETATM    2  C   UNL     1     -11.641   5.507  67.034  1.00  0.00     1.864 C  
HETATM    3  O   UNL     1     -11.331   5.745  65.877  1.00  0.00     0.559 OA 
ENDROOT
BRANCH   2   4
HETATM    4  O   UNL     1     -11.217   6.203  68.121  1.00  0.00    -0.314 OA 
BRANCH   4   5
HETATM    5  C   UNL     1      -9.790   6.451  68.212  1.00  0.00    -0.128 C  
HETATM    6  C   UNL     1      -9.582   7.843  68.805  1.00  0.00    -0.152 C  
HETATM    7  C   UNL     1      -8.112   8.112  68.924  1.00  0.00    -0.116 A  
HETATM    8  C   UNL     1      -7.463   8.980  68.033  1.00  0.00    -0.084 A  
HETATM    9  C   UNL     1      -6.086   9.177  68.127  1.00  0.00    -0.050 A  
HETATM   10  C   UNL     1      -5.350   8.511  69.102  1.00  0.00    -0.035 A  
HETATM   11  C   UNL     1      -5.993   7.649  69.992  1.00  0.00    -0.023 A  
HETATM   12  C   UNL     1      -7.378   7.442  69.909  1.00  0.00    -0.083 A  
HETATM   13  N   UNL     1      -8.045   6.582  70.839  1.00  0.00    -0.121 N  
HETATM   14  C   UNL     1      -9.210   5.278  69.001  1.00  0.00    -0.152 A  
HETATM   15  C   UNL     1      -8.567   5.358  70.262  1.00  0.00    -0.124 A  
HETATM   16  C   UNL     1      -8.331   4.145  70.946  1.00  0.00    -0.092 A  
HETATM   17  C   UNL     1      -9.437   4.001  68.425  1.00  0.00    -0.211 A  
HETATM   18  C   UNL     1      -9.145   2.825  69.105  1.00  0.00    -0.197 A  
HETATM   19  C   UNL     1      -8.627   2.898  70.386  1.00  0.00    -0.112 A  
BRANCH  13  20
HETATM   20  C   UNL     1      -7.913   6.746  72.227  1.00  0.00    -0.095 C  
HETATM   21  H1  UNL     1      -6.556   6.737  73.747  1.00  0.00     0.000 HD 
HETATM   22  O   UNL     1      -8.801   7.051  73.020  1.00  0.00    -0.123 OA 
HETATM   23  N   UNL     1      -6.652   6.618  72.739  1.00  0.00    -0.063 N  
HETATM   24  H2  UNL     1      -5.849   6.414  72.144  1.00  0.00     0.000 HD 
ENDBRANCH  13  20
ENDBRANCH   4   5
ENDBRANCH   2   4
TORSDOF 3
ENDMDL
MODEL      188
REMARK 921   NORMALIZED FREE ENERGY PREDICTED BY IDOCK:   13.92 KCAL/MOL
REMARK 922        TOTAL FREE ENERGY PREDICTED BY IDOCK:   15.80 KCAL/MOL
REMARK 923 INTER-LIGAND FREE ENERGY PREDICTED BY IDOCK:   15.57 KCAL/MOL
REMARK 924 INTRA-LIGAND FREE ENERGY PREDICTED BY IDOCK:    0.23 KCAL/MOL
REMARK 927      BINDING AFFINITY PREDICTED BY RF-SCORE:    0.00 PKD
ROOT
HETATM    1  C   UNL     1     -12.526   4.373  67.453  1.00  0.00    14.677 C  
HETATM    2  C   UNL     1     -11.641   5.507  67.034  1.00  0.00     1.864 C  
HETATM    3  O   UNL     1     -11.331   5.745  65.877  1.00  0.00     0.559 OA 
ENDROOT
BRANCH   2   4
HETATM    4  O   UNL     1     -11.217   6.203  68.121  1.00  0.00    -0.314 OA 
BRANCH   4   5
HETATM    5  C   UNL     1      -9.790   6.451  68.212  1.00  0.00    -0.128 C  
HETATM    6  C   UNL     1      -9.439   7.589  67.257  1.00  0.00    -0.186 C  
HETATM    7  C   UNL     1      -7.970   7.872  67.348  1.00  0.00    -0.122 A  
HETATM    8  C   UNL     1      -7.091   7.465  66.333  1.00  0.00    -0.074 A  
HETATM    9  C   UNL     1      -5.721   7.691  66.460  1.00  0.00    -0.036 A  
HETATM   10  C   UNL     1      -5.220   8.318  67.596  1.00  0.00    -0.034 A  
HETATM   11  C   UNL     1      -6.092   8.727  68.608  1.00  0.00    -0.045 A  
HETATM   12  C   UNL     1      -7.472   8.507  68.491  1.00  0.00    -0.094 A  
HETATM   13  N   UNL     1      -8.371   8.952  69.512  1.00  0.00    -0.116 N  
HETATM   14  C   UNL     1      -9.499   6.687  69.693  1.00  0.00    -0.144 A  
HETATM   15  C   UNL     1      -9.006   7.887  70.265  1.00  0.00    -0.151 A  
HETATM   16  C   UNL     1      -9.046   7.998  71.673  1.00  0.00    -0.194 A  
HETATM   17  C   UNL     1      -9.852   5.612  70.550  1.00  0.00    -0.249 A  
HETATM   18  C   UNL     1      -9.831   5.738  71.933  1.00  0.00    -0.195 A  
HETATM   19  C   UNL     1      -9.464   6.947  72.495  1.00  0.00    -0.154 A  
BRANCH  13  20
HETATM   20  C   UNL     1      -8.380  10.282  69.963  1.00  0.00     0.100 C  
HETATM   21  H1  UNL     1      -7.232  11.708  70.858  1.00  0.00     0.000 HD 
HETATM   22  O   UNL     1      -9.298  11.092  69.847  1.00  0.00     0.522 OA 
HETATM   23  N   UNL     1      -7.225  10.742  70.531  1.00  0.00     0.086 N  
HETATM   24  H2  UNL     1      -6.399  10.151  70.622  1.00  0.00     0.000 HD 
ENDBRANCH  13  20
ENDBRANCH   4   5
ENDBRANCH   2   4
TORSDOF 3
ENDMDL
MODEL      189
REMARK 921   NORMALIZED FREE ENERGY PREDICTED BY IDOCK:   18.34 KCAL/MOL
REMARK 922        TOTAL FREE ENERGY PREDICTED BY IDOCK:   21.01 KCAL/MOL
REMARK 923 INTER-LIGAND FREE ENERGY PREDICTED BY IDOCK:   18.71 KCAL/MOL
REMARK 924 INTRA-LIGAND FREE ENERGY PREDICTED BY IDOCK:    2.30 KCAL/MOL
REMARK 927      BINDING AFFINITY PREDICTED BY RF-SCORE:    0.00 PKD
ROOT
HETATM    1  C   UNL     1      -5.527   6.052  69.862  1.00  0.00    -0.013 C  
HETATM    2  C   UNL     1      -6.262   5.630  71.098  1.00  0.00    -0.034 C  
HETATM    3  O   UNL     1      -6.384   4.471  71.463  1.00  0.00    -0.017 OA 
ENDROOT
BRANCH   2   4
HETATM    4  O   UNL     1      -6.790   6.712  71.728  1.00  0.00    -0.064 OA 
BRANCH   4   5
HETATM    5  C   UNL     1      -6.603   7.995  71.073  1.00  0.00    -0.038 C  
HETATM    6  C   UNL     1      -6.706   7.782  69.564  1.00  0.00    -0.043 C  
HETATM    7  C   UNL     1      -6.532   9.098  68.869  1.00  0.00    -0.048 A  
HETATM    8  C   UNL     1      -5.337   9.411  68.203  1.00  0.00    -0.037 A  
HETATM    9  C   UNL     1      -5.175  10.661  67.607  1.00  0.00    -0.036 A  
HETATM   10  C   UNL     1      -6.195  11.604  67.674  1.00  0.00    -0.068 A  
HETATM   11  C   UNL     1      -7.387  11.295  68.333  1.00  0.00    -0.097 A  
HETATM   12  C   UNL     1      -7.563  10.041  68.936  1.00  0.00    -0.086 A  
HETATM   13  N   UNL     1      -8.795   9.711  69.587  1.00  0.00    -0.185 N  
HETATM   14  C   UNL     1      -7.625   8.940  71.702  1.00  0.00    -0.058 A  
HETATM   15  C   UNL     1      -8.699   9.574  71.028  1.00  0.00     0.181 A  
HETATM   16  C   UNL     1      -9.683  10.201  71.824  1.00  0.00     3.404 A  
HETATM   17  C   UNL     1      -7.505   9.100  73.107  1.00  0.00     0.789 A  
HETATM   18  C   UNL     1      -8.466   9.769  73.855  1.00  0.00     4.996 A  
HETATM   19  C   UNL     1      -9.578  10.287  73.215  1.00  0.00    10.741 A  
BRANCH  13  20
HETATM   20  C   UNL     1     -10.033   9.839  68.938  1.00  0.00    -0.176 C  
HETATM   21  H1  UNL     1     -11.464  11.190  68.407  1.00  0.00     0.000 HD 
HETATM   22  O   UNL     1     -10.660   8.949  68.367  1.00  0.00    -0.206 OA 
HETATM   23  N   UNL     1     -10.565  11.097  68.879  1.00  0.00    -0.199 N  
HETATM   24  H2  UNL     1     -10.086  11.901  69.284  1.00  0.00     0.000 HD 
ENDBRANCH  13  20
ENDBRANCH   4   5
ENDBRANCH   2   4
TORSDOF 3
ENDMDL
MODEL      190
REMARK 921   NORMALIZED FREE ENERGY PREDICTED BY IDOCK:   28.43 KCAL/MOL
REMARK 922        TOTAL FREE ENERGY PREDICTED BY IDOCK:   32.86 KCAL/MOL
REMARK 923 INTER-LIGAND FREE ENERGY PREDICTED BY IDOCK:   29.58 KCAL/MOL
REMARK 924 INTRA-LIGAND FREE ENERGY PREDICTED BY IDOCK:    3.29 KCAL/MOL
REMARK 927      BINDING AFFINITY PREDICTED BY RF-SCORE:    0.00 PKD
ROOT
HETATM    1  C   UNL     1      -9.205  13.996  68.255  1.00  0.00    -0.200 C  
HETATM    2  C   UNL     1      -9.026  12.815  69.159  1.00  0.00     0.737 C  
HETATM    3  O   UNL     1      -8.539  11.750  68.810  1.00  0.00    -0.101 OA 
ENDROOT
BRANCH   2   4
HETATM    4  O   UNL     1      -9.507  13.091  70.399  1.00  0.00     3.973 OA 
BRANCH   4   5
HETATM    5  C   UNL     1      -8.943  14.250  71.067  1.00  0.00     4.502 C  
HETATM    6  C   UNL     1      -7.431  14.058  71.165  1.00  0.00     3.112 C  
HETATM    7  C   UNL     1      -6.827  15.254  71.837  1.00  0.00     2.421 A  
HETATM    8  C   UNL     1      -6.382  15.187  73.166  1.00  0.00     1.975 A  
HETATM    9  C   UNL     1      -5.870  16.323  73.791  1.00  0.00     4.040 A  
HETATM   10  C   UNL     1      -5.803  17.529  73.100  1.00  0.00     4.572 A  
HETATM   11  C   UNL     1      -6.241  17.599  71.776  1.00  0.00     2.605 A  
HETATM   12  C   UNL     1      -6.757  16.463  71.136  1.00  0.00     2.635 A  
HETATM   13  N   UNL     1      -7.180  16.523  69.769  1.00  0.00     0.100 N  
HETATM   14  C   UNL     1      -9.429  15.466  70.279  1.00  0.00     0.452 A  
HETATM   15  C   UNL     1      -8.610  16.383  69.572  1.00  0.00     0.189 A  
HETATM   16  C   UNL     1      -9.255  17.285  68.698  1.00  0.00    -0.266 A  
HETATM   17  C   UNL     1     -10.839  15.601  70.199  1.00  0.00    -0.356 A  
HETATM   18  C   UNL     1     -11.442  16.536  69.367  1.00  0.00    -0.013 A  
HETATM   19  C   UNL     1     -10.647  17.354  68.584  1.00  0.00    -0.318 A  
BRANCH  13  20
HETATM   20  C   UNL     1      -6.339  17.007  68.754  1.00  0.00    -0.172 C  
HETATM   21  H1  UNL     1      -6.165  18.459  67.335  1.00  0.00     0.000 HD 
HETATM   22  O   UNL     1      -5.225  16.581  68.456  1.00  0.00    -0.106 OA 
HETATM   23  N   UNL     1      -6.776  18.108  68.072  1.00  0.00    -0.202 N  
HETATM   24  H2  UNL     1      -7.667  18.555  68.288  1.00  0.00     0.000 HD 
ENDBRANCH  13  20
ENDBRANCH   4   5
ENDBRANCH   2   4
TORSDOF 3
ENDMDL
MODEL      191
REMARK 921   NORMALIZED FREE ENERGY PREDICTED BY IDOCK:   29.18 KCAL/MOL
REMARK 922        TOTAL FREE ENERGY PREDICTED BY IDOCK:   33.74 KCAL/MOL
REMARK 923 INTER-LIGAND FREE ENERGY PREDICTED BY IDOCK:   32.47 KCAL/MOL
REMARK 924 INTRA-LIGAND FREE ENERGY PREDICTED BY IDOCK:    1.27 KCAL/MOL
REMARK 927      BINDING AFFINITY PREDICTED BY RF-SCORE:    0.00 PKD
ROOT
HETATM    1  C   UNL     1      -5.888  15.957  64.763  1.00  0.00    11.126 C  
HETATM    2  C   UNL     1      -7.077  16.611  65.400  1.00  0.00     2.833 C  
HETATM    3  O   UNL     1      -7.040  17.683  65.984  1.00  0.00    -0.289 OA 
ENDROOT
BRANCH   2   4
HETATM    4  O   UNL     1      -8.179  15.831  65.257  1.00  0.00     1.840 OA 
BRANCH   4   5
HETATM    5  C   UNL     1      -8.839  15.415  66.482  1.00  0.00    -0.312 C  
HETATM    6  C   UNL     1      -7.905  14.468  67.231  1.00  0.00    -0.199 C  
HETATM    7  C   UNL     1      -8.561  14.039  68.509  1.00  0.00    -0.147 A  
HETATM    8  C   UNL     1      -9.105  12.753  68.646  1.00  0.00     0.044 A  
HETATM    9  C   UNL     1      -9.757  12.391  69.824  1.00  0.00     1.978 A  
HETATM   10  C   UNL     1      -9.875  13.305  70.866  1.00  0.00     6.669 A  
HETATM   11  C   UNL     1      -9.333  14.585  70.734  1.00  0.00     2.597 A  
HETATM   12  C   UNL     1      -8.674  14.962  69.555  1.00  0.00     0.022 A  
HETATM   13  N   UNL     1      -8.091  16.263  69.428  1.00  0.00    -0.146 N  
HETATM   14  C   UNL     1      -9.231  16.703  67.205  1.00  0.00    -0.233 A  
HETATM   15  C   UNL     1      -8.749  17.129  68.468  1.00  0.00    -0.261 A  
HETATM   16  C   UNL     1      -9.026  18.460  68.852  1.00  0.00    -0.171 A  
HETATM   17  C   UNL     1     -10.087  17.564  66.470  1.00  0.00    -0.331 A  
HETATM   18  C   UNL     1     -10.382  18.851  66.902  1.00  0.00    -0.469 A  
HETATM   19  C   UNL     1      -9.817  19.314  68.077  1.00  0.00    -0.454 A  
BRANCH  13  20
HETATM   20  C   UNL     1      -7.187  16.766  70.377  1.00  0.00     1.888 C  
HETATM   21  H1  UNL     1      -7.038  17.991  71.999  1.00  0.00     0.000 HD 
HETATM   22  O   UNL     1      -6.000  16.467  70.494  1.00  0.00    -0.071 OA 
HETATM   23  N   UNL     1      -7.695  17.627  71.309  1.00  0.00     6.558 N  
HETATM   24  H2  UNL     1      -8.680  17.890  71.315  1.00  0.00     0.000 HD 
ENDBRANCH  13  20
ENDBRANCH   4   5
ENDBRANCH   2   4
TORSDOF 3
ENDMDL
MODEL      192
REMARK 921   NORMALIZED FREE ENERGY PREDICTED BY IDOCK:   47.74 KCAL/MOL
REMARK 922        TOTAL FREE ENERGY PREDICTED BY IDOCK:   55.56 KCAL/MOL
REMARK 923 INTER-LIGAND FREE ENERGY PREDICTED BY IDOCK:   54.46 KCAL/MOL
REMARK 924 INTRA-LIGAND FREE ENERGY PREDICTED BY IDOCK:    1.11 KCAL/MOL
REMARK 927      BINDING AFFINITY PREDICTED BY RF-SCORE:    0.00 PKD
ROOT
HETATM    1  C   UNL     1     -11.581  14.133  66.848  1.00  0.00    -0.410 C  
HETATM    2  C   UNL     1     -11.843  12.668  66.669  1.00  0.00    -0.380 C  
HETATM    3  O   UNL     1     -12.076  11.896  67.586  1.00  0.00    -0.568 OA 
ENDROOT
BRANCH   2   4
HETATM    4  O   UNL     1     -11.754  12.328  65.357  1.00  0.00    -0.369 OA 
BRANCH   4   5
HETATM    5  C   UNL     1     -10.422  12.058  64.849  1.00  0.00    -0.285 C  
HETATM    6  C   UNL     1      -9.415  12.374  65.953  1.00  0.00    -0.134 C  
HETATM    7  C   UNL     1      -8.031  12.086  65.454  1.00  0.00     1.567 A  
HETATM    8  C   UNL     1      -7.160  13.127  65.100  1.00  0.00     9.041 A  
HETATM    9  C   UNL     1      -5.896  12.838  64.588  1.00  0.00     9.804 A  
HETATM   10  C   UNL     1      -5.495  11.516  64.424  1.00  0.00     1.785 A  
HETATM   11  C   UNL     1      -6.358  10.477  64.777  1.00  0.00    -0.010 A  
HETATM   12  C   UNL     1      -7.632  10.755  65.294  1.00  0.00     0.079 A  
HETATM   13  N   UNL     1      -8.508   9.692  65.686  1.00  0.00    -0.127 N  
HETATM   14  C   UNL     1     -10.450  10.618  64.340  1.00  0.00    -0.247 A  
HETATM   15  C   UNL     1      -9.684   9.539  64.850  1.00  0.00     0.005 A  
HETATM   16  C   UNL     1     -10.034   8.238  64.425  1.00  0.00     3.648 A  
HETATM   17  C   UNL     1     -11.408  10.361  63.326  1.00  0.00     2.617 A  
HETATM   18  C   UNL     1     -11.692   9.072  62.893  1.00  0.00    14.192 A  
HETATM   19  C   UNL     1     -11.031   8.005  63.473  1.00  0.00    14.563 A  
BRANCH  13  20
HETATM   20  C   UNL     1      -8.102   8.689  66.580  1.00  0.00    -0.100 C  
HETATM   21  H1  UNL     1      -7.915   6.671  66.791  1.00  0.00     0.000 HD 
HETATM   22  O   UNL     1      -7.606   8.852  67.693  1.00  0.00    -0.092 OA 
HETATM   23  N   UNL     1      -8.210   7.399  66.141  1.00  0.00    -0.123 N  
HETATM   24  H2  UNL     1      -8.566   7.177  65.212  1.00  0.00     0.000 HD 
ENDBRANCH  13  20
ENDBRANCH   4   5
ENDBRANCH   2   4
TORSDOF 3
ENDMDL
