MODEL        1
REMARK 921   NORMALIZED FREE ENERGY PREDICTED BY IDOCK:   -6.84 KCAL/MOL
REMARK 922        TOTAL FREE ENERGY PREDICTED BY IDOCK:   -7.26 KCAL/MOL
REMARK 923 INTER-LIGAND FREE ENERGY PREDICTED BY IDOCK:   -7.24 KCAL/MOL
REMARK 924 INTRA-LIGAND FREE ENERGY PREDICTED BY IDOCK:   -0.02 KCAL/MOL
REMARK 927      BINDING AFFINITY PREDICTED BY RF-SCORE:    0.00 PKD
ROOT
HETATM    1  N   UNL     1     -14.202   7.940  70.970  1.00  0.00    -0.658 N  
HETATM    2  C   UNL     1     -13.751   8.861  71.878  1.00  0.00    -0.439 C  
HETATM    3  H1  UNL     1     -13.657   7.843  70.113  1.00  0.00     0.000 HD 
HETATM    4  H2  UNL     1     -15.037   7.380  71.142  1.00  0.00     0.000 HD 
HETATM    5  O   UNL     1     -14.407   8.977  72.910  1.00  0.00    -0.550 OA 
ENDROOT
BRANCH   2   6
HETATM    6  N   UNL     1     -12.532   9.489  71.549  1.00  0.00    -0.351 N  
HETATM    7  C   UNL     1     -11.248   8.873  71.848  1.00  0.00    -0.377 A  
HETATM    8  C   UNL     1     -10.053   9.105  71.122  1.00  0.00    -0.384 A  
HETATM    9  C   UNL     1      -9.901   9.939  69.869  1.00  0.00    -0.285 C  
HETATM   10  C   UNL     1      -8.847   8.484  71.540  1.00  0.00    -0.260 A  
HETATM   11  C   UNL     1      -8.803   7.622  72.628  1.00  0.00    -0.198 A  
HETATM   12  C   UNL     1     -11.176  10.387  69.170  1.00  0.00    -0.246 C  
HETATM   13  O   UNL     1     -10.848  10.986  67.912  1.00  0.00    -0.201 OA 
HETATM   14  C   UNL     1     -11.876  11.367  70.069  1.00  0.00    -0.440 A  
HETATM   15  C   UNL     1      -9.964   7.370  73.332  1.00  0.00    -0.365 A  
HETATM   16  C   UNL     1     -11.159   7.990  72.949  1.00  0.00    -0.399 A  
HETATM   17  C   UNL     1     -12.501  10.890  71.231  1.00  0.00    -0.388 A  
HETATM   18  H   UNL     1     -11.645  11.266  67.476  1.00  0.00     0.000 HD 
HETATM   19  C   UNL     1     -13.165  11.799  72.073  1.00  0.00    -0.460 A  
HETATM   20  C   UNL     1     -13.195  13.164  71.781  1.00  0.00    -0.494 A  
HETATM   21  C   UNL     1     -12.558  13.635  70.638  1.00  0.00    -0.366 A  
HETATM   22  C   UNL     1     -11.907  12.744  69.789  1.00  0.00    -0.380 A  
ENDBRANCH   2   6
TORSDOF 1
ENDMDL
MODEL        2
REMARK 921   NORMALIZED FREE ENERGY PREDICTED BY IDOCK:   -6.72 KCAL/MOL
REMARK 922        TOTAL FREE ENERGY PREDICTED BY IDOCK:   -7.14 KCAL/MOL
REMARK 923 INTER-LIGAND FREE ENERGY PREDICTED BY IDOCK:   -7.09 KCAL/MOL
REMARK 924 INTRA-LIGAND FREE ENERGY PREDICTED BY IDOCK:   -0.04 KCAL/MOL
REMARK 927      BINDING AFFINITY PREDICTED BY RF-SCORE:    0.00 PKD
ROOT
HETATM    1  N   UNL     1     -10.455  11.136  69.769  1.00  0.00    -0.437 N  
HETATM    2  C   UNL     1     -11.640  11.705  69.385  1.00  0.00    -0.327 C  
HETATM    3  H1  UNL     1      -9.682  11.775  69.952  1.00  0.00     0.000 HD 
HETATM    4  H2  UNL     1     -10.351  10.125  69.867  1.00  0.00     0.000 HD 
HETATM    5  O   UNL     1     -12.571  10.935  69.165  1.00  0.00    -0.361 OA 
ENDROOT
BRANCH   2   6
HETATM    6  N   UNL     1     -11.663  13.115  69.388  1.00  0.00    -0.312 N  
HETATM    7  C   UNL     1     -12.170  13.871  70.523  1.00  0.00    -0.373 A  
HETATM    8  C   UNL     1     -11.759  15.183  70.868  1.00  0.00    -0.378 A  
HETATM    9  C   UNL     1     -10.671  15.997  70.202  1.00  0.00    -0.316 C  
HETATM   10  C   UNL     1     -12.363  15.840  71.971  1.00  0.00    -0.534 A  
HETATM   11  C   UNL     1     -13.332  15.224  72.754  1.00  0.00    -0.603 A  
HETATM   12  C   UNL     1      -9.761  15.273  69.221  1.00  0.00    -0.254 C  
HETATM   13  O   UNL     1      -8.682  16.135  68.844  1.00  0.00    -0.223 OA 
HETATM   14  C   UNL     1     -10.584  14.883  68.026  1.00  0.00    -0.248 A  
HETATM   15  C   UNL     1     -13.726  13.937  72.442  1.00  0.00    -0.678 A  
HETATM   16  C   UNL     1     -13.158  13.281  71.344  1.00  0.00    -0.361 A  
HETATM   17  C   UNL     1     -11.517  13.845  68.159  1.00  0.00    -0.312 A  
HETATM   18  H   UNL     1      -8.113  15.683  68.231  1.00  0.00     0.000 HD 
HETATM   19  C   UNL     1     -12.285  13.470  67.043  1.00  0.00    -0.351 A  
HETATM   20  C   UNL     1     -12.147  14.124  65.818  1.00  0.00    -0.433 A  
HETATM   21  C   UNL     1     -11.235  15.166  65.696  1.00  0.00    -0.296 A  
HETATM   22  C   UNL     1     -10.458  15.540  66.789  1.00  0.00    -0.295 A  
ENDBRANCH   2   6
TORSDOF 1
ENDMDL
MODEL        3
REMARK 921   NORMALIZED FREE ENERGY PREDICTED BY IDOCK:   -6.72 KCAL/MOL
REMARK 922        TOTAL FREE ENERGY PREDICTED BY IDOCK:   -7.13 KCAL/MOL
REMARK 923 INTER-LIGAND FREE ENERGY PREDICTED BY IDOCK:   -7.09 KCAL/MOL
REMARK 924 INTRA-LIGAND FREE ENERGY PREDICTED BY IDOCK:   -0.04 KCAL/MOL
REMARK 927      BINDING AFFINITY PREDICTED BY RF-SCORE:    0.00 PKD
ROOT
HETATM    1  N   UNL     1      -8.801  15.265  69.686  1.00  0.00    -0.420 N  
HETATM    2  C   UNL     1     -10.070  15.703  69.412  1.00  0.00    -0.269 C  
HETATM    3  H1  UNL     1      -8.674  14.256  69.757  1.00  0.00     0.000 HD 
HETATM    4  H2  UNL     1      -8.024  15.915  69.812  1.00  0.00     0.000 HD 
HETATM    5  O   UNL     1     -10.223  16.918  69.327  1.00  0.00    -0.290 OA 
ENDROOT
BRANCH   2   6
HETATM    6  N   UNL     1     -11.019  14.688  69.167  1.00  0.00    -0.254 N  
HETATM    7  C   UNL     1     -11.286  14.198  67.823  1.00  0.00    -0.306 A  
HETATM    8  C   UNL     1     -11.758  12.896  67.518  1.00  0.00    -0.422 A  
HETATM    9  C   UNL     1     -11.977  11.760  68.492  1.00  0.00    -0.279 C  
HETATM   10  C   UNL     1     -12.030  12.548  66.170  1.00  0.00    -0.432 A  
HETATM   11  C   UNL     1     -11.819  13.437  65.123  1.00  0.00    -0.375 A  
HETATM   12  C   UNL     1     -11.424  11.931  69.899  1.00  0.00    -0.186 C  
HETATM   13  O   UNL     1     -11.545  10.698  70.616  1.00  0.00    -0.326 OA 
HETATM   14  C   UNL     1     -12.203  13.025  70.573  1.00  0.00    -0.392 A  
HETATM   15  C   UNL     1     -11.339  14.701  65.404  1.00  0.00    -0.344 A  
HETATM   16  C   UNL     1     -11.085  15.071  66.730  1.00  0.00    -0.326 A  
HETATM   17  C   UNL     1     -11.995  14.352  70.167  1.00  0.00    -0.322 A  
HETATM   18  H   UNL     1     -11.200  10.805  71.494  1.00  0.00     0.000 HD 
HETATM   19  C   UNL     1     -12.714  15.381  70.797  1.00  0.00    -0.516 A  
HETATM   20  C   UNL     1     -13.642  15.103  71.803  1.00  0.00    -0.553 A  
HETATM   21  C   UNL     1     -13.861  13.785  72.189  1.00  0.00    -0.649 A  
HETATM   22  C   UNL     1     -13.146  12.756  71.582  1.00  0.00    -0.428 A  
ENDBRANCH   2   6
TORSDOF 1
ENDMDL
MODEL        4
REMARK 921   NORMALIZED FREE ENERGY PREDICTED BY IDOCK:   -6.51 KCAL/MOL
REMARK 922        TOTAL FREE ENERGY PREDICTED BY IDOCK:   -6.92 KCAL/MOL
REMARK 923 INTER-LIGAND FREE ENERGY PREDICTED BY IDOCK:   -6.89 KCAL/MOL
REMARK 924 INTRA-LIGAND FREE ENERGY PREDICTED BY IDOCK:   -0.02 KCAL/MOL
REMARK 927      BINDING AFFINITY PREDICTED BY RF-SCORE:    0.00 PKD
ROOT
HETATM    1  N   UNL     1      -9.158  15.194  69.779  1.00  0.00    -0.455 N  
HETATM    2  C   UNL     1     -10.436  15.446  69.355  1.00  0.00    -0.257 C  
HETATM    3  H1  UNL     1      -8.905  14.213  69.901  1.00  0.00     0.000 HD 
HETATM    4  H2  UNL     1      -8.495  15.947  69.963  1.00  0.00     0.000 HD 
HETATM    5  O   UNL     1     -10.740  16.627  69.209  1.00  0.00    -0.319 OA 
ENDROOT
BRANCH   2   6
HETATM    6  N   UNL     1     -11.207  14.306  69.048  1.00  0.00    -0.254 N  
HETATM    7  C   UNL     1     -11.470  13.907  67.673  1.00  0.00    -0.324 A  
HETATM    8  C   UNL     1     -11.726  12.577  67.254  1.00  0.00    -0.431 A  
HETATM    9  C   UNL     1     -11.680  11.331  68.112  1.00  0.00    -0.323 C  
HETATM   10  C   UNL     1     -12.020  12.316  65.891  1.00  0.00    -0.358 A  
HETATM   11  C   UNL     1     -12.034  13.325  64.935  1.00  0.00    -0.417 A  
HETATM   12  C   UNL     1     -11.077  11.464  69.502  1.00  0.00    -0.211 C  
HETATM   13  O   UNL     1     -10.934  10.166  70.088  1.00  0.00    -0.273 OA 
HETATM   14  C   UNL     1     -11.990  12.329  70.323  1.00  0.00    -0.373 A  
HETATM   15  C   UNL     1     -11.766  14.622  65.326  1.00  0.00    -0.346 A  
HETATM   16  C   UNL     1     -11.496  14.903  66.671  1.00  0.00    -0.297 A  
HETATM   17  C   UNL     1     -12.043  13.704  70.051  1.00  0.00    -0.348 A  
HETATM   18  H   UNL     1     -10.557  10.248  70.957  1.00  0.00     0.000 HD 
HETATM   19  C   UNL     1     -12.889  14.522  70.819  1.00  0.00    -0.423 A  
HETATM   20  C   UNL     1     -13.687  13.985  71.831  1.00  0.00    -0.532 A  
HETATM   21  C   UNL     1     -13.647  12.619  72.085  1.00  0.00    -0.510 A  
HETATM   22  C   UNL     1     -12.804  11.799  71.340  1.00  0.00    -0.440 A  
ENDBRANCH   2   6
TORSDOF 1
ENDMDL
MODEL        5
REMARK 921   NORMALIZED FREE ENERGY PREDICTED BY IDOCK:   -6.50 KCAL/MOL
REMARK 922        TOTAL FREE ENERGY PREDICTED BY IDOCK:   -6.90 KCAL/MOL
REMARK 923 INTER-LIGAND FREE ENERGY PREDICTED BY IDOCK:   -6.86 KCAL/MOL
REMARK 924 INTRA-LIGAND FREE ENERGY PREDICTED BY IDOCK:   -0.04 KCAL/MOL
REMARK 927      BINDING AFFINITY PREDICTED BY RF-SCORE:    0.00 PKD
ROOT
HETATM    1  N   UNL     1     -13.286  14.215  65.568  1.00  0.00    -0.638 N  
HETATM    2  C   UNL     1     -12.134  13.604  65.986  1.00  0.00    -0.441 C  
HETATM    3  H1  UNL     1     -13.700  14.892  66.209  1.00  0.00     0.000 HD 
HETATM    4  H2  UNL     1     -13.707  14.006  64.663  1.00  0.00     0.000 HD 
HETATM    5  O   UNL     1     -11.635  12.790  65.214  1.00  0.00    -0.316 OA 
ENDROOT
BRANCH   2   6
HETATM    6  N   UNL     1     -11.616  14.066  67.215  1.00  0.00    -0.348 N  
HETATM    7  C   UNL     1     -10.632  15.136  67.278  1.00  0.00    -0.286 A  
HETATM    8  C   UNL     1     -10.466  16.015  68.378  1.00  0.00    -0.263 A  
HETATM    9  C   UNL     1     -11.318  16.077  69.626  1.00  0.00    -0.332 C  
HETATM   10  C   UNL     1      -9.436  16.991  68.345  1.00  0.00    -0.269 A  
HETATM   11  C   UNL     1      -8.596  17.137  67.248  1.00  0.00    -0.214 A  
HETATM   12  C   UNL     1     -12.622  15.293  69.620  1.00  0.00    -0.052 C  
HETATM   13  O   UNL     1     -13.384  15.621  70.786  1.00  0.00    -0.727 OA 
HETATM   14  C   UNL     1     -12.283  13.830  69.591  1.00  0.00    -0.359 A  
HETATM   15  C   UNL     1      -8.761  16.302  66.161  1.00  0.00    -0.353 A  
HETATM   16  C   UNL     1      -9.757  15.318  66.183  1.00  0.00    -0.343 A  
HETATM   17  C   UNL     1     -11.770  13.278  68.407  1.00  0.00    -0.354 A  
HETATM   18  H   UNL     1     -14.199  15.132  70.782  1.00  0.00     0.000 HD 
HETATM   19  C   UNL     1     -11.457  11.909  68.370  1.00  0.00    -0.357 A  
HETATM   20  C   UNL     1     -11.630  11.098  69.493  1.00  0.00    -0.392 A  
HETATM   21  C   UNL     1     -12.120  11.652  70.670  1.00  0.00    -0.432 A  
HETATM   22  C   UNL     1     -12.445  13.005  70.718  1.00  0.00    -0.384 A  
ENDBRANCH   2   6
TORSDOF 1
ENDMDL
MODEL        6
REMARK 921   NORMALIZED FREE ENERGY PREDICTED BY IDOCK:   -6.49 KCAL/MOL
REMARK 922        TOTAL FREE ENERGY PREDICTED BY IDOCK:   -6.89 KCAL/MOL
REMARK 923 INTER-LIGAND FREE ENERGY PREDICTED BY IDOCK:   -6.87 KCAL/MOL
REMARK 924 INTRA-LIGAND FREE ENERGY PREDICTED BY IDOCK:   -0.02 KCAL/MOL
REMARK 927      BINDING AFFINITY PREDICTED BY RF-SCORE:    0.00 PKD
ROOT
HETATM    1  N   UNL     1      -8.920  11.550  69.056  1.00  0.00    -0.385 N  
HETATM    2  C   UNL     1     -10.252  11.268  68.899  1.00  0.00    -0.180 C  
HETATM    3  H1  UNL     1      -8.659  12.535  69.034  1.00  0.00     0.000 HD 
HETATM    4  H2  UNL     1      -8.227  10.813  69.189  1.00  0.00     0.000 HD 
HETATM    5  O   UNL     1     -10.566  10.082  68.926  1.00  0.00    -0.200 OA 
ENDROOT
BRANCH   2   6
HETATM    6  N   UNL     1     -11.102  12.390  68.825  1.00  0.00    -0.249 N  
HETATM    7  C   UNL     1     -11.931  12.800  69.948  1.00  0.00    -0.298 A  
HETATM    8  C   UNL     1     -12.366  14.128  70.188  1.00  0.00    -0.413 A  
HETATM    9  C   UNL     1     -11.985  15.363  69.402  1.00  0.00    -0.351 C  
HETATM   10  C   UNL     1     -13.215  14.399  71.293  1.00  0.00    -0.416 A  
HETATM   11  C   UNL     1     -13.613  13.402  72.176  1.00  0.00    -0.660 A  
HETATM   12  C   UNL     1     -10.847  15.229  68.401  1.00  0.00    -0.257 C  
HETATM   13  O   UNL     1     -10.495  16.523  67.900  1.00  0.00    -0.290 OA 
HETATM   14  C   UNL     1     -11.309  14.328  67.291  1.00  0.00    -0.350 A  
HETATM   15  C   UNL     1     -13.179  12.108  71.966  1.00  0.00    -0.496 A  
HETATM   16  C   UNL     1     -12.359  11.817  70.869  1.00  0.00    -0.420 A  
HETATM   17  C   UNL     1     -11.446  12.955  67.548  1.00  0.00    -0.335 A  
HETATM   18  H   UNL     1      -9.783  16.439  67.275  1.00  0.00     0.000 HD 
HETATM   19  C   UNL     1     -11.870  12.105  66.513  1.00  0.00    -0.322 A  
HETATM   20  C   UNL     1     -12.175  12.605  65.246  1.00  0.00    -0.532 A  
HETATM   21  C   UNL     1     -12.057  13.969  65.001  1.00  0.00    -0.427 A  
HETATM   22  C   UNL     1     -11.626  14.822  66.013  1.00  0.00    -0.286 A  
ENDBRANCH   2   6
TORSDOF 1
ENDMDL
MODEL        7
REMARK 921   NORMALIZED FREE ENERGY PREDICTED BY IDOCK:   -6.47 KCAL/MOL
REMARK 922        TOTAL FREE ENERGY PREDICTED BY IDOCK:   -6.87 KCAL/MOL
REMARK 923 INTER-LIGAND FREE ENERGY PREDICTED BY IDOCK:   -6.89 KCAL/MOL
REMARK 924 INTRA-LIGAND FREE ENERGY PREDICTED BY IDOCK:    0.02 KCAL/MOL
REMARK 927      BINDING AFFINITY PREDICTED BY RF-SCORE:    0.00 PKD
ROOT
HETATM    1  N   UNL     1      -8.905  15.769  69.427  1.00  0.00    -0.260 N  
HETATM    2  C   UNL     1     -10.088  16.077  68.808  1.00  0.00    -0.225 C  
HETATM    3  H1  UNL     1      -8.808  14.814  69.771  1.00  0.00     0.000 HD 
HETATM    4  H2  UNL     1      -8.161  16.459  69.536  1.00  0.00     0.000 HD 
HETATM    5  O   UNL     1     -10.205  17.226  68.393  1.00  0.00    -0.313 OA 
ENDROOT
BRANCH   2   6
HETATM    6  N   UNL     1     -10.982  14.998  68.643  1.00  0.00    -0.247 N  
HETATM    7  C   UNL     1     -11.298  14.460  67.329  1.00  0.00    -0.342 A  
HETATM    8  C   UNL     1     -11.702  13.123  67.080  1.00  0.00    -0.430 A  
HETATM    9  C   UNL     1     -11.785  11.999  68.089  1.00  0.00    -0.398 C  
HETATM   10  C   UNL     1     -12.033  12.726  65.759  1.00  0.00    -0.502 A  
HETATM   11  C   UNL     1     -11.945  13.601  64.683  1.00  0.00    -0.441 A  
HETATM   12  C   UNL     1     -11.160  12.239  69.454  1.00  0.00    -0.101 C  
HETATM   13  O   UNL     1     -11.156  11.018  70.201  1.00  0.00    -0.441 OA 
HETATM   14  C   UNL     1     -11.966  13.297  70.154  1.00  0.00    -0.388 A  
HETATM   15  C   UNL     1     -11.533  14.900  64.908  1.00  0.00    -0.407 A  
HETATM   16  C   UNL     1     -11.223  15.317  66.208  1.00  0.00    -0.223 A  
HETATM   17  C   UNL     1     -11.870  14.624  69.709  1.00  0.00    -0.316 A  
HETATM   18  H   UNL     1     -10.765  11.168  71.054  1.00  0.00     0.000 HD 
HETATM   19  C   UNL     1     -12.616  15.620  70.363  1.00  0.00    -0.376 A  
HETATM   20  C   UNL     1     -13.460  15.307  71.430  1.00  0.00    -0.588 A  
HETATM   21  C   UNL     1     -13.567  13.987  71.855  1.00  0.00    -0.520 A  
HETATM   22  C   UNL     1     -12.825  12.992  71.225  1.00  0.00    -0.370 A  
ENDBRANCH   2   6
TORSDOF 1
ENDMDL
MODEL        8
REMARK 921   NORMALIZED FREE ENERGY PREDICTED BY IDOCK:   -6.46 KCAL/MOL
REMARK 922        TOTAL FREE ENERGY PREDICTED BY IDOCK:   -6.86 KCAL/MOL
REMARK 923 INTER-LIGAND FREE ENERGY PREDICTED BY IDOCK:   -6.82 KCAL/MOL
REMARK 924 INTRA-LIGAND FREE ENERGY PREDICTED BY IDOCK:   -0.04 KCAL/MOL
REMARK 927      BINDING AFFINITY PREDICTED BY RF-SCORE:    0.00 PKD
ROOT
HETATM    1  N   UNL     1     -11.391   9.726  67.886  1.00  0.00    -0.467 N  
HETATM    2  C   UNL     1     -10.623  10.307  68.860  1.00  0.00    -0.219 C  
HETATM    3  H1  UNL     1     -12.254   9.279  68.194  1.00  0.00     0.000 HD 
HETATM    4  H2  UNL     1     -11.115   9.741  66.904  1.00  0.00     0.000 HD 
HETATM    5  O   UNL     1      -9.584  10.845  68.489  1.00  0.00    -0.172 OA 
ENDROOT
BRANCH   2   6
HETATM    6  N   UNL     1     -11.179  10.294  70.156  1.00  0.00    -0.296 N  
HETATM    7  C   UNL     1     -11.949  11.416  70.671  1.00  0.00    -0.314 A  
HETATM    8  C   UNL     1     -12.963  11.315  71.656  1.00  0.00    -0.537 A  
HETATM    9  C   UNL     1     -13.499  10.044  72.279  1.00  0.00    -0.346 C  
HETATM   10  C   UNL     1     -13.612  12.489  72.117  1.00  0.00    -0.458 A  
HETATM   11  C   UNL     1     -13.308  13.746  71.608  1.00  0.00    -0.430 A  
HETATM   12  C   UNL     1     -13.093   8.727  71.634  1.00  0.00    -0.352 C  
HETATM   13  O   UNL     1     -13.840   7.656  72.221  1.00  0.00    -0.521 OA 
HETATM   14  C   UNL     1     -11.618   8.540  71.852  1.00  0.00    -0.410 A  
HETATM   15  C   UNL     1     -12.337  13.857  70.632  1.00  0.00    -0.451 A  
HETATM   16  C   UNL     1     -11.670  12.712  70.181  1.00  0.00    -0.247 A  
HETATM   17  C   UNL     1     -10.722   9.342  71.131  1.00  0.00    -0.347 A  
HETATM   18  H   UNL     1     -13.587   6.833  71.819  1.00  0.00     0.000 HD 
HETATM   19  C   UNL     1      -9.340   9.168  71.324  1.00  0.00    -0.285 A  
HETATM   20  C   UNL     1      -8.851   8.226  72.231  1.00  0.00    -0.274 A  
HETATM   21  C   UNL     1      -9.743   7.446  72.958  1.00  0.00    -0.255 A  
HETATM   22  C   UNL     1     -11.114   7.600  72.769  1.00  0.00    -0.437 A  
ENDBRANCH   2   6
TORSDOF 1
ENDMDL
MODEL        9
REMARK 921   NORMALIZED FREE ENERGY PREDICTED BY IDOCK:   -6.36 KCAL/MOL
REMARK 922        TOTAL FREE ENERGY PREDICTED BY IDOCK:   -6.76 KCAL/MOL
REMARK 923 INTER-LIGAND FREE ENERGY PREDICTED BY IDOCK:   -7.07 KCAL/MOL
REMARK 924 INTRA-LIGAND FREE ENERGY PREDICTED BY IDOCK:    0.31 KCAL/MOL
REMARK 927      BINDING AFFINITY PREDICTED BY RF-SCORE:    0.00 PKD
ROOT
HETATM    1  N   UNL     1     -11.185  12.676  62.971  1.00  0.00    -0.655 N  
HETATM    2  C   UNL     1     -11.996  12.479  64.057  1.00  0.00    -0.454 C  
HETATM    3  H1  UNL     1     -10.204  12.875  63.167  1.00  0.00     0.000 HD 
HETATM    4  H2  UNL     1     -11.543  12.626  62.017  1.00  0.00     0.000 HD 
HETATM    5  O   UNL     1     -13.177  12.240  63.821  1.00  0.00    -0.771 OA 
ENDROOT
BRANCH   2   6
HETATM    6  N   UNL     1     -11.343  12.481  65.307  1.00  0.00    -0.313 N  
HETATM    7  C   UNL     1     -10.963  13.719  65.971  1.00  0.00    -0.284 A  
HETATM    8  C   UNL     1     -10.827  13.873  67.374  1.00  0.00    -0.291 A  
HETATM    9  C   UNL     1     -11.138  12.840  68.434  1.00  0.00    -0.293 C  
HETATM   10  C   UNL     1     -10.400  15.119  67.904  1.00  0.00    -0.241 A  
HETATM   11  C   UNL     1     -10.138  16.213  67.089  1.00  0.00    -0.269 A  
HETATM   12  C   UNL     1     -11.889  11.593  67.993  1.00  0.00    -0.225 C  
HETATM   13  O   UNL     1     -12.267  10.829  69.144  1.00  0.00    -0.633 OA 
HETATM   14  C   UNL     1     -10.983  10.800  67.094  1.00  0.00    -0.324 A  
HETATM   15  C   UNL     1     -10.287  16.083  65.723  1.00  0.00    -0.398 A  
HETATM   16  C   UNL     1     -10.686  14.856  65.179  1.00  0.00    -0.429 A  
HETATM   17  C   UNL     1     -10.723  11.283  65.802  1.00  0.00    -0.223 A  
HETATM   18  H   UNL     1     -12.737  10.050  68.869  1.00  0.00     0.000 HD 
HETATM   19  C   UNL     1      -9.883  10.543  64.952  1.00  0.00    -0.379 A  
HETATM   20  C   UNL     1      -9.292   9.352  65.378  1.00  0.00    -0.311 A  
HETATM   21  C   UNL     1      -9.537   8.887  66.665  1.00  0.00    -0.281 A  
HETATM   22  C   UNL     1     -10.377   9.603  67.514  1.00  0.00    -0.297 A  
ENDBRANCH   2   6
TORSDOF 1
ENDMDL
MODEL       10
REMARK 921   NORMALIZED FREE ENERGY PREDICTED BY IDOCK:   -6.36 KCAL/MOL
REMARK 922        TOTAL FREE ENERGY PREDICTED BY IDOCK:   -6.76 KCAL/MOL
REMARK 923 INTER-LIGAND FREE ENERGY PREDICTED BY IDOCK:   -6.82 KCAL/MOL
REMARK 924 INTRA-LIGAND FREE ENERGY PREDICTED BY IDOCK:    0.06 KCAL/MOL
REMARK 927      BINDING AFFINITY PREDICTED BY RF-SCORE:    0.00 PKD
ROOT
HETATM    1  N   UNL     1     -12.592  14.065  66.001  1.00  0.00    -0.468 N  
HETATM    2  C   UNL     1     -11.957  13.156  66.806  1.00  0.00    -0.373 C  
HETATM    3  H1  UNL     1     -12.709  15.004  66.382  1.00  0.00     0.000 HD 
HETATM    4  H2  UNL     1     -12.928  13.816  65.070  1.00  0.00     0.000 HD 
HETATM    5  O   UNL     1     -11.815  12.026  66.347  1.00  0.00    -0.578 OA 
ENDROOT
BRANCH   2   6
HETATM    6  N   UNL     1     -11.461  13.668  68.023  1.00  0.00    -0.291 N  
HETATM    7  C   UNL     1     -10.274  14.508  68.073  1.00  0.00    -0.233 A  
HETATM    8  C   UNL     1     -10.015  15.480  69.073  1.00  0.00    -0.233 A  
HETATM    9  C   UNL     1     -10.940  15.893  70.197  1.00  0.00    -0.369 C  
HETATM   10  C   UNL     1      -8.796  16.205  69.046  1.00  0.00    -0.251 A  
HETATM   11  C   UNL     1      -7.851  16.018  68.045  1.00  0.00    -0.142 A  
HETATM   12  C   UNL     1     -12.379  15.404  70.131  1.00  0.00    -0.361 C  
HETATM   13  O   UNL     1     -13.150  16.044  71.154  1.00  0.00    -0.582 OA 
HETATM   14  C   UNL     1     -12.371  13.913  70.316  1.00  0.00    -0.413 A  
HETATM   15  C   UNL     1      -8.100  15.090  67.052  1.00  0.00    -0.225 A  
HETATM   16  C   UNL     1      -9.287  14.349  67.075  1.00  0.00    -0.252 A  
HETATM   17  C   UNL     1     -11.890  13.106  69.274  1.00  0.00    -0.323 A  
HETATM   18  H   UNL     1     -14.049  15.739  71.113  1.00  0.00     0.000 HD 
HETATM   19  C   UNL     1     -11.886  11.710  69.436  1.00  0.00    -0.408 A  
HETATM   20  C   UNL     1     -12.333  11.119  70.619  1.00  0.00    -0.482 A  
HETATM   21  C   UNL     1     -12.790  11.923  71.657  1.00  0.00    -0.417 A  
HETATM   22  C   UNL     1     -12.811  13.307  71.506  1.00  0.00    -0.419 A  
ENDBRANCH   2   6
TORSDOF 1
ENDMDL
MODEL       11
REMARK 921   NORMALIZED FREE ENERGY PREDICTED BY IDOCK:   -6.34 KCAL/MOL
REMARK 922        TOTAL FREE ENERGY PREDICTED BY IDOCK:   -6.73 KCAL/MOL
REMARK 923 INTER-LIGAND FREE ENERGY PREDICTED BY IDOCK:   -6.71 KCAL/MOL
REMARK 924 INTRA-LIGAND FREE ENERGY PREDICTED BY IDOCK:   -0.02 KCAL/MOL
REMARK 927      BINDING AFFINITY PREDICTED BY RF-SCORE:    0.00 PKD
ROOT
HETATM    1  N   UNL     1      -8.249  11.187  69.133  1.00  0.00    -0.359 N  
HETATM    2  C   UNL     1      -9.352  10.748  68.449  1.00  0.00    -0.167 C  
HETATM    3  H1  UNL     1      -8.379  12.006  69.726  1.00  0.00     0.000 HD 
HETATM    4  H2  UNL     1      -7.347  10.718  69.054  1.00  0.00     0.000 HD 
HETATM    5  O   UNL     1      -9.196   9.761  67.736  1.00  0.00    -0.131 OA 
ENDROOT
BRANCH   2   6
HETATM    6  N   UNL     1     -10.552  11.434  68.732  1.00  0.00    -0.198 N  
HETATM    7  C   UNL     1     -11.381  11.086  69.876  1.00  0.00    -0.287 A  
HETATM    8  C   UNL     1     -12.243  11.987  70.551  1.00  0.00    -0.414 A  
HETATM    9  C   UNL     1     -12.392  13.469  70.287  1.00  0.00    -0.370 C  
HETATM   10  C   UNL     1     -13.043  11.520  71.626  1.00  0.00    -0.478 A  
HETATM   11  C   UNL     1     -12.987  10.203  72.065  1.00  0.00    -0.508 A  
HETATM   12  C   UNL     1     -11.364  14.122  69.376  1.00  0.00    -0.272 C  
HETATM   13  O   UNL     1     -11.539  15.543  69.396  1.00  0.00    -0.308 OA 
HETATM   14  C   UNL     1     -11.558  13.575  67.990  1.00  0.00    -0.372 A  
HETATM   15  C   UNL     1     -12.136   9.319  71.430  1.00  0.00    -0.424 A  
HETATM   16  C   UNL     1     -11.356   9.756  70.354  1.00  0.00    -0.362 A  
HETATM   17  C   UNL     1     -11.173  12.251  67.727  1.00  0.00    -0.276 A  
HETATM   18  H   UNL     1     -10.896  15.951  68.827  1.00  0.00     0.000 HD 
HETATM   19  C   UNL     1     -11.345  11.734  66.432  1.00  0.00    -0.361 A  
HETATM   20  C   UNL     1     -11.907  12.507  65.414  1.00  0.00    -0.479 A  
HETATM   21  C   UNL     1     -12.305  13.811  65.683  1.00  0.00    -0.517 A  
HETATM   22  C   UNL     1     -12.130  14.341  66.959  1.00  0.00    -0.424 A  
ENDBRANCH   2   6
TORSDOF 1
ENDMDL
MODEL       12
REMARK 921   NORMALIZED FREE ENERGY PREDICTED BY IDOCK:   -6.31 KCAL/MOL
REMARK 922        TOTAL FREE ENERGY PREDICTED BY IDOCK:   -6.70 KCAL/MOL
REMARK 923 INTER-LIGAND FREE ENERGY PREDICTED BY IDOCK:   -6.65 KCAL/MOL
REMARK 924 INTRA-LIGAND FREE ENERGY PREDICTED BY IDOCK:   -0.04 KCAL/MOL
REMARK 927      BINDING AFFINITY PREDICTED BY RF-SCORE:    0.00 PKD
ROOT
HETATM    1  N   UNL     1     -10.176  14.940  69.900  1.00  0.00    -0.461 N  
HETATM    2  C   UNL     1     -11.436  14.441  69.709  1.00  0.00    -0.276 C  
HETATM    3  H1  UNL     1      -9.401  14.328  69.645  1.00  0.00     0.000 HD 
HETATM    4  H2  UNL     1     -10.020  15.876  70.277  1.00  0.00     0.000 HD 
HETATM    5  O   UNL     1     -12.369  15.178  70.015  1.00  0.00    -0.330 OA 
ENDROOT
BRANCH   2   6
HETATM    6  N   UNL     1     -11.497  13.175  69.089  1.00  0.00    -0.289 N  
HETATM    7  C   UNL     1     -11.675  13.033  67.652  1.00  0.00    -0.366 A  
HETATM    8  C   UNL     1     -11.219  11.929  66.888  1.00  0.00    -0.382 A  
HETATM    9  C   UNL     1     -10.396  10.761  67.384  1.00  0.00    -0.251 C  
HETATM   10  C   UNL     1     -11.496  11.878  65.497  1.00  0.00    -0.311 A  
HETATM   11  C   UNL     1     -12.178  12.898  64.845  1.00  0.00    -0.504 A  
HETATM   12  C   UNL     1      -9.789  10.876  68.774  1.00  0.00    -0.196 C  
HETATM   13  O   UNL     1      -8.891   9.784  68.998  1.00  0.00    -0.137 OA 
HETATM   14  C   UNL     1     -10.912  10.865  69.773  1.00  0.00    -0.290 A  
HETATM   15  C   UNL     1     -12.608  13.989  65.573  1.00  0.00    -0.543 A  
HETATM   16  C   UNL     1     -12.365  14.047  66.950  1.00  0.00    -0.321 A  
HETATM   17  C   UNL     1     -11.736  11.995  69.875  1.00  0.00    -0.299 A  
HETATM   18  H   UNL     1      -8.512   9.856  69.866  1.00  0.00     0.000 HD 
HETATM   19  C   UNL     1     -12.784  11.995  70.811  1.00  0.00    -0.231 A  
HETATM   20  C   UNL     1     -13.027  10.886  71.623  1.00  0.00    -0.569 A  
HETATM   21  C   UNL     1     -12.219   9.760  71.506  1.00  0.00    -0.493 A  
HETATM   22  C   UNL     1     -11.170   9.751  70.591  1.00  0.00    -0.402 A  
ENDBRANCH   2   6
TORSDOF 1
ENDMDL
MODEL       13
REMARK 921   NORMALIZED FREE ENERGY PREDICTED BY IDOCK:   -6.26 KCAL/MOL
REMARK 922        TOTAL FREE ENERGY PREDICTED BY IDOCK:   -6.65 KCAL/MOL
REMARK 923 INTER-LIGAND FREE ENERGY PREDICTED BY IDOCK:   -7.02 KCAL/MOL
REMARK 924 INTRA-LIGAND FREE ENERGY PREDICTED BY IDOCK:    0.37 KCAL/MOL
REMARK 927      BINDING AFFINITY PREDICTED BY RF-SCORE:    0.00 PKD
ROOT
HETATM    1  N   UNL     1     -10.203  11.940  68.838  1.00  0.00    -0.391 N  
HETATM    2  C   UNL     1     -11.076  11.668  67.818  1.00  0.00    -0.249 C  
HETATM    3  H1  UNL     1      -9.293  12.314  68.570  1.00  0.00     0.000 HD 
HETATM    4  H2  UNL     1     -10.451  11.779  69.815  1.00  0.00     0.000 HD 
HETATM    5  O   UNL     1     -12.172  11.219  68.142  1.00  0.00    -0.622 OA 
ENDROOT
BRANCH   2   6
HETATM    6  N   UNL     1     -10.633  12.034  66.530  1.00  0.00    -0.228 N  
HETATM    7  C   UNL     1     -10.033  11.068  65.623  1.00  0.00    -0.248 A  
HETATM    8  C   UNL     1     -10.064  11.162  64.209  1.00  0.00    -0.382 A  
HETATM    9  C   UNL     1     -10.789  12.203  63.385  1.00  0.00    -0.474 C  
HETATM   10  C   UNL     1      -9.399  10.182  63.427  1.00  0.00    -0.334 A  
HETATM   11  C   UNL     1      -8.739   9.104  64.003  1.00  0.00    -0.165 A  
HETATM   12  C   UNL     1     -11.776  13.104  64.111  1.00  0.00    -0.418 C  
HETATM   13  O   UNL     1     -12.506  13.883  63.158  1.00  0.00    -1.121 OA 
HETATM   14  C   UNL     1     -10.997  13.986  65.046  1.00  0.00    -0.379 A  
HETATM   15  C   UNL     1      -8.720   8.988  65.380  1.00  0.00    -0.221 A  
HETATM   16  C   UNL     1      -9.351   9.957  66.169  1.00  0.00    -0.232 A  
HETATM   17  C   UNL     1     -10.435  13.419  66.199  1.00  0.00    -0.295 A  
HETATM   18  H   UNL     1     -13.123  14.446  63.612  1.00  0.00     0.000 HD 
HETATM   19  C   UNL     1      -9.711  14.239  67.081  1.00  0.00    -0.254 A  
HETATM   20  C   UNL     1      -9.528  15.598  66.819  1.00  0.00    -0.261 A  
HETATM   21  C   UNL     1     -10.071  16.153  65.666  1.00  0.00    -0.366 A  
HETATM   22  C   UNL     1     -10.801  15.355  64.788  1.00  0.00    -0.385 A  
ENDBRANCH   2   6
TORSDOF 1
ENDMDL
MODEL       14
REMARK 921   NORMALIZED FREE ENERGY PREDICTED BY IDOCK:   -6.18 KCAL/MOL
REMARK 922        TOTAL FREE ENERGY PREDICTED BY IDOCK:   -6.57 KCAL/MOL
REMARK 923 INTER-LIGAND FREE ENERGY PREDICTED BY IDOCK:   -7.08 KCAL/MOL
REMARK 924 INTRA-LIGAND FREE ENERGY PREDICTED BY IDOCK:    0.51 KCAL/MOL
REMARK 927      BINDING AFFINITY PREDICTED BY RF-SCORE:    0.00 PKD
ROOT
HETATM    1  N   UNL     1     -12.781  14.738  63.820  1.00  0.00    -0.847 N  
HETATM    2  C   UNL     1     -11.709  15.412  64.342  1.00  0.00    -0.258 C  
HETATM    3  H1  UNL     1     -12.922  13.784  64.152  1.00  0.00     0.000 HD 
HETATM    4  H2  UNL     1     -13.406  15.168  63.137  1.00  0.00     0.000 HD 
HETATM    5  O   UNL     1     -11.539  16.561  63.943  1.00  0.00    -1.175 OA 
ENDROOT
BRANCH   2   6
HETATM    6  N   UNL     1     -10.995  14.727  65.347  1.00  0.00    -0.338 N  
HETATM    7  C   UNL     1     -10.269  15.436  66.389  1.00  0.00    -0.286 A  
HETATM    8  C   UNL     1     -10.004  14.918  67.683  1.00  0.00    -0.226 A  
HETATM    9  C   UNL     1     -10.495  13.605  68.252  1.00  0.00    -0.253 C  
HETATM   10  C   UNL     1      -9.241  15.685  68.601  1.00  0.00    -0.205 A  
HETATM   11  C   UNL     1      -8.765  16.951  68.286  1.00  0.00    -0.235 A  
HETATM   12  C   UNL     1     -11.566  12.862  67.468  1.00  0.00    -0.356 C  
HETATM   13  O   UNL     1     -12.047  11.758  68.241  1.00  0.00    -0.525 OA 
HETATM   14  C   UNL     1     -10.954  12.392  66.179  1.00  0.00    -0.321 A  
HETATM   15  C   UNL     1      -9.034  17.476  67.037  1.00  0.00    -0.250 A  
HETATM   16  C   UNL     1      -9.766  16.727  66.109  1.00  0.00    -0.315 A  
HETATM   17  C   UNL     1     -10.667  13.337  65.183  1.00  0.00    -0.322 A  
HETATM   18  H   UNL     1     -12.716  11.294  67.751  1.00  0.00     0.000 HD 
HETATM   19  C   UNL     1     -10.101  12.904  63.971  1.00  0.00    -0.142 A  
HETATM   20  C   UNL     1      -9.804  11.557  63.753  1.00  0.00    -0.348 A  
HETATM   21  C   UNL     1     -10.072  10.626  64.750  1.00  0.00    -0.412 A  
HETATM   22  C   UNL     1     -10.644  11.039  65.951  1.00  0.00    -0.270 A  
ENDBRANCH   2   6
TORSDOF 1
ENDMDL
MODEL       15
REMARK 921   NORMALIZED FREE ENERGY PREDICTED BY IDOCK:   -6.05 KCAL/MOL
REMARK 922        TOTAL FREE ENERGY PREDICTED BY IDOCK:   -6.43 KCAL/MOL
REMARK 923 INTER-LIGAND FREE ENERGY PREDICTED BY IDOCK:   -6.80 KCAL/MOL
REMARK 924 INTRA-LIGAND FREE ENERGY PREDICTED BY IDOCK:    0.38 KCAL/MOL
REMARK 927      BINDING AFFINITY PREDICTED BY RF-SCORE:    0.00 PKD
ROOT
HETATM    1  N   UNL     1     -12.469  14.023  63.296  1.00  0.00    -1.112 N  
HETATM    2  C   UNL     1     -12.375  13.179  64.371  1.00  0.00    -0.360 C  
HETATM    3  H1  UNL     1     -11.618  14.520  63.033  1.00  0.00     0.000 HD 
HETATM    4  H2  UNL     1     -13.344  14.146  62.785  1.00  0.00     0.000 HD 
HETATM    5  O   UNL     1     -13.399  12.580  64.687  1.00  0.00    -0.804 OA 
ENDROOT
BRANCH   2   6
HETATM    6  N   UNL     1     -11.081  13.036  64.915  1.00  0.00    -0.291 N  
HETATM    7  C   UNL     1     -10.400  14.140  65.573  1.00  0.00    -0.351 A  
HETATM    8  C   UNL     1      -9.417  13.994  66.584  1.00  0.00    -0.300 A  
HETATM    9  C   UNL     1      -8.965  12.703  67.230  1.00  0.00    -0.194 C  
HETATM   10  C   UNL     1      -8.784  15.147  67.117  1.00  0.00    -0.238 A  
HETATM   11  C   UNL     1      -9.120  16.429  66.702  1.00  0.00    -0.278 A  
HETATM   12  C   UNL     1      -9.794  11.458  66.953  1.00  0.00    -0.193 C  
HETATM   13  O   UNL     1      -9.345  10.387  67.791  1.00  0.00    -0.144 OA 
HETATM   14  C   UNL     1      -9.636  11.109  65.500  1.00  0.00    -0.263 A  
HETATM   15  C   UNL     1     -10.092  16.587  65.733  1.00  0.00    -0.328 A  
HETATM   16  C   UNL     1     -10.712  15.461  65.179  1.00  0.00    -0.460 A  
HETATM   17  C   UNL     1     -10.258  11.919  64.539  1.00  0.00    -0.282 A  
HETATM   18  H   UNL     1      -9.863   9.609  67.619  1.00  0.00     0.000 HD 
HETATM   19  C   UNL     1     -10.120  11.595  63.179  1.00  0.00    -0.409 A  
HETATM   20  C   UNL     1      -9.363  10.495  62.771  1.00  0.00    -0.342 A  
HETATM   21  C   UNL     1      -8.732   9.706  63.726  1.00  0.00    -0.241 A  
HETATM   22  C   UNL     1      -8.869  10.008  65.078  1.00  0.00    -0.213 A  
ENDBRANCH   2   6
TORSDOF 1
ENDMDL
MODEL       16
REMARK 921   NORMALIZED FREE ENERGY PREDICTED BY IDOCK:   -6.03 KCAL/MOL
REMARK 922        TOTAL FREE ENERGY PREDICTED BY IDOCK:   -6.41 KCAL/MOL
REMARK 923 INTER-LIGAND FREE ENERGY PREDICTED BY IDOCK:   -6.37 KCAL/MOL
REMARK 924 INTRA-LIGAND FREE ENERGY PREDICTED BY IDOCK:   -0.04 KCAL/MOL
REMARK 927      BINDING AFFINITY PREDICTED BY RF-SCORE:    0.00 PKD
ROOT
HETATM    1  N   UNL     1     -12.543  14.141  66.539  1.00  0.00    -0.519 N  
HETATM    2  C   UNL     1     -11.703  14.636  67.502  1.00  0.00    -0.379 C  
HETATM    3  H1  UNL     1     -12.864  13.181  66.666  1.00  0.00     0.000 HD 
HETATM    4  H2  UNL     1     -12.833  14.703  65.738  1.00  0.00     0.000 HD 
HETATM    5  O   UNL     1     -11.318  15.791  67.349  1.00  0.00    -0.243 OA 
ENDROOT
BRANCH   2   6
HETATM    6  N   UNL     1     -11.470  13.780  68.598  1.00  0.00    -0.278 N  
HETATM    7  C   UNL     1     -12.185  13.933  69.856  1.00  0.00    -0.333 A  
HETATM    8  C   UNL     1     -12.443  12.881  70.770  1.00  0.00    -0.370 A  
HETATM    9  C   UNL     1     -12.123  11.415  70.579  1.00  0.00    -0.487 C  
HETATM   10  C   UNL     1     -13.108  13.161  71.992  1.00  0.00    -0.476 A  
HETATM   11  C   UNL     1     -13.548  14.440  72.313  1.00  0.00    -0.549 A  
HETATM   12  C   UNL     1     -11.697  10.969  69.189  1.00  0.00    -0.333 C  
HETATM   13  O   UNL     1     -11.628   9.540  69.143  1.00  0.00    -0.436 OA 
HETATM   14  C   UNL     1     -10.358  11.584  68.894  1.00  0.00    -0.191 A  
HETATM   15  C   UNL     1     -13.322  15.470  71.422  1.00  0.00    -0.592 A  
HETATM   16  C   UNL     1     -12.648  15.217  70.221  1.00  0.00    -0.388 A  
HETATM   17  C   UNL     1     -10.289  12.961  68.639  1.00  0.00    -0.188 A  
HETATM   18  H   UNL     1     -11.363   9.261  68.274  1.00  0.00     0.000 HD 
HETATM   19  C   UNL     1      -9.041  13.542  68.355  1.00  0.00    -0.155 A  
HETATM   20  C   UNL     1      -7.874  12.777  68.344  1.00  0.00    -0.132 A  
HETATM   21  C   UNL     1      -7.944  11.415  68.617  1.00  0.00    -0.141 A  
HETATM   22  C   UNL     1      -9.175  10.824  68.887  1.00  0.00    -0.180 A  
ENDBRANCH   2   6
TORSDOF 1
ENDMDL
MODEL       17
REMARK 921   NORMALIZED FREE ENERGY PREDICTED BY IDOCK:   -6.02 KCAL/MOL
REMARK 922        TOTAL FREE ENERGY PREDICTED BY IDOCK:   -6.39 KCAL/MOL
REMARK 923 INTER-LIGAND FREE ENERGY PREDICTED BY IDOCK:   -7.18 KCAL/MOL
REMARK 924 INTRA-LIGAND FREE ENERGY PREDICTED BY IDOCK:    0.78 KCAL/MOL
REMARK 927      BINDING AFFINITY PREDICTED BY RF-SCORE:    0.00 PKD
ROOT
HETATM    1  N   UNL     1     -11.088  14.676  64.344  1.00  0.00    -0.629 N  
HETATM    2  C   UNL     1     -11.010  15.850  65.045  1.00  0.00    -0.412 C  
HETATM    3  H1  UNL     1     -10.796  13.833  64.837  1.00  0.00     0.000 HD 
HETATM    4  H2  UNL     1     -11.422  14.647  63.380  1.00  0.00     0.000 HD 
HETATM    5  O   UNL     1     -11.362  16.866  64.451  1.00  0.00    -1.133 OA 
ENDROOT
BRANCH   2   6
HETATM    6  N   UNL     1     -10.624  15.724  66.395  1.00  0.00    -0.309 N  
HETATM    7  C   UNL     1      -9.547  16.520  66.963  1.00  0.00    -0.242 A  
HETATM    8  C   UNL     1      -9.442  16.878  68.331  1.00  0.00    -0.258 A  
HETATM    9  C   UNL     1     -10.451  16.594  69.422  1.00  0.00    -0.320 C  
HETATM   10  C   UNL     1      -8.317  17.618  68.777  1.00  0.00    -0.215 A  
HETATM   11  C   UNL     1      -7.319  18.037  67.906  1.00  0.00    -0.224 A  
HETATM   12  C   UNL     1     -11.819  16.087  68.992  1.00  0.00    -0.252 C  
HETATM   13  O   UNL     1     -12.698  16.062  70.122  1.00  0.00    -0.571 OA 
HETATM   14  C   UNL     1     -11.643  14.710  68.416  1.00  0.00    -0.351 A  
HETATM   15  C   UNL     1      -7.419  17.714  66.567  1.00  0.00    -0.299 A  
HETATM   16  C   UNL     1      -8.510  16.965  66.111  1.00  0.00    -0.281 A  
HETATM   17  C   UNL     1     -11.031  14.577  67.160  1.00  0.00    -0.304 A  
HETATM   18  H   UNL     1     -13.553  15.745  69.853  1.00  0.00     0.000 HD 
HETATM   19  C   UNL     1     -10.869  13.293  66.612  1.00  0.00    -0.289 A  
HETATM   20  C   UNL     1     -11.288  12.154  67.302  1.00  0.00    -0.398 A  
HETATM   21  C   UNL     1     -11.876  12.289  68.555  1.00  0.00    -0.359 A  
HETATM   22  C   UNL     1     -12.054  13.556  69.106  1.00  0.00    -0.331 A  
ENDBRANCH   2   6
TORSDOF 1
ENDMDL
MODEL       18
REMARK 921   NORMALIZED FREE ENERGY PREDICTED BY IDOCK:   -6.01 KCAL/MOL
REMARK 922        TOTAL FREE ENERGY PREDICTED BY IDOCK:   -6.38 KCAL/MOL
REMARK 923 INTER-LIGAND FREE ENERGY PREDICTED BY IDOCK:   -6.84 KCAL/MOL
REMARK 924 INTRA-LIGAND FREE ENERGY PREDICTED BY IDOCK:    0.45 KCAL/MOL
REMARK 927      BINDING AFFINITY PREDICTED BY RF-SCORE:    0.00 PKD
ROOT
HETATM    1  N   UNL     1     -11.007  13.806  67.459  1.00  0.00    -0.268 N  
HETATM    2  C   UNL     1     -11.752  12.693  67.748  1.00  0.00    -0.356 C  
HETATM    3  H1  UNL     1     -10.594  14.294  68.254  1.00  0.00     0.000 HD 
HETATM    4  H2  UNL     1     -10.872  14.128  66.501  1.00  0.00     0.000 HD 
HETATM    5  O   UNL     1     -12.249  12.105  66.791  1.00  0.00    -0.553 OA 
ENDROOT
BRANCH   2   6
HETATM    6  N   UNL     1     -11.769  12.312  69.106  1.00  0.00    -0.309 N  
HETATM    7  C   UNL     1     -12.256  13.206  70.146  1.00  0.00    -0.290 A  
HETATM    8  C   UNL     1     -12.817  12.781  71.377  1.00  0.00    -0.371 A  
HETATM    9  C   UNL     1     -13.103  11.357  71.799  1.00  0.00    -0.523 C  
HETATM   10  C   UNL     1     -13.213  13.748  72.337  1.00  0.00    -0.580 A  
HETATM   11  C   UNL     1     -13.097  15.112  72.098  1.00  0.00    -0.454 A  
HETATM   12  C   UNL     1     -13.006  10.280  70.730  1.00  0.00    -0.330 C  
HETATM   13  O   UNL     1     -13.495   9.040  71.253  1.00  0.00    -0.496 OA 
HETATM   14  C   UNL     1     -11.565  10.161  70.321  1.00  0.00    -0.379 A  
HETATM   15  C   UNL     1     -12.573  15.540  70.895  1.00  0.00    -0.512 A  
HETATM   16  C   UNL     1     -12.156  14.601  69.944  1.00  0.00    -0.385 A  
HETATM   17  C   UNL     1     -10.995  11.187  69.552  1.00  0.00    -0.220 A  
HETATM   18  H   UNL     1     -13.435   8.367  70.585  1.00  0.00     0.000 HD 
HETATM   19  C   UNL     1      -9.650  11.080  69.159  1.00  0.00    -0.081 A  
HETATM   20  C   UNL     1      -8.872   9.983  69.536  1.00  0.00    -0.209 A  
HETATM   21  C   UNL     1      -9.435   8.978  70.314  1.00  0.00    -0.230 A  
HETATM   22  C   UNL     1     -10.770   9.065  70.701  1.00  0.00    -0.292 A  
ENDBRANCH   2   6
TORSDOF 1
ENDMDL
MODEL       19
REMARK 921   NORMALIZED FREE ENERGY PREDICTED BY IDOCK:   -5.99 KCAL/MOL
REMARK 922        TOTAL FREE ENERGY PREDICTED BY IDOCK:   -6.37 KCAL/MOL
REMARK 923 INTER-LIGAND FREE ENERGY PREDICTED BY IDOCK:   -6.49 KCAL/MOL
REMARK 924 INTRA-LIGAND FREE ENERGY PREDICTED BY IDOCK:    0.12 KCAL/MOL
REMARK 927      BINDING AFFINITY PREDICTED BY RF-SCORE:    0.00 PKD
ROOT
HETATM    1  N   UNL     1     -13.755  15.501  70.533  1.00  0.00    -0.765 N  
HETATM    2  C   UNL     1     -12.386  15.458  70.522  1.00  0.00    -0.408 C  
HETATM    3  H1  UNL     1     -14.231  15.003  69.780  1.00  0.00     0.000 HD 
HETATM    4  H2  UNL     1     -14.272  16.003  71.255  1.00  0.00     0.000 HD 
HETATM    5  O   UNL     1     -11.814  16.057  71.428  1.00  0.00    -0.425 OA 
ENDROOT
BRANCH   2   6
HETATM    6  N   UNL     1     -11.814  14.646  69.521  1.00  0.00    -0.312 N  
HETATM    7  C   UNL     1     -11.920  13.195  69.559  1.00  0.00    -0.294 A  
HETATM    8  C   UNL     1     -11.890  12.354  68.418  1.00  0.00    -0.361 A  
HETATM    9  C   UNL     1     -11.843  12.791  66.970  1.00  0.00    -0.428 C  
HETATM   10  C   UNL     1     -11.951  10.946  68.584  1.00  0.00    -0.185 A  
HETATM   11  C   UNL     1     -12.073  10.357  69.836  1.00  0.00    -0.252 A  
HETATM   12  C   UNL     1     -12.087  14.263  66.678  1.00  0.00    -0.420 C  
HETATM   13  O   UNL     1     -12.202  14.459  65.265  1.00  0.00    -0.393 OA 
HETATM   14  C   UNL     1     -10.932  15.044  67.239  1.00  0.00    -0.326 A  
HETATM   15  C   UNL     1     -12.125  11.166  70.955  1.00  0.00    -0.427 A  
HETATM   16  C   UNL     1     -12.043  12.556  70.813  1.00  0.00    -0.240 A  
HETATM   17  C   UNL     1     -10.823  15.183  68.630  1.00  0.00    -0.245 A  
HETATM   18  H   UNL     1     -12.354  15.379  65.082  1.00  0.00     0.000 HD 
HETATM   19  C   UNL     1      -9.749  15.918  69.162  1.00  0.00    -0.249 A  
HETATM   20  C   UNL     1      -8.786  16.493  68.331  1.00  0.00    -0.218 A  
HETATM   21  C   UNL     1      -8.886  16.337  66.954  1.00  0.00    -0.242 A  
HETATM   22  C   UNL     1      -9.951  15.621  66.412  1.00  0.00    -0.298 A  
ENDBRANCH   2   6
TORSDOF 1
ENDMDL
MODEL       20
REMARK 921   NORMALIZED FREE ENERGY PREDICTED BY IDOCK:   -5.98 KCAL/MOL
REMARK 922        TOTAL FREE ENERGY PREDICTED BY IDOCK:   -6.35 KCAL/MOL
REMARK 923 INTER-LIGAND FREE ENERGY PREDICTED BY IDOCK:   -6.66 KCAL/MOL
REMARK 924 INTRA-LIGAND FREE ENERGY PREDICTED BY IDOCK:    0.31 KCAL/MOL
REMARK 927      BINDING AFFINITY PREDICTED BY RF-SCORE:    0.00 PKD
ROOT
HETATM    1  N   UNL     1     -11.198  14.663  64.483  1.00  0.00    -0.603 N  
HETATM    2  C   UNL     1     -12.076  14.108  65.376  1.00  0.00    -0.410 C  
HETATM    3  H1  UNL     1     -10.225  14.727  64.782  1.00  0.00     0.000 HD 
HETATM    4  H2  UNL     1     -11.501  14.993  63.566  1.00  0.00     0.000 HD 
HETATM    5  O   UNL     1     -13.247  14.030  65.016  1.00  0.00    -0.720 OA 
ENDROOT
BRANCH   2   6
HETATM    6  N   UNL     1     -11.497  13.608  66.561  1.00  0.00    -0.323 N  
HETATM    7  C   UNL     1     -11.217  14.469  67.700  1.00  0.00    -0.322 A  
HETATM    8  C   UNL     1     -11.170  14.034  69.049  1.00  0.00    -0.311 A  
HETATM    9  C   UNL     1     -11.489  12.649  69.566  1.00  0.00    -0.294 C  
HETATM   10  C   UNL     1     -10.837  14.959  70.072  1.00  0.00    -0.202 A  
HETATM   11  C   UNL     1     -10.583  16.297  69.800  1.00  0.00    -0.316 A  
HETATM   12  C   UNL     1     -12.151  11.679  68.599  1.00  0.00    -0.119 C  
HETATM   13  O   UNL     1     -12.556  10.500  69.304  1.00  0.00    -0.726 OA 
HETATM   14  C   UNL     1     -11.157  11.348  67.522  1.00  0.00    -0.339 A  
HETATM   15  C   UNL     1     -10.647  16.739  68.493  1.00  0.00    -0.354 A  
HETATM   16  C   UNL     1     -10.952  15.838  67.467  1.00  0.00    -0.293 A  
HETATM   17  C   UNL     1     -10.847  12.326  66.565  1.00  0.00    -0.259 A  
HETATM   18  H   UNL     1     -12.970   9.894  68.700  1.00  0.00     0.000 HD 
HETATM   19  C   UNL     1      -9.924  12.021  65.550  1.00  0.00    -0.267 A  
HETATM   20  C   UNL     1      -9.300  10.774  65.491  1.00  0.00    -0.242 A  
HETATM   21  C   UNL     1      -9.595   9.814  66.452  1.00  0.00    -0.256 A  
HETATM   22  C   UNL     1     -10.517  10.097  67.457  1.00  0.00    -0.304 A  
ENDBRANCH   2   6
TORSDOF 1
ENDMDL
MODEL       21
REMARK 921   NORMALIZED FREE ENERGY PREDICTED BY IDOCK:   -5.95 KCAL/MOL
REMARK 922        TOTAL FREE ENERGY PREDICTED BY IDOCK:   -6.32 KCAL/MOL
REMARK 923 INTER-LIGAND FREE ENERGY PREDICTED BY IDOCK:   -6.53 KCAL/MOL
REMARK 924 INTRA-LIGAND FREE ENERGY PREDICTED BY IDOCK:    0.21 KCAL/MOL
REMARK 927      BINDING AFFINITY PREDICTED BY RF-SCORE:    0.00 PKD
ROOT
HETATM    1  N   UNL     1     -12.652  15.801  69.220  1.00  0.00    -0.434 N  
HETATM    2  C   UNL     1     -11.782  14.743  69.179  1.00  0.00    -0.313 C  
HETATM    3  H1  UNL     1     -12.651  16.421  68.411  1.00  0.00     0.000 HD 
HETATM    4  H2  UNL     1     -13.268  15.959  70.018  1.00  0.00     0.000 HD 
HETATM    5  O   UNL     1     -11.783  13.997  70.154  1.00  0.00    -0.279 OA 
ENDROOT
BRANCH   2   6
HETATM    6  N   UNL     1     -11.065  14.597  67.974  1.00  0.00    -0.270 N  
HETATM    7  C   UNL     1     -10.984  13.319  67.281  1.00  0.00    -0.268 A  
HETATM    8  C   UNL     1     -10.794  13.170  65.884  1.00  0.00    -0.288 A  
HETATM    9  C   UNL     1     -10.739  14.275  64.853  1.00  0.00    -0.448 C  
HETATM   10  C   UNL     1     -10.681  11.869  65.328  1.00  0.00    -0.331 A  
HETATM   11  C   UNL     1     -10.782  10.724  66.108  1.00  0.00    -0.187 A  
HETATM   12  C   UNL     1     -11.157  15.668  65.300  1.00  0.00    -0.303 C  
HETATM   13  O   UNL     1     -11.232  16.534  64.164  1.00  0.00    -1.355 OA 
HETATM   14  C   UNL     1     -10.139  16.162  66.289  1.00  0.00    -0.337 A  
HETATM   15  C   UNL     1     -10.989  10.855  67.467  1.00  0.00    -0.352 A  
HETATM   16  C   UNL     1     -11.081  12.130  68.038  1.00  0.00    -0.292 A  
HETATM   17  C   UNL     1     -10.112  15.594  67.572  1.00  0.00    -0.253 A  
HETATM   18  H   UNL     1     -11.494  17.404  64.443  1.00  0.00     0.000 HD 
HETATM   19  C   UNL     1      -9.167  16.056  68.504  1.00  0.00    -0.206 A  
HETATM   20  C   UNL     1      -8.249  17.053  68.169  1.00  0.00    -0.217 A  
HETATM   21  C   UNL     1      -8.267  17.600  66.891  1.00  0.00    -0.248 A  
HETATM   22  C   UNL     1      -9.204  17.160  65.960  1.00  0.00    -0.147 A  
ENDBRANCH   2   6
TORSDOF 1
ENDMDL
MODEL       22
REMARK 921   NORMALIZED FREE ENERGY PREDICTED BY IDOCK:   -5.80 KCAL/MOL
REMARK 922        TOTAL FREE ENERGY PREDICTED BY IDOCK:   -6.16 KCAL/MOL
REMARK 923 INTER-LIGAND FREE ENERGY PREDICTED BY IDOCK:   -6.20 KCAL/MOL
REMARK 924 INTRA-LIGAND FREE ENERGY PREDICTED BY IDOCK:    0.04 KCAL/MOL
REMARK 927      BINDING AFFINITY PREDICTED BY RF-SCORE:    0.00 PKD
ROOT
HETATM    1  N   UNL     1      -8.881  10.790  67.043  1.00  0.00    -0.134 N  
HETATM    2  C   UNL     1     -10.228  10.651  67.246  1.00  0.00    -0.208 C  
HETATM    3  H1  UNL     1      -8.513  11.741  67.073  1.00  0.00     0.000 HD 
HETATM    4  H2  UNL     1      -8.277   9.986  66.871  1.00  0.00     0.000 HD 
HETATM    5  O   UNL     1     -10.671   9.506  67.209  1.00  0.00    -0.263 OA 
ENDROOT
BRANCH   2   6
HETATM    6  N   UNL     1     -10.917  11.839  67.568  1.00  0.00    -0.240 N  
HETATM    7  C   UNL     1     -11.556  12.026  68.862  1.00  0.00    -0.321 A  
HETATM    8  C   UNL     1     -11.773  13.284  69.480  1.00  0.00    -0.384 A  
HETATM    9  C   UNL     1     -11.309  14.633  68.977  1.00  0.00    -0.299 C  
HETATM   10  C   UNL     1     -12.453  13.346  70.723  1.00  0.00    -0.418 A  
HETATM   11  C   UNL     1     -12.891  12.202  71.380  1.00  0.00    -0.378 A  
HETATM   12  C   UNL     1     -10.314  14.644  67.827  1.00  0.00    -0.237 C  
HETATM   13  O   UNL     1      -9.839  15.978  67.615  1.00  0.00    -0.231 OA 
HETATM   14  C   UNL     1     -11.013  14.120  66.604  1.00  0.00    -0.303 A  
HETATM   15  C   UNL     1     -12.666  10.969  70.800  1.00  0.00    -0.414 A  
HETATM   16  C   UNL     1     -12.017  10.889  69.563  1.00  0.00    -0.401 A  
HETATM   17  C   UNL     1     -11.311  12.752  66.531  1.00  0.00    -0.322 A  
HETATM   18  H   UNL     1      -9.217  15.985  66.897  1.00  0.00     0.000 HD 
HETATM   19  C   UNL     1     -11.958  12.253  65.387  1.00  0.00    -0.395 A  
HETATM   20  C   UNL     1     -12.323  13.098  64.338  1.00  0.00    -0.426 A  
HETATM   21  C   UNL     1     -12.043  14.457  64.422  1.00  0.00    -0.491 A  
HETATM   22  C   UNL     1     -11.391  14.963  65.544  1.00  0.00    -0.339 A  
ENDBRANCH   2   6
TORSDOF 1
ENDMDL
MODEL       23
REMARK 921   NORMALIZED FREE ENERGY PREDICTED BY IDOCK:   -5.77 KCAL/MOL
REMARK 922        TOTAL FREE ENERGY PREDICTED BY IDOCK:   -6.13 KCAL/MOL
REMARK 923 INTER-LIGAND FREE ENERGY PREDICTED BY IDOCK:   -6.12 KCAL/MOL
REMARK 924 INTRA-LIGAND FREE ENERGY PREDICTED BY IDOCK:   -0.02 KCAL/MOL
REMARK 927      BINDING AFFINITY PREDICTED BY RF-SCORE:    0.00 PKD
ROOT
HETATM    1  N   UNL     1      -6.723  15.415  67.358  1.00  0.00    -0.179 N  
HETATM    2  C   UNL     1      -7.603  16.041  68.200  1.00  0.00    -0.136 C  
HETATM    3  H1  UNL     1      -7.081  15.151  66.440  1.00  0.00     0.000 HD 
HETATM    4  H2  UNL     1      -5.759  15.224  67.633  1.00  0.00     0.000 HD 
HETATM    5  O   UNL     1      -7.171  16.358  69.304  1.00  0.00    -0.222 OA 
ENDROOT
BRANCH   2   6
HETATM    6  N   UNL     1      -8.869  16.325  67.648  1.00  0.00    -0.189 N  
HETATM    7  C   UNL     1      -9.253  17.676  67.267  1.00  0.00    -0.241 A  
HETATM    8  C   UNL     1     -10.197  17.993  66.258  1.00  0.00    -0.381 A  
HETATM    9  C   UNL     1     -10.899  17.020  65.336  1.00  0.00    -0.079 C  
HETATM   10  C   UNL     1     -10.527  19.350  66.009  1.00  0.00    -0.596 A  
HETATM   11  C   UNL     1      -9.929  20.393  66.705  1.00  0.00    -0.492 A  
HETATM   12  C   UNL     1     -10.386  15.588  65.312  1.00  0.00    -0.386 C  
HETATM   13  O   UNL     1     -11.027  14.867  64.254  1.00  0.00    -0.616 OA 
HETATM   14  C   UNL     1     -10.685  14.967  66.647  1.00  0.00    -0.312 A  
HETATM   15  C   UNL     1      -8.992  20.100  67.676  1.00  0.00    -0.412 A  
HETATM   16  C   UNL     1      -8.668  18.766  67.952  1.00  0.00    -0.321 A  
HETATM   17  C   UNL     1      -9.940  15.374  67.764  1.00  0.00    -0.225 A  
HETATM   18  H   UNL     1     -10.707  13.973  64.239  1.00  0.00     0.000 HD 
HETATM   19  C   UNL     1     -10.209  14.792  69.014  1.00  0.00    -0.237 A  
HETATM   20  C   UNL     1     -11.213  13.834  69.164  1.00  0.00    -0.307 A  
HETATM   21  C   UNL     1     -11.963  13.447  68.059  1.00  0.00    -0.357 A  
HETATM   22  C   UNL     1     -11.699  14.006  66.811  1.00  0.00    -0.430 A  
ENDBRANCH   2   6
TORSDOF 1
ENDMDL
MODEL       24
REMARK 921   NORMALIZED FREE ENERGY PREDICTED BY IDOCK:   -5.76 KCAL/MOL
REMARK 922        TOTAL FREE ENERGY PREDICTED BY IDOCK:   -6.12 KCAL/MOL
REMARK 923 INTER-LIGAND FREE ENERGY PREDICTED BY IDOCK:   -6.15 KCAL/MOL
REMARK 924 INTRA-LIGAND FREE ENERGY PREDICTED BY IDOCK:    0.04 KCAL/MOL
REMARK 927      BINDING AFFINITY PREDICTED BY RF-SCORE:    0.00 PKD
ROOT
HETATM    1  N   UNL     1     -10.647  18.774  67.529  1.00  0.00    -0.432 N  
HETATM    2  C   UNL     1     -10.485  18.033  66.388  1.00  0.00    -0.339 C  
HETATM    3  H1  UNL     1     -10.418  18.310  68.408  1.00  0.00     0.000 HD 
HETATM    4  H2  UNL     1     -10.978  19.739  67.501  1.00  0.00     0.000 HD 
HETATM    5  O   UNL     1     -10.760  18.592  65.330  1.00  0.00    -0.572 OA 
ENDROOT
BRANCH   2   6
HETATM    6  N   UNL     1      -9.927  16.751  66.574  1.00  0.00    -0.284 N  
HETATM    7  C   UNL     1      -8.506  16.563  66.825  1.00  0.00    -0.238 A  
HETATM    8  C   UNL     1      -7.951  15.470  67.538  1.00  0.00    -0.189 A  
HETATM    9  C   UNL     1      -8.710  14.368  68.243  1.00  0.00    -0.180 C  
HETATM   10  C   UNL     1      -6.543  15.368  67.677  1.00  0.00    -0.195 A  
HETATM   11  C   UNL     1      -5.681  16.327  67.161  1.00  0.00    -0.085 A  
HETATM   12  C   UNL     1     -10.210  14.555  68.417  1.00  0.00    -0.239 C  
HETATM   13  O   UNL     1     -10.726  13.525  69.267  1.00  0.00    -0.421 OA 
HETATM   14  C   UNL     1     -10.845  14.499  67.056  1.00  0.00    -0.297 A  
HETATM   15  C   UNL     1      -6.209  17.408  66.483  1.00  0.00    -0.251 A  
HETATM   16  C   UNL     1      -7.595  17.515  66.316  1.00  0.00    -0.343 A  
HETATM   17  C   UNL     1     -10.659  15.579  66.180  1.00  0.00    -0.315 A  
HETATM   18  H   UNL     1     -11.663  13.642  69.376  1.00  0.00     0.000 HD 
HETATM   19  C   UNL     1     -11.256  15.538  64.908  1.00  0.00    -0.396 A  
HETATM   20  C   UNL     1     -12.010  14.436  64.499  1.00  0.00    -0.487 A  
HETATM   21  C   UNL     1     -12.175  13.360  65.363  1.00  0.00    -0.492 A  
HETATM   22  C   UNL     1     -11.600  13.392  66.631  1.00  0.00    -0.399 A  
ENDBRANCH   2   6
TORSDOF 1
ENDMDL
MODEL       25
REMARK 921   NORMALIZED FREE ENERGY PREDICTED BY IDOCK:   -5.75 KCAL/MOL
REMARK 922        TOTAL FREE ENERGY PREDICTED BY IDOCK:   -6.11 KCAL/MOL
REMARK 923 INTER-LIGAND FREE ENERGY PREDICTED BY IDOCK:   -6.06 KCAL/MOL
REMARK 924 INTRA-LIGAND FREE ENERGY PREDICTED BY IDOCK:   -0.04 KCAL/MOL
REMARK 927      BINDING AFFINITY PREDICTED BY RF-SCORE:    0.00 PKD
ROOT
HETATM    1  N   UNL     1      -7.373  11.787  66.571  1.00  0.00    -0.369 N  
HETATM    2  C   UNL     1      -8.439  11.000  66.222  1.00  0.00    -0.165 C  
HETATM    3  H1  UNL     1      -7.592  12.675  67.021  1.00  0.00     0.000 HD 
HETATM    4  H2  UNL     1      -6.411  11.499  66.391  1.00  0.00     0.000 HD 
HETATM    5  O   UNL     1      -8.174   9.931  65.680  1.00  0.00    -0.128 OA 
ENDROOT
BRANCH   2   6
HETATM    6  N   UNL     1      -9.702  11.483  66.622  1.00  0.00    -0.195 N  
HETATM    7  C   UNL     1     -10.290  11.122  67.903  1.00  0.00    -0.185 A  
HETATM    8  C   UNL     1     -11.217  11.921  68.619  1.00  0.00    -0.311 A  
HETATM    9  C   UNL     1     -11.689  13.310  68.252  1.00  0.00    -0.388 C  
HETATM   10  C   UNL     1     -11.761  11.440  69.838  1.00  0.00    -0.424 A  
HETATM   11  C   UNL     1     -11.390  10.214  70.376  1.00  0.00    -0.401 A  
HETATM   12  C   UNL     1     -10.938  14.033  67.144  1.00  0.00    -0.296 C  
HETATM   13  O   UNL     1     -11.386  15.390  67.067  1.00  0.00    -0.288 OA 
HETATM   14  C   UNL     1     -11.200  13.304  65.856  1.00  0.00    -0.309 A  
HETATM   15  C   UNL     1     -10.472   9.435  69.700  1.00  0.00    -0.236 A  
HETATM   16  C   UNL     1      -9.940   9.882  68.485  1.00  0.00    -0.175 A  
HETATM   17  C   UNL     1     -10.599  12.053  65.654  1.00  0.00    -0.265 A  
HETATM   18  H   UNL     1     -10.916  15.842  66.375  1.00  0.00     0.000 HD 
HETATM   19  C   UNL     1     -10.833  11.369  64.449  1.00  0.00    -0.397 A  
HETATM   20  C   UNL     1     -11.665  11.905  63.464  1.00  0.00    -0.550 A  
HETATM   21  C   UNL     1     -12.274  13.136  63.676  1.00  0.00    -0.553 A  
HETATM   22  C   UNL     1     -12.041  13.831  64.860  1.00  0.00    -0.428 A  
ENDBRANCH   2   6
TORSDOF 1
ENDMDL
MODEL       26
REMARK 921   NORMALIZED FREE ENERGY PREDICTED BY IDOCK:   -5.72 KCAL/MOL
REMARK 922        TOTAL FREE ENERGY PREDICTED BY IDOCK:   -6.07 KCAL/MOL
REMARK 923 INTER-LIGAND FREE ENERGY PREDICTED BY IDOCK:   -6.34 KCAL/MOL
REMARK 924 INTRA-LIGAND FREE ENERGY PREDICTED BY IDOCK:    0.27 KCAL/MOL
REMARK 927      BINDING AFFINITY PREDICTED BY RF-SCORE:    0.00 PKD
ROOT
HETATM    1  N   UNL     1     -10.949   7.559  68.272  1.00  0.00    -0.444 N  
HETATM    2  C   UNL     1     -10.487   8.819  68.547  1.00  0.00    -0.175 C  
HETATM    3  H1  UNL     1     -11.492   7.104  69.005  1.00  0.00     0.000 HD 
HETATM    4  H2  UNL     1     -10.759   7.100  67.380  1.00  0.00     0.000 HD 
HETATM    5  O   UNL     1      -9.833   9.366  67.664  1.00  0.00    -0.160 OA 
ENDROOT
BRANCH   2   6
HETATM    6  N   UNL     1     -10.909   9.362  69.779  1.00  0.00    -0.233 N  
HETATM    7  C   UNL     1     -11.378  10.734  69.890  1.00  0.00    -0.311 A  
HETATM    8  C   UNL     1     -12.294  11.197  70.869  1.00  0.00    -0.500 A  
HETATM    9  C   UNL     1     -13.020  10.360  71.899  1.00  0.00    -0.555 C  
HETATM   10  C   UNL     1     -12.639  12.573  70.910  1.00  0.00    -0.331 A  
HETATM   11  C   UNL     1     -12.131  13.487  69.995  1.00  0.00    -0.411 A  
HETATM   12  C   UNL     1     -12.958   8.849  71.739  1.00  0.00    -0.367 C  
HETATM   13  O   UNL     1     -13.851   8.231  72.671  1.00  0.00    -0.591 OA 
HETATM   14  C   UNL     1     -11.540   8.415  71.982  1.00  0.00    -0.418 A  
HETATM   15  C   UNL     1     -11.255  13.046  69.023  1.00  0.00    -0.316 A  
HETATM   16  C   UNL     1     -10.884  11.696  68.980  1.00  0.00    -0.247 A  
HETATM   17  C   UNL     1     -10.568   8.709  71.013  1.00  0.00    -0.221 A  
HETATM   18  H   UNL     1     -13.813   7.287  72.571  1.00  0.00     0.000 HD 
HETATM   19  C   UNL     1      -9.241   8.299  71.230  1.00  0.00    -0.207 A  
HETATM   20  C   UNL     1      -8.874   7.626  72.396  1.00  0.00    -0.176 A  
HETATM   21  C   UNL     1      -9.836   7.354  73.362  1.00  0.00    -0.345 A  
HETATM   22  C   UNL     1     -11.157   7.743  73.156  1.00  0.00    -0.336 A  
ENDBRANCH   2   6
TORSDOF 1
ENDMDL
MODEL       27
REMARK 921   NORMALIZED FREE ENERGY PREDICTED BY IDOCK:   -5.69 KCAL/MOL
REMARK 922        TOTAL FREE ENERGY PREDICTED BY IDOCK:   -6.05 KCAL/MOL
REMARK 923 INTER-LIGAND FREE ENERGY PREDICTED BY IDOCK:   -6.11 KCAL/MOL
REMARK 924 INTRA-LIGAND FREE ENERGY PREDICTED BY IDOCK:    0.06 KCAL/MOL
REMARK 927      BINDING AFFINITY PREDICTED BY RF-SCORE:    0.00 PKD
ROOT
HETATM    1  N   UNL     1     -10.722  19.153  66.740  1.00  0.00    -0.426 N  
HETATM    2  C   UNL     1     -10.593  17.960  66.081  1.00  0.00    -0.242 C  
HETATM    3  H1  UNL     1     -10.411  19.172  67.711  1.00  0.00     0.000 HD 
HETATM    4  H2  UNL     1     -11.109  19.980  66.284  1.00  0.00     0.000 HD 
HETATM    5  O   UNL     1     -10.968  17.938  64.912  1.00  0.00    -0.827 OA 
ENDROOT
BRANCH   2   6
HETATM    6  N   UNL     1      -9.953  16.934  66.807  1.00  0.00    -0.277 N  
HETATM    7  C   UNL     1      -8.516  16.941  67.038  1.00  0.00    -0.203 A  
HETATM    8  C   UNL     1      -7.874  16.328  68.144  1.00  0.00    -0.156 A  
HETATM    9  C   UNL     1      -8.542  15.651  69.319  1.00  0.00    -0.262 C  
HETATM   10  C   UNL     1      -6.458  16.358  68.236  1.00  0.00    -0.133 A  
HETATM   11  C   UNL     1      -5.672  17.001  67.287  1.00  0.00    -0.180 A  
HETATM   12  C   UNL     1     -10.044  15.837  69.470  1.00  0.00    -0.279 C  
HETATM   13  O   UNL     1     -10.470  15.301  70.727  1.00  0.00    -0.490 OA 
HETATM   14  C   UNL     1     -10.716  15.130  68.327  1.00  0.00    -0.251 A  
HETATM   15  C   UNL     1      -6.287  17.621  66.217  1.00  0.00    -0.279 A  
HETATM   16  C   UNL     1      -7.681  17.583  66.096  1.00  0.00    -0.304 A  
HETATM   17  C   UNL     1     -10.624  15.685  67.042  1.00  0.00    -0.311 A  
HETATM   18  H   UNL     1     -11.409  15.418  70.822  1.00  0.00     0.000 HD 
HETATM   19  C   UNL     1     -11.255  15.033  65.969  1.00  0.00    -0.310 A  
HETATM   20  C   UNL     1     -11.953  13.839  66.158  1.00  0.00    -0.449 A  
HETATM   21  C   UNL     1     -12.026  13.282  67.430  1.00  0.00    -0.383 A  
HETATM   22  C   UNL     1     -11.415  13.923  68.505  1.00  0.00    -0.346 A  
ENDBRANCH   2   6
TORSDOF 1
ENDMDL
MODEL       28
REMARK 921   NORMALIZED FREE ENERGY PREDICTED BY IDOCK:   -5.69 KCAL/MOL
REMARK 922        TOTAL FREE ENERGY PREDICTED BY IDOCK:   -6.04 KCAL/MOL
REMARK 923 INTER-LIGAND FREE ENERGY PREDICTED BY IDOCK:   -6.81 KCAL/MOL
REMARK 924 INTRA-LIGAND FREE ENERGY PREDICTED BY IDOCK:    0.77 KCAL/MOL
REMARK 927      BINDING AFFINITY PREDICTED BY RF-SCORE:    0.00 PKD
ROOT
HETATM    1  N   UNL     1     -11.511  14.741  64.420  1.00  0.00    -0.636 N  
HETATM    2  C   UNL     1     -12.222  14.270  65.492  1.00  0.00    -0.402 C  
HETATM    3  H1  UNL     1     -10.571  15.086  64.614  1.00  0.00     0.000 HD 
HETATM    4  H2  UNL     1     -11.901  14.746  63.477  1.00  0.00     0.000 HD 
HETATM    5  O   UNL     1     -13.353  13.854  65.257  1.00  0.00    -0.732 OA 
ENDROOT
BRANCH   2   6
HETATM    6  N   UNL     1     -11.519  14.234  66.714  1.00  0.00    -0.352 N  
HETATM    7  C   UNL     1     -10.615  15.303  67.109  1.00  0.00    -0.302 A  
HETATM    8  C   UNL     1     -10.308  15.646  68.451  1.00  0.00    -0.231 A  
HETATM    9  C   UNL     1     -10.918  15.050  69.701  1.00  0.00    -0.294 C  
HETATM   10  C   UNL     1      -9.371  16.678  68.713  1.00  0.00    -0.256 A  
HETATM   11  C   UNL     1      -8.760  17.394  67.692  1.00  0.00    -0.221 A  
HETATM   12  C   UNL     1     -12.144  14.167  69.526  1.00  0.00    -0.340 C  
HETATM   13  O   UNL     1     -12.698  13.856  70.809  1.00  0.00    -0.329 OA 
HETATM   14  C   UNL     1     -11.717  12.919  68.806  1.00  0.00    -0.363 A  
HETATM   15  C   UNL     1      -9.066  17.086  66.381  1.00  0.00    -0.300 A  
HETATM   16  C   UNL     1      -9.971  16.056  66.101  1.00  0.00    -0.347 A  
HETATM   17  C   UNL     1     -11.396  13.002  67.443  1.00  0.00    -0.305 A  
HETATM   18  H   UNL     1     -13.464  13.305  70.700  1.00  0.00     0.000 HD 
HETATM   19  C   UNL     1     -11.003  11.837  66.761  1.00  0.00    -0.336 A  
HETATM   20  C   UNL     1     -10.910  10.610  67.421  1.00  0.00    -0.353 A  
HETATM   21  C   UNL     1     -11.210  10.536  68.776  1.00  0.00    -0.317 A  
HETATM   22  C   UNL     1     -11.613  11.679  69.462  1.00  0.00    -0.397 A  
ENDBRANCH   2   6
TORSDOF 1
ENDMDL
MODEL       29
REMARK 921   NORMALIZED FREE ENERGY PREDICTED BY IDOCK:   -5.65 KCAL/MOL
REMARK 922        TOTAL FREE ENERGY PREDICTED BY IDOCK:   -6.01 KCAL/MOL
REMARK 923 INTER-LIGAND FREE ENERGY PREDICTED BY IDOCK:   -5.98 KCAL/MOL
REMARK 924 INTRA-LIGAND FREE ENERGY PREDICTED BY IDOCK:   -0.03 KCAL/MOL
REMARK 927      BINDING AFFINITY PREDICTED BY RF-SCORE:    0.00 PKD
ROOT
HETATM    1  N   UNL     1      -7.800  10.099  70.319  1.00  0.00    -0.284 N  
HETATM    2  C   UNL     1      -8.820  10.248  69.417  1.00  0.00    -0.163 C  
HETATM    3  H1  UNL     1      -7.972   9.463  71.097  1.00  0.00     0.000 HD 
HETATM    4  H2  UNL     1      -6.915  10.598  70.217  1.00  0.00     0.000 HD 
HETATM    5  O   UNL     1      -8.613  11.014  68.479  1.00  0.00    -0.145 OA 
ENDROOT
BRANCH   2   6
HETATM    6  N   UNL     1      -9.943   9.423  69.632  1.00  0.00    -0.185 N  
HETATM    7  C   UNL     1     -10.179   8.228  68.836  1.00  0.00    -0.210 A  
HETATM    8  C   UNL     1     -10.899   7.090  69.282  1.00  0.00    -0.241 A  
HETATM    9  C   UNL     1     -11.461   6.860  70.667  1.00  0.00    -0.383 C  
HETATM   10  C   UNL     1     -11.108   6.002  68.396  1.00  0.00    -0.271 A  
HETATM   11  C   UNL     1     -10.601   5.998  67.103  1.00  0.00    -0.374 A  
HETATM   12  C   UNL     1     -11.026   7.818  71.766  1.00  0.00    -0.239 C  
HETATM   13  O   UNL     1     -11.490   7.338  73.032  1.00  0.00    -0.541 OA 
HETATM   14  C   UNL     1     -11.602   9.170  71.457  1.00  0.00    -0.439 A  
HETATM   15  C   UNL     1      -9.880   7.091  66.662  1.00  0.00    -0.223 A  
HETATM   16  C   UNL     1      -9.682   8.184  67.514  1.00  0.00    -0.207 A  
HETATM   17  C   UNL     1     -11.063   9.907  70.392  1.00  0.00    -0.319 A  
HETATM   18  H   UNL     1     -11.217   7.936  73.719  1.00  0.00     0.000 HD 
HETATM   19  C   UNL     1     -11.592  11.176  70.101  1.00  0.00    -0.410 A  
HETATM   20  C   UNL     1     -12.653  11.703  70.840  1.00  0.00    -0.409 A  
HETATM   21  C   UNL     1     -13.198  10.962  71.882  1.00  0.00    -0.508 A  
HETATM   22  C   UNL     1     -12.675   9.708  72.189  1.00  0.00    -0.427 A  
ENDBRANCH   2   6
TORSDOF 1
ENDMDL
MODEL       30
REMARK 921   NORMALIZED FREE ENERGY PREDICTED BY IDOCK:   -5.63 KCAL/MOL
REMARK 922        TOTAL FREE ENERGY PREDICTED BY IDOCK:   -5.98 KCAL/MOL
REMARK 923 INTER-LIGAND FREE ENERGY PREDICTED BY IDOCK:   -5.98 KCAL/MOL
REMARK 924 INTRA-LIGAND FREE ENERGY PREDICTED BY IDOCK:   -0.00 KCAL/MOL
REMARK 927      BINDING AFFINITY PREDICTED BY RF-SCORE:    0.00 PKD
ROOT
HETATM    1  N   UNL     1      -8.937  11.221  68.769  1.00  0.00    -0.309 N  
HETATM    2  C   UNL     1      -8.625  11.759  67.549  1.00  0.00    -0.157 C  
HETATM    3  H1  UNL     1      -9.724  11.641  69.263  1.00  0.00     0.000 HD 
HETATM    4  H2  UNL     1      -8.409  10.441  69.163  1.00  0.00     0.000 HD 
HETATM    5  O   UNL     1      -7.677  11.254  66.954  1.00  0.00    -0.139 OA 
ENDROOT
BRANCH   2   6
HETATM    6  N   UNL     1      -9.501  12.765  67.090  1.00  0.00    -0.216 N  
HETATM    7  C   UNL     1     -10.429  12.532  65.994  1.00  0.00    -0.258 A  
HETATM    8  C   UNL     1     -11.661  13.212  65.822  1.00  0.00    -0.415 A  
HETATM    9  C   UNL     1     -12.283  14.216  66.767  1.00  0.00    -0.429 C  
HETATM   10  C   UNL     1     -12.462  12.934  64.684  1.00  0.00    -0.499 A  
HETATM   11  C   UNL     1     -12.092  11.985  63.739  1.00  0.00    -0.599 A  
HETATM   12  C   UNL     1     -11.662  14.349  68.150  1.00  0.00    -0.342 C  
HETATM   13  O   UNL     1     -12.487  15.186  68.967  1.00  0.00    -0.585 OA 
HETATM   14  C   UNL     1     -10.290  14.938  67.987  1.00  0.00    -0.244 A  
HETATM   15  C   UNL     1     -10.906  11.299  63.906  1.00  0.00    -0.427 A  
HETATM   16  C   UNL     1     -10.091  11.575  65.010  1.00  0.00    -0.315 A  
HETATM   17  C   UNL     1      -9.273  14.140  67.442  1.00  0.00    -0.204 A  
HETATM   18  H   UNL     1     -12.100  15.269  69.831  1.00  0.00     0.000 HD 
HETATM   19  C   UNL     1      -7.984  14.681  67.293  1.00  0.00    -0.223 A  
HETATM   20  C   UNL     1      -7.708  16.000  67.660  1.00  0.00    -0.165 A  
HETATM   21  C   UNL     1      -8.723  16.793  68.182  1.00  0.00    -0.219 A  
HETATM   22  C   UNL     1     -10.001  16.267  68.346  1.00  0.00    -0.234 A  
ENDBRANCH   2   6
TORSDOF 1
ENDMDL
MODEL       31
REMARK 921   NORMALIZED FREE ENERGY PREDICTED BY IDOCK:   -5.61 KCAL/MOL
REMARK 922        TOTAL FREE ENERGY PREDICTED BY IDOCK:   -5.96 KCAL/MOL
REMARK 923 INTER-LIGAND FREE ENERGY PREDICTED BY IDOCK:   -6.22 KCAL/MOL
REMARK 924 INTRA-LIGAND FREE ENERGY PREDICTED BY IDOCK:    0.27 KCAL/MOL
REMARK 927      BINDING AFFINITY PREDICTED BY RF-SCORE:    0.00 PKD
ROOT
HETATM    1  N   UNL     1     -11.993  10.554  68.856  1.00  0.00    -0.513 N  
HETATM    2  C   UNL     1     -10.885  10.496  68.054  1.00  0.00    -0.263 C  
HETATM    3  H1  UNL     1     -12.616  11.350  68.715  1.00  0.00     0.000 HD 
HETATM    4  H2  UNL     1     -12.187   9.839  69.558  1.00  0.00     0.000 HD 
HETATM    5  O   UNL     1     -10.137   9.538  68.224  1.00  0.00    -0.169 OA 
ENDROOT
BRANCH   2   6
HETATM    6  N   UNL     1     -10.801  11.499  67.065  1.00  0.00    -0.259 N  
HETATM    7  C   UNL     1     -10.422  11.193  65.695  1.00  0.00    -0.248 A  
HETATM    8  C   UNL     1     -10.818  11.947  64.561  1.00  0.00    -0.368 A  
HETATM    9  C   UNL     1     -11.767  13.125  64.542  1.00  0.00    -0.417 C  
HETATM   10  C   UNL     1     -10.343  11.580  63.275  1.00  0.00    -0.435 A  
HETATM   11  C   UNL     1      -9.520  10.478  63.081  1.00  0.00    -0.367 A  
HETATM   12  C   UNL     1     -12.564  13.399  65.808  1.00  0.00    -0.393 C  
HETATM   13  O   UNL     1     -13.542  14.412  65.549  1.00  0.00    -0.576 OA 
HETATM   14  C   UNL     1     -11.603  13.837  66.876  1.00  0.00    -0.394 A  
HETATM   15  C   UNL     1      -9.144   9.722  64.174  1.00  0.00    -0.289 A  
HETATM   16  C   UNL     1      -9.584  10.081  65.454  1.00  0.00    -0.342 A  
HETATM   17  C   UNL     1     -10.743  12.884  67.443  1.00  0.00    -0.237 A  
HETATM   18  H   UNL     1     -14.041  14.583  66.340  1.00  0.00     0.000 HD 
HETATM   19  C   UNL     1      -9.846  13.285  68.447  1.00  0.00    -0.218 A  
HETATM   20  C   UNL     1      -9.785  14.613  68.873  1.00  0.00    -0.196 A  
HETATM   21  C   UNL     1     -10.624  15.558  68.296  1.00  0.00    -0.255 A  
HETATM   22  C   UNL     1     -11.527  15.173  67.308  1.00  0.00    -0.284 A  
ENDBRANCH   2   6
TORSDOF 1
ENDMDL
MODEL       32
REMARK 921   NORMALIZED FREE ENERGY PREDICTED BY IDOCK:   -5.57 KCAL/MOL
REMARK 922        TOTAL FREE ENERGY PREDICTED BY IDOCK:   -5.91 KCAL/MOL
REMARK 923 INTER-LIGAND FREE ENERGY PREDICTED BY IDOCK:   -6.66 KCAL/MOL
REMARK 924 INTRA-LIGAND FREE ENERGY PREDICTED BY IDOCK:    0.75 KCAL/MOL
REMARK 927      BINDING AFFINITY PREDICTED BY RF-SCORE:    0.00 PKD
ROOT
HETATM    1  N   UNL     1     -11.176  14.757  64.147  1.00  0.00    -0.560 N  
HETATM    2  C   UNL     1     -11.042  16.019  64.660  1.00  0.00    -0.332 C  
HETATM    3  H1  UNL     1     -10.740  14.002  64.677  1.00  0.00     0.000 HD 
HETATM    4  H2  UNL     1     -11.686  14.579  63.281  1.00  0.00     0.000 HD 
HETATM    5  O   UNL     1     -11.568  16.927  64.022  1.00  0.00    -1.123 OA 
ENDROOT
BRANCH   2   6
HETATM    6  N   UNL     1     -10.398  16.098  65.912  1.00  0.00    -0.350 N  
HETATM    7  C   UNL     1     -10.587  15.083  66.936  1.00  0.00    -0.297 A  
HETATM    8  C   UNL     1      -9.638  14.762  67.940  1.00  0.00    -0.210 A  
HETATM    9  C   UNL     1      -8.241  15.327  68.081  1.00  0.00    -0.141 C  
HETATM   10  C   UNL     1      -9.956  13.785  68.918  1.00  0.00    -0.043 A  
HETATM   11  C   UNL     1     -11.165  13.101  68.909  1.00  0.00    -0.324 A  
HETATM   12  C   UNL     1      -7.697  16.140  66.916  1.00  0.00    -0.249 C  
HETATM   13  O   UNL     1      -6.311  16.423  67.135  1.00  0.00    -0.167 OA 
HETATM   14  C   UNL     1      -8.498  17.407  66.820  1.00  0.00    -0.280 A  
HETATM   15  C   UNL     1     -12.090  13.388  67.924  1.00  0.00    -0.289 A  
HETATM   16  C   UNL     1     -11.804  14.364  66.964  1.00  0.00    -0.437 A  
HETATM   17  C   UNL     1      -9.819  17.338  66.352  1.00  0.00    -0.299 A  
HETATM   18  H   UNL     1      -5.971  16.930  66.407  1.00  0.00     0.000 HD 
HETATM   19  C   UNL     1     -10.572  18.521  66.253  1.00  0.00    -0.370 A  
HETATM   20  C   UNL     1     -10.035  19.753  66.630  1.00  0.00    -0.556 A  
HETATM   21  C   UNL     1      -8.733  19.815  67.113  1.00  0.00    -0.383 A  
HETATM   22  C   UNL     1      -7.970  18.653  67.205  1.00  0.00    -0.249 A  
ENDBRANCH   2   6
TORSDOF 1
ENDMDL
MODEL       33
REMARK 921   NORMALIZED FREE ENERGY PREDICTED BY IDOCK:   -5.55 KCAL/MOL
REMARK 922        TOTAL FREE ENERGY PREDICTED BY IDOCK:   -5.90 KCAL/MOL
REMARK 923 INTER-LIGAND FREE ENERGY PREDICTED BY IDOCK:   -5.85 KCAL/MOL
REMARK 924 INTRA-LIGAND FREE ENERGY PREDICTED BY IDOCK:   -0.04 KCAL/MOL
REMARK 927      BINDING AFFINITY PREDICTED BY RF-SCORE:    0.00 PKD
ROOT
HETATM    1  N   UNL     1     -12.099  13.366  66.142  1.00  0.00    -0.420 N  
HETATM    2  C   UNL     1     -11.690  12.731  67.285  1.00  0.00    -0.378 C  
HETATM    3  H1  UNL     1     -11.845  14.350  66.054  1.00  0.00     0.000 HD 
HETATM    4  H2  UNL     1     -12.628  12.880  65.417  1.00  0.00     0.000 HD 
HETATM    5  O   UNL     1     -11.995  11.547  67.391  1.00  0.00    -0.623 OA 
ENDROOT
BRANCH   2   6
HETATM    6  N   UNL     1     -10.884  13.502  68.149  1.00  0.00    -0.247 N  
HETATM    7  C   UNL     1      -9.434  13.510  68.039  1.00  0.00    -0.220 A  
HETATM    8  C   UNL     1      -8.601  14.587  68.435  1.00  0.00    -0.172 A  
HETATM    9  C   UNL     1      -9.048  15.940  68.944  1.00  0.00    -0.233 C  
HETATM   10  C   UNL     1      -7.192  14.460  68.326  1.00  0.00    -0.122 A  
HETATM   11  C   UNL     1      -6.594  13.317  67.810  1.00  0.00    -0.156 A  
HETATM   12  C   UNL     1     -10.523  16.284  68.804  1.00  0.00    -0.282 C  
HETATM   13  O   UNL     1     -10.729  17.658  69.149  1.00  0.00    -0.366 OA 
HETATM   14  C   UNL     1     -11.299  15.377  69.717  1.00  0.00    -0.317 A  
HETATM   15  C   UNL     1      -7.394  12.268  67.401  1.00  0.00    -0.151 A  
HETATM   16  C   UNL     1      -8.785  12.366  67.521  1.00  0.00    -0.179 A  
HETATM   17  C   UNL     1     -11.428  14.023  69.373  1.00  0.00    -0.290 A  
HETATM   18  H   UNL     1     -11.651  17.874  69.061  1.00  0.00     0.000 HD 
HETATM   19  C   UNL     1     -12.158  13.170  70.218  1.00  0.00    -0.399 A  
HETATM   20  C   UNL     1     -12.738  13.643  71.396  1.00  0.00    -0.437 A  
HETATM   21  C   UNL     1     -12.592  14.981  71.743  1.00  0.00    -0.409 A  
HETATM   22  C   UNL     1     -11.881  15.841  70.910  1.00  0.00    -0.451 A  
ENDBRANCH   2   6
TORSDOF 1
ENDMDL
MODEL       34
REMARK 921   NORMALIZED FREE ENERGY PREDICTED BY IDOCK:   -5.50 KCAL/MOL
REMARK 922        TOTAL FREE ENERGY PREDICTED BY IDOCK:   -5.84 KCAL/MOL
REMARK 923 INTER-LIGAND FREE ENERGY PREDICTED BY IDOCK:   -5.90 KCAL/MOL
REMARK 924 INTRA-LIGAND FREE ENERGY PREDICTED BY IDOCK:    0.05 KCAL/MOL
REMARK 927      BINDING AFFINITY PREDICTED BY RF-SCORE:    0.00 PKD
ROOT
HETATM    1  N   UNL     1     -10.933  16.961  67.229  1.00  0.00    -0.115 N  
HETATM    2  C   UNL     1     -10.433  16.778  68.491  1.00  0.00    -0.335 C  
HETATM    3  H1  UNL     1     -11.284  16.129  66.754  1.00  0.00     0.000 HD 
HETATM    4  H2  UNL     1     -10.953  17.880  66.787  1.00  0.00     0.000 HD 
HETATM    5  O   UNL     1     -10.011  17.780  69.062  1.00  0.00    -0.327 OA 
ENDROOT
BRANCH   2   6
HETATM    6  N   UNL     1     -10.560  15.472  69.008  1.00  0.00    -0.234 N  
HETATM    7  C   UNL     1     -11.375  15.188  70.180  1.00  0.00    -0.271 A  
HETATM    8  C   UNL     1     -11.999  13.943  70.446  1.00  0.00    -0.393 A  
HETATM    9  C   UNL     1     -12.023  12.730  69.543  1.00  0.00    -0.338 C  
HETATM   10  C   UNL     1     -12.730  13.769  71.649  1.00  0.00    -0.409 A  
HETATM   11  C   UNL     1     -12.884  14.797  72.572  1.00  0.00    -0.469 A  
HETATM   12  C   UNL     1     -11.540  12.915  68.112  1.00  0.00    -0.336 C  
HETATM   13  O   UNL     1     -11.815  11.731  67.356  1.00  0.00    -0.590 OA 
HETATM   14  C   UNL     1     -10.065  13.198  68.154  1.00  0.00    -0.237 A  
HETATM   15  C   UNL     1     -12.299  16.021  72.315  1.00  0.00    -0.570 A  
HETATM   16  C   UNL     1     -11.556  16.206  71.144  1.00  0.00    -0.453 A  
HETATM   17  C   UNL     1      -9.630  14.447  68.623  1.00  0.00    -0.208 A  
HETATM   18  H   UNL     1     -11.514  11.847  66.462  1.00  0.00     0.000 HD 
HETATM   19  C   UNL     1      -8.252  14.722  68.658  1.00  0.00    -0.159 A  
HETATM   20  C   UNL     1      -7.315  13.769  68.253  1.00  0.00    -0.118 A  
HETATM   21  C   UNL     1      -7.749  12.526  67.808  1.00  0.00    -0.142 A  
HETATM   22  C   UNL     1      -9.112  12.244  67.756  1.00  0.00    -0.191 A  
ENDBRANCH   2   6
TORSDOF 1
ENDMDL
MODEL       35
REMARK 921   NORMALIZED FREE ENERGY PREDICTED BY IDOCK:   -5.48 KCAL/MOL
REMARK 922        TOTAL FREE ENERGY PREDICTED BY IDOCK:   -5.82 KCAL/MOL
REMARK 923 INTER-LIGAND FREE ENERGY PREDICTED BY IDOCK:   -5.83 KCAL/MOL
REMARK 924 INTRA-LIGAND FREE ENERGY PREDICTED BY IDOCK:    0.01 KCAL/MOL
REMARK 927      BINDING AFFINITY PREDICTED BY RF-SCORE:    0.00 PKD
ROOT
HETATM    1  N   UNL     1     -10.136  15.068  67.948  1.00  0.00    -0.226 N  
HETATM    2  C   UNL     1     -11.183  14.222  68.203  1.00  0.00    -0.275 C  
HETATM    3  H1  UNL     1      -9.292  14.643  67.563  1.00  0.00     0.000 HD 
HETATM    4  H2  UNL     1     -10.197  16.069  68.133  1.00  0.00     0.000 HD 
HETATM    5  O   UNL     1     -12.198  14.733  68.666  1.00  0.00    -0.206 OA 
ENDROOT
BRANCH   2   6
HETATM    6  N   UNL     1     -10.988  12.882  67.805  1.00  0.00    -0.236 N  
HETATM    7  C   UNL     1     -11.147  12.463  66.421  1.00  0.00    -0.301 A  
HETATM    8  C   UNL     1     -10.481  11.359  65.831  1.00  0.00    -0.309 A  
HETATM    9  C   UNL     1      -9.430  10.483  66.477  1.00  0.00    -0.200 C  
HETATM   10  C   UNL     1     -10.755  11.015  64.482  1.00  0.00    -0.335 A  
HETATM   11  C   UNL     1     -11.638  11.749  63.700  1.00  0.00    -0.521 A  
HETATM   12  C   UNL     1      -8.846  10.955  67.800  1.00  0.00    -0.135 C  
HETATM   13  O   UNL     1      -7.741  10.120  68.161  1.00  0.00    -0.087 OA 
HETATM   14  C   UNL     1      -9.933  10.889  68.836  1.00  0.00    -0.208 A  
HETATM   15  C   UNL     1     -12.277  12.841  64.256  1.00  0.00    -0.499 A  
HETATM   16  C   UNL     1     -12.037  13.182  65.592  1.00  0.00    -0.501 A  
HETATM   17  C   UNL     1     -10.971  11.831  68.785  1.00  0.00    -0.234 A  
HETATM   18  H   UNL     1      -7.376  10.415  68.987  1.00  0.00     0.000 HD 
HETATM   19  C   UNL     1     -11.988  11.781  69.755  1.00  0.00    -0.392 A  
HETATM   20  C   UNL     1     -11.989  10.802  70.750  1.00  0.00    -0.464 A  
HETATM   21  C   UNL     1     -10.968   9.858  70.785  1.00  0.00    -0.407 A  
HETATM   22  C   UNL     1      -9.948   9.903  69.838  1.00  0.00    -0.292 A  
ENDBRANCH   2   6
TORSDOF 1
ENDMDL
MODEL       36
REMARK 921   NORMALIZED FREE ENERGY PREDICTED BY IDOCK:   -5.48 KCAL/MOL
REMARK 922        TOTAL FREE ENERGY PREDICTED BY IDOCK:   -5.82 KCAL/MOL
REMARK 923 INTER-LIGAND FREE ENERGY PREDICTED BY IDOCK:   -5.78 KCAL/MOL
REMARK 924 INTRA-LIGAND FREE ENERGY PREDICTED BY IDOCK:   -0.04 KCAL/MOL
REMARK 927      BINDING AFFINITY PREDICTED BY RF-SCORE:    0.00 PKD
ROOT
HETATM    1  N   UNL     1     -13.957   7.646  71.153  1.00  0.00    -0.648 N  
HETATM    2  C   UNL     1     -12.712   8.077  71.528  1.00  0.00    -0.307 C  
HETATM    3  H1  UNL     1     -13.996   7.005  70.361  1.00  0.00     0.000 HD 
HETATM    4  H2  UNL     1     -14.800   7.949  71.642  1.00  0.00     0.000 HD 
HETATM    5  O   UNL     1     -12.665   8.847  72.483  1.00  0.00    -0.390 OA 
ENDROOT
BRANCH   2   6
HETATM    6  N   UNL     1     -11.635   7.498  70.826  1.00  0.00    -0.289 N  
HETATM    7  C   UNL     1     -11.012   6.258  71.263  1.00  0.00    -0.275 A  
HETATM    8  C   UNL     1     -10.354   5.339  70.407  1.00  0.00    -0.345 A  
HETATM    9  C   UNL     1     -10.256   5.415  68.899  1.00  0.00    -0.266 C  
HETATM   10  C   UNL     1      -9.739   4.185  70.957  1.00  0.00    -0.260 A  
HETATM   11  C   UNL     1      -9.788   3.903  72.317  1.00  0.00    -0.228 A  
HETATM   12  C   UNL     1     -11.137   6.435  68.194  1.00  0.00    -0.263 C  
HETATM   13  O   UNL     1     -11.064   6.235  66.778  1.00  0.00    -0.617 OA 
HETATM   14  C   UNL     1     -10.651   7.806  68.571  1.00  0.00    -0.153 A  
HETATM   15  C   UNL     1     -10.445   4.778  73.160  1.00  0.00    -0.257 A  
HETATM   16  C   UNL     1     -11.038   5.934  72.639  1.00  0.00    -0.322 A  
HETATM   17  C   UNL     1     -10.892   8.274  69.871  1.00  0.00    -0.213 A  
HETATM   18  H   UNL     1     -11.614   6.872  66.338  1.00  0.00     0.000 HD 
HETATM   19  C   UNL     1     -10.447   9.559  70.229  1.00  0.00    -0.319 A  
HETATM   20  C   UNL     1      -9.757  10.363  69.320  1.00  0.00    -0.231 A  
HETATM   21  C   UNL     1      -9.504   9.889  68.038  1.00  0.00    -0.147 A  
HETATM   22  C   UNL     1      -9.949   8.623  67.666  1.00  0.00    -0.248 A  
ENDBRANCH   2   6
TORSDOF 1
ENDMDL
MODEL       37
REMARK 921   NORMALIZED FREE ENERGY PREDICTED BY IDOCK:   -5.46 KCAL/MOL
REMARK 922        TOTAL FREE ENERGY PREDICTED BY IDOCK:   -5.81 KCAL/MOL
REMARK 923 INTER-LIGAND FREE ENERGY PREDICTED BY IDOCK:   -5.77 KCAL/MOL
REMARK 924 INTRA-LIGAND FREE ENERGY PREDICTED BY IDOCK:   -0.04 KCAL/MOL
REMARK 927      BINDING AFFINITY PREDICTED BY RF-SCORE:    0.00 PKD
ROOT
HETATM    1  N   UNL     1     -11.446  15.039  64.352  1.00  0.00    -0.649 N  
HETATM    2  C   UNL     1     -11.940  14.333  65.417  1.00  0.00    -0.383 C  
HETATM    3  H1  UNL     1     -10.449  15.255  64.374  1.00  0.00     0.000 HD 
HETATM    4  H2  UNL     1     -12.043  15.333  63.579  1.00  0.00     0.000 HD 
HETATM    5  O   UNL     1     -13.140  14.073  65.391  1.00  0.00    -0.763 OA 
ENDROOT
BRANCH   2   6
HETATM    6  N   UNL     1     -10.980  13.911  66.360  1.00  0.00    -0.301 N  
HETATM    7  C   UNL     1     -10.253  12.661  66.206  1.00  0.00    -0.251 A  
HETATM    8  C   UNL     1      -8.960  12.409  66.732  1.00  0.00    -0.205 A  
HETATM    9  C   UNL     1      -8.066  13.395  67.452  1.00  0.00    -0.178 C  
HETATM   10  C   UNL     1      -8.370  11.130  66.559  1.00  0.00    -0.166 A  
HETATM   11  C   UNL     1      -9.008  10.114  65.858  1.00  0.00    -0.182 A  
HETATM   12  C   UNL     1      -8.472  14.861  67.414  1.00  0.00    -0.195 C  
HETATM   13  O   UNL     1      -7.423  15.663  67.967  1.00  0.00    -0.116 OA 
HETATM   14  C   UNL     1      -9.741  15.011  68.204  1.00  0.00    -0.215 A  
HETATM   15  C   UNL     1     -10.258  10.353  65.322  1.00  0.00    -0.332 A  
HETATM   16  C   UNL     1     -10.866  11.601  65.501  1.00  0.00    -0.334 A  
HETATM   17  C   UNL     1     -10.935  14.511  67.666  1.00  0.00    -0.288 A  
HETATM   18  H   UNL     1      -7.676  16.579  67.943  1.00  0.00     0.000 HD 
HETATM   19  C   UNL     1     -12.128  14.654  68.396  1.00  0.00    -0.223 A  
HETATM   20  C   UNL     1     -12.137  15.267  69.650  1.00  0.00    -0.342 A  
HETATM   21  C   UNL     1     -10.948  15.744  70.189  1.00  0.00    -0.361 A  
HETATM   22  C   UNL     1      -9.761  15.620  69.472  1.00  0.00    -0.287 A  
ENDBRANCH   2   6
TORSDOF 1
ENDMDL
MODEL       38
REMARK 921   NORMALIZED FREE ENERGY PREDICTED BY IDOCK:   -5.45 KCAL/MOL
REMARK 922        TOTAL FREE ENERGY PREDICTED BY IDOCK:   -5.79 KCAL/MOL
REMARK 923 INTER-LIGAND FREE ENERGY PREDICTED BY IDOCK:   -5.79 KCAL/MOL
REMARK 924 INTRA-LIGAND FREE ENERGY PREDICTED BY IDOCK:    0.01 KCAL/MOL
REMARK 927      BINDING AFFINITY PREDICTED BY RF-SCORE:    0.00 PKD
ROOT
HETATM    1  N   UNL     1     -11.359   6.803  67.633  1.00  0.00    -0.667 N  
HETATM    2  C   UNL     1     -10.426   7.803  67.562  1.00  0.00    -0.268 C  
HETATM    3  H1  UNL     1     -11.979   6.818  68.443  1.00  0.00     0.000 HD 
HETATM    4  H2  UNL     1     -11.430   6.083  66.914  1.00  0.00     0.000 HD 
HETATM    5  O   UNL     1      -9.680   7.786  66.587  1.00  0.00    -0.204 OA 
ENDROOT
BRANCH   2   6
HETATM    6  N   UNL     1     -10.510   8.782  68.574  1.00  0.00    -0.199 N  
HETATM    7  C   UNL     1     -10.957  10.138  68.294  1.00  0.00    -0.248 A  
HETATM    8  C   UNL     1     -11.583  10.992  69.236  1.00  0.00    -0.384 A  
HETATM    9  C   UNL     1     -11.988  10.640  70.650  1.00  0.00    -0.466 C  
HETATM   10  C   UNL     1     -11.931  12.316  68.860  1.00  0.00    -0.300 A  
HETATM   11  C   UNL     1     -11.705  12.799  67.577  1.00  0.00    -0.422 A  
HETATM   12  C   UNL     1     -11.944   9.171  71.043  1.00  0.00    -0.282 C  
HETATM   13  O   UNL     1     -12.540   9.001  72.333  1.00  0.00    -0.376 OA 
HETATM   14  C   UNL     1     -10.505   8.737  71.053  1.00  0.00    -0.293 A  
HETATM   15  C   UNL     1     -11.116  11.970  66.642  1.00  0.00    -0.358 A  
HETATM   16  C   UNL     1     -10.745  10.669  67.001  1.00  0.00    -0.317 A  
HETATM   17  C   UNL     1      -9.837   8.586  69.829  1.00  0.00    -0.186 A  
HETATM   18  H   UNL     1     -12.513   8.083  72.578  1.00  0.00     0.000 HD 
HETATM   19  C   UNL     1      -8.493   8.174  69.830  1.00  0.00    -0.125 A  
HETATM   20  C   UNL     1      -7.812   7.933  71.024  1.00  0.00    -0.089 A  
HETATM   21  C   UNL     1      -8.472   8.102  72.236  1.00  0.00    -0.227 A  
HETATM   22  C   UNL     1      -9.807   8.499  72.250  1.00  0.00    -0.383 A  
ENDBRANCH   2   6
TORSDOF 1
ENDMDL
MODEL       39
REMARK 921   NORMALIZED FREE ENERGY PREDICTED BY IDOCK:   -5.41 KCAL/MOL
REMARK 922        TOTAL FREE ENERGY PREDICTED BY IDOCK:   -5.74 KCAL/MOL
REMARK 923 INTER-LIGAND FREE ENERGY PREDICTED BY IDOCK:   -5.71 KCAL/MOL
REMARK 924 INTRA-LIGAND FREE ENERGY PREDICTED BY IDOCK:   -0.04 KCAL/MOL
REMARK 927      BINDING AFFINITY PREDICTED BY RF-SCORE:    0.00 PKD
ROOT
HETATM    1  N   UNL     1     -11.328   6.835  67.452  1.00  0.00    -0.739 N  
HETATM    2  C   UNL     1     -10.347   7.254  68.311  1.00  0.00    -0.193 C  
HETATM    3  H1  UNL     1     -12.279   6.824  67.818  1.00  0.00     0.000 HD 
HETATM    4  H2  UNL     1     -11.117   6.550  66.495  1.00  0.00     0.000 HD 
HETATM    5  O   UNL     1      -9.202   7.268  67.870  1.00  0.00    -0.132 OA 
ENDROOT
BRANCH   2   6
HETATM    6  N   UNL     1     -10.799   7.710  69.567  1.00  0.00    -0.208 N  
HETATM    7  C   UNL     1     -11.202   9.092  69.781  1.00  0.00    -0.056 A  
HETATM    8  C   UNL     1     -12.139   9.518  70.756  1.00  0.00    -0.305 A  
HETATM    9  C   UNL     1     -12.954   8.636  71.676  1.00  0.00    -0.377 C  
HETATM   10  C   UNL     1     -12.416  10.902  70.905  1.00  0.00    -0.507 A  
HETATM   11  C   UNL     1     -11.819  11.862  70.098  1.00  0.00    -0.390 A  
HETATM   12  C   UNL     1     -12.962   7.143  71.385  1.00  0.00    -0.368 C  
HETATM   13  O   UNL     1     -13.929   6.496  72.219  1.00  0.00    -0.514 OA 
HETATM   14  C   UNL     1     -11.581   6.612  71.648  1.00  0.00    -0.350 A  
HETATM   15  C   UNL     1     -10.921  11.460  69.129  1.00  0.00    -0.289 A  
HETATM   16  C   UNL     1     -10.618  10.101  68.982  1.00  0.00    -0.245 A  
HETATM   17  C   UNL     1     -10.551   6.935  70.752  1.00  0.00    -0.220 A  
HETATM   18  H   UNL     1     -13.934   5.563  72.037  1.00  0.00     0.000 HD 
HETATM   19  C   UNL     1      -9.258   6.437  70.987  1.00  0.00    -0.157 A  
HETATM   20  C   UNL     1      -8.982   5.645  72.103  1.00  0.00    -0.140 A  
HETATM   21  C   UNL     1     -10.000   5.344  73.000  1.00  0.00    -0.190 A  
HETATM   22  C   UNL     1     -11.289   5.820  72.773  1.00  0.00    -0.328 A  
ENDBRANCH   2   6
TORSDOF 1
ENDMDL
MODEL       40
REMARK 921   NORMALIZED FREE ENERGY PREDICTED BY IDOCK:   -5.40 KCAL/MOL
REMARK 922        TOTAL FREE ENERGY PREDICTED BY IDOCK:   -5.74 KCAL/MOL
REMARK 923 INTER-LIGAND FREE ENERGY PREDICTED BY IDOCK:   -5.71 KCAL/MOL
REMARK 924 INTRA-LIGAND FREE ENERGY PREDICTED BY IDOCK:   -0.02 KCAL/MOL
REMARK 927      BINDING AFFINITY PREDICTED BY RF-SCORE:    0.00 PKD
ROOT
HETATM    1  N   UNL     1      -7.688  10.831  65.229  1.00  0.00    -0.348 N  
HETATM    2  C   UNL     1      -8.995  10.548  64.935  1.00  0.00    -0.199 C  
HETATM    3  H1  UNL     1      -7.501  11.195  66.163  1.00  0.00     0.000 HD 
HETATM    4  H2  UNL     1      -6.940  10.686  64.550  1.00  0.00     0.000 HD 
HETATM    5  O   UNL     1      -9.219  10.109  63.810  1.00  0.00    -0.243 OA 
ENDROOT
BRANCH   2   6
HETATM    6  N   UNL     1      -9.903  10.706  66.002  1.00  0.00    -0.217 N  
HETATM    7  C   UNL     1     -10.121   9.655  66.985  1.00  0.00    -0.214 A  
HETATM    8  C   UNL     1     -10.541   9.875  68.321  1.00  0.00    -0.269 A  
HETATM    9  C   UNL     1     -10.745  11.212  68.999  1.00  0.00    -0.265 C  
HETATM   10  C   UNL     1     -10.769   8.765  69.175  1.00  0.00    -0.150 A  
HETATM   11  C   UNL     1     -10.562   7.457  68.753  1.00  0.00    -0.189 A  
HETATM   12  C   UNL     1     -10.233  12.447  68.274  1.00  0.00    -0.229 C  
HETATM   13  O   UNL     1     -10.329  13.585  69.138  1.00  0.00    -0.429 OA 
HETATM   14  C   UNL     1     -11.064  12.637  67.037  1.00  0.00    -0.322 A  
HETATM   15  C   UNL     1     -10.132   7.230  67.461  1.00  0.00    -0.250 A  
HETATM   16  C   UNL     1      -9.923   8.311  66.596  1.00  0.00    -0.348 A  
HETATM   17  C   UNL     1     -10.890  11.750  65.964  1.00  0.00    -0.296 A  
HETATM   18  H   UNL     1     -10.009  14.356  68.685  1.00  0.00     0.000 HD 
HETATM   19  C   UNL     1     -11.659  11.925  64.801  1.00  0.00    -0.302 A  
HETATM   20  C   UNL     1     -12.601  12.951  64.705  1.00  0.00    -0.493 A  
HETATM   21  C   UNL     1     -12.784  13.816  65.778  1.00  0.00    -0.494 A  
HETATM   22  C   UNL     1     -12.021  13.662  66.933  1.00  0.00    -0.454 A  
ENDBRANCH   2   6
TORSDOF 1
ENDMDL
MODEL       41
REMARK 921   NORMALIZED FREE ENERGY PREDICTED BY IDOCK:   -5.39 KCAL/MOL
REMARK 922        TOTAL FREE ENERGY PREDICTED BY IDOCK:   -5.73 KCAL/MOL
REMARK 923 INTER-LIGAND FREE ENERGY PREDICTED BY IDOCK:   -6.04 KCAL/MOL
REMARK 924 INTRA-LIGAND FREE ENERGY PREDICTED BY IDOCK:    0.31 KCAL/MOL
REMARK 927      BINDING AFFINITY PREDICTED BY RF-SCORE:    0.00 PKD
ROOT
HETATM    1  N   UNL     1     -11.246  13.470  69.962  1.00  0.00    -0.478 N  
HETATM    2  C   UNL     1     -11.636  14.663  69.414  1.00  0.00    -0.305 C  
HETATM    3  H1  UNL     1     -10.520  12.957  69.462  1.00  0.00     0.000 HD 
HETATM    4  H2  UNL     1     -11.659  13.114  70.824  1.00  0.00     0.000 HD 
HETATM    5  O   UNL     1     -12.510  15.281  70.016  1.00  0.00    -0.339 OA 
ENDROOT
BRANCH   2   6
HETATM    6  N   UNL     1     -10.909  15.073  68.277  1.00  0.00    -0.252 N  
HETATM    7  C   UNL     1     -11.235  14.590  66.944  1.00  0.00    -0.336 A  
HETATM    8  C   UNL     1     -10.977  15.300  65.744  1.00  0.00    -0.340 A  
HETATM    9  C   UNL     1     -10.418  16.700  65.620  1.00  0.00    -0.313 C  
HETATM   10  C   UNL     1     -11.296  14.704  64.496  1.00  0.00    -0.316 A  
HETATM   11  C   UNL     1     -11.887  13.449  64.409  1.00  0.00    -0.452 A  
HETATM   12  C   UNL     1     -10.337  17.533  66.890  1.00  0.00    -0.315 C  
HETATM   13  O   UNL     1      -9.977  18.878  66.559  1.00  0.00    -0.338 OA 
HETATM   14  C   UNL     1      -9.312  16.906  67.791  1.00  0.00    -0.235 A  
HETATM   15  C   UNL     1     -12.163  12.757  65.571  1.00  0.00    -0.519 A  
HETATM   16  C   UNL     1     -11.836  13.318  66.811  1.00  0.00    -0.448 A  
HETATM   17  C   UNL     1      -9.621  15.694  68.426  1.00  0.00    -0.199 A  
HETATM   18  H   UNL     1      -9.927  19.399  67.352  1.00  0.00     0.000 HD 
HETATM   19  C   UNL     1      -8.670  15.105  69.276  1.00  0.00    -0.207 A  
HETATM   20  C   UNL     1      -7.421  15.695  69.482  1.00  0.00    -0.192 A  
HETATM   21  C   UNL     1      -7.111  16.886  68.836  1.00  0.00    -0.220 A  
HETATM   22  C   UNL     1      -8.048  17.487  68.000  1.00  0.00    -0.237 A  
ENDBRANCH   2   6
TORSDOF 1
ENDMDL
MODEL       42
REMARK 921   NORMALIZED FREE ENERGY PREDICTED BY IDOCK:   -5.27 KCAL/MOL
REMARK 922        TOTAL FREE ENERGY PREDICTED BY IDOCK:   -5.60 KCAL/MOL
REMARK 923 INTER-LIGAND FREE ENERGY PREDICTED BY IDOCK:   -6.48 KCAL/MOL
REMARK 924 INTRA-LIGAND FREE ENERGY PREDICTED BY IDOCK:    0.88 KCAL/MOL
REMARK 927      BINDING AFFINITY PREDICTED BY RF-SCORE:    0.00 PKD
ROOT
HETATM    1  N   UNL     1     -11.562  14.960  65.531  1.00  0.00    -0.308 N  
HETATM    2  C   UNL     1     -10.853  16.066  65.145  1.00  0.00    -0.395 C  
HETATM    3  H1  UNL     1     -11.202  14.447  66.336  1.00  0.00     0.000 HD 
HETATM    4  H2  UNL     1     -12.407  14.664  65.040  1.00  0.00     0.000 HD 
HETATM    5  O   UNL     1     -11.287  16.682  64.176  1.00  0.00    -1.141 OA 
ENDROOT
BRANCH   2   6
HETATM    6  N   UNL     1      -9.766  16.408  65.976  1.00  0.00    -0.323 N  
HETATM    7  C   UNL     1      -8.966  15.394  66.646  1.00  0.00    -0.286 A  
HETATM    8  C   UNL     1      -7.608  15.557  67.022  1.00  0.00    -0.228 A  
HETATM    9  C   UNL     1      -6.720  16.744  66.721  1.00  0.00    -0.257 C  
HETATM   10  C   UNL     1      -6.944  14.513  67.717  1.00  0.00    -0.194 A  
HETATM   11  C   UNL     1      -7.574  13.312  68.018  1.00  0.00    -0.145 A  
HETATM   12  C   UNL     1      -7.239  17.768  65.723  1.00  0.00    -0.119 C  
HETATM   13  O   UNL     1      -6.201  18.704  65.413  1.00  0.00    -0.236 OA 
HETATM   14  C   UNL     1      -8.422  18.459  66.340  1.00  0.00    -0.264 A  
HETATM   15  C   UNL     1      -8.890  13.132  67.639  1.00  0.00    -0.191 A  
HETATM   16  C   UNL     1      -9.569  14.159  66.972  1.00  0.00    -0.264 A  
HETATM   17  C   UNL     1      -9.626  17.751  66.469  1.00  0.00    -0.308 A  
HETATM   18  H   UNL     1      -6.525  19.344  64.789  1.00  0.00     0.000 HD 
HETATM   19  C   UNL     1     -10.739  18.392  67.039  1.00  0.00    -0.330 A  
HETATM   20  C   UNL     1     -10.659  19.710  67.493  1.00  0.00    -0.577 A  
HETATM   21  C   UNL     1      -9.458  20.402  67.382  1.00  0.00    -0.561 A  
HETATM   22  C   UNL     1      -8.351  19.783  66.808  1.00  0.00    -0.354 A  
ENDBRANCH   2   6
TORSDOF 1
ENDMDL
MODEL       43
REMARK 921   NORMALIZED FREE ENERGY PREDICTED BY IDOCK:   -5.25 KCAL/MOL
REMARK 922        TOTAL FREE ENERGY PREDICTED BY IDOCK:   -5.58 KCAL/MOL
REMARK 923 INTER-LIGAND FREE ENERGY PREDICTED BY IDOCK:   -5.53 KCAL/MOL
REMARK 924 INTRA-LIGAND FREE ENERGY PREDICTED BY IDOCK:   -0.04 KCAL/MOL
REMARK 927      BINDING AFFINITY PREDICTED BY RF-SCORE:    0.00 PKD
ROOT
HETATM    1  N   UNL     1      -7.026  10.838  65.193  1.00  0.00    -0.362 N  
HETATM    2  C   UNL     1      -8.068  10.196  64.579  1.00  0.00    -0.160 C  
HETATM    3  H1  UNL     1      -7.220  11.250  66.106  1.00  0.00     0.000 HD 
HETATM    4  H2  UNL     1      -6.104  10.901  64.760  1.00  0.00     0.000 HD 
HETATM    5  O   UNL     1      -7.834   9.700  63.481  1.00  0.00    -0.123 OA 
ENDROOT
BRANCH   2   6
HETATM    6  N   UNL     1      -9.253  10.104  65.339  1.00  0.00    -0.185 N  
HETATM    7  C   UNL     1      -9.569   8.921  66.125  1.00  0.00    -0.265 A  
HETATM    8  C   UNL     1     -10.377   8.919  67.290  1.00  0.00    -0.350 A  
HETATM    9  C   UNL     1     -10.972  10.125  67.983  1.00  0.00    -0.326 C  
HETATM   10  C   UNL     1     -10.658   7.692  67.946  1.00  0.00    -0.233 A  
HETATM   11  C   UNL     1     -10.137   6.484  67.500  1.00  0.00    -0.193 A  
HETATM   12  C   UNL     1     -10.479  11.495  67.545  1.00  0.00    -0.199 C  
HETATM   13  O   UNL     1     -10.993  12.496  68.430  1.00  0.00    -0.225 OA 
HETATM   14  C   UNL     1     -10.948  11.728  66.136  1.00  0.00    -0.355 A  
HETATM   15  C   UNL     1      -9.331   6.475  66.379  1.00  0.00    -0.175 A  
HETATM   16  C   UNL     1      -9.061   7.671  65.705  1.00  0.00    -0.042 A  
HETATM   17  C   UNL     1     -10.342  11.010  65.095  1.00  0.00    -0.283 A  
HETATM   18  H   UNL     1     -10.684  13.352  68.156  1.00  0.00     0.000 HD 
HETATM   19  C   UNL     1     -10.771  11.227  63.774  1.00  0.00    -0.448 A  
HETATM   20  C   UNL     1     -11.797  12.129  63.487  1.00  0.00    -0.597 A  
HETATM   21  C   UNL     1     -12.409  12.824  64.524  1.00  0.00    -0.515 A  
HETATM   22  C   UNL     1     -11.986  12.628  65.836  1.00  0.00    -0.497 A  
ENDBRANCH   2   6
TORSDOF 1
ENDMDL
MODEL       44
REMARK 921   NORMALIZED FREE ENERGY PREDICTED BY IDOCK:   -5.24 KCAL/MOL
REMARK 922        TOTAL FREE ENERGY PREDICTED BY IDOCK:   -5.57 KCAL/MOL
REMARK 923 INTER-LIGAND FREE ENERGY PREDICTED BY IDOCK:   -5.98 KCAL/MOL
REMARK 924 INTRA-LIGAND FREE ENERGY PREDICTED BY IDOCK:    0.41 KCAL/MOL
REMARK 927      BINDING AFFINITY PREDICTED BY RF-SCORE:    0.00 PKD
ROOT
HETATM    1  N   UNL     1     -12.771  15.738  69.583  1.00  0.00    -0.519 N  
HETATM    2  C   UNL     1     -11.773  14.811  69.440  1.00  0.00    -0.323 C  
HETATM    3  H1  UNL     1     -12.762  16.520  68.928  1.00  0.00     0.000 HD 
HETATM    4  H2  UNL     1     -13.487  15.650  70.305  1.00  0.00     0.000 HD 
HETATM    5  O   UNL     1     -11.785  13.869  70.228  1.00  0.00    -0.277 OA 
ENDROOT
BRANCH   2   6
HETATM    6  N   UNL     1     -10.916  15.010  68.338  1.00  0.00    -0.254 N  
HETATM    7  C   UNL     1     -10.079  16.195  68.224  1.00  0.00    -0.232 A  
HETATM    8  C   UNL     1      -8.851  16.250  67.517  1.00  0.00    -0.194 A  
HETATM    9  C   UNL     1      -8.139  15.097  66.844  1.00  0.00    -0.194 C  
HETATM   10  C   UNL     1      -8.146  17.479  67.432  1.00  0.00    -0.213 A  
HETATM   11  C   UNL     1      -8.606  18.635  68.051  1.00  0.00    -0.321 A  
HETATM   12  C   UNL     1      -8.649  13.695  67.141  1.00  0.00    -0.192 C  
HETATM   13  O   UNL     1      -7.748  12.730  66.587  1.00  0.00    -0.375 OA 
HETATM   14  C   UNL     1     -10.019  13.562  66.537  1.00  0.00    -0.287 A  
HETATM   15  C   UNL     1      -9.789  18.590  68.761  1.00  0.00    -0.411 A  
HETATM   16  C   UNL     1     -10.511  17.393  68.837  1.00  0.00    -0.312 A  
HETATM   17  C   UNL     1     -11.090  14.242  67.136  1.00  0.00    -0.311 A  
HETATM   18  H   UNL     1      -8.066  11.854  66.773  1.00  0.00     0.000 HD 
HETATM   19  C   UNL     1     -12.375  14.117  66.582  1.00  0.00    -0.375 A  
HETATM   20  C   UNL     1     -12.596  13.347  65.439  1.00  0.00    -0.528 A  
HETATM   21  C   UNL     1     -11.529  12.691  64.836  1.00  0.00    -0.361 A  
HETATM   22  C   UNL     1     -10.252  12.796  65.381  1.00  0.00    -0.299 A  
ENDBRANCH   2   6
TORSDOF 1
ENDMDL
MODEL       45
REMARK 921   NORMALIZED FREE ENERGY PREDICTED BY IDOCK:   -5.23 KCAL/MOL
REMARK 922        TOTAL FREE ENERGY PREDICTED BY IDOCK:   -5.56 KCAL/MOL
REMARK 923 INTER-LIGAND FREE ENERGY PREDICTED BY IDOCK:   -5.52 KCAL/MOL
REMARK 924 INTRA-LIGAND FREE ENERGY PREDICTED BY IDOCK:   -0.04 KCAL/MOL
REMARK 927      BINDING AFFINITY PREDICTED BY RF-SCORE:    0.00 PKD
ROOT
HETATM    1  N   UNL     1      -9.218   6.852  72.310  1.00  0.00    -0.135 N  
HETATM    2  C   UNL     1     -10.415   6.723  71.656  1.00  0.00    -0.209 C  
HETATM    3  H1  UNL     1      -8.611   7.610  71.999  1.00  0.00     0.000 HD 
HETATM    4  H2  UNL     1      -8.949   6.223  73.067  1.00  0.00     0.000 HD 
HETATM    5  O   UNL     1     -11.146   5.810  72.031  1.00  0.00    -0.257 OA 
ENDROOT
BRANCH   2   6
HETATM    6  N   UNL     1     -10.693   7.722  70.700  1.00  0.00    -0.227 N  
HETATM    7  C   UNL     1     -11.513   8.880  71.019  1.00  0.00    -0.294 A  
HETATM    8  C   UNL     1     -11.411  10.142  70.380  1.00  0.00    -0.401 A  
HETATM    9  C   UNL     1     -10.392  10.551  69.339  1.00  0.00    -0.258 C  
HETATM   10  C   UNL     1     -12.302  11.185  70.742  1.00  0.00    -0.504 A  
HETATM   11  C   UNL     1     -13.261  11.022  71.734  1.00  0.00    -0.505 A  
HETATM   12  C   UNL     1      -9.213   9.617  69.113  1.00  0.00    -0.168 C  
HETATM   13  O   UNL     1      -8.260  10.248  68.251  1.00  0.00    -0.111 OA 
HETATM   14  C   UNL     1      -9.737   8.349  68.500  1.00  0.00    -0.169 A  
HETATM   15  C   UNL     1     -13.357   9.805  72.380  1.00  0.00    -0.374 A  
HETATM   16  C   UNL     1     -12.502   8.757  72.021  1.00  0.00    -0.452 A  
HETATM   17  C   UNL     1     -10.476   7.467  69.303  1.00  0.00    -0.220 A  
HETATM   18  H   UNL     1      -7.523   9.665  68.109  1.00  0.00     0.000 HD 
HETATM   19  C   UNL     1     -10.964   6.275  68.739  1.00  0.00    -0.424 A  
HETATM   20  C   UNL     1     -10.741   5.968  67.395  1.00  0.00    -0.393 A  
HETATM   21  C   UNL     1     -10.025   6.854  66.598  1.00  0.00    -0.211 A  
HETATM   22  C   UNL     1      -9.526   8.032  67.146  1.00  0.00    -0.207 A  
ENDBRANCH   2   6
TORSDOF 1
ENDMDL
MODEL       46
REMARK 921   NORMALIZED FREE ENERGY PREDICTED BY IDOCK:   -5.23 KCAL/MOL
REMARK 922        TOTAL FREE ENERGY PREDICTED BY IDOCK:   -5.56 KCAL/MOL
REMARK 923 INTER-LIGAND FREE ENERGY PREDICTED BY IDOCK:   -5.54 KCAL/MOL
REMARK 924 INTRA-LIGAND FREE ENERGY PREDICTED BY IDOCK:   -0.02 KCAL/MOL
REMARK 927      BINDING AFFINITY PREDICTED BY RF-SCORE:    0.00 PKD
ROOT
HETATM    1  N   UNL     1     -11.454   6.329  68.313  1.00  0.00    -0.455 N  
HETATM    2  C   UNL     1     -10.304   6.842  68.851  1.00  0.00    -0.189 C  
HETATM    3  H1  UNL     1     -12.331   6.668  68.708  1.00  0.00     0.000 HD 
HETATM    4  H2  UNL     1     -11.434   5.644  67.557  1.00  0.00     0.000 HD 
HETATM    5  O   UNL     1      -9.248   6.434  68.376  1.00  0.00    -0.122 OA 
ENDROOT
BRANCH   2   6
HETATM    6  N   UNL     1     -10.487   7.850  69.820  1.00  0.00    -0.230 N  
HETATM    7  C   UNL     1     -10.708   9.239  69.448  1.00  0.00    -0.208 A  
HETATM    8  C   UNL     1     -11.418  10.183  70.234  1.00  0.00    -0.381 A  
HETATM    9  C   UNL     1     -12.149   9.915  71.531  1.00  0.00    -0.496 C  
HETATM   10  C   UNL     1     -11.525  11.526  69.789  1.00  0.00    -0.362 A  
HETATM   11  C   UNL     1     -10.982  11.947  68.582  1.00  0.00    -0.271 A  
HETATM   12  C   UNL     1     -12.355   8.461  71.928  1.00  0.00    -0.347 C  
HETATM   13  O   UNL     1     -13.226   8.392  73.062  1.00  0.00    -0.642 OA 
HETATM   14  C   UNL     1     -11.010   7.871  72.244  1.00  0.00    -0.359 A  
HETATM   15  C   UNL     1     -10.306  11.034  67.796  1.00  0.00    -0.218 A  
HETATM   16  C   UNL     1     -10.170   9.709  68.228  1.00  0.00    -0.216 A  
HETATM   17  C   UNL     1     -10.120   7.615  71.190  1.00  0.00    -0.184 A  
HETATM   18  H   UNL     1     -13.355   7.484  73.310  1.00  0.00     0.000 HD 
HETATM   19  C   UNL     1      -8.863   7.056  71.477  1.00  0.00    -0.128 A  
HETATM   20  C   UNL     1      -8.481   6.773  72.789  1.00  0.00    -0.124 A  
HETATM   21  C   UNL     1      -9.357   7.047  73.833  1.00  0.00    -0.264 A  
HETATM   22  C   UNL     1     -10.611   7.588  73.562  1.00  0.00    -0.347 A  
ENDBRANCH   2   6
TORSDOF 1
ENDMDL
MODEL       47
REMARK 921   NORMALIZED FREE ENERGY PREDICTED BY IDOCK:   -5.18 KCAL/MOL
REMARK 922        TOTAL FREE ENERGY PREDICTED BY IDOCK:   -5.50 KCAL/MOL
REMARK 923 INTER-LIGAND FREE ENERGY PREDICTED BY IDOCK:   -6.22 KCAL/MOL
REMARK 924 INTRA-LIGAND FREE ENERGY PREDICTED BY IDOCK:    0.72 KCAL/MOL
REMARK 927      BINDING AFFINITY PREDICTED BY RF-SCORE:    0.00 PKD
ROOT
HETATM    1  N   UNL     1     -10.471  17.755  65.890  1.00  0.00    -0.331 N  
HETATM    2  C   UNL     1     -10.983  16.654  65.257  1.00  0.00    -0.120 C  
HETATM    3  H1  UNL     1     -10.031  17.595  66.796  1.00  0.00     0.000 HD 
HETATM    4  H2  UNL     1     -10.525  18.686  65.476  1.00  0.00     0.000 HD 
HETATM    5  O   UNL     1     -11.512  16.847  64.166  1.00  0.00    -1.174 OA 
ENDROOT
BRANCH   2   6
HETATM    6  N   UNL     1     -10.747  15.422  65.902  1.00  0.00    -0.325 N  
HETATM    7  C   UNL     1     -10.952  14.151  65.225  1.00  0.00    -0.337 A  
HETATM    8  C   UNL     1     -10.266  12.950  65.538  1.00  0.00    -0.299 A  
HETATM    9  C   UNL     1      -9.148  12.780  66.542  1.00  0.00    -0.150 C  
HETATM   10  C   UNL     1     -10.588  11.757  64.839  1.00  0.00    -0.344 A  
HETATM   11  C   UNL     1     -11.539  11.731  63.827  1.00  0.00    -0.508 A  
HETATM   12  C   UNL     1      -8.524  14.045  67.112  1.00  0.00    -0.190 C  
HETATM   13  O   UNL     1      -7.367  13.704  67.882  1.00  0.00    -0.113 OA 
HETATM   14  C   UNL     1      -9.557  14.728  67.963  1.00  0.00    -0.209 A  
HETATM   15  C   UNL     1     -12.199  12.898  63.497  1.00  0.00    -0.595 A  
HETATM   16  C   UNL     1     -11.912  14.080  64.190  1.00  0.00    -0.439 A  
HETATM   17  C   UNL     1     -10.638  15.363  67.334  1.00  0.00    -0.289 A  
HETATM   18  H   UNL     1      -6.977  14.494  68.238  1.00  0.00     0.000 HD 
HETATM   19  C   UNL     1     -11.604  16.010  68.124  1.00  0.00    -0.183 A  
HETATM   20  C   UNL     1     -11.514  16.014  69.517  1.00  0.00    -0.326 A  
HETATM   21  C   UNL     1     -10.452  15.366  70.137  1.00  0.00    -0.291 A  
HETATM   22  C   UNL     1      -9.481  14.731  69.367  1.00  0.00     0.004 A  
ENDBRANCH   2   6
TORSDOF 1
ENDMDL
MODEL       48
REMARK 921   NORMALIZED FREE ENERGY PREDICTED BY IDOCK:   -5.13 KCAL/MOL
REMARK 922        TOTAL FREE ENERGY PREDICTED BY IDOCK:   -5.46 KCAL/MOL
REMARK 923 INTER-LIGAND FREE ENERGY PREDICTED BY IDOCK:   -5.61 KCAL/MOL
REMARK 924 INTRA-LIGAND FREE ENERGY PREDICTED BY IDOCK:    0.16 KCAL/MOL
REMARK 927      BINDING AFFINITY PREDICTED BY RF-SCORE:    0.00 PKD
ROOT
HETATM    1  N   UNL     1      -8.642  11.656  68.829  1.00  0.00    -0.347 N  
HETATM    2  C   UNL     1      -9.921  11.625  68.340  1.00  0.00    -0.201 C  
HETATM    3  H1  UNL     1      -7.947  11.111  68.319  1.00  0.00     0.000 HD 
HETATM    4  H2  UNL     1      -8.397  12.197  69.660  1.00  0.00     0.000 HD 
HETATM    5  O   UNL     1     -10.757  12.281  68.955  1.00  0.00    -0.223 OA 
ENDROOT
BRANCH   2   6
HETATM    6  N   UNL     1     -10.089  10.917  67.132  1.00  0.00    -0.192 N  
HETATM    7  C   UNL     1     -10.727  11.521  65.973  1.00  0.00    -0.281 A  
HETATM    8  C   UNL     1     -10.471  11.153  64.628  1.00  0.00    -0.400 A  
HETATM    9  C   UNL     1      -9.442  10.157  64.141  1.00  0.00    -0.353 C  
HETATM   10  C   UNL     1     -11.193  11.780  63.580  1.00  0.00    -0.494 A  
HETATM   11  C   UNL     1     -12.129  12.777  63.826  1.00  0.00    -0.596 A  
HETATM   12  C   UNL     1      -8.415   9.665  65.149  1.00  0.00    -0.150 C  
HETATM   13  O   UNL     1      -7.413   8.894  64.477  1.00  0.00    -0.099 OA 
HETATM   14  C   UNL     1      -9.133   8.838  66.177  1.00  0.00    -0.251 A  
HETATM   15  C   UNL     1     -12.373  13.160  65.130  1.00  0.00    -0.525 A  
HETATM   16  C   UNL     1     -11.687  12.537  66.179  1.00  0.00    -0.466 A  
HETATM   17  C   UNL     1      -9.960   9.486  67.108  1.00  0.00    -0.204 A  
HETATM   18  H   UNL     1      -6.771   8.587  65.107  1.00  0.00     0.000 HD 
HETATM   19  C   UNL     1     -10.630   8.720  68.077  1.00  0.00    -0.218 A  
HETATM   20  C   UNL     1     -10.500   7.330  68.115  1.00  0.00    -0.244 A  
HETATM   21  C   UNL     1      -9.696   6.690  67.180  1.00  0.00    -0.178 A  
HETATM   22  C   UNL     1      -9.016   7.437  66.221  1.00  0.00    -0.192 A  
ENDBRANCH   2   6
TORSDOF 1
ENDMDL
MODEL       49
REMARK 921   NORMALIZED FREE ENERGY PREDICTED BY IDOCK:   -5.07 KCAL/MOL
REMARK 922        TOTAL FREE ENERGY PREDICTED BY IDOCK:   -5.38 KCAL/MOL
REMARK 923 INTER-LIGAND FREE ENERGY PREDICTED BY IDOCK:   -5.36 KCAL/MOL
REMARK 924 INTRA-LIGAND FREE ENERGY PREDICTED BY IDOCK:   -0.02 KCAL/MOL
REMARK 927      BINDING AFFINITY PREDICTED BY RF-SCORE:    0.00 PKD
ROOT
HETATM    1  N   UNL     1     -11.737  12.507  69.584  1.00  0.00    -0.377 N  
HETATM    2  C   UNL     1     -11.487  13.459  68.632  1.00  0.00    -0.310 C  
HETATM    3  H1  UNL     1     -11.311  11.592  69.435  1.00  0.00     0.000 HD 
HETATM    4  H2  UNL     1     -12.317  12.703  70.400  1.00  0.00     0.000 HD 
HETATM    5  O   UNL     1     -11.999  14.560  68.812  1.00  0.00    -0.313 OA 
ENDROOT
BRANCH   2   6
HETATM    6  N   UNL     1     -10.589  13.074  67.614  1.00  0.00    -0.222 N  
HETATM    7  C   UNL     1      -9.148  13.176  67.785  1.00  0.00    -0.200 A  
HETATM    8  C   UNL     1      -8.197  12.360  67.122  1.00  0.00    -0.176 A  
HETATM    9  C   UNL     1      -8.487  11.191  66.206  1.00  0.00    -0.168 C  
HETATM   10  C   UNL     1      -6.812  12.586  67.331  1.00  0.00    -0.145 A  
HETATM   11  C   UNL     1      -6.350  13.569  68.198  1.00  0.00    -0.124 A  
HETATM   12  C   UNL     1      -9.918  10.677  66.163  1.00  0.00    -0.228 C  
HETATM   13  O   UNL     1      -9.968   9.462  65.409  1.00  0.00    -0.435 OA 
HETATM   14  C   UNL     1     -10.774  11.739  65.533  1.00  0.00    -0.329 A  
HETATM   15  C   UNL     1      -7.265  14.356  68.868  1.00  0.00    -0.125 A  
HETATM   16  C   UNL     1      -8.636  14.163  68.657  1.00  0.00    -0.126 A  
HETATM   17  C   UNL     1     -11.054  12.903  66.265  1.00  0.00    -0.288 A  
HETATM   18  H   UNL     1     -10.862   9.140  65.383  1.00  0.00     0.000 HD 
HETATM   19  C   UNL     1     -11.860  13.898  65.685  1.00  0.00    -0.383 A  
HETATM   20  C   UNL     1     -12.366  13.754  64.392  1.00  0.00    -0.389 A  
HETATM   21  C   UNL     1     -12.071  12.608  63.663  1.00  0.00    -0.632 A  
HETATM   22  C   UNL     1     -11.284  11.609  64.229  1.00  0.00    -0.392 A  
ENDBRANCH   2   6
TORSDOF 1
ENDMDL
MODEL       50
REMARK 921   NORMALIZED FREE ENERGY PREDICTED BY IDOCK:   -5.06 KCAL/MOL
REMARK 922        TOTAL FREE ENERGY PREDICTED BY IDOCK:   -5.38 KCAL/MOL
REMARK 923 INTER-LIGAND FREE ENERGY PREDICTED BY IDOCK:   -5.36 KCAL/MOL
REMARK 924 INTRA-LIGAND FREE ENERGY PREDICTED BY IDOCK:   -0.02 KCAL/MOL
REMARK 927      BINDING AFFINITY PREDICTED BY RF-SCORE:    0.00 PKD
ROOT
HETATM    1  N   UNL     1      -7.504   9.729  69.623  1.00  0.00    -0.097 N  
HETATM    2  C   UNL     1      -8.528   9.215  68.873  1.00  0.00    -0.129 C  
HETATM    3  H1  UNL     1      -7.585  10.710  69.892  1.00  0.00     0.000 HD 
HETATM    4  H2  UNL     1      -6.702   9.161  69.899  1.00  0.00     0.000 HD 
HETATM    5  O   UNL     1      -8.431   8.035  68.550  1.00  0.00    -0.126 OA 
ENDROOT
BRANCH   2   6
HETATM    6  N   UNL     1      -9.613  10.089  68.653  1.00  0.00    -0.151 N  
HETATM    7  C   UNL     1     -10.676  10.253  69.633  1.00  0.00    -0.264 A  
HETATM    8  C   UNL     1     -11.462  11.423  69.782  1.00  0.00    -0.376 A  
HETATM    9  C   UNL     1     -11.292  12.731  69.040  1.00  0.00    -0.346 C  
HETATM   10  C   UNL     1     -12.507  11.448  70.743  1.00  0.00    -0.460 A  
HETATM   11  C   UNL     1     -12.768  10.366  71.573  1.00  0.00    -0.564 A  
HETATM   12  C   UNL     1     -10.021  12.909  68.224  1.00  0.00    -0.234 C  
HETATM   13  O   UNL     1      -9.935  14.260  67.758  1.00  0.00    -0.222 OA 
HETATM   14  C   UNL     1     -10.071  11.944  67.073  1.00  0.00    -0.226 A  
HETATM   15  C   UNL     1     -11.996   9.227  71.453  1.00  0.00    -0.424 A  
HETATM   16  C   UNL     1     -10.976   9.175  70.496  1.00  0.00    -0.307 A  
HETATM   17  C   UNL     1      -9.894  10.576  67.330  1.00  0.00    -0.174 A  
HETATM   18  H   UNL     1      -9.141  14.371  67.248  1.00  0.00     0.000 HD 
HETATM   19  C   UNL     1      -9.932   9.668  66.258  1.00  0.00    -0.335 A  
HETATM   20  C   UNL     1     -10.160  10.103  64.951  1.00  0.00    -0.277 A  
HETATM   21  C   UNL     1     -10.354  11.456  64.703  1.00  0.00    -0.362 A  
HETATM   22  C   UNL     1     -10.307  12.369  65.754  1.00  0.00    -0.289 A  
ENDBRANCH   2   6
TORSDOF 1
ENDMDL
MODEL       51
REMARK 921   NORMALIZED FREE ENERGY PREDICTED BY IDOCK:   -5.06 KCAL/MOL
REMARK 922        TOTAL FREE ENERGY PREDICTED BY IDOCK:   -5.37 KCAL/MOL
REMARK 923 INTER-LIGAND FREE ENERGY PREDICTED BY IDOCK:   -5.56 KCAL/MOL
REMARK 924 INTRA-LIGAND FREE ENERGY PREDICTED BY IDOCK:    0.18 KCAL/MOL
REMARK 927      BINDING AFFINITY PREDICTED BY RF-SCORE:    0.00 PKD
ROOT
HETATM    1  N   UNL     1     -11.506  11.152  63.179  1.00  0.00    -0.721 N  
HETATM    2  C   UNL     1     -10.234  11.288  63.669  1.00  0.00    -0.392 C  
HETATM    3  H1  UNL     1     -12.214  10.830  63.838  1.00  0.00     0.000 HD 
HETATM    4  H2  UNL     1     -11.733  11.363  62.207  1.00  0.00     0.000 HD 
HETATM    5  O   UNL     1      -9.381  11.676  62.875  1.00  0.00    -0.349 OA 
ENDROOT
BRANCH   2   6
HETATM    6  N   UNL     1     -10.091  11.055  65.053  1.00  0.00    -0.275 N  
HETATM    7  C   UNL     1     -10.704  11.926  66.043  1.00  0.00    -0.285 A  
HETATM    8  C   UNL     1     -11.088  11.521  67.347  1.00  0.00    -0.339 A  
HETATM    9  C   UNL     1     -11.029  10.121  67.915  1.00  0.00    -0.335 C  
HETATM   10  C   UNL     1     -11.633  12.475  68.245  1.00  0.00    -0.376 A  
HETATM   11  C   UNL     1     -11.835  13.800  67.878  1.00  0.00    -0.413 A  
HETATM   12  C   UNL     1     -10.756   8.984  66.942  1.00  0.00    -0.080 C  
HETATM   13  O   UNL     1     -10.930   7.729  67.609  1.00  0.00    -0.500 OA 
HETATM   14  C   UNL     1      -9.350   9.135  66.435  1.00  0.00    -0.261 A  
HETATM   15  C   UNL     1     -11.486  14.203  66.604  1.00  0.00    -0.378 A  
HETATM   16  C   UNL     1     -10.926  13.282  65.711  1.00  0.00    -0.284 A  
HETATM   17  C   UNL     1      -9.064  10.174  65.537  1.00  0.00    -0.178 A  
HETATM   18  H   UNL     1     -10.760   7.019  67.001  1.00  0.00     0.000 HD 
HETATM   19  C   UNL     1      -7.752  10.317  65.052  1.00  0.00    -0.129 A  
HETATM   20  C   UNL     1      -6.732   9.458  65.464  1.00  0.00    -0.075 A  
HETATM   21  C   UNL     1      -7.015   8.442  66.370  1.00  0.00    -0.074 A  
HETATM   22  C   UNL     1      -8.313   8.280  66.849  1.00  0.00    -0.114 A  
ENDBRANCH   2   6
TORSDOF 1
ENDMDL
MODEL       52
REMARK 921   NORMALIZED FREE ENERGY PREDICTED BY IDOCK:   -5.01 KCAL/MOL
REMARK 922        TOTAL FREE ENERGY PREDICTED BY IDOCK:   -5.33 KCAL/MOL
REMARK 923 INTER-LIGAND FREE ENERGY PREDICTED BY IDOCK:   -5.38 KCAL/MOL
REMARK 924 INTRA-LIGAND FREE ENERGY PREDICTED BY IDOCK:    0.05 KCAL/MOL
REMARK 927      BINDING AFFINITY PREDICTED BY RF-SCORE:    0.00 PKD
ROOT
HETATM    1  N   UNL     1     -13.261   7.689  70.963  1.00  0.00    -0.577 N  
HETATM    2  C   UNL     1     -12.847   8.923  71.388  1.00  0.00    -0.289 C  
HETATM    3  H1  UNL     1     -12.757   7.288  70.172  1.00  0.00     0.000 HD 
HETATM    4  H2  UNL     1     -14.033   7.196  71.414  1.00  0.00     0.000 HD 
HETATM    5  O   UNL     1     -13.454   9.405  72.340  1.00  0.00    -0.457 OA 
ENDROOT
BRANCH   2   6
HETATM    6  N   UNL     1     -11.709   9.438  70.734  1.00  0.00    -0.283 N  
HETATM    7  C   UNL     1     -10.372   8.939  71.017  1.00  0.00    -0.253 A  
HETATM    8  C   UNL     1      -9.291   8.961  70.100  1.00  0.00    -0.197 A  
HETATM    9  C   UNL     1      -9.337   9.406  68.655  1.00  0.00    -0.142 C  
HETATM   10  C   UNL     1      -8.016   8.490  70.508  1.00  0.00    -0.095 A  
HETATM   11  C   UNL     1      -7.794   7.973  71.778  1.00  0.00    -0.127 A  
HETATM   12  C   UNL     1     -10.709   9.631  68.038  1.00  0.00    -0.232 C  
HETATM   13  O   UNL     1     -10.573   9.851  66.630  1.00  0.00    -0.192 OA 
HETATM   14  C   UNL     1     -11.330  10.822  68.712  1.00  0.00    -0.352 A  
HETATM   15  C   UNL     1      -8.844   7.925  72.674  1.00  0.00    -0.235 A  
HETATM   16  C   UNL     1     -10.104   8.405  72.298  1.00  0.00    -0.382 A  
HETATM   17  C   UNL     1     -11.779  10.691  70.035  1.00  0.00    -0.324 A  
HETATM   18  H   UNL     1     -11.430   9.991  66.245  1.00  0.00     0.000 HD 
HETATM   19  C   UNL     1     -12.368  11.799  70.669  1.00  0.00    -0.421 A  
HETATM   20  C   UNL     1     -12.494  13.025  70.013  1.00  0.00    -0.112 A  
HETATM   21  C   UNL     1     -12.030  13.155  68.709  1.00  0.00    -0.316 A  
HETATM   22  C   UNL     1     -11.456  12.063  68.064  1.00  0.00    -0.392 A  
ENDBRANCH   2   6
TORSDOF 1
ENDMDL
MODEL       53
REMARK 921   NORMALIZED FREE ENERGY PREDICTED BY IDOCK:   -4.97 KCAL/MOL
REMARK 922        TOTAL FREE ENERGY PREDICTED BY IDOCK:   -5.29 KCAL/MOL
REMARK 923 INTER-LIGAND FREE ENERGY PREDICTED BY IDOCK:   -5.34 KCAL/MOL
REMARK 924 INTRA-LIGAND FREE ENERGY PREDICTED BY IDOCK:    0.05 KCAL/MOL
REMARK 927      BINDING AFFINITY PREDICTED BY RF-SCORE:    0.00 PKD
ROOT
HETATM    1  N   UNL     1     -10.924  14.451  64.417  1.00  0.00    -0.618 N  
HETATM    2  C   UNL     1     -11.472  14.200  65.647  1.00  0.00    -0.325 C  
HETATM    3  H1  UNL     1      -9.916  14.607  64.392  1.00  0.00     0.000 HD 
HETATM    4  H2  UNL     1     -11.493  14.480  63.571  1.00  0.00     0.000 HD 
HETATM    5  O   UNL     1     -12.684  14.013  65.677  1.00  0.00    -0.526 OA 
ENDROOT
BRANCH   2   6
HETATM    6  N   UNL     1     -10.549  14.094  66.709  1.00  0.00    -0.276 N  
HETATM    7  C   UNL     1     -10.364  12.850  67.440  1.00  0.00    -0.233 A  
HETATM    8  C   UNL     1      -9.166  12.471  68.097  1.00  0.00    -0.209 A  
HETATM    9  C   UNL     1      -7.850  13.218  68.085  1.00  0.00    -0.145 C  
HETATM   10  C   UNL     1      -9.119  11.253  68.823  1.00  0.00    -0.122 A  
HETATM   11  C   UNL     1     -10.209  10.393  68.887  1.00  0.00    -0.220 A  
HETATM   12  C   UNL     1      -7.706  14.362  67.093  1.00  0.00    -0.034 C  
HETATM   13  O   UNL     1      -6.350  14.819  67.081  1.00  0.00    -0.278 OA 
HETATM   14  C   UNL     1      -8.643  15.460  67.512  1.00  0.00    -0.187 A  
HETATM   15  C   UNL     1     -11.375  10.739  68.233  1.00  0.00    -0.376 A  
HETATM   16  C   UNL     1     -11.448  11.947  67.531  1.00  0.00    -0.396 A  
HETATM   17  C   UNL     1     -10.022  15.277  67.331  1.00  0.00    -0.223 A  
HETATM   18  H   UNL     1      -6.260  15.533  66.461  1.00  0.00     0.000 HD 
HETATM   19  C   UNL     1     -10.903  16.302  67.714  1.00  0.00    -0.315 A  
HETATM   20  C   UNL     1     -10.431  17.486  68.285  1.00  0.00    -0.383 A  
HETATM   21  C   UNL     1      -9.065  17.655  68.480  1.00  0.00    -0.279 A  
HETATM   22  C   UNL     1      -8.179  16.653  68.094  1.00  0.00    -0.192 A  
ENDBRANCH   2   6
TORSDOF 1
ENDMDL
MODEL       54
REMARK 921   NORMALIZED FREE ENERGY PREDICTED BY IDOCK:   -4.94 KCAL/MOL
REMARK 922        TOTAL FREE ENERGY PREDICTED BY IDOCK:   -5.25 KCAL/MOL
REMARK 923 INTER-LIGAND FREE ENERGY PREDICTED BY IDOCK:   -5.58 KCAL/MOL
REMARK 924 INTRA-LIGAND FREE ENERGY PREDICTED BY IDOCK:    0.33 KCAL/MOL
REMARK 927      BINDING AFFINITY PREDICTED BY RF-SCORE:    0.00 PKD
ROOT
HETATM    1  N   UNL     1      -9.957  13.617  65.106  1.00  0.00    -0.564 N  
HETATM    2  C   UNL     1     -10.925  12.847  65.694  1.00  0.00    -0.271 C  
HETATM    3  H1  UNL     1      -9.278  14.050  65.732  1.00  0.00     0.000 HD 
HETATM    4  H2  UNL     1      -9.916  13.751  64.095  1.00  0.00     0.000 HD 
HETATM    5  O   UNL     1     -11.742  12.327  64.940  1.00  0.00    -0.349 OA 
ENDROOT
BRANCH   2   6
HETATM    6  N   UNL     1     -10.796  12.675  67.088  1.00  0.00    -0.248 N  
HETATM    7  C   UNL     1     -11.123  13.739  68.025  1.00  0.00    -0.261 A  
HETATM    8  C   UNL     1     -11.551  13.534  69.361  1.00  0.00    -0.369 A  
HETATM    9  C   UNL     1     -11.839  12.206  70.028  1.00  0.00    -0.383 C  
HETATM   10  C   UNL     1     -11.794  14.653  70.199  1.00  0.00    -0.365 A  
HETATM   11  C   UNL     1     -11.656  15.958  69.741  1.00  0.00    -0.340 A  
HETATM   12  C   UNL     1     -11.909  10.978  69.133  1.00  0.00    -0.337 C  
HETATM   13  O   UNL     1     -12.380   9.859  69.892  1.00  0.00    -0.479 OA 
HETATM   14  C   UNL     1     -10.532  10.720  68.590  1.00  0.00    -0.213 A  
HETATM   15  C   UNL     1     -11.261  16.172  68.436  1.00  0.00    -0.358 A  
HETATM   16  C   UNL     1     -10.996  15.081  67.600  1.00  0.00    -0.305 A  
HETATM   17  C   UNL     1     -10.018  11.587  67.614  1.00  0.00    -0.184 A  
HETATM   18  H   UNL     1     -12.424   9.091  69.333  1.00  0.00     0.000 HD 
HETATM   19  C   UNL     1      -8.734  11.349  67.096  1.00  0.00    -0.155 A  
HETATM   20  C   UNL     1      -7.959  10.279  67.549  1.00  0.00    -0.106 A  
HETATM   21  C   UNL     1      -8.464   9.434  68.530  1.00  0.00    -0.119 A  
HETATM   22  C   UNL     1      -9.740   9.651  69.044  1.00  0.00    -0.169 A  
ENDBRANCH   2   6
TORSDOF 1
ENDMDL
MODEL       55
REMARK 921   NORMALIZED FREE ENERGY PREDICTED BY IDOCK:   -4.88 KCAL/MOL
REMARK 922        TOTAL FREE ENERGY PREDICTED BY IDOCK:   -5.19 KCAL/MOL
REMARK 923 INTER-LIGAND FREE ENERGY PREDICTED BY IDOCK:   -5.20 KCAL/MOL
REMARK 924 INTRA-LIGAND FREE ENERGY PREDICTED BY IDOCK:    0.01 KCAL/MOL
REMARK 927      BINDING AFFINITY PREDICTED BY RF-SCORE:    0.00 PKD
ROOT
HETATM    1  N   UNL     1      -6.861  14.761  69.421  1.00  0.00    -0.150 N  
HETATM    2  C   UNL     1      -7.323  14.603  68.141  1.00  0.00    -0.125 C  
HETATM    3  H1  UNL     1      -7.541  15.074  70.114  1.00  0.00     0.000 HD 
HETATM    4  H2  UNL     1      -5.889  14.574  69.669  1.00  0.00     0.000 HD 
HETATM    5  O   UNL     1      -6.505  14.225  67.308  1.00  0.00    -0.291 OA 
ENDROOT
BRANCH   2   6
HETATM    6  N   UNL     1      -8.709  14.803  67.970  1.00  0.00    -0.162 N  
HETATM    7  C   UNL     1      -9.611  13.701  67.675  1.00  0.00    -0.221 A  
HETATM    8  C   UNL     1     -10.987  13.672  68.015  1.00  0.00    -0.270 A  
HETATM    9  C   UNL     1     -11.746  14.708  68.815  1.00  0.00    -0.357 C  
HETATM   10  C   UNL     1     -11.781  12.560  67.630  1.00  0.00    -0.423 A  
HETATM   11  C   UNL     1     -11.244  11.473  66.952  1.00  0.00    -0.363 A  
HETATM   12  C   UNL     1     -10.928  15.771  69.532  1.00  0.00    -0.295 C  
HETATM   13  O   UNL     1     -11.782  16.537  70.388  1.00  0.00    -0.415 OA 
HETATM   14  C   UNL     1     -10.286  16.643  68.490  1.00  0.00    -0.303 A  
HETATM   15  C   UNL     1      -9.900  11.478  66.634  1.00  0.00    -0.228 A  
HETATM   16  C   UNL     1      -9.106  12.575  66.985  1.00  0.00    -0.213 A  
HETATM   17  C   UNL     1      -9.226  16.123  67.733  1.00  0.00    -0.202 A  
HETATM   18  H   UNL     1     -11.271  17.201  70.836  1.00  0.00     0.000 HD 
HETATM   19  C   UNL     1      -8.616  16.935  66.762  1.00  0.00    -0.256 A  
HETATM   20  C   UNL     1      -9.060  18.238  66.527  1.00  0.00    -0.291 A  
HETATM   21  C   UNL     1     -10.123  18.743  67.265  1.00  0.00    -0.401 A  
HETATM   22  C   UNL     1     -10.730  17.954  68.240  1.00  0.00    -0.233 A  
ENDBRANCH   2   6
TORSDOF 1
ENDMDL
MODEL       56
REMARK 921   NORMALIZED FREE ENERGY PREDICTED BY IDOCK:   -4.84 KCAL/MOL
REMARK 922        TOTAL FREE ENERGY PREDICTED BY IDOCK:   -5.15 KCAL/MOL
REMARK 923 INTER-LIGAND FREE ENERGY PREDICTED BY IDOCK:   -5.11 KCAL/MOL
REMARK 924 INTRA-LIGAND FREE ENERGY PREDICTED BY IDOCK:   -0.04 KCAL/MOL
REMARK 927      BINDING AFFINITY PREDICTED BY RF-SCORE:    0.00 PKD
ROOT
HETATM    1  N   UNL     1     -11.405   6.522  66.935  1.00  0.00    -0.817 N  
HETATM    2  C   UNL     1     -10.704   6.794  68.080  1.00  0.00    -0.241 C  
HETATM    3  H1  UNL     1     -11.601   7.315  66.323  1.00  0.00     0.000 HD 
HETATM    4  H2  UNL     1     -11.714   5.577  66.706  1.00  0.00     0.000 HD 
HETATM    5  O   UNL     1     -10.468   5.840  68.815  1.00  0.00    -0.205 OA 
ENDROOT
BRANCH   2   6
HETATM    6  N   UNL     1     -10.259   8.126  68.214  1.00  0.00    -0.202 N  
HETATM    7  C   UNL     1      -8.995   8.572  67.649  1.00  0.00    -0.135 A  
HETATM    8  C   UNL     1      -8.715   9.903  67.248  1.00  0.00    -0.131 A  
HETATM    9  C   UNL     1      -9.680  11.068  67.237  1.00  0.00    -0.188 C  
HETATM   10  C   UNL     1      -7.426  10.230  66.755  1.00  0.00    -0.107 A  
HETATM   11  C   UNL     1      -6.426   9.275  66.619  1.00  0.00    -0.067 A  
HETATM   12  C   UNL     1     -11.154  10.755  67.449  1.00  0.00    -0.296 C  
HETATM   13  O   UNL     1     -11.933  11.933  67.213  1.00  0.00    -0.605 OA 
HETATM   14  C   UNL     1     -11.326  10.268  68.860  1.00  0.00    -0.230 A  
HETATM   15  C   UNL     1      -6.691   7.970  66.986  1.00  0.00    -0.065 A  
HETATM   16  C   UNL     1      -7.950   7.632  67.495  1.00  0.00    -0.120 A  
HETATM   17  C   UNL     1     -10.852   8.992  69.196  1.00  0.00    -0.089 A  
HETATM   18  H   UNL     1     -12.853  11.738  67.344  1.00  0.00     0.000 HD 
HETATM   19  C   UNL     1     -11.016   8.526  70.512  1.00  0.00    -0.263 A  
HETATM   20  C   UNL     1     -11.623   9.318  71.488  1.00  0.00    -0.452 A  
HETATM   21  C   UNL     1     -12.075  10.590  71.156  1.00  0.00    -0.473 A  
HETATM   22  C   UNL     1     -11.930  11.060  69.853  1.00  0.00    -0.427 A  
ENDBRANCH   2   6
TORSDOF 1
ENDMDL
MODEL       57
REMARK 921   NORMALIZED FREE ENERGY PREDICTED BY IDOCK:   -4.79 KCAL/MOL
REMARK 922        TOTAL FREE ENERGY PREDICTED BY IDOCK:   -5.09 KCAL/MOL
REMARK 923 INTER-LIGAND FREE ENERGY PREDICTED BY IDOCK:   -5.11 KCAL/MOL
REMARK 924 INTRA-LIGAND FREE ENERGY PREDICTED BY IDOCK:    0.02 KCAL/MOL
REMARK 927      BINDING AFFINITY PREDICTED BY RF-SCORE:    0.00 PKD
ROOT
HETATM    1  N   UNL     1      -7.222  11.112  69.819  1.00  0.00    -0.354 N  
HETATM    2  C   UNL     1      -7.777  10.293  68.872  1.00  0.00    -0.098 C  
HETATM    3  H1  UNL     1      -7.863  11.728  70.319  1.00  0.00     0.000 HD 
HETATM    4  H2  UNL     1      -6.221  11.105  70.015  1.00  0.00     0.000 HD 
HETATM    5  O   UNL     1      -7.006   9.551  68.271  1.00  0.00    -0.069 OA 
ENDROOT
BRANCH   2   6
HETATM    6  N   UNL     1      -9.184  10.342  68.780  1.00  0.00    -0.158 N  
HETATM    7  C   UNL     1     -10.038   9.654  69.736  1.00  0.00    -0.233 A  
HETATM    8  C   UNL     1     -11.357  10.052  70.073  1.00  0.00    -0.334 A  
HETATM    9  C   UNL     1     -12.079  11.292  69.593  1.00  0.00    -0.391 C  
HETATM   10  C   UNL     1     -12.114   9.271  70.984  1.00  0.00    -0.349 A  
HETATM   11  C   UNL     1     -11.591   8.135  71.589  1.00  0.00    -0.325 A  
HETATM   12  C   UNL     1     -11.254  12.344  68.869  1.00  0.00    -0.280 C  
HETATM   13  O   UNL     1     -12.046  13.519  68.666  1.00  0.00    -0.352 OA 
HETATM   14  C   UNL     1     -10.808  11.761  67.558  1.00  0.00    -0.286 A  
HETATM   15  C   UNL     1     -10.301   7.747  71.287  1.00  0.00    -0.222 A  
HETATM   16  C   UNL     1      -9.546   8.492  70.373  1.00  0.00    -0.189 A  
HETATM   17  C   UNL     1      -9.816  10.769  67.562  1.00  0.00    -0.172 A  
HETATM   18  H   UNL     1     -11.530  14.177  68.214  1.00  0.00     0.000 HD 
HETATM   19  C   UNL     1      -9.388  10.224  66.339  1.00  0.00    -0.201 A  
HETATM   20  C   UNL     1      -9.946  10.640  65.129  1.00  0.00    -0.366 A  
HETATM   21  C   UNL     1     -10.942  11.610  65.130  1.00  0.00    -0.326 A  
HETATM   22  C   UNL     1     -11.368  12.167  66.333  1.00  0.00    -0.411 A  
ENDBRANCH   2   6
TORSDOF 1
ENDMDL
MODEL       58
REMARK 921   NORMALIZED FREE ENERGY PREDICTED BY IDOCK:   -4.79 KCAL/MOL
REMARK 922        TOTAL FREE ENERGY PREDICTED BY IDOCK:   -5.09 KCAL/MOL
REMARK 923 INTER-LIGAND FREE ENERGY PREDICTED BY IDOCK:   -5.38 KCAL/MOL
REMARK 924 INTRA-LIGAND FREE ENERGY PREDICTED BY IDOCK:    0.29 KCAL/MOL
REMARK 927      BINDING AFFINITY PREDICTED BY RF-SCORE:    0.00 PKD
ROOT
HETATM    1  N   UNL     1     -12.526  15.787  69.277  1.00  0.00    -0.493 N  
HETATM    2  C   UNL     1     -11.229  15.925  68.860  1.00  0.00    -0.343 C  
HETATM    3  H1  UNL     1     -12.980  14.899  69.062  1.00  0.00     0.000 HD 
HETATM    4  H2  UNL     1     -13.012  16.532  69.777  1.00  0.00     0.000 HD 
HETATM    5  O   UNL     1     -10.682  16.993  69.119  1.00  0.00    -0.324 OA 
ENDROOT
BRANCH   2   6
HETATM    6  N   UNL     1     -10.658  14.778  68.270  1.00  0.00    -0.237 N  
HETATM    7  C   UNL     1      -9.304  14.348  68.585  1.00  0.00    -0.188 A  
HETATM    8  C   UNL     1      -8.845  13.008  68.510  1.00  0.00    -0.038 A  
HETATM    9  C   UNL     1      -9.673  11.783  68.192  1.00  0.00    -0.192 C  
HETATM   10  C   UNL     1      -7.486  12.716  68.794  1.00  0.00    -0.044 A  
HETATM   11  C   UNL     1      -6.587  13.703  69.178  1.00  0.00    -0.109 A  
HETATM   12  C   UNL     1     -11.186  11.947  68.179  1.00  0.00    -0.258 C  
HETATM   13  O   UNL     1     -11.806  10.662  68.059  1.00  0.00    -0.755 OA 
HETATM   14  C   UNL     1     -11.546  12.831  67.019  1.00  0.00    -0.422 A  
HETATM   15  C   UNL     1      -7.025  15.009  69.276  1.00  0.00    -0.156 A  
HETATM   16  C   UNL     1      -8.357  15.320  68.979  1.00  0.00    -0.215 A  
HETATM   17  C   UNL     1     -11.247  14.199  67.094  1.00  0.00    -0.317 A  
HETATM   18  H   UNL     1     -12.751  10.765  68.051  1.00  0.00     0.000 HD 
HETATM   19  C   UNL     1     -11.588  15.034  66.016  1.00  0.00    -0.158 A  
HETATM   20  C   UNL     1     -12.198  14.521  64.870  1.00  0.00    -0.409 A  
HETATM   21  C   UNL     1     -12.475  13.161  64.791  1.00  0.00    -0.460 A  
HETATM   22  C   UNL     1     -12.155  12.324  65.857  1.00  0.00    -0.261 A  
ENDBRANCH   2   6
TORSDOF 1
ENDMDL
MODEL       59
REMARK 921   NORMALIZED FREE ENERGY PREDICTED BY IDOCK:   -4.74 KCAL/MOL
REMARK 922        TOTAL FREE ENERGY PREDICTED BY IDOCK:   -5.04 KCAL/MOL
REMARK 923 INTER-LIGAND FREE ENERGY PREDICTED BY IDOCK:   -5.36 KCAL/MOL
REMARK 924 INTRA-LIGAND FREE ENERGY PREDICTED BY IDOCK:    0.32 KCAL/MOL
REMARK 927      BINDING AFFINITY PREDICTED BY RF-SCORE:    0.00 PKD
ROOT
HETATM    1  N   UNL     1      -7.524  10.106  69.304  1.00  0.00    -0.099 N  
HETATM    2  C   UNL     1      -7.974   9.468  70.429  1.00  0.00    -0.178 C  
HETATM    3  H1  UNL     1      -8.125  10.055  68.481  1.00  0.00     0.000 HD 
HETATM    4  H2  UNL     1      -6.635  10.607  69.290  1.00  0.00     0.000 HD 
HETATM    5  O   UNL     1      -7.251   9.530  71.419  1.00  0.00    -0.330 OA 
ENDROOT
BRANCH   2   6
HETATM    6  N   UNL     1      -9.263   8.903  70.329  1.00  0.00    -0.171 N  
HETATM    7  C   UNL     1      -9.469   7.547  69.844  1.00  0.00    -0.160 A  
HETATM    8  C   UNL     1     -10.565   6.720  70.200  1.00  0.00    -0.254 A  
HETATM    9  C   UNL     1     -11.652   7.039  71.202  1.00  0.00    -0.351 C  
HETATM   10  C   UNL     1     -10.686   5.430  69.622  1.00  0.00    -0.267 A  
HETATM   11  C   UNL     1      -9.742   4.929  68.734  1.00  0.00    -0.232 A  
HETATM   12  C   UNL     1     -11.444   8.252  72.095  1.00  0.00    -0.361 C  
HETATM   13  O   UNL     1     -12.461   8.287  73.102  1.00  0.00    -0.648 OA 
HETATM   14  C   UNL     1     -11.499   9.479  71.230  1.00  0.00    -0.447 A  
HETATM   15  C   UNL     1      -8.658   5.715  68.395  1.00  0.00    -0.111 A  
HETATM   16  C   UNL     1      -8.532   7.000  68.937  1.00  0.00    -0.125 A  
HETATM   17  C   UNL     1     -10.427   9.744  70.365  1.00  0.00    -0.297 A  
HETATM   18  H   UNL     1     -12.331   9.045  73.660  1.00  0.00     0.000 HD 
HETATM   19  C   UNL     1     -10.469  10.894  69.558  1.00  0.00    -0.176 A  
HETATM   20  C   UNL     1     -11.562  11.761  69.591  1.00  0.00    -0.393 A  
HETATM   21  C   UNL     1     -12.631  11.485  70.435  1.00  0.00    -0.238 A  
HETATM   22  C   UNL     1     -12.599  10.356  71.250  1.00  0.00    -0.525 A  
ENDBRANCH   2   6
TORSDOF 1
ENDMDL
MODEL       60
REMARK 921   NORMALIZED FREE ENERGY PREDICTED BY IDOCK:   -4.74 KCAL/MOL
REMARK 922        TOTAL FREE ENERGY PREDICTED BY IDOCK:   -5.04 KCAL/MOL
REMARK 923 INTER-LIGAND FREE ENERGY PREDICTED BY IDOCK:   -5.08 KCAL/MOL
REMARK 924 INTRA-LIGAND FREE ENERGY PREDICTED BY IDOCK:    0.05 KCAL/MOL
REMARK 927      BINDING AFFINITY PREDICTED BY RF-SCORE:    0.00 PKD
ROOT
HETATM    1  N   UNL     1      -9.281   8.048  65.392  1.00  0.00    -0.391 N  
HETATM    2  C   UNL     1      -9.086   9.264  64.792  1.00  0.00    -0.144 C  
HETATM    3  H1  UNL     1      -9.584   8.067  66.366  1.00  0.00     0.000 HD 
HETATM    4  H2  UNL     1      -9.133   7.172  64.892  1.00  0.00     0.000 HD 
HETATM    5  O   UNL     1      -8.723   9.242  63.619  1.00  0.00    -0.210 OA 
ENDROOT
BRANCH   2   6
HETATM    6  N   UNL     1      -9.425  10.387  65.575  1.00  0.00    -0.198 N  
HETATM    7  C   UNL     1     -10.508  11.282  65.202  1.00  0.00    -0.291 A  
HETATM    8  C   UNL     1     -11.266  12.057  66.116  1.00  0.00    -0.394 A  
HETATM    9  C   UNL     1     -11.167  12.032  67.626  1.00  0.00    -0.343 C  
HETATM   10  C   UNL     1     -12.268  12.935  65.628  1.00  0.00    -0.519 A  
HETATM   11  C   UNL     1     -12.558  13.041  64.274  1.00  0.00    -0.326 A  
HETATM   12  C   UNL     1     -10.352  10.912  68.252  1.00  0.00    -0.173 C  
HETATM   13  O   UNL     1     -10.528  10.927  69.673  1.00  0.00    -0.394 OA 
HETATM   14  C   UNL     1      -8.910  11.125  67.885  1.00  0.00    -0.136 A  
HETATM   15  C   UNL     1     -11.843  12.276  63.374  1.00  0.00    -0.563 A  
HETATM   16  C   UNL     1     -10.835  11.420  63.834  1.00  0.00    -0.463 A  
HETATM   17  C   UNL     1      -8.507  10.883  66.563  1.00  0.00    -0.159 A  
HETATM   18  H   UNL     1     -10.019  10.226  70.065  1.00  0.00     0.000 HD 
HETATM   19  C   UNL     1      -7.159  11.074  66.214  1.00  0.00    -0.092 A  
HETATM   20  C   UNL     1      -6.225  11.516  67.153  1.00  0.00    -0.121 A  
HETATM   21  C   UNL     1      -6.633  11.774  68.457  1.00  0.00    -0.059 A  
HETATM   22  C   UNL     1      -7.962  11.577  68.820  1.00  0.00    -0.107 A  
ENDBRANCH   2   6
TORSDOF 1
ENDMDL
MODEL       61
REMARK 921   NORMALIZED FREE ENERGY PREDICTED BY IDOCK:   -4.72 KCAL/MOL
REMARK 922        TOTAL FREE ENERGY PREDICTED BY IDOCK:   -5.02 KCAL/MOL
REMARK 923 INTER-LIGAND FREE ENERGY PREDICTED BY IDOCK:   -5.50 KCAL/MOL
REMARK 924 INTRA-LIGAND FREE ENERGY PREDICTED BY IDOCK:    0.49 KCAL/MOL
REMARK 927      BINDING AFFINITY PREDICTED BY RF-SCORE:    0.00 PKD
ROOT
HETATM    1  N   UNL     1     -12.196  14.641  65.215  1.00  0.00    -0.298 N  
HETATM    2  C   UNL     1     -11.506  15.824  65.234  1.00  0.00     0.024 C  
HETATM    3  H1  UNL     1     -12.075  14.032  66.025  1.00  0.00     0.000 HD 
HETATM    4  H2  UNL     1     -12.799  14.382  64.434  1.00  0.00     0.000 HD 
HETATM    5  O   UNL     1     -11.652  16.557  64.260  1.00  0.00    -0.923 OA 
ENDROOT
BRANCH   2   6
HETATM    6  N   UNL     1     -10.793  16.089  66.421  1.00  0.00    -0.222 N  
HETATM    7  C   UNL     1     -10.557  17.447  66.887  1.00  0.00    -0.216 A  
HETATM    8  C   UNL     1     -10.368  17.814  68.244  1.00  0.00    -0.387 A  
HETATM    9  C   UNL     1     -10.468  16.907  69.450  1.00  0.00    -0.283 C  
HETATM   10  C   UNL     1     -10.096  19.167  68.572  1.00  0.00    -0.499 A  
HETATM   11  C   UNL     1     -10.039  20.162  67.604  1.00  0.00    -0.542 A  
HETATM   12  C   UNL     1     -11.056  15.521  69.234  1.00  0.00    -0.285 C  
HETATM   13  O   UNL     1     -11.257  14.882  70.499  1.00  0.00    -0.357 OA 
HETATM   14  C   UNL     1     -10.097  14.739  68.381  1.00  0.00    -0.225 A  
HETATM   15  C   UNL     1     -10.243  19.823  66.281  1.00  0.00    -0.615 A  
HETATM   16  C   UNL     1     -10.491  18.489  65.935  1.00  0.00    -0.379 A  
HETATM   17  C   UNL     1      -9.981  15.066  67.022  1.00  0.00    -0.242 A  
HETATM   18  H   UNL     1     -11.624  14.016  70.364  1.00  0.00     0.000 HD 
HETATM   19  C   UNL     1      -9.091  14.335  66.216  1.00  0.00    -0.101 A  
HETATM   20  C   UNL     1      -8.313  13.306  66.749  1.00  0.00     0.078 A  
HETATM   21  C   UNL     1      -8.417  12.997  68.101  1.00  0.00    -0.176 A  
HETATM   22  C   UNL     1      -9.303  13.705  68.909  1.00  0.00     0.145 A  
ENDBRANCH   2   6
TORSDOF 1
ENDMDL
MODEL       62
REMARK 921   NORMALIZED FREE ENERGY PREDICTED BY IDOCK:   -4.70 KCAL/MOL
REMARK 922        TOTAL FREE ENERGY PREDICTED BY IDOCK:   -4.99 KCAL/MOL
REMARK 923 INTER-LIGAND FREE ENERGY PREDICTED BY IDOCK:   -4.95 KCAL/MOL
REMARK 924 INTRA-LIGAND FREE ENERGY PREDICTED BY IDOCK:   -0.04 KCAL/MOL
REMARK 927      BINDING AFFINITY PREDICTED BY RF-SCORE:    0.00 PKD
ROOT
HETATM    1  N   UNL     1     -11.344   6.702  67.031  1.00  0.00    -0.795 N  
HETATM    2  C   UNL     1     -10.346   7.535  67.461  1.00  0.00    -0.252 C  
HETATM    3  H1  UNL     1     -11.958   6.319  67.750  1.00  0.00     0.000 HD 
HETATM    4  H2  UNL     1     -11.468   6.476  66.043  1.00  0.00     0.000 HD 
HETATM    5  O   UNL     1      -9.608   7.996  66.595  1.00  0.00    -0.197 OA 
ENDROOT
BRANCH   2   6
HETATM    6  N   UNL     1     -10.360   7.833  68.840  1.00  0.00    -0.212 N  
HETATM    7  C   UNL     1     -11.049   9.002  69.364  1.00  0.00     0.018 A  
HETATM    8  C   UNL     1     -11.583   9.103  70.674  1.00  0.00    -0.282 A  
HETATM    9  C   UNL     1     -11.627   8.013  71.722  1.00  0.00    -0.331 C  
HETATM   10  C   UNL     1     -12.191  10.316  71.091  1.00  0.00    -0.500 A  
HETATM   11  C   UNL     1     -12.313  11.408  70.241  1.00  0.00    -0.379 A  
HETATM   12  C   UNL     1     -11.286   6.600  71.273  1.00  0.00    -0.299 C  
HETATM   13  O   UNL     1     -11.569   5.680  72.333  1.00  0.00    -0.284 OA 
HETATM   14  C   UNL     1      -9.830   6.569  70.906  1.00  0.00    -0.201 A  
HETATM   15  C   UNL     1     -11.816  11.315  68.955  1.00  0.00    -0.421 A  
HETATM   16  C   UNL     1     -11.193  10.135  68.533  1.00  0.00    -0.226 A  
HETATM   17  C   UNL     1      -9.418   7.205  69.725  1.00  0.00    -0.149 A  
HETATM   18  H   UNL     1     -11.356   4.797  72.052  1.00  0.00     0.000 HD 
HETATM   19  C   UNL     1      -8.058   7.174  69.371  1.00  0.00    -0.130 A  
HETATM   20  C   UNL     1      -7.114   6.540  70.181  1.00  0.00    -0.074 A  
HETATM   21  C   UNL     1      -7.524   5.928  71.360  1.00  0.00    -0.096 A  
HETATM   22  C   UNL     1      -8.869   5.940  71.718  1.00  0.00    -0.139 A  
ENDBRANCH   2   6
TORSDOF 1
ENDMDL
MODEL       63
REMARK 921   NORMALIZED FREE ENERGY PREDICTED BY IDOCK:   -4.68 KCAL/MOL
REMARK 922        TOTAL FREE ENERGY PREDICTED BY IDOCK:   -4.97 KCAL/MOL
REMARK 923 INTER-LIGAND FREE ENERGY PREDICTED BY IDOCK:   -4.93 KCAL/MOL
REMARK 924 INTRA-LIGAND FREE ENERGY PREDICTED BY IDOCK:   -0.04 KCAL/MOL
REMARK 927      BINDING AFFINITY PREDICTED BY RF-SCORE:    0.00 PKD
ROOT
HETATM    1  N   UNL     1     -11.411  14.976  64.803  1.00  0.00    -0.511 N  
HETATM    2  C   UNL     1     -11.587  13.970  65.715  1.00  0.00    -0.339 C  
HETATM    3  H1  UNL     1     -10.642  15.622  64.982  1.00  0.00     0.000 HD 
HETATM    4  H2  UNL     1     -12.016  15.074  63.987  1.00  0.00     0.000 HD 
HETATM    5  O   UNL     1     -12.512  13.192  65.499  1.00  0.00    -0.459 OA 
ENDROOT
BRANCH   2   6
HETATM    6  N   UNL     1     -10.616  13.902  66.736  1.00  0.00    -0.276 N  
HETATM    7  C   UNL     1      -9.464  13.019  66.640  1.00  0.00    -0.256 A  
HETATM    8  C   UNL     1      -8.216  13.248  67.273  1.00  0.00    -0.164 A  
HETATM    9  C   UNL     1      -7.815  14.469  68.071  1.00  0.00    -0.138 C  
HETATM   10  C   UNL     1      -7.179  12.287  67.147  1.00  0.00    -0.100 A  
HETATM   11  C   UNL     1      -7.334  11.133  66.390  1.00  0.00    -0.099 A  
HETATM   12  C   UNL     1      -8.735  15.678  68.004  1.00  0.00    -0.167 C  
HETATM   13  O   UNL     1      -8.109  16.793  68.649  1.00  0.00    -0.228 OA 
HETATM   14  C   UNL     1     -10.026  15.318  68.684  1.00  0.00    -0.216 A  
HETATM   15  C   UNL     1      -8.537  10.907  65.749  1.00  0.00    -0.176 A  
HETATM   16  C   UNL     1      -9.579  11.832  65.880  1.00  0.00    -0.249 A  
HETATM   17  C   UNL     1     -10.901  14.428  68.043  1.00  0.00    -0.243 A  
HETATM   18  H   UNL     1      -8.684  17.549  68.607  1.00  0.00     0.000 HD 
HETATM   19  C   UNL     1     -12.113  14.091  68.669  1.00  0.00    -0.332 A  
HETATM   20  C   UNL     1     -12.449  14.611  69.920  1.00  0.00    -0.290 A  
HETATM   21  C   UNL     1     -11.571  15.477  70.561  1.00  0.00    -0.371 A  
HETATM   22  C   UNL     1     -10.371  15.829  69.947  1.00  0.00    -0.313 A  
ENDBRANCH   2   6
TORSDOF 1
ENDMDL
MODEL       64
REMARK 921   NORMALIZED FREE ENERGY PREDICTED BY IDOCK:   -4.65 KCAL/MOL
REMARK 922        TOTAL FREE ENERGY PREDICTED BY IDOCK:   -4.94 KCAL/MOL
REMARK 923 INTER-LIGAND FREE ENERGY PREDICTED BY IDOCK:   -5.02 KCAL/MOL
REMARK 924 INTRA-LIGAND FREE ENERGY PREDICTED BY IDOCK:    0.08 KCAL/MOL
REMARK 927      BINDING AFFINITY PREDICTED BY RF-SCORE:    0.00 PKD
ROOT
HETATM    1  N   UNL     1     -10.515  10.127  65.735  1.00  0.00    -0.130 N  
HETATM    2  C   UNL     1     -10.201   9.856  67.040  1.00  0.00    -0.233 C  
HETATM    3  H1  UNL     1     -10.689  11.105  65.503  1.00  0.00     0.000 HD 
HETATM    4  H2  UNL     1     -10.570   9.390  65.031  1.00  0.00     0.000 HD 
HETATM    5  O   UNL     1      -9.991   8.679  67.319  1.00  0.00    -0.181 OA 
ENDROOT
BRANCH   2   6
HETATM    6  N   UNL     1     -10.065  10.984  67.876  1.00  0.00    -0.174 N  
HETATM    7  C   UNL     1      -8.919  11.874  67.780  1.00  0.00    -0.173 A  
HETATM    8  C   UNL     1      -8.933  13.248  68.135  1.00  0.00    -0.195 A  
HETATM    9  C   UNL     1     -10.131  14.058  68.577  1.00  0.00    -0.236 C  
HETATM   10  C   UNL     1      -7.736  14.006  68.045  1.00  0.00    -0.149 A  
HETATM   11  C   UNL     1      -6.547  13.452  67.588  1.00  0.00    -0.174 A  
HETATM   12  C   UNL     1     -11.503  13.424  68.407  1.00  0.00    -0.316 C  
HETATM   13  O   UNL     1     -12.518  14.394  68.686  1.00  0.00    -0.583 OA 
HETATM   14  C   UNL     1     -11.595  12.259  69.353  1.00  0.00    -0.378 A  
HETATM   15  C   UNL     1      -6.525  12.122  67.219  1.00  0.00    -0.152 A  
HETATM   16  C   UNL     1      -7.689  11.352  67.321  1.00  0.00    -0.145 A  
HETATM   17  C   UNL     1     -10.857  11.100  69.070  1.00  0.00    -0.231 A  
HETATM   18  H   UNL     1     -13.375  13.998  68.580  1.00  0.00     0.000 HD 
HETATM   19  C   UNL     1     -10.944  10.004  69.946  1.00  0.00    -0.339 A  
HETATM   20  C   UNL     1     -11.734  10.059  71.096  1.00  0.00    -0.472 A  
HETATM   21  C   UNL     1     -12.448  11.217  71.383  1.00  0.00    -0.414 A  
HETATM   22  C   UNL     1     -12.381  12.306  70.518  1.00  0.00    -0.349 A  
ENDBRANCH   2   6
TORSDOF 1
ENDMDL
MODEL       65
REMARK 921   NORMALIZED FREE ENERGY PREDICTED BY IDOCK:   -4.65 KCAL/MOL
REMARK 922        TOTAL FREE ENERGY PREDICTED BY IDOCK:   -4.94 KCAL/MOL
REMARK 923 INTER-LIGAND FREE ENERGY PREDICTED BY IDOCK:   -5.25 KCAL/MOL
REMARK 924 INTRA-LIGAND FREE ENERGY PREDICTED BY IDOCK:    0.31 KCAL/MOL
REMARK 927      BINDING AFFINITY PREDICTED BY RF-SCORE:    0.00 PKD
ROOT
HETATM    1  N   UNL     1     -10.685  19.559  65.843  1.00  0.00    -0.473 N  
HETATM    2  C   UNL     1      -9.985  19.041  66.901  1.00  0.00    -0.351 C  
HETATM    3  H1  UNL     1     -10.387  19.265  64.913  1.00  0.00     0.000 HD 
HETATM    4  H2  UNL     1     -11.465  20.203  65.979  1.00  0.00     0.000 HD 
HETATM    5  O   UNL     1     -10.345  19.395  68.020  1.00  0.00    -0.400 OA 
ENDROOT
BRANCH   2   6
HETATM    6  N   UNL     1      -9.000  18.089  66.565  1.00  0.00    -0.273 N  
HETATM    7  C   UNL     1      -7.669  18.484  66.133  1.00  0.00    -0.221 A  
HETATM    8  C   UNL     1      -6.500  17.699  66.300  1.00  0.00    -0.288 A  
HETATM    9  C   UNL     1      -6.392  16.377  67.028  1.00  0.00    -0.176 C  
HETATM   10  C   UNL     1      -5.261  18.169  65.791  1.00  0.00    -0.226 A  
HETATM   11  C   UNL     1      -5.146  19.399  65.156  1.00  0.00    -0.182 A  
HETATM   12  C   UNL     1      -7.584  15.944  67.868  1.00  0.00    -0.133 C  
HETATM   13  O   UNL     1      -7.236  14.785  68.633  1.00  0.00    -0.107 OA 
HETATM   14  C   UNL     1      -8.726  15.653  66.936  1.00  0.00    -0.283 A  
HETATM   15  C   UNL     1      -6.273  20.184  65.006  1.00  0.00    -0.310 A  
HETATM   16  C   UNL     1      -7.508  19.728  65.481  1.00  0.00    -0.184 A  
HETATM   17  C   UNL     1      -9.371  16.726  66.302  1.00  0.00    -0.279 A  
HETATM   18  H   UNL     1      -7.981  14.515  69.158  1.00  0.00     0.000 HD 
HETATM   19  C   UNL     1     -10.445  16.462  65.435  1.00  0.00    -0.333 A  
HETATM   20  C   UNL     1     -10.865  15.155  65.182  1.00  0.00    -0.437 A  
HETATM   21  C   UNL     1     -10.211  14.093  65.797  1.00  0.00    -0.347 A  
HETATM   22  C   UNL     1      -9.153  14.340  66.668  1.00  0.00    -0.249 A  
ENDBRANCH   2   6
TORSDOF 1
ENDMDL
MODEL       66
REMARK 921   NORMALIZED FREE ENERGY PREDICTED BY IDOCK:   -4.64 KCAL/MOL
REMARK 922        TOTAL FREE ENERGY PREDICTED BY IDOCK:   -4.93 KCAL/MOL
REMARK 923 INTER-LIGAND FREE ENERGY PREDICTED BY IDOCK:   -5.20 KCAL/MOL
REMARK 924 INTRA-LIGAND FREE ENERGY PREDICTED BY IDOCK:    0.27 KCAL/MOL
REMARK 927      BINDING AFFINITY PREDICTED BY RF-SCORE:    0.00 PKD
ROOT
HETATM    1  N   UNL     1      -9.428  20.657  66.281  1.00  0.00    -0.621 N  
HETATM    2  C   UNL     1      -9.860  19.652  67.104  1.00  0.00    -0.369 C  
HETATM    3  H1  UNL     1      -8.462  20.596  65.957  1.00  0.00     0.000 HD 
HETATM    4  H2  UNL     1     -10.039  21.427  66.005  1.00  0.00     0.000 HD 
HETATM    5  O   UNL     1     -11.022  19.726  67.493  1.00  0.00    -0.373 OA 
ENDROOT
BRANCH   2   6
HETATM    6  N   UNL     1      -8.937  18.607  67.319  1.00  0.00    -0.271 N  
HETATM    7  C   UNL     1      -9.339  17.210  67.277  1.00  0.00    -0.242 A  
HETATM    8  C   UNL     1      -8.480  16.134  66.936  1.00  0.00    -0.264 A  
HETATM    9  C   UNL     1      -7.046  16.232  66.466  1.00  0.00     0.026 C  
HETATM   10  C   UNL     1      -8.973  14.804  66.978  1.00  0.00    -0.258 A  
HETATM   11  C   UNL     1     -10.291  14.518  67.315  1.00  0.00    -0.260 A  
HETATM   12  C   UNL     1      -6.527  17.612  66.092  1.00  0.00    -0.249 C  
HETATM   13  O   UNL     1      -5.234  17.492  65.490  1.00  0.00    -0.223 OA 
HETATM   14  C   UNL     1      -6.464  18.439  67.346  1.00  0.00    -0.197 A  
HETATM   15  C   UNL     1     -11.143  15.558  67.628  1.00  0.00    -0.311 A  
HETATM   16  C   UNL     1     -10.670  16.875  67.614  1.00  0.00    -0.290 A  
HETATM   17  C   UNL     1      -7.663  18.880  67.925  1.00  0.00    -0.261 A  
HETATM   18  H   UNL     1      -4.910  18.354  65.256  1.00  0.00     0.000 HD 
HETATM   19  C   UNL     1      -7.611  19.660  69.093  1.00  0.00    -0.273 A  
HETATM   20  C   UNL     1      -6.393  19.983  69.692  1.00  0.00    -0.387 A  
HETATM   21  C   UNL     1      -5.208  19.528  69.127  1.00  0.00    -0.201 A  
HETATM   22  C   UNL     1      -5.243  18.764  67.962  1.00  0.00    -0.175 A  
ENDBRANCH   2   6
TORSDOF 1
ENDMDL
MODEL       67
REMARK 921   NORMALIZED FREE ENERGY PREDICTED BY IDOCK:   -4.63 KCAL/MOL
REMARK 922        TOTAL FREE ENERGY PREDICTED BY IDOCK:   -4.93 KCAL/MOL
REMARK 923 INTER-LIGAND FREE ENERGY PREDICTED BY IDOCK:   -4.88 KCAL/MOL
REMARK 924 INTRA-LIGAND FREE ENERGY PREDICTED BY IDOCK:   -0.04 KCAL/MOL
REMARK 927      BINDING AFFINITY PREDICTED BY RF-SCORE:    0.00 PKD
ROOT
HETATM    1  N   UNL     1     -11.988  11.464  69.034  1.00  0.00    -0.341 N  
HETATM    2  C   UNL     1     -11.102  11.235  68.015  1.00  0.00    -0.266 C  
HETATM    3  H1  UNL     1     -12.080  12.430  69.348  1.00  0.00     0.000 HD 
HETATM    4  H2  UNL     1     -12.529  10.708  69.456  1.00  0.00     0.000 HD 
HETATM    5  O   UNL     1     -10.992  10.072  67.637  1.00  0.00    -0.290 OA 
ENDROOT
BRANCH   2   6
HETATM    6  N   UNL     1     -10.501  12.387  67.466  1.00  0.00    -0.213 N  
HETATM    7  C   UNL     1     -11.042  13.044  66.286  1.00  0.00    -0.289 A  
HETATM    8  C   UNL     1     -10.888  14.422  65.988  1.00  0.00    -0.309 A  
HETATM    9  C   UNL     1     -10.236  15.471  66.862  1.00  0.00    -0.279 C  
HETATM   10  C   UNL     1     -11.419  14.941  64.779  1.00  0.00    -0.410 A  
HETATM   11  C   UNL     1     -12.119  14.144  63.881  1.00  0.00    -0.301 A  
HETATM   12  C   UNL     1      -9.917  15.083  68.297  1.00  0.00    -0.225 C  
HETATM   13  O   UNL     1      -9.492  16.241  69.024  1.00  0.00    -0.239 OA 
HETATM   14  C   UNL     1      -8.836  14.039  68.266  1.00  0.00    -0.184 A  
HETATM   15  C   UNL     1     -12.295  12.805  64.169  1.00  0.00    -0.485 A  
HETATM   16  C   UNL     1     -11.760  12.270  65.346  1.00  0.00    -0.424 A  
HETATM   17  C   UNL     1      -9.158  12.746  67.829  1.00  0.00    -0.197 A  
HETATM   18  H   UNL     1      -9.293  15.999  69.921  1.00  0.00     0.000 HD 
HETATM   19  C   UNL     1      -8.154  11.763  67.804  1.00  0.00    -0.143 A  
HETATM   20  C   UNL     1      -6.844  12.057  68.187  1.00  0.00    -0.069 A  
HETATM   21  C   UNL     1      -6.524  13.345  68.601  1.00  0.00    -0.091 A  
HETATM   22  C   UNL     1      -7.512  14.327  68.643  1.00  0.00    -0.127 A  
ENDBRANCH   2   6
TORSDOF 1
ENDMDL
MODEL       68
REMARK 921   NORMALIZED FREE ENERGY PREDICTED BY IDOCK:   -4.62 KCAL/MOL
REMARK 922        TOTAL FREE ENERGY PREDICTED BY IDOCK:   -4.91 KCAL/MOL
REMARK 923 INTER-LIGAND FREE ENERGY PREDICTED BY IDOCK:   -5.70 KCAL/MOL
REMARK 924 INTRA-LIGAND FREE ENERGY PREDICTED BY IDOCK:    0.78 KCAL/MOL
REMARK 927      BINDING AFFINITY PREDICTED BY RF-SCORE:    0.00 PKD
ROOT
HETATM    1  N   UNL     1     -11.140   9.980  67.654  1.00  0.00    -0.422 N  
HETATM    2  C   UNL     1     -10.179  10.872  68.048  1.00  0.00    -0.178 C  
HETATM    3  H1  UNL     1     -11.900  10.353  67.084  1.00  0.00     0.000 HD 
HETATM    4  H2  UNL     1     -11.099   8.994  67.915  1.00  0.00     0.000 HD 
HETATM    5  O   UNL     1      -9.265  10.422  68.733  1.00  0.00    -0.154 OA 
ENDROOT
BRANCH   2   6
HETATM    6  N   UNL     1     -10.315  12.176  67.530  1.00  0.00    -0.204 N  
HETATM    7  C   UNL     1     -10.835  12.419  66.193  1.00  0.00    -0.273 A  
HETATM    8  C   UNL     1     -11.507  13.601  65.790  1.00  0.00    -0.326 A  
HETATM    9  C   UNL     1     -11.891  14.770  66.671  1.00  0.00    -0.255 C  
HETATM   10  C   UNL     1     -11.926  13.745  64.442  1.00  0.00    -0.480 A  
HETATM   11  C   UNL     1     -11.728  12.743  63.500  1.00  0.00    -0.597 A  
HETATM   12  C   UNL     1     -11.766  14.581  68.175  1.00  0.00    -0.337 C  
HETATM   13  O   UNL     1     -12.352  15.699  68.849  1.00  0.00    -0.602 OA 
HETATM   14  C   UNL     1     -10.306  14.455  68.507  1.00  0.00    -0.248 A  
HETATM   15  C   UNL     1     -11.095  11.577  63.883  1.00  0.00    -0.458 A  
HETATM   16  C   UNL     1     -10.654  11.426  65.203  1.00  0.00    -0.352 A  
HETATM   17  C   UNL     1      -9.631  13.277  68.150  1.00  0.00    -0.227 A  
HETATM   18  H   UNL     1     -12.274  15.581  69.789  1.00  0.00     0.000 HD 
HETATM   19  C   UNL     1      -8.267  13.149  68.464  1.00  0.00    -0.076 A  
HETATM   20  C   UNL     1      -7.574  14.178  69.104  1.00  0.00    -0.003 A  
HETATM   21  C   UNL     1      -8.241  15.351  69.438  1.00  0.00    -0.250 A  
HETATM   22  C   UNL     1      -9.595  15.487  69.144  1.00  0.00    -0.253 A  
ENDBRANCH   2   6
TORSDOF 1
ENDMDL
MODEL       69
REMARK 921   NORMALIZED FREE ENERGY PREDICTED BY IDOCK:   -4.51 KCAL/MOL
REMARK 922        TOTAL FREE ENERGY PREDICTED BY IDOCK:   -4.79 KCAL/MOL
REMARK 923 INTER-LIGAND FREE ENERGY PREDICTED BY IDOCK:   -4.82 KCAL/MOL
REMARK 924 INTRA-LIGAND FREE ENERGY PREDICTED BY IDOCK:    0.03 KCAL/MOL
REMARK 927      BINDING AFFINITY PREDICTED BY RF-SCORE:    0.00 PKD
ROOT
HETATM    1  N   UNL     1     -12.388   6.883  70.499  1.00  0.00    -0.601 N  
HETATM    2  C   UNL     1     -11.458   7.671  71.123  1.00  0.00    -0.275 C  
HETATM    3  H1  UNL     1     -12.367   6.877  69.479  1.00  0.00     0.000 HD 
HETATM    4  H2  UNL     1     -13.065   6.331  71.026  1.00  0.00     0.000 HD 
HETATM    5  O   UNL     1     -11.483   7.679  72.350  1.00  0.00    -0.299 OA 
ENDROOT
BRANCH   2   6
HETATM    6  N   UNL     1     -10.527   8.298  70.269  1.00  0.00    -0.214 N  
HETATM    7  C   UNL     1      -9.114   7.949  70.289  1.00  0.00    -0.152 A  
HETATM    8  C   UNL     1      -8.236   8.079  69.183  1.00  0.00    -0.130 A  
HETATM    9  C   UNL     1      -8.604   8.500  67.777  1.00  0.00    -0.134 C  
HETATM   10  C   UNL     1      -6.864   7.753  69.336  1.00  0.00    -0.044 A  
HETATM   11  C   UNL     1      -6.351   7.276  70.536  1.00  0.00    -0.038 A  
HETATM   12  C   UNL     1     -10.085   8.569  67.435  1.00  0.00    -0.234 C  
HETATM   13  O   UNL     1     -10.242   8.787  66.029  1.00  0.00    -0.412 OA 
HETATM   14  C   UNL     1     -10.691   9.693  68.226  1.00  0.00    -0.262 A  
HETATM   15  C   UNL     1      -7.199   7.124  71.615  1.00  0.00    -0.073 A  
HETATM   16  C   UNL     1      -8.552   7.462  71.490  1.00  0.00    -0.120 A  
HETATM   17  C   UNL     1     -10.864   9.529  69.609  1.00  0.00    -0.235 A  
HETATM   18  H   UNL     1     -11.167   8.830  65.815  1.00  0.00     0.000 HD 
HETATM   19  C   UNL     1     -11.437  10.574  70.355  1.00  0.00    -0.427 A  
HETATM   20  C   UNL     1     -11.817  11.772  69.747  1.00  0.00    -0.420 A  
HETATM   21  C   UNL     1     -11.626  11.937  68.380  1.00  0.00    -0.376 A  
HETATM   22  C   UNL     1     -11.071  10.907  67.626  1.00  0.00    -0.376 A  
ENDBRANCH   2   6
TORSDOF 1
ENDMDL
MODEL       70
REMARK 921   NORMALIZED FREE ENERGY PREDICTED BY IDOCK:   -4.46 KCAL/MOL
REMARK 922        TOTAL FREE ENERGY PREDICTED BY IDOCK:   -4.74 KCAL/MOL
REMARK 923 INTER-LIGAND FREE ENERGY PREDICTED BY IDOCK:   -5.35 KCAL/MOL
REMARK 924 INTRA-LIGAND FREE ENERGY PREDICTED BY IDOCK:    0.61 KCAL/MOL
REMARK 927      BINDING AFFINITY PREDICTED BY RF-SCORE:    0.00 PKD
ROOT
HETATM    1  N   UNL     1     -11.049  12.523  69.396  1.00  0.00    -0.452 N  
HETATM    2  C   UNL     1     -11.333  11.679  68.355  1.00  0.00    -0.279 C  
HETATM    3  H1  UNL     1     -10.214  13.101  69.298  1.00  0.00     0.000 HD 
HETATM    4  H2  UNL     1     -11.642  12.572  70.225  1.00  0.00     0.000 HD 
HETATM    5  O   UNL     1     -12.338  10.985  68.474  1.00  0.00    -0.536 OA 
ENDROOT
BRANCH   2   6
HETATM    6  N   UNL     1     -10.482  11.791  67.237  1.00  0.00    -0.209 N  
HETATM    7  C   UNL     1      -9.033  11.796  67.374  1.00  0.00    -0.173 A  
HETATM    8  C   UNL     1      -8.127  11.364  66.373  1.00  0.00    -0.106 A  
HETATM    9  C   UNL     1      -8.477  10.737  65.042  1.00  0.00    -0.080 C  
HETATM   10  C   UNL     1      -6.730  11.462  66.603  1.00  0.00    -0.112 A  
HETATM   11  C   UNL     1      -6.214  11.944  67.800  1.00  0.00    -0.070 A  
HETATM   12  C   UNL     1      -9.921  10.306  64.832  1.00  0.00    -0.323 C  
HETATM   13  O   UNL     1     -10.028   9.564  63.613  1.00  0.00    -0.213 OA 
HETATM   14  C   UNL     1     -10.772  11.543  64.787  1.00  0.00    -0.366 A  
HETATM   15  C   UNL     1      -7.085  12.349  68.791  1.00  0.00    -0.098 A  
HETATM   16  C   UNL     1      -8.467  12.280  68.575  1.00  0.00    -0.077 A  
HETATM   17  C   UNL     1     -10.998  12.252  65.977  1.00  0.00    -0.292 A  
HETATM   18  H   UNL     1     -10.930   9.294  63.482  1.00  0.00     0.000 HD 
HETATM   19  C   UNL     1     -11.799  13.406  65.944  1.00  0.00    -0.414 A  
HETATM   20  C   UNL     1     -12.355  13.865  64.748  1.00  0.00    -0.429 A  
HETATM   21  C   UNL     1     -12.113  13.172  63.568  1.00  0.00    -0.585 A  
HETATM   22  C   UNL     1     -11.331  12.020  63.588  1.00  0.00    -0.536 A  
ENDBRANCH   2   6
TORSDOF 1
ENDMDL
MODEL       71
REMARK 921   NORMALIZED FREE ENERGY PREDICTED BY IDOCK:   -4.43 KCAL/MOL
REMARK 922        TOTAL FREE ENERGY PREDICTED BY IDOCK:   -4.72 KCAL/MOL
REMARK 923 INTER-LIGAND FREE ENERGY PREDICTED BY IDOCK:   -4.84 KCAL/MOL
REMARK 924 INTRA-LIGAND FREE ENERGY PREDICTED BY IDOCK:    0.12 KCAL/MOL
REMARK 927      BINDING AFFINITY PREDICTED BY RF-SCORE:    0.00 PKD
ROOT
HETATM    1  N   UNL     1      -6.425  12.081  66.593  1.00  0.00    -0.353 N  
HETATM    2  C   UNL     1      -6.828  12.963  67.560  1.00  0.00    -0.153 C  
HETATM    3  H1  UNL     1      -7.063  11.943  65.809  1.00  0.00     0.000 HD 
HETATM    4  H2  UNL     1      -5.534  11.588  66.653  1.00  0.00     0.000 HD 
HETATM    5  O   UNL     1      -6.060  13.128  68.503  1.00  0.00    -0.069 OA 
ENDROOT
BRANCH   2   6
HETATM    6  N   UNL     1      -8.036  13.641  67.294  1.00  0.00    -0.150 N  
HETATM    7  C   UNL     1      -8.110  15.094  67.276  1.00  0.00    -0.201 A  
HETATM    8  C   UNL     1      -9.049  15.845  66.524  1.00  0.00    -0.320 A  
HETATM    9  C   UNL     1     -10.065  15.303  65.543  1.00  0.00    -0.408 C  
HETATM   10  C   UNL     1      -9.057  17.260  66.626  1.00  0.00    -0.286 A  
HETATM   11  C   UNL     1      -8.147  17.946  67.421  1.00  0.00    -0.217 A  
HETATM   12  C   UNL     1      -9.930  13.845  65.133  1.00  0.00    -0.218 C  
HETATM   13  O   UNL     1     -10.839  13.561  64.064  1.00  0.00    -0.554 OA 
HETATM   14  C   UNL     1     -10.229  12.995  66.335  1.00  0.00    -0.283 A  
HETATM   15  C   UNL     1      -7.214  17.228  68.142  1.00  0.00    -0.196 A  
HETATM   16  C   UNL     1      -7.204  15.830  68.073  1.00  0.00    -0.141 A  
HETATM   17  C   UNL     1      -9.291  12.946  67.377  1.00  0.00    -0.194 A  
HETATM   18  H   UNL     1     -10.755  12.650  63.807  1.00  0.00     0.000 HD 
HETATM   19  C   UNL     1      -9.560  12.147  68.502  1.00  0.00    -0.137 A  
HETATM   20  C   UNL     1     -10.749  11.423  68.606  1.00  0.00    -0.241 A  
HETATM   21  C   UNL     1     -11.684  11.489  67.580  1.00  0.00    -0.283 A  
HETATM   22  C   UNL     1     -11.426  12.266  66.454  1.00  0.00    -0.434 A  
ENDBRANCH   2   6
TORSDOF 1
ENDMDL
MODEL       72
REMARK 921   NORMALIZED FREE ENERGY PREDICTED BY IDOCK:   -4.43 KCAL/MOL
REMARK 922        TOTAL FREE ENERGY PREDICTED BY IDOCK:   -4.71 KCAL/MOL
REMARK 923 INTER-LIGAND FREE ENERGY PREDICTED BY IDOCK:   -5.26 KCAL/MOL
REMARK 924 INTRA-LIGAND FREE ENERGY PREDICTED BY IDOCK:    0.55 KCAL/MOL
REMARK 927      BINDING AFFINITY PREDICTED BY RF-SCORE:    0.00 PKD
ROOT
HETATM    1  N   UNL     1     -10.820  11.032  63.018  1.00  0.00    -0.787 N  
HETATM    2  C   UNL     1      -9.671  11.049  63.764  1.00  0.00    -0.309 C  
HETATM    3  H1  UNL     1     -11.696  11.117  63.533  1.00  0.00     0.000 HD 
HETATM    4  H2  UNL     1     -10.800  10.939  62.002  1.00  0.00     0.000 HD 
HETATM    5  O   UNL     1      -8.616  10.946  63.144  1.00  0.00    -0.161 OA 
ENDROOT
BRANCH   2   6
HETATM    6  N   UNL     1      -9.849  11.281  65.144  1.00  0.00    -0.240 N  
HETATM    7  C   UNL     1      -9.552  10.260  66.137  1.00  0.00    -0.197 A  
HETATM    8  C   UNL     1      -9.172  10.525  67.477  1.00  0.00    -0.152 A  
HETATM    9  C   UNL     1      -8.912  11.881  68.095  1.00  0.00    -0.185 C  
HETATM   10  C   UNL     1      -8.955   9.444  68.370  1.00  0.00    -0.128 A  
HETATM   11  C   UNL     1      -9.073   8.120  67.966  1.00  0.00    -0.134 A  
HETATM   12  C   UNL     1      -8.813  13.070  67.151  1.00  0.00    -0.218 C  
HETATM   13  O   UNL     1      -8.373  14.223  67.876  1.00  0.00    -0.141 OA 
HETATM   14  C   UNL     1     -10.171  13.297  66.549  1.00  0.00    -0.283 A  
HETATM   15  C   UNL     1      -9.422   7.847  66.657  1.00  0.00    -0.270 A  
HETATM   16  C   UNL     1      -9.661   8.900  65.767  1.00  0.00    -0.245 A  
HETATM   17  C   UNL     1     -10.648  12.387  65.595  1.00  0.00    -0.265 A  
HETATM   18  H   UNL     1      -8.311  14.965  67.287  1.00  0.00     0.000 HD 
HETATM   19  C   UNL     1     -11.914  12.597  65.022  1.00  0.00    -0.467 A  
HETATM   20  C   UNL     1     -12.707  13.682  65.401  1.00  0.00    -0.500 A  
HETATM   21  C   UNL     1     -12.240  14.571  66.361  1.00  0.00    -0.274 A  
HETATM   22  C   UNL     1     -10.982  14.382  66.928  1.00  0.00    -0.308 A  
ENDBRANCH   2   6
TORSDOF 1
ENDMDL
MODEL       73
REMARK 921   NORMALIZED FREE ENERGY PREDICTED BY IDOCK:   -4.43 KCAL/MOL
REMARK 922        TOTAL FREE ENERGY PREDICTED BY IDOCK:   -4.71 KCAL/MOL
REMARK 923 INTER-LIGAND FREE ENERGY PREDICTED BY IDOCK:   -4.67 KCAL/MOL
REMARK 924 INTRA-LIGAND FREE ENERGY PREDICTED BY IDOCK:   -0.04 KCAL/MOL
REMARK 927      BINDING AFFINITY PREDICTED BY RF-SCORE:    0.00 PKD
ROOT
HETATM    1  N   UNL     1     -11.476   6.572  66.885  1.00  0.00    -0.780 N  
HETATM    2  C   UNL     1     -10.649   6.275  67.935  1.00  0.00    -0.262 C  
HETATM    3  H1  UNL     1     -11.737   7.552  66.776  1.00  0.00     0.000 HD 
HETATM    4  H2  UNL     1     -11.814   5.852  66.246  1.00  0.00     0.000 HD 
HETATM    5  O   UNL     1     -10.334   5.095  68.066  1.00  0.00    -0.148 OA 
ENDROOT
BRANCH   2   6
HETATM    6  N   UNL     1     -10.186   7.384  68.673  1.00  0.00    -0.187 N  
HETATM    7  C   UNL     1      -8.958   8.080  68.320  1.00  0.00    -0.132 A  
HETATM    8  C   UNL     1      -8.694   9.445  68.601  1.00  0.00    -0.131 A  
HETATM    9  C   UNL     1      -9.649  10.444  69.216  1.00  0.00    -0.226 C  
HETATM   10  C   UNL     1      -7.437  10.002  68.252  1.00  0.00    -0.079 A  
HETATM   11  C   UNL     1      -6.455   9.258  67.610  1.00  0.00    -0.063 A  
HETATM   12  C   UNL     1     -11.108  10.032  69.338  1.00  0.00    -0.223 C  
HETATM   13  O   UNL     1     -11.891  11.156  69.751  1.00  0.00    -0.287 OA 
HETATM   14  C   UNL     1     -11.193   8.917  70.341  1.00  0.00    -0.259 A  
HETATM   15  C   UNL     1      -6.706   7.933  67.311  1.00  0.00    -0.069 A  
HETATM   16  C   UNL     1      -7.932   7.359  67.667  1.00  0.00    -0.114 A  
HETATM   17  C   UNL     1     -10.707   7.649  69.986  1.00  0.00    -0.241 A  
HETATM   18  H   UNL     1     -12.803  10.899  69.827  1.00  0.00     0.000 HD 
HETATM   19  C   UNL     1     -10.789   6.600  70.916  1.00  0.00    -0.297 A  
HETATM   20  C   UNL     1     -11.326   6.803  72.189  1.00  0.00    -0.307 A  
HETATM   21  C   UNL     1     -11.788   8.065  72.545  1.00  0.00    -0.419 A  
HETATM   22  C   UNL     1     -11.725   9.112  71.629  1.00  0.00    -0.448 A  
ENDBRANCH   2   6
TORSDOF 1
ENDMDL
MODEL       74
REMARK 921   NORMALIZED FREE ENERGY PREDICTED BY IDOCK:   -4.42 KCAL/MOL
REMARK 922        TOTAL FREE ENERGY PREDICTED BY IDOCK:   -4.71 KCAL/MOL
REMARK 923 INTER-LIGAND FREE ENERGY PREDICTED BY IDOCK:   -4.66 KCAL/MOL
REMARK 924 INTRA-LIGAND FREE ENERGY PREDICTED BY IDOCK:   -0.04 KCAL/MOL
REMARK 927      BINDING AFFINITY PREDICTED BY RF-SCORE:    0.00 PKD
ROOT
HETATM    1  N   UNL     1      -9.445  10.662  69.337  1.00  0.00    -0.395 N  
HETATM    2  C   UNL     1      -8.621   9.708  69.871  1.00  0.00    -0.203 C  
HETATM    3  H1  UNL     1     -10.271  10.325  68.842  1.00  0.00     0.000 HD 
HETATM    4  H2  UNL     1      -9.244  11.659  69.428  1.00  0.00     0.000 HD 
HETATM    5  O   UNL     1      -7.628  10.114  70.466  1.00  0.00    -0.269 OA 
ENDROOT
BRANCH   2   6
HETATM    6  N   UNL     1      -9.078   8.379  69.750  1.00  0.00    -0.152 N  
HETATM    7  C   UNL     1      -9.792   7.713  70.829  1.00  0.00    -0.177 A  
HETATM    8  C   UNL     1     -10.730   6.665  70.649  1.00  0.00    -0.286 A  
HETATM    9  C   UNL     1     -11.233   6.114  69.333  1.00  0.00    -0.466 C  
HETATM   10  C   UNL     1     -11.327   6.057  71.784  1.00  0.00    -0.324 A  
HETATM   11  C   UNL     1     -11.046   6.479  73.078  1.00  0.00    -0.230 A  
HETATM   12  C   UNL     1     -10.895   6.898  68.074  1.00  0.00    -0.200 C  
HETATM   13  O   UNL     1     -11.608   6.349  66.961  1.00  0.00    -0.696 OA 
HETATM   14  C   UNL     1      -9.410   6.810  67.859  1.00  0.00    -0.113 A  
HETATM   15  C   UNL     1     -10.151   7.513  73.266  1.00  0.00    -0.386 A  
HETATM   16  C   UNL     1      -9.534   8.110  72.160  1.00  0.00    -0.291 A  
HETATM   17  C   UNL     1      -8.560   7.526  68.715  1.00  0.00    -0.129 A  
HETATM   18  H   UNL     1     -11.397   6.838  66.175  1.00  0.00     0.000 HD 
HETATM   19  C   UNL     1      -7.171   7.455  68.516  1.00  0.00    -0.087 A  
HETATM   20  C   UNL     1      -6.627   6.672  67.497  1.00  0.00    -0.057 A  
HETATM   21  C   UNL     1      -7.471   5.948  66.663  1.00  0.00    -0.087 A  
HETATM   22  C   UNL     1      -8.850   6.018  66.841  1.00  0.00    -0.116 A  
ENDBRANCH   2   6
TORSDOF 1
ENDMDL
MODEL       75
REMARK 921   NORMALIZED FREE ENERGY PREDICTED BY IDOCK:   -4.39 KCAL/MOL
REMARK 922        TOTAL FREE ENERGY PREDICTED BY IDOCK:   -4.67 KCAL/MOL
REMARK 923 INTER-LIGAND FREE ENERGY PREDICTED BY IDOCK:   -5.06 KCAL/MOL
REMARK 924 INTRA-LIGAND FREE ENERGY PREDICTED BY IDOCK:    0.39 KCAL/MOL
REMARK 927      BINDING AFFINITY PREDICTED BY RF-SCORE:    0.00 PKD
ROOT
HETATM    1  N   UNL     1      -9.596  19.550  66.717  1.00  0.00    -0.334 N  
HETATM    2  C   UNL     1      -8.550  18.670  66.621  1.00  0.00    -0.297 C  
HETATM    3  H1  UNL     1     -10.150  19.504  67.572  1.00  0.00     0.000 HD 
HETATM    4  H2  UNL     1      -9.809  20.215  65.973  1.00  0.00     0.000 HD 
HETATM    5  O   UNL     1      -7.883  18.725  65.592  1.00  0.00    -0.465 OA 
ENDROOT
BRANCH   2   6
HETATM    6  N   UNL     1      -8.318  17.880  67.766  1.00  0.00    -0.237 N  
HETATM    7  C   UNL     1      -9.282  16.890  68.222  1.00  0.00    -0.241 A  
HETATM    8  C   UNL     1      -8.954  15.725  68.961  1.00  0.00    -0.246 A  
HETATM    9  C   UNL     1      -7.567  15.244  69.326  1.00  0.00    -0.213 C  
HETATM   10  C   UNL     1      -9.988  14.856  69.394  1.00  0.00    -0.145 A  
HETATM   11  C   UNL     1     -11.323  15.091  69.089  1.00  0.00    -0.311 A  
HETATM   12  C   UNL     1      -6.390  15.930  68.650  1.00  0.00    -0.112 C  
HETATM   13  O   UNL     1      -5.183  15.225  68.958  1.00  0.00    -0.097 OA 
HETATM   14  C   UNL     1      -6.330  17.346  69.148  1.00  0.00    -0.234 A  
HETATM   15  C   UNL     1     -11.655  16.211  68.352  1.00  0.00    -0.228 A  
HETATM   16  C   UNL     1     -10.651  17.092  67.934  1.00  0.00    -0.376 A  
HETATM   17  C   UNL     1      -7.305  18.257  68.713  1.00  0.00    -0.284 A  
HETATM   18  H   UNL     1      -4.447  15.653  68.535  1.00  0.00     0.000 HD 
HETATM   19  C   UNL     1      -7.251  19.585  69.168  1.00  0.00    -0.382 A  
HETATM   20  C   UNL     1      -6.259  20.005  70.057  1.00  0.00    -0.395 A  
HETATM   21  C   UNL     1      -5.307  19.095  70.501  1.00  0.00    -0.236 A  
HETATM   22  C   UNL     1      -5.340  17.778  70.048  1.00  0.00    -0.224 A  
ENDBRANCH   2   6
TORSDOF 1
ENDMDL
MODEL       76
REMARK 921   NORMALIZED FREE ENERGY PREDICTED BY IDOCK:   -4.38 KCAL/MOL
REMARK 922        TOTAL FREE ENERGY PREDICTED BY IDOCK:   -4.66 KCAL/MOL
REMARK 923 INTER-LIGAND FREE ENERGY PREDICTED BY IDOCK:   -4.65 KCAL/MOL
REMARK 924 INTRA-LIGAND FREE ENERGY PREDICTED BY IDOCK:   -0.01 KCAL/MOL
REMARK 927      BINDING AFFINITY PREDICTED BY RF-SCORE:    0.00 PKD
ROOT
HETATM    1  N   UNL     1     -11.464  12.330  70.262  1.00  0.00    -0.485 N  
HETATM    2  C   UNL     1     -11.515  11.798  69.000  1.00  0.00    -0.297 C  
HETATM    3  H1  UNL     1     -10.632  12.872  70.492  1.00  0.00     0.000 HD 
HETATM    4  H2  UNL     1     -12.218  12.191  70.934  1.00  0.00     0.000 HD 
HETATM    5  O   UNL     1     -12.517  11.146  68.723  1.00  0.00    -0.468 OA 
ENDROOT
BRANCH   2   6
HETATM    6  N   UNL     1     -10.448  12.155  68.150  1.00  0.00    -0.205 N  
HETATM    7  C   UNL     1     -10.625  13.089  67.049  1.00  0.00    -0.257 A  
HETATM    8  C   UNL     1      -9.600  13.908  66.512  1.00  0.00    -0.299 A  
HETATM    9  C   UNL     1      -8.184  14.042  67.028  1.00  0.00    -0.078 C  
HETATM   10  C   UNL     1      -9.881  14.745  65.402  1.00  0.00    -0.295 A  
HETATM   11  C   UNL     1     -11.148  14.815  64.835  1.00  0.00    -0.416 A  
HETATM   12  C   UNL     1      -7.875  13.431  68.386  1.00  0.00    -0.138 C  
HETATM   13  O   UNL     1      -6.561  13.820  68.799  1.00  0.00    -0.087 OA 
HETATM   14  C   UNL     1      -7.981  11.938  68.257  1.00  0.00    -0.148 A  
HETATM   15  C   UNL     1     -12.161  14.039  65.361  1.00  0.00    -0.453 A  
HETATM   16  C   UNL     1     -11.898  13.190  66.442  1.00  0.00    -0.455 A  
HETATM   17  C   UNL     1      -9.251  11.360  68.117  1.00  0.00    -0.178 A  
HETATM   18  H   UNL     1      -6.368  13.438  69.648  1.00  0.00     0.000 HD 
HETATM   19  C   UNL     1      -9.358   9.963  68.003  1.00  0.00    -0.140 A  
HETATM   20  C   UNL     1      -8.224   9.149  68.008  1.00  0.00    -0.112 A  
HETATM   21  C   UNL     1      -6.966   9.727  68.127  1.00  0.00    -0.077 A  
HETATM   22  C   UNL     1      -6.845  11.108  68.253  1.00  0.00    -0.068 A  
ENDBRANCH   2   6
TORSDOF 1
ENDMDL
MODEL       77
REMARK 921   NORMALIZED FREE ENERGY PREDICTED BY IDOCK:   -4.38 KCAL/MOL
REMARK 922        TOTAL FREE ENERGY PREDICTED BY IDOCK:   -4.66 KCAL/MOL
REMARK 923 INTER-LIGAND FREE ENERGY PREDICTED BY IDOCK:   -4.63 KCAL/MOL
REMARK 924 INTRA-LIGAND FREE ENERGY PREDICTED BY IDOCK:   -0.03 KCAL/MOL
REMARK 927      BINDING AFFINITY PREDICTED BY RF-SCORE:    0.00 PKD
ROOT
HETATM    1  N   UNL     1     -11.056   9.685  67.678  1.00  0.00    -0.459 N  
HETATM    2  C   UNL     1     -10.412  10.022  68.839  1.00  0.00    -0.210 C  
HETATM    3  H1  UNL     1     -11.488   8.762  67.649  1.00  0.00     0.000 HD 
HETATM    4  H2  UNL     1     -11.102  10.325  66.884  1.00  0.00     0.000 HD 
HETATM    5  O   UNL     1      -9.892  11.133  68.873  1.00  0.00    -0.200 OA 
ENDROOT
BRANCH   2   6
HETATM    6  N   UNL     1     -10.516   9.079  69.882  1.00  0.00    -0.208 N  
HETATM    7  C   UNL     1     -11.641   9.077  70.804  1.00  0.00    -0.265 A  
HETATM    8  C   UNL     1     -12.123   7.931  71.487  1.00  0.00    -0.336 A  
HETATM    9  C   UNL     1     -11.640   6.508  71.323  1.00  0.00    -0.381 C  
HETATM   10  C   UNL     1     -13.200   8.062  72.402  1.00  0.00    -0.041 A  
HETATM   11  C   UNL     1     -13.826   9.281  72.632  1.00  0.00    -0.379 A  
HETATM   12  C   UNL     1     -10.713   6.217  70.152  1.00  0.00    -0.302 C  
HETATM   13  O   UNL     1     -10.518   4.803  70.035  1.00  0.00    -0.194 OA 
HETATM   14  C   UNL     1      -9.410   6.922  70.406  1.00  0.00    -0.159 A  
HETATM   15  C   UNL     1     -13.381  10.401  71.957  1.00  0.00    -0.440 A  
HETATM   16  C   UNL     1     -12.306  10.296  71.067  1.00  0.00    -0.483 A  
HETATM   17  C   UNL     1      -9.365   8.319  70.289  1.00  0.00    -0.159 A  
HETATM   18  H   UNL     1      -9.939   4.621  69.303  1.00  0.00     0.000 HD 
HETATM   19  C   UNL     1      -8.149   8.985  70.518  1.00  0.00    -0.169 A  
HETATM   20  C   UNL     1      -6.997   8.283  70.875  1.00  0.00    -0.045 A  
HETATM   21  C   UNL     1      -7.050   6.900  71.009  1.00  0.00    -0.071 A  
HETATM   22  C   UNL     1      -8.245   6.226  70.773  1.00  0.00    -0.125 A  
ENDBRANCH   2   6
TORSDOF 1
ENDMDL
MODEL       78
REMARK 921   NORMALIZED FREE ENERGY PREDICTED BY IDOCK:   -4.36 KCAL/MOL
REMARK 922        TOTAL FREE ENERGY PREDICTED BY IDOCK:   -4.64 KCAL/MOL
REMARK 923 INTER-LIGAND FREE ENERGY PREDICTED BY IDOCK:   -4.61 KCAL/MOL
REMARK 924 INTRA-LIGAND FREE ENERGY PREDICTED BY IDOCK:   -0.03 KCAL/MOL
REMARK 927      BINDING AFFINITY PREDICTED BY RF-SCORE:    0.00 PKD
ROOT
HETATM    1  N   UNL     1     -12.126  13.669  68.232  1.00  0.00    -0.377 N  
HETATM    2  C   UNL     1     -11.617  14.007  67.006  1.00  0.00    -0.371 C  
HETATM    3  H1  UNL     1     -11.456  13.331  68.924  1.00  0.00     0.000 HD 
HETATM    4  H2  UNL     1     -13.121  13.752  68.443  1.00  0.00     0.000 HD 
HETATM    5  O   UNL     1     -12.423  14.415  66.174  1.00  0.00    -0.392 OA 
ENDROOT
BRANCH   2   6
HETATM    6  N   UNL     1     -10.213  13.934  66.893  1.00  0.00    -0.254 N  
HETATM    7  C   UNL     1      -9.379  15.126  66.920  1.00  0.00    -0.234 A  
HETATM    8  C   UNL     1      -8.030  15.156  67.355  1.00  0.00    -0.215 A  
HETATM    9  C   UNL     1      -7.243  14.010  67.951  1.00  0.00    -0.164 C  
HETATM   10  C   UNL     1      -7.300  16.371  67.289  1.00  0.00    -0.209 A  
HETATM   11  C   UNL     1      -7.877  17.552  66.839  1.00  0.00    -0.258 A  
HETATM   12  C   UNL     1      -8.019  12.764  68.349  1.00  0.00    -0.137 C  
HETATM   13  O   UNL     1      -7.160  11.873  69.068  1.00  0.00    -0.111 OA 
HETATM   14  C   UNL     1      -8.536  12.119  67.094  1.00  0.00    -0.182 A  
HETATM   15  C   UNL     1      -9.197  17.542  66.433  1.00  0.00    -0.267 A  
HETATM   16  C   UNL     1      -9.927  16.348  66.469  1.00  0.00    -0.294 A  
HETATM   17  C   UNL     1      -9.588  12.737  66.401  1.00  0.00    -0.254 A  
HETATM   18  H   UNL     1      -7.645  11.094  69.317  1.00  0.00     0.000 HD 
HETATM   19  C   UNL     1     -10.081  12.136  65.230  1.00  0.00    -0.291 A  
HETATM   20  C   UNL     1      -9.531  10.951  64.739  1.00  0.00    -0.279 A  
HETATM   21  C   UNL     1      -8.475  10.352  65.417  1.00  0.00    -0.173 A  
HETATM   22  C   UNL     1      -7.984  10.930  66.585  1.00  0.00    -0.148 A  
ENDBRANCH   2   6
TORSDOF 1
ENDMDL
MODEL       79
REMARK 921   NORMALIZED FREE ENERGY PREDICTED BY IDOCK:   -4.35 KCAL/MOL
REMARK 922        TOTAL FREE ENERGY PREDICTED BY IDOCK:   -4.63 KCAL/MOL
REMARK 923 INTER-LIGAND FREE ENERGY PREDICTED BY IDOCK:   -4.82 KCAL/MOL
REMARK 924 INTRA-LIGAND FREE ENERGY PREDICTED BY IDOCK:    0.19 KCAL/MOL
REMARK 927      BINDING AFFINITY PREDICTED BY RF-SCORE:    0.00 PKD
ROOT
HETATM    1  N   UNL     1     -11.502   6.505  67.583  1.00  0.00    -0.688 N  
HETATM    2  C   UNL     1     -10.772   6.034  68.641  1.00  0.00    -0.297 C  
HETATM    3  H1  UNL     1     -11.717   7.503  67.588  1.00  0.00     0.000 HD 
HETATM    4  H2  UNL     1     -11.815   5.892  66.830  1.00  0.00     0.000 HD 
HETATM    5  O   UNL     1     -10.513   4.833  68.635  1.00  0.00     0.013 OA 
ENDROOT
BRANCH   2   6
HETATM    6  N   UNL     1     -10.327   7.013  69.553  1.00  0.00    -0.205 N  
HETATM    7  C   UNL     1      -8.936   7.094  69.972  1.00  0.00    -0.142 A  
HETATM    8  C   UNL     1      -8.291   8.281  70.403  1.00  0.00    -0.120 A  
HETATM    9  C   UNL     1      -8.876   9.676  70.420  1.00  0.00    -0.227 C  
HETATM   10  C   UNL     1      -6.941   8.227  70.837  1.00  0.00    -0.045 A  
HETATM   11  C   UNL     1      -6.211   7.045  70.823  1.00  0.00    -0.036 A  
HETATM   12  C   UNL     1     -10.195   9.888  69.691  1.00  0.00    -0.237 C  
HETATM   13  O   UNL     1     -10.495  11.287  69.640  1.00  0.00    -0.445 OA 
HETATM   14  C   UNL     1     -11.261   9.134  70.434  1.00  0.00    -0.279 A  
HETATM   15  C   UNL     1      -6.820   5.886  70.385  1.00  0.00    -0.057 A  
HETATM   16  C   UNL     1      -8.158   5.914  69.974  1.00  0.00    -0.109 A  
HETATM   17  C   UNL     1     -11.273   7.733  70.361  1.00  0.00    -0.237 A  
HETATM   18  H   UNL     1     -11.318  11.419  69.185  1.00  0.00     0.000 HD 
HETATM   19  C   UNL     1     -12.271   7.021  71.047  1.00  0.00    -0.419 A  
HETATM   20  C   UNL     1     -13.235   7.682  71.811  1.00  0.00    -0.360 A  
HETATM   21  C   UNL     1     -13.208   9.069  71.896  1.00  0.00    -0.462 A  
HETATM   22  C   UNL     1     -12.232   9.789  71.212  1.00  0.00    -0.465 A  
ENDBRANCH   2   6
TORSDOF 1
ENDMDL
MODEL       80
REMARK 921   NORMALIZED FREE ENERGY PREDICTED BY IDOCK:   -4.34 KCAL/MOL
REMARK 922        TOTAL FREE ENERGY PREDICTED BY IDOCK:   -4.62 KCAL/MOL
REMARK 923 INTER-LIGAND FREE ENERGY PREDICTED BY IDOCK:   -4.58 KCAL/MOL
REMARK 924 INTRA-LIGAND FREE ENERGY PREDICTED BY IDOCK:   -0.04 KCAL/MOL
REMARK 927      BINDING AFFINITY PREDICTED BY RF-SCORE:    0.00 PKD
ROOT
HETATM    1  N   UNL     1     -11.031  19.122  67.818  1.00  0.00    -0.328 N  
HETATM    2  C   UNL     1     -10.234  18.568  68.785  1.00  0.00    -0.287 C  
HETATM    3  H1  UNL     1     -11.351  18.496  67.080  1.00  0.00     0.000 HD 
HETATM    4  H2  UNL     1     -11.291  20.109  67.836  1.00  0.00     0.000 HD 
HETATM    5  O   UNL     1      -9.849  19.322  69.674  1.00  0.00    -0.126 OA 
ENDROOT
BRANCH   2   6
HETATM    6  N   UNL     1     -10.040  17.175  68.683  1.00  0.00    -0.309 N  
HETATM    7  C   UNL     1     -10.947  16.228  69.314  1.00  0.00    -0.317 A  
HETATM    8  C   UNL     1     -11.180  14.906  68.855  1.00  0.00    -0.282 A  
HETATM    9  C   UNL     1     -10.623  14.270  67.601  1.00  0.00    -0.253 C  
HETATM   10  C   UNL     1     -12.051  14.055  69.584  1.00  0.00    -0.408 A  
HETATM   11  C   UNL     1     -12.716  14.486  70.725  1.00  0.00    -0.425 A  
HETATM   12  C   UNL     1      -9.937  15.188  66.600  1.00  0.00    -0.251 C  
HETATM   13  O   UNL     1      -9.653  14.461  65.400  1.00  0.00    -0.538 OA 
HETATM   14  C   UNL     1      -8.674  15.701  67.231  1.00  0.00    -0.213 A  
HETATM   15  C   UNL     1     -12.516  15.778  71.170  1.00  0.00    -0.490 A  
HETATM   16  C   UNL     1     -11.643  16.625  70.478  1.00  0.00     0.289 A  
HETATM   17  C   UNL     1      -8.771  16.649  68.261  1.00  0.00    -0.216 A  
HETATM   18  H   UNL     1      -9.225  15.034  64.774  1.00  0.00     0.000 HD 
HETATM   19  C   UNL     1      -7.594  17.139  68.852  1.00  0.00    -0.234 A  
HETATM   20  C   UNL     1      -6.338  16.686  68.444  1.00  0.00    -0.133 A  
HETATM   21  C   UNL     1      -6.247  15.733  67.437  1.00  0.00    -0.144 A  
HETATM   22  C   UNL     1      -7.404  15.247  66.834  1.00  0.00     0.090 A  
ENDBRANCH   2   6
TORSDOF 1
ENDMDL
MODEL       81
REMARK 921   NORMALIZED FREE ENERGY PREDICTED BY IDOCK:   -4.31 KCAL/MOL
REMARK 922        TOTAL FREE ENERGY PREDICTED BY IDOCK:   -4.58 KCAL/MOL
REMARK 923 INTER-LIGAND FREE ENERGY PREDICTED BY IDOCK:   -4.90 KCAL/MOL
REMARK 924 INTRA-LIGAND FREE ENERGY PREDICTED BY IDOCK:    0.32 KCAL/MOL
REMARK 927      BINDING AFFINITY PREDICTED BY RF-SCORE:    0.00 PKD
ROOT
HETATM    1  N   UNL     1      -8.699  10.315  69.599  1.00  0.00    -0.340 N  
HETATM    2  C   UNL     1      -8.787   9.382  70.597  1.00  0.00    -0.220 C  
HETATM    3  H1  UNL     1      -9.299  10.170  68.787  1.00  0.00     0.000 HD 
HETATM    4  H2  UNL     1      -8.068  11.115  69.664  1.00  0.00     0.000 HD 
HETATM    5  O   UNL     1      -8.065   9.558  71.574  1.00  0.00    -0.206 OA 
ENDROOT
BRANCH   2   6
HETATM    6  N   UNL     1      -9.771   8.389  70.412  1.00  0.00    -0.171 N  
HETATM    7  C   UNL     1      -9.574   7.276  69.496  1.00  0.00    -0.155 A  
HETATM    8  C   UNL     1     -10.189   6.005  69.626  1.00  0.00    -0.268 A  
HETATM    9  C   UNL     1     -11.069   5.536  70.764  1.00  0.00    -0.101 C  
HETATM   10  C   UNL     1      -9.959   5.011  68.640  1.00  0.00    -0.215 A  
HETATM   11  C   UNL     1      -9.118   5.230  67.556  1.00  0.00    -0.110 A  
HETATM   12  C   UNL     1     -11.122   6.408  72.009  1.00  0.00    -0.265 C  
HETATM   13  O   UNL     1     -11.834   5.723  73.045  1.00  0.00    -0.525 OA 
HETATM   14  C   UNL     1     -11.807   7.695  71.645  1.00  0.00    -0.323 A  
HETATM   15  C   UNL     1      -8.496   6.457  67.428  1.00  0.00    -0.108 A  
HETATM   16  C   UNL     1      -8.728   7.458  68.379  1.00  0.00    -0.123 A  
HETATM   17  C   UNL     1     -11.123   8.620  70.842  1.00  0.00    -0.264 A  
HETATM   18  H   UNL     1     -11.868   6.267  73.823  1.00  0.00     0.000 HD 
HETATM   19  C   UNL     1     -11.754   9.829  70.503  1.00  0.00    -0.343 A  
HETATM   20  C   UNL     1     -13.051  10.113  70.935  1.00  0.00    -0.412 A  
HETATM   21  C   UNL     1     -13.733   9.185  71.713  1.00  0.00    -0.465 A  
HETATM   22  C   UNL     1     -13.116   7.988  72.067  1.00  0.00    -0.289 A  
ENDBRANCH   2   6
TORSDOF 1
ENDMDL
MODEL       82
REMARK 921   NORMALIZED FREE ENERGY PREDICTED BY IDOCK:   -4.30 KCAL/MOL
REMARK 922        TOTAL FREE ENERGY PREDICTED BY IDOCK:   -4.58 KCAL/MOL
REMARK 923 INTER-LIGAND FREE ENERGY PREDICTED BY IDOCK:   -4.54 KCAL/MOL
REMARK 924 INTRA-LIGAND FREE ENERGY PREDICTED BY IDOCK:   -0.03 KCAL/MOL
REMARK 927      BINDING AFFINITY PREDICTED BY RF-SCORE:    0.00 PKD
ROOT
HETATM    1  N   UNL     1     -11.587   6.558  67.318  1.00  0.00    -0.644 N  
HETATM    2  C   UNL     1     -10.400   6.207  67.904  1.00  0.00    -0.203 C  
HETATM    3  H1  UNL     1     -12.147   7.256  67.808  1.00  0.00     0.000 HD 
HETATM    4  H2  UNL     1     -11.895   6.144  66.437  1.00  0.00     0.000 HD 
HETATM    5  O   UNL     1      -9.726   5.368  67.314  1.00  0.00    -0.129 OA 
ENDROOT
BRANCH   2   6
HETATM    6  N   UNL     1     -10.061   6.933  69.065  1.00  0.00    -0.165 N  
HETATM    7  C   UNL     1      -9.093   8.018  69.034  1.00  0.00    -0.144 A  
HETATM    8  C   UNL     1      -9.082   9.116  69.932  1.00  0.00    -0.188 A  
HETATM    9  C   UNL     1     -10.103   9.418  71.007  1.00  0.00    -0.353 C  
HETATM   10  C   UNL     1      -8.054  10.090  69.836  1.00  0.00    -0.180 A  
HETATM   11  C   UNL     1      -7.066  10.023  68.861  1.00  0.00    -0.068 A  
HETATM   12  C   UNL     1     -11.395   8.615  70.987  1.00  0.00    -0.274 C  
HETATM   13  O   UNL     1     -12.314   9.163  71.938  1.00  0.00    -0.342 OA 
HETATM   14  C   UNL     1     -11.060   7.189  71.320  1.00  0.00    -0.275 A  
HETATM   15  C   UNL     1      -7.078   8.971  67.966  1.00  0.00    -0.079 A  
HETATM   16  C   UNL     1      -8.070   7.988  68.059  1.00  0.00    -0.129 A  
HETATM   17  C   UNL     1     -10.386   6.413  70.365  1.00  0.00    -0.205 A  
HETATM   18  H   UNL     1     -13.121   8.662  71.925  1.00  0.00     0.000 HD 
HETATM   19  C   UNL     1     -10.075   5.076  70.666  1.00  0.00    -0.313 A  
HETATM   20  C   UNL     1     -10.408   4.518  71.901  1.00  0.00    -0.198 A  
HETATM   21  C   UNL     1     -11.059   5.295  72.852  1.00  0.00    -0.365 A  
HETATM   22  C   UNL     1     -11.384   6.618  72.563  1.00  0.00    -0.290 A  
ENDBRANCH   2   6
TORSDOF 1
ENDMDL
MODEL       83
REMARK 921   NORMALIZED FREE ENERGY PREDICTED BY IDOCK:   -4.29 KCAL/MOL
REMARK 922        TOTAL FREE ENERGY PREDICTED BY IDOCK:   -4.56 KCAL/MOL
REMARK 923 INTER-LIGAND FREE ENERGY PREDICTED BY IDOCK:   -4.88 KCAL/MOL
REMARK 924 INTRA-LIGAND FREE ENERGY PREDICTED BY IDOCK:    0.31 KCAL/MOL
REMARK 927      BINDING AFFINITY PREDICTED BY RF-SCORE:    0.00 PKD
ROOT
HETATM    1  N   UNL     1      -9.346  10.944  68.603  1.00  0.00    -0.181 N  
HETATM    2  C   UNL     1      -8.957  12.209  68.249  1.00  0.00    -0.186 C  
HETATM    3  H1  UNL     1     -10.345  10.744  68.546  1.00  0.00     0.000 HD 
HETATM    4  H2  UNL     1      -8.673  10.240  68.907  1.00  0.00     0.000 HD 
HETATM    5  O   UNL     1      -7.755  12.450  68.318  1.00  0.00    -0.125 OA 
ENDROOT
BRANCH   2   6
HETATM    6  N   UNL     1      -9.984  13.042  67.757  1.00  0.00    -0.221 N  
HETATM    7  C   UNL     1     -10.898  13.739  68.648  1.00  0.00    -0.263 A  
HETATM    8  C   UNL     1     -11.558  14.955  68.336  1.00  0.00    -0.348 A  
HETATM    9  C   UNL     1     -11.372  15.795  67.092  1.00  0.00    -0.025 C  
HETATM   10  C   UNL     1     -12.468  15.517  69.268  1.00  0.00     0.026 A  
HETATM   11  C   UNL     1     -12.715  14.928  70.502  1.00  0.00    -0.399 A  
HETATM   12  C   UNL     1     -10.202  15.446  66.184  1.00  0.00    -0.308 C  
HETATM   13  O   UNL     1     -10.061  16.452  65.176  1.00  0.00    -0.529 OA 
HETATM   14  C   UNL     1     -10.476  14.102  65.571  1.00  0.00    -0.352 A  
HETATM   15  C   UNL     1     -12.063  13.755  70.828  1.00  0.00    -0.395 A  
HETATM   16  C   UNL     1     -11.178  13.173  69.912  1.00  0.00     0.067 A  
HETATM   17  C   UNL     1     -10.384  12.959  66.379  1.00  0.00    -0.268 A  
HETATM   18  H   UNL     1      -9.330  16.235  64.609  1.00  0.00     0.000 HD 
HETATM   19  C   UNL     1     -10.632  11.698  65.811  1.00  0.00    -0.320 A  
HETATM   20  C   UNL     1     -10.984  11.568  64.466  1.00  0.00    -0.367 A  
HETATM   21  C   UNL     1     -11.093  12.704  63.673  1.00  0.00    -0.496 A  
HETATM   22  C   UNL     1     -10.839  13.960  64.219  1.00  0.00    -0.185 A  
ENDBRANCH   2   6
TORSDOF 1
ENDMDL
MODEL       84
REMARK 921   NORMALIZED FREE ENERGY PREDICTED BY IDOCK:   -4.27 KCAL/MOL
REMARK 922        TOTAL FREE ENERGY PREDICTED BY IDOCK:   -4.54 KCAL/MOL
REMARK 923 INTER-LIGAND FREE ENERGY PREDICTED BY IDOCK:   -4.50 KCAL/MOL
REMARK 924 INTRA-LIGAND FREE ENERGY PREDICTED BY IDOCK:   -0.04 KCAL/MOL
REMARK 927      BINDING AFFINITY PREDICTED BY RF-SCORE:    0.00 PKD
ROOT
HETATM    1  N   UNL     1     -12.691   8.069  70.881  1.00  0.00    -0.509 N  
HETATM    2  C   UNL     1     -11.395   8.076  71.324  1.00  0.00    -0.264 C  
HETATM    3  H1  UNL     1     -12.850   7.690  69.948  1.00  0.00     0.000 HD 
HETATM    4  H2  UNL     1     -13.457   8.423  71.455  1.00  0.00     0.000 HD 
HETATM    5  O   UNL     1     -11.204   8.533  72.447  1.00  0.00    -0.359 OA 
ENDROOT
BRANCH   2   6
HETATM    6  N   UNL     1     -10.459   7.466  70.463  1.00  0.00    -0.215 N  
HETATM    7  C   UNL     1     -10.153   6.046  70.548  1.00  0.00    -0.191 A  
HETATM    8  C   UNL     1      -9.697   5.253  69.464  1.00  0.00    -0.246 A  
HETATM    9  C   UNL     1      -9.538   5.690  68.025  1.00  0.00    -0.137 C  
HETATM   10  C   UNL     1      -9.382   3.887  69.680  1.00  0.00    -0.246 A  
HETATM   11  C   UNL     1      -9.536   3.284  70.923  1.00  0.00    -0.234 A  
HETATM   12  C   UNL     1     -10.139   7.031  67.633  1.00  0.00    -0.172 C  
HETATM   13  O   UNL     1     -10.070   7.191  66.212  1.00  0.00    -0.451 OA 
HETATM   14  C   UNL     1      -9.363   8.110  68.335  1.00  0.00    -0.135 A  
HETATM   15  C   UNL     1      -9.999   4.039  71.982  1.00  0.00    -0.246 A  
HETATM   16  C   UNL     1     -10.294   5.394  71.794  1.00  0.00    -0.271 A  
HETATM   17  C   UNL     1      -9.528   8.269  69.719  1.00  0.00    -0.163 A  
HETATM   18  H   UNL     1     -10.446   8.029  65.967  1.00  0.00     0.000 HD 
HETATM   19  C   UNL     1      -8.811   9.280  70.381  1.00  0.00    -0.271 A  
HETATM   20  C   UNL     1      -7.928  10.111  69.689  1.00  0.00    -0.181 A  
HETATM   21  C   UNL     1      -7.751   9.937  68.321  1.00  0.00    -0.085 A  
HETATM   22  C   UNL     1      -8.464   8.947  67.650  1.00  0.00    -0.121 A  
ENDBRANCH   2   6
TORSDOF 1
ENDMDL
MODEL       85
REMARK 921   NORMALIZED FREE ENERGY PREDICTED BY IDOCK:   -4.24 KCAL/MOL
REMARK 922        TOTAL FREE ENERGY PREDICTED BY IDOCK:   -4.51 KCAL/MOL
REMARK 923 INTER-LIGAND FREE ENERGY PREDICTED BY IDOCK:   -4.54 KCAL/MOL
REMARK 924 INTRA-LIGAND FREE ENERGY PREDICTED BY IDOCK:    0.03 KCAL/MOL
REMARK 927      BINDING AFFINITY PREDICTED BY RF-SCORE:    0.00 PKD
ROOT
HETATM    1  N   UNL     1      -8.475   6.968  68.905  1.00  0.00    -0.125 N  
HETATM    2  C   UNL     1      -8.465   8.230  69.436  1.00  0.00    -0.123 C  
HETATM    3  H1  UNL     1      -8.872   6.232  69.489  1.00  0.00     0.000 HD 
HETATM    4  H2  UNL     1      -8.104   6.773  67.974  1.00  0.00     0.000 HD 
HETATM    5  O   UNL     1      -7.987   9.115  68.733  1.00  0.00    -0.097 OA 
ENDROOT
BRANCH   2   6
HETATM    6  N   UNL     1      -9.099   8.363  70.689  1.00  0.00    -0.150 N  
HETATM    7  C   UNL     1     -10.321   9.137  70.851  1.00  0.00    -0.280 A  
HETATM    8  C   UNL     1     -11.297   8.903  71.853  1.00  0.00    -0.446 A  
HETATM    9  C   UNL     1     -11.309   7.776  72.861  1.00  0.00    -0.406 C  
HETATM   10  C   UNL     1     -12.426   9.757  71.943  1.00  0.00    -0.451 A  
HETATM   11  C   UNL     1     -12.629  10.806  71.055  1.00  0.00    -0.520 A  
HETATM   12  C   UNL     1     -10.319   6.641  72.650  1.00  0.00    -0.196 C  
HETATM   13  O   UNL     1     -10.601   5.581  73.570  1.00  0.00    -0.231 OA 
HETATM   14  C   UNL     1      -8.935   7.187  72.865  1.00  0.00    -0.156 A  
HETATM   15  C   UNL     1     -11.697  11.031  70.060  1.00  0.00    -0.437 A  
HETATM   16  C   UNL     1     -10.565  10.214  69.969  1.00  0.00    -0.338 A  
HETATM   17  C   UNL     1      -8.390   8.044  71.897  1.00  0.00    -0.131 A  
HETATM   18  H   UNL     1      -9.983   4.871  73.438  1.00  0.00     0.000 HD 
HETATM   19  C   UNL     1      -7.094   8.552  72.087  1.00  0.00    -0.102 A  
HETATM   20  C   UNL     1      -6.353   8.235  73.227  1.00  0.00    -0.111 A  
HETATM   21  C   UNL     1      -6.904   7.401  74.193  1.00  0.00    -0.093 A  
HETATM   22  C   UNL     1      -8.183   6.879  74.012  1.00  0.00    -0.151 A  
ENDBRANCH   2   6
TORSDOF 1
ENDMDL
MODEL       86
REMARK 921   NORMALIZED FREE ENERGY PREDICTED BY IDOCK:   -4.23 KCAL/MOL
REMARK 922        TOTAL FREE ENERGY PREDICTED BY IDOCK:   -4.50 KCAL/MOL
REMARK 923 INTER-LIGAND FREE ENERGY PREDICTED BY IDOCK:   -4.46 KCAL/MOL
REMARK 924 INTRA-LIGAND FREE ENERGY PREDICTED BY IDOCK:   -0.04 KCAL/MOL
REMARK 927      BINDING AFFINITY PREDICTED BY RF-SCORE:    0.00 PKD
ROOT
HETATM    1  N   UNL     1      -8.748   5.303  68.057  1.00  0.00    -0.103 N  
HETATM    2  C   UNL     1      -9.854   6.088  67.870  1.00  0.00    -0.120 C  
HETATM    3  H1  UNL     1      -7.985   5.714  68.596  1.00  0.00     0.000 HD 
HETATM    4  H2  UNL     1      -8.690   4.357  67.679  1.00  0.00     0.000 HD 
HETATM    5  O   UNL     1     -10.772   5.593  67.222  1.00  0.00    -0.256 OA 
ENDROOT
BRANCH   2   6
HETATM    6  N   UNL     1      -9.831   7.333  68.533  1.00  0.00    -0.153 N  
HETATM    7  C   UNL     1     -10.447   7.517  69.838  1.00  0.00    -0.229 A  
HETATM    8  C   UNL     1     -10.038   8.481  70.794  1.00  0.00    -0.237 A  
HETATM    9  C   UNL     1      -8.853   9.415  70.690  1.00  0.00    -0.275 C  
HETATM   10  C   UNL     1     -10.749   8.601  72.016  1.00  0.00    -0.427 A  
HETATM   11  C   UNL     1     -11.824   7.777  72.326  1.00  0.00    -0.378 A  
HETATM   12  C   UNL     1      -7.855   9.154  69.572  1.00  0.00    -0.082 C  
HETATM   13  O   UNL     1      -6.712   9.998  69.743  1.00  0.00    -0.062 OA 
HETATM   14  C   UNL     1      -8.541   9.433  68.264  1.00  0.00    -0.120 A  
HETATM   15  C   UNL     1     -12.220   6.819  71.413  1.00  0.00    -0.413 A  
HETATM   16  C   UNL     1     -11.545   6.700  70.192  1.00  0.00    -0.446 A  
HETATM   17  C   UNL     1      -9.516   8.534  67.808  1.00  0.00    -0.145 A  
HETATM   18  H   UNL     1      -6.088   9.834  69.045  1.00  0.00     0.000 HD 
HETATM   19  C   UNL     1     -10.157   8.784  66.582  1.00  0.00    -0.358 A  
HETATM   20  C   UNL     1      -9.851   9.916  65.826  1.00  0.00    -0.356 A  
HETATM   21  C   UNL     1      -8.898  10.815  66.290  1.00  0.00    -0.182 A  
HETATM   22  C   UNL     1      -8.247  10.574  67.497  1.00  0.00    -0.114 A  
ENDBRANCH   2   6
TORSDOF 1
ENDMDL
MODEL       87
REMARK 921   NORMALIZED FREE ENERGY PREDICTED BY IDOCK:   -4.22 KCAL/MOL
REMARK 922        TOTAL FREE ENERGY PREDICTED BY IDOCK:   -4.48 KCAL/MOL
REMARK 923 INTER-LIGAND FREE ENERGY PREDICTED BY IDOCK:   -4.81 KCAL/MOL
REMARK 924 INTRA-LIGAND FREE ENERGY PREDICTED BY IDOCK:    0.33 KCAL/MOL
REMARK 927      BINDING AFFINITY PREDICTED BY RF-SCORE:    0.00 PKD
ROOT
HETATM    1  N   UNL     1     -10.510   9.091  71.648  1.00  0.00    -0.337 N  
HETATM    2  C   UNL     1      -9.542   9.279  70.697  1.00  0.00    -0.273 C  
HETATM    3  H1  UNL     1     -11.477   9.133  71.327  1.00  0.00     0.000 HD 
HETATM    4  H2  UNL     1     -10.276   8.917  72.626  1.00  0.00     0.000 HD 
HETATM    5  O   UNL     1      -8.378   9.227  71.085  1.00  0.00    -0.291 OA 
ENDROOT
BRANCH   2   6
HETATM    6  N   UNL     1     -10.012   9.410  69.374  1.00  0.00    -0.175 N  
HETATM    7  C   UNL     1     -10.655  10.629  68.907  1.00  0.00    -0.212 A  
HETATM    8  C   UNL     1     -10.661  11.073  67.561  1.00  0.00    -0.289 A  
HETATM    9  C   UNL     1      -9.938  10.438  66.393  1.00  0.00    -0.277 C  
HETATM   10  C   UNL     1     -11.366  12.255  67.216  1.00  0.00    -0.392 A  
HETATM   11  C   UNL     1     -12.032  13.019  68.167  1.00  0.00    -0.322 A  
HETATM   12  C   UNL     1      -8.914   9.359  66.711  1.00  0.00    -0.131 C  
HETATM   13  O   UNL     1      -8.194   9.016  65.522  1.00  0.00    -0.111 OA 
HETATM   14  C   UNL     1      -9.649   8.169  67.259  1.00  0.00    -0.211 A  
HETATM   15  C   UNL     1     -12.016  12.609  69.486  1.00  0.00    -0.332 A  
HETATM   16  C   UNL     1     -11.345  11.434  69.842  1.00  0.00    -0.300 A  
HETATM   17  C   UNL     1     -10.192   8.246  68.550  1.00  0.00    -0.208 A  
HETATM   18  H   UNL     1      -7.554   8.342  65.720  1.00  0.00     0.000 HD 
HETATM   19  C   UNL     1     -10.875   7.134  69.072  1.00  0.00    -0.172 A  
HETATM   20  C   UNL     1     -11.037   5.968  68.322  1.00  0.00    -0.259 A  
HETATM   21  C   UNL     1     -10.515   5.903  67.035  1.00  0.00    -0.341 A  
HETATM   22  C   UNL     1      -9.825   6.992  66.509  1.00  0.00    -0.175 A  
ENDBRANCH   2   6
TORSDOF 1
ENDMDL
MODEL       88
REMARK 921   NORMALIZED FREE ENERGY PREDICTED BY IDOCK:   -4.17 KCAL/MOL
REMARK 922        TOTAL FREE ENERGY PREDICTED BY IDOCK:   -4.44 KCAL/MOL
REMARK 923 INTER-LIGAND FREE ENERGY PREDICTED BY IDOCK:   -4.77 KCAL/MOL
REMARK 924 INTRA-LIGAND FREE ENERGY PREDICTED BY IDOCK:    0.33 KCAL/MOL
REMARK 927      BINDING AFFINITY PREDICTED BY RF-SCORE:    0.00 PKD
ROOT
HETATM    1  N   UNL     1     -10.050  13.720  64.619  1.00  0.00    -0.619 N  
HETATM    2  C   UNL     1     -10.669  12.502  64.708  1.00  0.00    -0.302 C  
HETATM    3  H1  UNL     1      -9.502  14.012  65.428  1.00  0.00     0.000 HD 
HETATM    4  H2  UNL     1     -10.132  14.305  63.786  1.00  0.00     0.000 HD 
HETATM    5  O   UNL     1     -11.327  12.151  63.733  1.00  0.00    -0.376 OA 
ENDROOT
BRANCH   2   6
HETATM    6  N   UNL     1     -10.386  11.765  65.877  1.00  0.00    -0.232 N  
HETATM    7  C   UNL     1     -10.943  12.134  67.169  1.00  0.00    -0.268 A  
HETATM    8  C   UNL     1     -11.184  11.227  68.232  1.00  0.00    -0.331 A  
HETATM    9  C   UNL     1     -11.007   9.725  68.201  1.00  0.00    -0.228 C  
HETATM   10  C   UNL     1     -11.685  11.713  69.468  1.00  0.00    -0.410 A  
HETATM   11  C   UNL     1     -11.982  13.056  69.664  1.00  0.00    -0.367 A  
HETATM   12  C   UNL     1     -10.775   9.078  66.844  1.00  0.00    -0.080 C  
HETATM   13  O   UNL     1     -10.828   7.654  66.976  1.00  0.00    -0.451 OA 
HETATM   14  C   UNL     1      -9.431   9.524  66.341  1.00  0.00    -0.251 A  
HETATM   15  C   UNL     1     -11.772  13.947  68.629  1.00  0.00    -0.396 A  
HETATM   16  C   UNL     1     -11.257  13.490  67.411  1.00  0.00    -0.317 A  
HETATM   17  C   UNL     1      -9.278  10.849  65.905  1.00  0.00    -0.191 A  
HETATM   18  H   UNL     1     -10.683   7.250  66.128  1.00  0.00     0.000 HD 
HETATM   19  C   UNL     1      -8.026  11.271  65.427  1.00  0.00     0.375 A  
HETATM   20  C   UNL     1      -6.933  10.403  65.398  1.00  0.00    -0.118 A  
HETATM   21  C   UNL     1      -7.083   9.097  65.850  1.00  0.00    -0.089 A  
HETATM   22  C   UNL     1      -8.321   8.661  66.315  1.00  0.00    -0.124 A  
ENDBRANCH   2   6
TORSDOF 1
ENDMDL
MODEL       89
REMARK 921   NORMALIZED FREE ENERGY PREDICTED BY IDOCK:   -4.14 KCAL/MOL
REMARK 922        TOTAL FREE ENERGY PREDICTED BY IDOCK:   -4.40 KCAL/MOL
REMARK 923 INTER-LIGAND FREE ENERGY PREDICTED BY IDOCK:   -4.79 KCAL/MOL
REMARK 924 INTRA-LIGAND FREE ENERGY PREDICTED BY IDOCK:    0.38 KCAL/MOL
REMARK 927      BINDING AFFINITY PREDICTED BY RF-SCORE:    0.00 PKD
ROOT
HETATM    1  N   UNL     1     -10.231  17.356  67.272  1.00  0.00    -0.315 N  
HETATM    2  C   UNL     1     -10.205  16.148  66.627  1.00  0.00    -0.287 C  
HETATM    3  H1  UNL     1     -10.138  17.331  68.287  1.00  0.00     0.000 HD 
HETATM    4  H2  UNL     1     -10.338  18.234  66.763  1.00  0.00     0.000 HD 
HETATM    5  O   UNL     1     -10.317  16.178  65.405  1.00  0.00    -0.461 OA 
ENDROOT
BRANCH   2   6
HETATM    6  N   UNL     1      -9.954  15.030  67.449  1.00  0.00    -0.226 N  
HETATM    7  C   UNL     1     -10.893  14.608  68.477  1.00  0.00    -0.250 A  
HETATM    8  C   UNL     1     -11.027  13.278  68.951  1.00  0.00    -0.278 A  
HETATM    9  C   UNL     1     -10.310  12.053  68.428  1.00  0.00    -0.220 C  
HETATM   10  C   UNL     1     -11.946  12.995  69.995  1.00  0.00    -0.383 A  
HETATM   11  C   UNL     1     -12.750  13.980  70.553  1.00  0.00    -0.347 A  
HETATM   12  C   UNL     1      -9.546  12.196  67.120  1.00  0.00    -0.194 C  
HETATM   13  O   UNL     1      -9.103  10.909  66.680  1.00  0.00    -0.156 OA 
HETATM   14  C   UNL     1      -8.382  13.115  67.362  1.00  0.00    -0.188 A  
HETATM   15  C   UNL     1     -12.646  15.276  70.086  1.00  0.00    -0.334 A  
HETATM   16  C   UNL     1     -11.730  15.579  69.072  1.00  0.00    -0.392 A  
HETATM   17  C   UNL     1      -8.628  14.484  67.543  1.00  0.00    -0.189 A  
HETATM   18  H   UNL     1      -8.626  10.998  65.863  1.00  0.00     0.000 HD 
HETATM   19  C   UNL     1      -7.543  15.350  67.763  1.00  0.00    -0.167 A  
HETATM   20  C   UNL     1      -6.234  14.868  67.821  1.00  0.00    -0.164 A  
HETATM   21  C   UNL     1      -5.996  13.508  67.659  1.00  0.00    -0.100 A  
HETATM   22  C   UNL     1      -7.060  12.639  67.430  1.00  0.00    -0.138 A  
ENDBRANCH   2   6
TORSDOF 1
ENDMDL
MODEL       90
REMARK 921   NORMALIZED FREE ENERGY PREDICTED BY IDOCK:   -4.13 KCAL/MOL
REMARK 922        TOTAL FREE ENERGY PREDICTED BY IDOCK:   -4.40 KCAL/MOL
REMARK 923 INTER-LIGAND FREE ENERGY PREDICTED BY IDOCK:   -5.33 KCAL/MOL
REMARK 924 INTRA-LIGAND FREE ENERGY PREDICTED BY IDOCK:    0.94 KCAL/MOL
REMARK 927      BINDING AFFINITY PREDICTED BY RF-SCORE:    0.00 PKD
ROOT
HETATM    1  N   UNL     1      -8.262  12.630  68.685  1.00  0.00    -0.337 N  
HETATM    2  C   UNL     1      -8.941  13.267  67.680  1.00  0.00    -0.199 C  
HETATM    3  H1  UNL     1      -8.461  11.637  68.809  1.00  0.00     0.000 HD 
HETATM    4  H2  UNL     1      -7.593  13.122  69.277  1.00  0.00     0.000 HD 
HETATM    5  O   UNL     1      -8.702  14.462  67.531  1.00  0.00    -0.175 OA 
ENDROOT
BRANCH   2   6
HETATM    6  N   UNL     1      -9.758  12.438  66.883  1.00  0.00    -0.210 N  
HETATM    7  C   UNL     1     -10.642  12.985  65.865  1.00  0.00    -0.275 A  
HETATM    8  C   UNL     1     -11.057  12.291  64.700  1.00  0.00    -0.358 A  
HETATM    9  C   UNL     1     -10.600  10.922  64.249  1.00  0.00    -0.336 C  
HETATM   10  C   UNL     1     -11.963  12.912  63.801  1.00  0.00    -0.582 A  
HETATM   11  C   UNL     1     -12.438  14.201  64.007  1.00  0.00    -0.206 A  
HETATM   12  C   UNL     1      -9.409  10.311  64.971  1.00  0.00    -0.237 C  
HETATM   13  O   UNL     1      -8.996   9.120  64.293  1.00  0.00    -0.386 OA 
HETATM   14  C   UNL     1      -9.826  10.011  66.383  1.00  0.00    -0.283 A  
HETATM   15  C   UNL     1     -12.024  14.897  65.126  1.00  0.00    -0.210 A  
HETATM   16  C   UNL     1     -11.148  14.294  66.037  1.00  0.00    -0.319 A  
HETATM   17  C   UNL     1     -10.011  11.079  67.274  1.00  0.00    -0.181 A  
HETATM   18  H   UNL     1      -8.251   8.739  64.744  1.00  0.00     0.000 HD 
HETATM   19  C   UNL     1     -10.395  10.805  68.598  1.00  0.00    -0.208 A  
HETATM   20  C   UNL     1     -10.611   9.496  69.032  1.00  0.00    -0.238 A  
HETATM   21  C   UNL     1     -10.446   8.442  68.141  1.00  0.00    -0.228 A  
HETATM   22  C   UNL     1     -10.054   8.697  66.829  1.00  0.00    -0.366 A  
ENDBRANCH   2   6
TORSDOF 1
ENDMDL
MODEL       91
REMARK 921   NORMALIZED FREE ENERGY PREDICTED BY IDOCK:   -4.08 KCAL/MOL
REMARK 922        TOTAL FREE ENERGY PREDICTED BY IDOCK:   -4.34 KCAL/MOL
REMARK 923 INTER-LIGAND FREE ENERGY PREDICTED BY IDOCK:   -4.89 KCAL/MOL
REMARK 924 INTRA-LIGAND FREE ENERGY PREDICTED BY IDOCK:    0.55 KCAL/MOL
REMARK 927      BINDING AFFINITY PREDICTED BY RF-SCORE:    0.00 PKD
ROOT
HETATM    1  N   UNL     1     -13.463   7.829  71.048  1.00  0.00    -0.573 N  
HETATM    2  C   UNL     1     -12.615   8.835  71.428  1.00  0.00    -0.294 C  
HETATM    3  H1  UNL     1     -13.150   7.239  70.277  1.00  0.00     0.000 HD 
HETATM    4  H2  UNL     1     -14.359   7.678  71.511  1.00  0.00     0.000 HD 
HETATM    5  O   UNL     1     -12.991   9.545  72.356  1.00  0.00    -0.386 OA 
ENDROOT
BRANCH   2   6
HETATM    6  N   UNL     1     -11.371   8.861  70.763  1.00  0.00    -0.273 N  
HETATM    7  C   UNL     1     -11.006   9.945  69.864  1.00  0.00    -0.281 A  
HETATM    8  C   UNL     1      -9.676  10.357  69.596  1.00  0.00    -0.158 A  
HETATM    9  C   UNL     1      -8.415   9.833  70.248  1.00  0.00    -0.163 C  
HETATM   10  C   UNL     1      -9.440  11.397  68.660  1.00  0.00    -0.168 A  
HETATM   11  C   UNL     1     -10.479  12.054  68.012  1.00  0.00    -0.224 A  
HETATM   12  C   UNL     1      -8.580   8.948  71.474  1.00  0.00    -0.135 C  
HETATM   13  O   UNL     1      -7.301   8.710  72.070  1.00  0.00    -0.181 OA 
HETATM   14  C   UNL     1      -9.219   7.661  71.035  1.00  0.00    -0.152 A  
HETATM   15  C   UNL     1     -11.780  11.677  68.280  1.00  0.00    -0.374 A  
HETATM   16  C   UNL     1     -12.032  10.638  69.184  1.00  0.00    -0.230 A  
HETATM   17  C   UNL     1     -10.574   7.669  70.672  1.00  0.00    -0.221 A  
HETATM   18  H   UNL     1      -7.404   8.158  72.836  1.00  0.00     0.000 HD 
HETATM   19  C   UNL     1     -11.180   6.467  70.267  1.00  0.00    -0.433 A  
HETATM   20  C   UNL     1     -10.453   5.277  70.203  1.00  0.00    -0.338 A  
HETATM   21  C   UNL     1      -9.106   5.277  70.545  1.00  0.00    -0.174 A  
HETATM   22  C   UNL     1      -8.495   6.458  70.960  1.00  0.00    -0.127 A  
ENDBRANCH   2   6
TORSDOF 1
ENDMDL
MODEL       92
REMARK 921   NORMALIZED FREE ENERGY PREDICTED BY IDOCK:   -4.01 KCAL/MOL
REMARK 922        TOTAL FREE ENERGY PREDICTED BY IDOCK:   -4.27 KCAL/MOL
REMARK 923 INTER-LIGAND FREE ENERGY PREDICTED BY IDOCK:   -4.27 KCAL/MOL
REMARK 924 INTRA-LIGAND FREE ENERGY PREDICTED BY IDOCK:    0.00 KCAL/MOL
REMARK 927      BINDING AFFINITY PREDICTED BY RF-SCORE:    0.00 PKD
ROOT
HETATM    1  N   UNL     1     -10.655  10.411  69.705  1.00  0.00    -0.285 N  
HETATM    2  C   UNL     1     -11.238  11.080  68.662  1.00  0.00    -0.263 C  
HETATM    3  H1  UNL     1      -9.646  10.521  69.809  1.00  0.00     0.000 HD 
HETATM    4  H2  UNL     1     -11.201   9.833  70.345  1.00  0.00     0.000 HD 
HETATM    5  O   UNL     1     -12.452  10.947  68.538  1.00  0.00    -0.375 OA 
ENDROOT
BRANCH   2   6
HETATM    6  N   UNL     1     -10.375  11.917  67.923  1.00  0.00    -0.193 N  
HETATM    7  C   UNL     1     -10.465  13.367  67.998  1.00  0.00    -0.239 A  
HETATM    8  C   UNL     1      -9.383  14.255  67.772  1.00  0.00    -0.198 A  
HETATM    9  C   UNL     1      -7.941  13.879  67.513  1.00  0.00    -0.190 C  
HETATM   10  C   UNL     1      -9.603  15.656  67.824  1.00  0.00    -0.209 A  
HETATM   11  C   UNL     1     -10.849  16.194  68.123  1.00  0.00    -0.329 A  
HETATM   12  C   UNL     1      -7.546  12.428  67.745  1.00  0.00    -0.134 C  
HETATM   13  O   UNL     1      -6.124  12.297  67.645  1.00  0.00    -0.088 OA 
HETATM   14  C   UNL     1      -8.239  11.588  66.709  1.00  0.00    -0.164 A  
HETATM   15  C   UNL     1     -11.907  15.340  68.366  1.00  0.00    -0.283 A  
HETATM   16  C   UNL     1     -11.715  13.955  68.298  1.00  0.00    -0.396 A  
HETATM   17  C   UNL     1      -9.623  11.387  66.820  1.00  0.00    -0.188 A  
HETATM   18  H   UNL     1      -5.877  11.391  67.790  1.00  0.00     0.000 HD 
HETATM   19  C   UNL     1     -10.277  10.596  65.859  1.00  0.00    -0.314 A  
HETATM   20  C   UNL     1      -9.577  10.028  64.793  1.00  0.00    -0.374 A  
HETATM   21  C   UNL     1      -8.209  10.246  64.677  1.00  0.00    -0.161 A  
HETATM   22  C   UNL     1      -7.546  11.017  65.627  1.00  0.00     0.115 A  
ENDBRANCH   2   6
TORSDOF 1
ENDMDL
MODEL       93
REMARK 921   NORMALIZED FREE ENERGY PREDICTED BY IDOCK:   -3.98 KCAL/MOL
REMARK 922        TOTAL FREE ENERGY PREDICTED BY IDOCK:   -4.24 KCAL/MOL
REMARK 923 INTER-LIGAND FREE ENERGY PREDICTED BY IDOCK:   -4.20 KCAL/MOL
REMARK 924 INTRA-LIGAND FREE ENERGY PREDICTED BY IDOCK:   -0.04 KCAL/MOL
REMARK 927      BINDING AFFINITY PREDICTED BY RF-SCORE:    0.00 PKD
ROOT
HETATM    1  N   UNL     1      -6.673  10.228  67.543  1.00  0.00    -0.071 N  
HETATM    2  C   UNL     1      -7.664  10.179  66.599  1.00  0.00    -0.106 C  
HETATM    3  H1  UNL     1      -6.962  10.093  68.512  1.00  0.00     0.000 HD 
HETATM    4  H2  UNL     1      -5.698  10.391  67.291  1.00  0.00     0.000 HD 
HETATM    5  O   UNL     1      -7.316  10.341  65.433  1.00  0.00    -0.139 OA 
ENDROOT
BRANCH   2   6
HETATM    6  N   UNL     1      -8.946   9.849  67.085  1.00  0.00    -0.138 N  
HETATM    7  C   UNL     1      -9.403   8.470  67.165  1.00  0.00    -0.152 A  
HETATM    8  C   UNL     1     -10.368   7.992  68.088  1.00  0.00    -0.250 A  
HETATM    9  C   UNL     1     -11.021   8.777  69.205  1.00  0.00     0.019 C  
HETATM   10  C   UNL     1     -10.772   6.633  68.038  1.00  0.00    -0.330 A  
HETATM   11  C   UNL     1     -10.227   5.736  67.128  1.00  0.00    -0.250 A  
HETATM   12  C   UNL     1     -10.432  10.139  69.536  1.00  0.00    -0.241 C  
HETATM   13  O   UNL     1     -11.038  10.646  70.730  1.00  0.00    -0.393 OA 
HETATM   14  C   UNL     1     -10.691  11.052  68.371  1.00  0.00    -0.240 A  
HETATM   15  C   UNL     1      -9.271   6.183  66.237  1.00  0.00    -0.163 A  
HETATM   16  C   UNL     1      -8.876   7.525  66.256  1.00  0.00    -0.184 A  
HETATM   17  C   UNL     1      -9.964  10.858  67.187  1.00  0.00    -0.189 A  
HETATM   18  H   UNL     1     -10.670  11.497  70.937  1.00  0.00     0.000 HD 
HETATM   19  C   UNL     1     -10.196  11.712  66.095  1.00  0.00    -0.263 A  
HETATM   20  C   UNL     1     -11.146  12.732  66.164  1.00  0.00    -0.322 A  
HETATM   21  C   UNL     1     -11.878  12.909  67.333  1.00  0.00    -0.418 A  
HETATM   22  C   UNL     1     -11.651  12.078  68.427  1.00  0.00    -0.368 A  
ENDBRANCH   2   6
TORSDOF 1
ENDMDL
MODEL       94
REMARK 921   NORMALIZED FREE ENERGY PREDICTED BY IDOCK:   -3.97 KCAL/MOL
REMARK 922        TOTAL FREE ENERGY PREDICTED BY IDOCK:   -4.22 KCAL/MOL
REMARK 923 INTER-LIGAND FREE ENERGY PREDICTED BY IDOCK:   -4.20 KCAL/MOL
REMARK 924 INTRA-LIGAND FREE ENERGY PREDICTED BY IDOCK:   -0.02 KCAL/MOL
REMARK 927      BINDING AFFINITY PREDICTED BY RF-SCORE:    0.00 PKD
ROOT
HETATM    1  N   UNL     1     -12.490   6.876  70.291  1.00  0.00    -0.560 N  
HETATM    2  C   UNL     1     -11.202   6.495  70.559  1.00  0.00    -0.344 C  
HETATM    3  H1  UNL     1     -12.657   7.304  69.381  1.00  0.00     0.000 HD 
HETATM    4  H2  UNL     1     -13.243   6.737  70.966  1.00  0.00     0.000 HD 
HETATM    5  O   UNL     1     -11.002   5.979  71.655  1.00  0.00    -0.253 OA 
ENDROOT
BRANCH   2   6
HETATM    6  N   UNL     1     -10.290   6.659  69.497  1.00  0.00    -0.192 N  
HETATM    7  C   UNL     1      -9.817   5.529  68.712  1.00  0.00    -0.153 A  
HETATM    8  C   UNL     1      -9.380   5.609  67.365  1.00  0.00    -0.113 A  
HETATM    9  C   UNL     1      -9.410   6.830  66.473  1.00  0.00    -0.197 C  
HETATM   10  C   UNL     1      -8.892   4.444  66.717  1.00  0.00    -0.114 A  
HETATM   11  C   UNL     1      -8.857   3.209  67.352  1.00  0.00    -0.159 A  
HETATM   12  C   UNL     1     -10.194   8.035  66.967  1.00  0.00    -0.303 C  
HETATM   13  O   UNL     1     -10.281   9.012  65.924  1.00  0.00    -0.381 OA 
HETATM   14  C   UNL     1      -9.482   8.591  68.168  1.00  0.00    -0.152 A  
HETATM   15  C   UNL     1      -9.300   3.113  68.657  1.00  0.00    -0.236 A  
HETATM   16  C   UNL     1      -9.763   4.255  69.320  1.00  0.00    -0.240 A  
HETATM   17  C   UNL     1      -9.532   7.875  69.373  1.00  0.00    -0.156 A  
HETATM   18  H   UNL     1     -10.771   9.765  66.233  1.00  0.00     0.000 HD 
HETATM   19  C   UNL     1      -8.875   8.391  70.503  1.00  0.00    -0.156 A  
HETATM   20  C   UNL     1      -8.161   9.589  70.439  1.00  0.00    -0.220 A  
HETATM   21  C   UNL     1      -8.098  10.286  69.238  1.00  0.00    -0.156 A  
HETATM   22  C   UNL     1      -8.755   9.793  68.113  1.00  0.00    -0.119 A  
ENDBRANCH   2   6
TORSDOF 1
ENDMDL
MODEL       95
REMARK 921   NORMALIZED FREE ENERGY PREDICTED BY IDOCK:   -3.96 KCAL/MOL
REMARK 922        TOTAL FREE ENERGY PREDICTED BY IDOCK:   -4.22 KCAL/MOL
REMARK 923 INTER-LIGAND FREE ENERGY PREDICTED BY IDOCK:   -4.30 KCAL/MOL
REMARK 924 INTRA-LIGAND FREE ENERGY PREDICTED BY IDOCK:    0.08 KCAL/MOL
REMARK 927      BINDING AFFINITY PREDICTED BY RF-SCORE:    0.00 PKD
ROOT
HETATM    1  N   UNL     1     -11.269   9.254  71.863  1.00  0.00    -0.344 N  
HETATM    2  C   UNL     1      -9.964   9.099  71.477  1.00  0.00    -0.287 C  
HETATM    3  H1  UNL     1     -11.922   9.560  71.143  1.00  0.00     0.000 HD 
HETATM    4  H2  UNL     1     -11.571   9.072  72.821  1.00  0.00     0.000 HD 
HETATM    5  O   UNL     1      -9.178   8.730  72.345  1.00  0.00    -0.361 OA 
ENDROOT
BRANCH   2   6
HETATM    6  N   UNL     1      -9.713   9.291  70.103  1.00  0.00    -0.202 N  
HETATM    7  C   UNL     1     -10.127   8.317  69.105  1.00  0.00    -0.202 A  
HETATM    8  C   UNL     1     -10.425   8.624  67.753  1.00  0.00    -0.287 A  
HETATM    9  C   UNL     1     -10.464   9.999  67.123  1.00  0.00    -0.305 C  
HETATM   10  C   UNL     1     -10.771   7.579  66.857  1.00  0.00    -0.299 A  
HETATM   11  C   UNL     1     -10.861   6.256  67.270  1.00  0.00    -0.457 A  
HETATM   12  C   UNL     1     -10.415  11.197  68.059  1.00  0.00    -0.188 C  
HETATM   13  O   UNL     1     -10.659  12.396  67.316  1.00  0.00    -0.220 OA 
HETATM   14  C   UNL     1      -9.056  11.227  68.700  1.00  0.00    -0.153 A  
HETATM   15  C   UNL     1     -10.595   5.946  68.590  1.00  0.00    -0.323 A  
HETATM   16  C   UNL     1     -10.230   6.959  69.483  1.00  0.00    -0.198 A  
HETATM   17  C   UNL     1      -8.747  10.264  69.672  1.00  0.00    -0.105 A  
HETATM   18  H   UNL     1     -10.629  13.144  67.901  1.00  0.00     0.000 HD 
HETATM   19  C   UNL     1      -7.481  10.291  70.282  1.00  0.00     0.019 A  
HETATM   20  C   UNL     1      -6.526  11.244  69.924  1.00  0.00    -0.132 A  
HETATM   21  C   UNL     1      -6.830  12.185  68.946  1.00  0.00    -0.100 A  
HETATM   22  C   UNL     1      -8.084  12.178  68.342  1.00  0.00    -0.149 A  
ENDBRANCH   2   6
TORSDOF 1
ENDMDL
MODEL       96
REMARK 921   NORMALIZED FREE ENERGY PREDICTED BY IDOCK:   -3.94 KCAL/MOL
REMARK 922        TOTAL FREE ENERGY PREDICTED BY IDOCK:   -4.19 KCAL/MOL
REMARK 923 INTER-LIGAND FREE ENERGY PREDICTED BY IDOCK:   -4.51 KCAL/MOL
REMARK 924 INTRA-LIGAND FREE ENERGY PREDICTED BY IDOCK:    0.31 KCAL/MOL
REMARK 927      BINDING AFFINITY PREDICTED BY RF-SCORE:    0.00 PKD
ROOT
HETATM    1  N   UNL     1      -8.944   6.899  65.892  1.00  0.00    -0.313 N  
HETATM    2  C   UNL     1      -9.995   7.218  66.710  1.00  0.00    -0.217 C  
HETATM    3  H1  UNL     1      -8.242   7.626  65.750  1.00  0.00     0.000 HD 
HETATM    4  H2  UNL     1      -8.867   5.984  65.448  1.00  0.00     0.000 HD 
HETATM    5  O   UNL     1     -10.839   6.343  66.881  1.00  0.00    -0.333 OA 
ENDROOT
BRANCH   2   6
HETATM    6  N   UNL     1      -9.917   8.483  67.329  1.00  0.00    -0.203 N  
HETATM    7  C   UNL     1     -10.258   9.706  66.619  1.00  0.00    -0.232 A  
HETATM    8  C   UNL     1     -10.735  10.891  67.235  1.00  0.00    -0.317 A  
HETATM    9  C   UNL     1     -11.068  11.081  68.698  1.00  0.00    -0.294 C  
HETATM   10  C   UNL     1     -10.987  12.040  66.441  1.00  0.00    -0.337 A  
HETATM   11  C   UNL     1     -10.812  12.036  65.063  1.00  0.00    -0.351 A  
HETATM   12  C   UNL     1     -11.129   9.834  69.567  1.00  0.00    -0.192 C  
HETATM   13  O   UNL     1     -11.644  10.175  70.859  1.00  0.00    -0.324 OA 
HETATM   14  C   UNL     1      -9.738   9.274  69.672  1.00  0.00    -0.192 A  
HETATM   15  C   UNL     1     -10.368  10.882  64.447  1.00  0.00    -0.430 A  
HETATM   16  C   UNL     1     -10.093   9.744  65.216  1.00  0.00    -0.124 A  
HETATM   17  C   UNL     1      -9.176   8.648  68.550  1.00  0.00    -0.138 A  
HETATM   18  H   UNL     1     -11.683   9.396  71.402  1.00  0.00     0.000 HD 
HETATM   19  C   UNL     1      -7.879   8.115  68.642  1.00  0.00    -0.114 A  
HETATM   20  C   UNL     1      -7.139   8.216  69.821  1.00  0.00    -0.060 A  
HETATM   21  C   UNL     1      -7.692   8.855  70.925  1.00  0.00    -0.139 A  
HETATM   22  C   UNL     1      -8.981   9.377  70.852  1.00  0.00    -0.198 A  
ENDBRANCH   2   6
TORSDOF 1
ENDMDL
MODEL       97
REMARK 921   NORMALIZED FREE ENERGY PREDICTED BY IDOCK:   -3.91 KCAL/MOL
REMARK 922        TOTAL FREE ENERGY PREDICTED BY IDOCK:   -4.16 KCAL/MOL
REMARK 923 INTER-LIGAND FREE ENERGY PREDICTED BY IDOCK:   -4.13 KCAL/MOL
REMARK 924 INTRA-LIGAND FREE ENERGY PREDICTED BY IDOCK:   -0.02 KCAL/MOL
REMARK 927      BINDING AFFINITY PREDICTED BY RF-SCORE:    0.00 PKD
ROOT
HETATM    1  N   UNL     1      -9.260   8.070  65.528  1.00  0.00    -0.406 N  
HETATM    2  C   UNL     1      -9.976   8.403  66.646  1.00  0.00    -0.284 C  
HETATM    3  H1  UNL     1      -8.443   8.646  65.323  1.00  0.00     0.000 HD 
HETATM    4  H2  UNL     1      -9.528   7.287  64.931  1.00  0.00     0.000 HD 
HETATM    5  O   UNL     1     -10.959   7.710  66.892  1.00  0.00    -0.253 OA 
ENDROOT
BRANCH   2   6
HETATM    6  N   UNL     1      -9.431   9.444  67.426  1.00  0.00    -0.130 N  
HETATM    7  C   UNL     1      -8.732   9.180  68.675  1.00  0.00    -0.129 A  
HETATM    8  C   UNL     1      -7.721  10.009  69.224  1.00  0.00    -0.117 A  
HETATM    9  C   UNL     1      -7.117  11.243  68.591  1.00  0.00    -0.093 C  
HETATM   10  C   UNL     1      -7.145   9.674  70.477  1.00  0.00    -0.137 A  
HETATM   11  C   UNL     1      -7.517   8.534  71.177  1.00  0.00    -0.097 A  
HETATM   12  C   UNL     1      -7.441  11.506  67.128  1.00  0.00    -0.142 C  
HETATM   13  O   UNL     1      -6.638  12.589  66.647  1.00  0.00    -0.428 OA 
HETATM   14  C   UNL     1      -8.904  11.834  67.029  1.00  0.00    -0.182 A  
HETATM   15  C   UNL     1      -8.485   7.706  70.643  1.00  0.00    -0.127 A  
HETATM   16  C   UNL     1      -9.081   8.031  69.419  1.00  0.00    -0.148 A  
HETATM   17  C   UNL     1      -9.840  10.804  67.207  1.00  0.00    -0.179 A  
HETATM   18  H   UNL     1      -6.840  12.753  65.733  1.00  0.00     0.000 HD 
HETATM   19  C   UNL     1     -11.210  11.101  67.108  1.00  0.00    -0.320 A  
HETATM   20  C   UNL     1     -11.651  12.401  66.855  1.00  0.00    -0.437 A  
HETATM   21  C   UNL     1     -10.721  13.423  66.699  1.00  0.00    -0.282 A  
HETATM   22  C   UNL     1      -9.360  13.141  66.782  1.00  0.00    -0.244 A  
ENDBRANCH   2   6
TORSDOF 1
ENDMDL
MODEL       98
REMARK 921   NORMALIZED FREE ENERGY PREDICTED BY IDOCK:   -3.90 KCAL/MOL
REMARK 922        TOTAL FREE ENERGY PREDICTED BY IDOCK:   -4.15 KCAL/MOL
REMARK 923 INTER-LIGAND FREE ENERGY PREDICTED BY IDOCK:   -4.12 KCAL/MOL
REMARK 924 INTRA-LIGAND FREE ENERGY PREDICTED BY IDOCK:   -0.03 KCAL/MOL
REMARK 927      BINDING AFFINITY PREDICTED BY RF-SCORE:    0.00 PKD
ROOT
HETATM    1  N   UNL     1     -11.526  11.835  68.420  1.00  0.00    -0.268 N  
HETATM    2  C   UNL     1     -11.279  12.101  67.099  1.00  0.00    -0.314 C  
HETATM    3  H1  UNL     1     -10.710  11.728  69.022  1.00  0.00     0.000 HD 
HETATM    4  H2  UNL     1     -12.476  11.748  68.782  1.00  0.00     0.000 HD 
HETATM    5  O   UNL     1     -12.262  12.230  66.375  1.00  0.00    -0.613 OA 
ENDROOT
BRANCH   2   6
HETATM    6  N   UNL     1      -9.923  12.291  66.764  1.00  0.00    -0.203 N  
HETATM    7  C   UNL     1      -9.278  13.590  66.884  1.00  0.00    -0.249 A  
HETATM    8  C   UNL     1      -7.892  13.785  67.108  1.00  0.00    -0.030 A  
HETATM    9  C   UNL     1      -6.854  12.714  67.360  1.00  0.00    -0.141 C  
HETATM   10  C   UNL     1      -7.369  15.104  67.157  1.00  0.00    -0.145 A  
HETATM   11  C   UNL     1      -8.181  16.223  67.022  1.00  0.00    -0.238 A  
HETATM   12  C   UNL     1      -7.359  11.305  67.635  1.00  0.00    -0.100 C  
HETATM   13  O   UNL     1      -6.266  10.475  68.041  1.00  0.00    -0.054 OA 
HETATM   14  C   UNL     1      -7.992  10.785  66.375  1.00  0.00    -0.151 A  
HETATM   15  C   UNL     1      -9.537  16.047  66.825  1.00  0.00    -0.248 A  
HETATM   16  C   UNL     1     -10.068  14.754  66.751  1.00  0.00    -0.258 A  
HETATM   17  C   UNL     1      -9.228  11.312  65.973  1.00  0.00    -0.208 A  
HETATM   18  H   UNL     1      -6.581   9.595  68.213  1.00  0.00     0.000 HD 
HETATM   19  C   UNL     1      -9.830  10.826  64.800  1.00  0.00    -0.358 A  
HETATM   20  C   UNL     1      -9.210   9.846  64.023  1.00  0.00    -0.302 A  
HETATM   21  C   UNL     1      -7.975   9.340  64.414  1.00  0.00    -0.133 A  
HETATM   22  C   UNL     1      -7.373   9.804  65.581  1.00  0.00    -0.106 A  
ENDBRANCH   2   6
TORSDOF 1
ENDMDL
MODEL       99
REMARK 921   NORMALIZED FREE ENERGY PREDICTED BY IDOCK:   -3.90 KCAL/MOL
REMARK 922        TOTAL FREE ENERGY PREDICTED BY IDOCK:   -4.15 KCAL/MOL
REMARK 923 INTER-LIGAND FREE ENERGY PREDICTED BY IDOCK:   -4.77 KCAL/MOL
REMARK 924 INTRA-LIGAND FREE ENERGY PREDICTED BY IDOCK:    0.62 KCAL/MOL
REMARK 927      BINDING AFFINITY PREDICTED BY RF-SCORE:    0.00 PKD
ROOT
HETATM    1  N   UNL     1     -11.347  11.968  70.070  1.00  0.00    -0.507 N  
HETATM    2  C   UNL     1     -11.534  11.172  68.972  1.00  0.00    -0.296 C  
HETATM    3  H1  UNL     1     -10.801  11.569  70.834  1.00  0.00     0.000 HD 
HETATM    4  H2  UNL     1     -11.732  12.912  70.121  1.00  0.00     0.000 HD 
HETATM    5  O   UNL     1     -12.190  11.653  68.052  1.00  0.00    -0.551 OA 
ENDROOT
BRANCH   2   6
HETATM    6  N   UNL     1     -10.861   9.932  69.003  1.00  0.00    -0.222 N  
HETATM    7  C   UNL     1     -10.920   9.058  70.164  1.00  0.00    -0.233 A  
HETATM    8  C   UNL     1     -10.776   7.648  70.120  1.00  0.00    -0.245 A  
HETATM    9  C   UNL     1     -10.636   6.788  68.883  1.00  0.00    -0.257 C  
HETATM   10  C   UNL     1     -10.802   6.903  71.328  1.00  0.00    -0.263 A  
HETATM   11  C   UNL     1     -10.997   7.510  72.562  1.00  0.00    -0.362 A  
HETATM   12  C   UNL     1     -10.907   7.450  67.540  1.00  0.00    -0.187 C  
HETATM   13  O   UNL     1     -10.923   6.456  66.510  1.00  0.00    -0.581 OA 
HETATM   14  C   UNL     1      -9.825   8.463  67.296  1.00  0.00    -0.264 A  
HETATM   15  C   UNL     1     -11.160   8.880  72.617  1.00  0.00     0.276 A  
HETATM   16  C   UNL     1     -11.115   9.634  71.439  1.00  0.00    -0.397 A  
HETATM   17  C   UNL     1      -9.825   9.646  68.049  1.00  0.00    -0.150 A  
HETATM   18  H   UNL     1     -11.092   6.869  65.671  1.00  0.00     0.000 HD 
HETATM   19  C   UNL     1      -8.820  10.602  67.821  1.00  0.00    -0.133 A  
HETATM   20  C   UNL     1      -7.817  10.384  66.875  1.00  0.00    -0.114 A  
HETATM   21  C   UNL     1      -7.809   9.201  66.144  1.00  0.00    -0.103 A  
HETATM   22  C   UNL     1      -8.805   8.251  66.351  1.00  0.00    -0.180 A  
ENDBRANCH   2   6
TORSDOF 1
ENDMDL
MODEL      100
REMARK 921   NORMALIZED FREE ENERGY PREDICTED BY IDOCK:   -3.85 KCAL/MOL
REMARK 922        TOTAL FREE ENERGY PREDICTED BY IDOCK:   -4.10 KCAL/MOL
REMARK 923 INTER-LIGAND FREE ENERGY PREDICTED BY IDOCK:   -4.67 KCAL/MOL
REMARK 924 INTRA-LIGAND FREE ENERGY PREDICTED BY IDOCK:    0.57 KCAL/MOL
REMARK 927      BINDING AFFINITY PREDICTED BY RF-SCORE:    0.00 PKD
ROOT
HETATM    1  N   UNL     1     -11.719  11.284  70.396  1.00  0.00    -0.431 N  
HETATM    2  C   UNL     1     -11.333  10.537  69.314  1.00  0.00    -0.262 C  
HETATM    3  H1  UNL     1     -11.338  11.004  71.300  1.00  0.00     0.000 HD 
HETATM    4  H2  UNL     1     -12.353  12.078  70.302  1.00  0.00     0.000 HD 
HETATM    5  O   UNL     1     -11.791  10.874  68.226  1.00  0.00    -0.530 OA 
ENDROOT
BRANCH   2   6
HETATM    6  N   UNL     1     -10.378   9.534  69.581  1.00  0.00    -0.207 N  
HETATM    7  C   UNL     1      -9.498   9.018  68.544  1.00  0.00    -0.143 A  
HETATM    8  C   UNL     1      -8.213   8.467  68.777  1.00  0.00    -0.119 A  
HETATM    9  C   UNL     1      -7.482   8.398  70.100  1.00  0.00    -0.063 C  
HETATM   10  C   UNL     1      -7.465   7.949  67.688  1.00  0.00    -0.097 A  
HETATM   11  C   UNL     1      -7.939   7.992  66.383  1.00  0.00    -0.102 A  
HETATM   12  C   UNL     1      -8.059   9.197  71.258  1.00  0.00    -0.015 C  
HETATM   13  O   UNL     1      -7.144   9.175  72.359  1.00  0.00    -0.320 OA 
HETATM   14  C   UNL     1      -9.375   8.579  71.638  1.00  0.00    -0.311 A  
HETATM   15  C   UNL     1      -9.180   8.546  66.139  1.00  0.00    -0.269 A  
HETATM   16  C   UNL     1      -9.943   9.042  67.203  1.00  0.00    -0.286 A  
HETATM   17  C   UNL     1     -10.472   8.745  70.779  1.00  0.00    -0.219 A  
HETATM   18  H   UNL     1      -7.504   9.675  73.082  1.00  0.00     0.000 HD 
HETATM   19  C   UNL     1     -11.708   8.176  71.131  1.00  0.00    -0.309 A  
HETATM   20  C   UNL     1     -11.854   7.437  72.306  1.00  0.00    -0.307 A  
HETATM   21  C   UNL     1     -10.760   7.258  73.145  1.00  0.00    -0.411 A  
HETATM   22  C   UNL     1      -9.532   7.826  72.815  1.00  0.00    -0.274 A  
ENDBRANCH   2   6
TORSDOF 1
ENDMDL
MODEL      101
REMARK 921   NORMALIZED FREE ENERGY PREDICTED BY IDOCK:   -3.83 KCAL/MOL
REMARK 922        TOTAL FREE ENERGY PREDICTED BY IDOCK:   -4.08 KCAL/MOL
REMARK 923 INTER-LIGAND FREE ENERGY PREDICTED BY IDOCK:   -4.03 KCAL/MOL
REMARK 924 INTRA-LIGAND FREE ENERGY PREDICTED BY IDOCK:   -0.04 KCAL/MOL
REMARK 927      BINDING AFFINITY PREDICTED BY RF-SCORE:    0.00 PKD
ROOT
HETATM    1  N   UNL     1      -7.628   9.484  66.813  1.00  0.00    -0.097 N  
HETATM    2  C   UNL     1      -8.971   9.240  66.700  1.00  0.00    -0.140 C  
HETATM    3  H1  UNL     1      -7.208   9.296  67.723  1.00  0.00     0.000 HD 
HETATM    4  H2  UNL     1      -7.077   9.833  66.029  1.00  0.00     0.000 HD 
HETATM    5  O   UNL     1      -9.477   9.466  65.604  1.00  0.00    -0.231 OA 
ENDROOT
BRANCH   2   6
HETATM    6  N   UNL     1      -9.580   8.667  67.835  1.00  0.00    -0.146 N  
HETATM    7  C   UNL     1      -9.742   7.228  67.973  1.00  0.00    -0.141 A  
HETATM    8  C   UNL     1      -9.812   6.538  69.210  1.00  0.00    -0.161 A  
HETATM    9  C   UNL     1      -9.638   7.132  70.590  1.00  0.00    -0.165 C  
HETATM   10  C   UNL     1     -10.023   5.135  69.219  1.00  0.00    -0.280 A  
HETATM   11  C   UNL     1     -10.132   4.400  68.045  1.00  0.00     0.002 A  
HETATM   12  C   UNL     1      -9.104   8.554  70.675  1.00  0.00    -0.160 C  
HETATM   13  O   UNL     1      -8.818   8.879  72.040  1.00  0.00    -0.367 OA 
HETATM   14  C   UNL     1     -10.148   9.475  70.109  1.00  0.00    -0.293 A  
HETATM   15  C   UNL     1     -10.045   5.056  66.833  1.00  0.00    -0.261 A  
HETATM   16  C   UNL     1      -9.859   6.443  66.804  1.00  0.00    -0.209 A  
HETATM   17  C   UNL     1     -10.366   9.479  68.723  1.00  0.00    -0.208 A  
HETATM   18  H   UNL     1      -8.485   9.767  72.093  1.00  0.00     0.000 HD 
HETATM   19  C   UNL     1     -11.336  10.342  68.186  1.00  0.00    -0.284 A  
HETATM   20  C   UNL     1     -12.094  11.178  69.007  1.00  0.00    -0.315 A  
HETATM   21  C   UNL     1     -11.889  11.158  70.382  1.00  0.00    -0.462 A  
HETATM   22  C   UNL     1     -10.923  10.316  70.928  1.00  0.00    -0.116 A  
ENDBRANCH   2   6
TORSDOF 1
ENDMDL
MODEL      102
REMARK 921   NORMALIZED FREE ENERGY PREDICTED BY IDOCK:   -3.83 KCAL/MOL
REMARK 922        TOTAL FREE ENERGY PREDICTED BY IDOCK:   -4.07 KCAL/MOL
REMARK 923 INTER-LIGAND FREE ENERGY PREDICTED BY IDOCK:   -4.03 KCAL/MOL
REMARK 924 INTRA-LIGAND FREE ENERGY PREDICTED BY IDOCK:   -0.04 KCAL/MOL
REMARK 927      BINDING AFFINITY PREDICTED BY RF-SCORE:    0.00 PKD
ROOT
HETATM    1  N   UNL     1     -11.239   8.850  71.693  1.00  0.00    -0.319 N  
HETATM    2  C   UNL     1     -11.699   7.596  71.391  1.00  0.00    -0.283 C  
HETATM    3  H1  UNL     1     -10.227   8.958  71.762  1.00  0.00     0.000 HD 
HETATM    4  H2  UNL     1     -11.874   9.634  71.840  1.00  0.00     0.000 HD 
HETATM    5  O   UNL     1     -12.917   7.466  71.307  1.00  0.00    -0.351 OA 
ENDROOT
BRANCH   2   6
HETATM    6  N   UNL     1     -10.702   6.636  71.118  1.00  0.00    -0.228 N  
HETATM    7  C   UNL     1     -10.313   6.301  69.757  1.00  0.00    -0.207 A  
HETATM    8  C   UNL     1      -9.035   5.815  69.380  1.00  0.00    -0.121 A  
HETATM    9  C   UNL     1      -7.828   5.645  70.276  1.00  0.00    -0.098 C  
HETATM   10  C   UNL     1      -8.787   5.475  68.025  1.00  0.00    -0.105 A  
HETATM   11  C   UNL     1      -9.752   5.633  67.038  1.00  0.00    -0.155 A  
HETATM   12  C   UNL     1      -7.897   6.268  71.662  1.00  0.00    -0.102 C  
HETATM   13  O   UNL     1      -6.613   6.183  72.290  1.00  0.00    -0.060 OA 
HETATM   14  C   UNL     1      -8.934   5.524  72.454  1.00  0.00    -0.137 A  
HETATM   15  C   UNL     1     -10.994   6.127  67.388  1.00  0.00    -0.409 A  
HETATM   16  C   UNL     1     -11.265   6.447  68.723  1.00  0.00    -0.358 A  
HETATM   17  C   UNL     1     -10.288   5.712  72.138  1.00  0.00    -0.209 A  
HETATM   18  H   UNL     1      -6.655   6.572  73.156  1.00  0.00     0.000 HD 
HETATM   19  C   UNL     1     -11.265   5.024  72.879  1.00  0.00    -0.344 A  
HETATM   20  C   UNL     1     -10.909   4.148  73.906  1.00  0.00    -0.321 A  
HETATM   21  C   UNL     1      -9.566   3.950  74.204  1.00  0.00    -0.126 A  
HETATM   22  C   UNL     1      -8.587   4.633  73.486  1.00  0.00    -0.101 A  
ENDBRANCH   2   6
TORSDOF 1
ENDMDL
MODEL      103
REMARK 921   NORMALIZED FREE ENERGY PREDICTED BY IDOCK:   -3.79 KCAL/MOL
REMARK 922        TOTAL FREE ENERGY PREDICTED BY IDOCK:   -4.04 KCAL/MOL
REMARK 923 INTER-LIGAND FREE ENERGY PREDICTED BY IDOCK:   -4.36 KCAL/MOL
REMARK 924 INTRA-LIGAND FREE ENERGY PREDICTED BY IDOCK:    0.33 KCAL/MOL
REMARK 927      BINDING AFFINITY PREDICTED BY RF-SCORE:    0.00 PKD
ROOT
HETATM    1  N   UNL     1      -6.609  13.691  67.589  1.00  0.00    -0.169 N  
HETATM    2  C   UNL     1      -7.252  12.760  68.361  1.00  0.00    -0.115 C  
HETATM    3  H1  UNL     1      -7.064  13.947  66.713  1.00  0.00     0.000 HD 
HETATM    4  H2  UNL     1      -5.723  14.108  67.876  1.00  0.00     0.000 HD 
HETATM    5  O   UNL     1      -6.704  12.453  69.416  1.00  0.00    -0.098 OA 
ENDROOT
BRANCH   2   6
HETATM    6  N   UNL     1      -8.513  12.346  67.884  1.00  0.00    -0.156 N  
HETATM    7  C   UNL     1      -8.657  11.217  66.979  1.00  0.00    -0.147 A  
HETATM    8  C   UNL     1      -9.815  10.404  66.881  1.00  0.00    -0.236 A  
HETATM    9  C   UNL     1     -11.056  10.485  67.743  1.00  0.00    -0.382 C  
HETATM   10  C   UNL     1      -9.858   9.358  65.923  1.00  0.00    -0.362 A  
HETATM   11  C   UNL     1      -8.782   9.080  65.089  1.00  0.00    -0.223 A  
HETATM   12  C   UNL     1     -10.984  11.357  68.988  1.00  0.00    -0.236 C  
HETATM   13  O   UNL     1     -12.162  11.162  69.778  1.00  0.00    -0.315 OA 
HETATM   14  C   UNL     1     -10.862  12.787  68.546  1.00  0.00    -0.279 A  
HETATM   15  C   UNL     1      -7.640   9.850  65.188  1.00  0.00    -0.132 A  
HETATM   16  C   UNL     1      -7.587  10.900  66.112  1.00  0.00    -0.119 A  
HETATM   17  C   UNL     1      -9.649  13.221  67.989  1.00  0.00    -0.220 A  
HETATM   18  H   UNL     1     -12.117  11.706  70.556  1.00  0.00     0.000 HD 
HETATM   19  C   UNL     1      -9.524  14.560  67.580  1.00  0.00    -0.203 A  
HETATM   20  C   UNL     1     -10.589  15.454  67.701  1.00  0.00    -0.280 A  
HETATM   21  C   UNL     1     -11.796  15.016  68.235  1.00  0.00    -0.295 A  
HETATM   22  C   UNL     1     -11.930  13.695  68.656  1.00  0.00    -0.395 A  
ENDBRANCH   2   6
TORSDOF 1
ENDMDL
MODEL      104
REMARK 921   NORMALIZED FREE ENERGY PREDICTED BY IDOCK:   -3.77 KCAL/MOL
REMARK 922        TOTAL FREE ENERGY PREDICTED BY IDOCK:   -4.01 KCAL/MOL
REMARK 923 INTER-LIGAND FREE ENERGY PREDICTED BY IDOCK:   -4.55 KCAL/MOL
REMARK 924 INTRA-LIGAND FREE ENERGY PREDICTED BY IDOCK:    0.54 KCAL/MOL
REMARK 927      BINDING AFFINITY PREDICTED BY RF-SCORE:    0.00 PKD
ROOT
HETATM    1  N   UNL     1     -11.772  12.800  68.396  1.00  0.00    -0.322 N  
HETATM    2  C   UNL     1     -11.380  11.716  67.657  1.00  0.00    -0.295 C  
HETATM    3  H1  UNL     1     -11.644  12.733  69.405  1.00  0.00     0.000 HD 
HETATM    4  H2  UNL     1     -12.171  13.632  67.959  1.00  0.00     0.000 HD 
HETATM    5  O   UNL     1     -11.535  11.797  66.442  1.00  0.00    -0.380 OA 
ENDROOT
BRANCH   2   6
HETATM    6  N   UNL     1     -10.757  10.681  68.386  1.00  0.00    -0.206 N  
HETATM    7  C   UNL     1     -11.377  10.094  69.564  1.00  0.00    -0.206 A  
HETATM    8  C   UNL     1     -11.149   8.771  70.020  1.00  0.00    -0.169 A  
HETATM    9  C   UNL     1     -10.318   7.707  69.338  1.00  0.00    -0.214 C  
HETATM   10  C   UNL     1     -11.773   8.324  71.214  1.00  0.00    -0.318 A  
HETATM   11  C   UNL     1     -12.634   9.136  71.942  1.00  0.00    -0.463 A  
HETATM   12  C   UNL     1      -9.866   7.983  67.912  1.00  0.00    -0.167 C  
HETATM   13  O   UNL     1      -9.270   6.804  67.361  1.00  0.00    -0.126 OA 
HETATM   14  C   UNL     1      -8.883   9.118  67.948  1.00  0.00    -0.128 A  
HETATM   15  C   UNL     1     -12.881  10.419  71.497  1.00  0.00    -0.569 A  
HETATM   16  C   UNL     1     -12.258  10.886  70.334  1.00  0.00    -0.453 A  
HETATM   17  C   UNL     1      -9.356  10.413  68.209  1.00  0.00    -0.149 A  
HETATM   18  H   UNL     1      -8.988   6.976  66.470  1.00  0.00     0.000 HD 
HETATM   19  C   UNL     1      -8.444  11.481  68.238  1.00  0.00    -0.159 A  
HETATM   20  C   UNL     1      -7.079  11.272  68.030  1.00  0.00    -0.070 A  
HETATM   21  C   UNL     1      -6.612   9.985  67.791  1.00  0.00    -0.067 A  
HETATM   22  C   UNL     1      -7.506   8.918  67.748  1.00  0.00    -0.093 A  
ENDBRANCH   2   6
TORSDOF 1
ENDMDL
MODEL      105
REMARK 921   NORMALIZED FREE ENERGY PREDICTED BY IDOCK:   -3.75 KCAL/MOL
REMARK 922        TOTAL FREE ENERGY PREDICTED BY IDOCK:   -3.99 KCAL/MOL
REMARK 923 INTER-LIGAND FREE ENERGY PREDICTED BY IDOCK:   -4.38 KCAL/MOL
REMARK 924 INTRA-LIGAND FREE ENERGY PREDICTED BY IDOCK:    0.39 KCAL/MOL
REMARK 927      BINDING AFFINITY PREDICTED BY RF-SCORE:    0.00 PKD
ROOT
HETATM    1  N   UNL     1     -11.089   9.502  69.975  1.00  0.00    -0.244 N  
HETATM    2  C   UNL     1      -9.862   9.368  69.382  1.00  0.00    -0.178 C  
HETATM    3  H1  UNL     1     -11.886   9.614  69.348  1.00  0.00     0.000 HD 
HETATM    4  H2  UNL     1     -11.201   9.489  70.989  1.00  0.00     0.000 HD 
HETATM    5  O   UNL     1      -8.903   9.233  70.137  1.00  0.00    -0.173 OA 
ENDROOT
BRANCH   2   6
HETATM    6  N   UNL     1      -9.874   9.306  67.973  1.00  0.00    -0.157 N  
HETATM    7  C   UNL     1     -10.300  10.435  67.161  1.00  0.00    -0.238 A  
HETATM    8  C   UNL     1      -9.857  10.690  65.838  1.00  0.00    -0.296 A  
HETATM    9  C   UNL     1      -8.810   9.916  65.067  1.00  0.00    -0.220 C  
HETATM   10  C   UNL     1     -10.383  11.798  65.124  1.00  0.00    -0.323 A  
HETATM   11  C   UNL     1     -11.302  12.671  65.693  1.00  0.00    -0.357 A  
HETATM   12  C   UNL     1      -7.972   8.913  65.845  1.00  0.00    -0.107 C  
HETATM   13  O   UNL     1      -6.914   8.425  65.013  1.00  0.00    -0.072 OA 
HETATM   14  C   UNL     1      -8.875   7.794  66.282  1.00  0.00    -0.187 A  
HETATM   15  C   UNL     1     -11.725  12.447  66.989  1.00  0.00    -0.423 A  
HETATM   16  C   UNL     1     -11.235  11.346  67.701  1.00  0.00    -0.346 A  
HETATM   17  C   UNL     1      -9.805   8.037  67.304  1.00  0.00    -0.197 A  
HETATM   18  H   UNL     1      -6.390   7.799  65.499  1.00  0.00     0.000 HD 
HETATM   19  C   UNL     1     -10.648   6.993  67.723  1.00  0.00    -0.298 A  
HETATM   20  C   UNL     1     -10.586   5.732  67.128  1.00  0.00    -0.365 A  
HETATM   21  C   UNL     1      -9.677   5.501  66.102  1.00  0.00    -0.147 A  
HETATM   22  C   UNL     1      -8.827   6.522  65.685  1.00  0.00    -0.057 A  
ENDBRANCH   2   6
TORSDOF 1
ENDMDL
MODEL      106
REMARK 921   NORMALIZED FREE ENERGY PREDICTED BY IDOCK:   -3.74 KCAL/MOL
REMARK 922        TOTAL FREE ENERGY PREDICTED BY IDOCK:   -3.98 KCAL/MOL
REMARK 923 INTER-LIGAND FREE ENERGY PREDICTED BY IDOCK:   -3.94 KCAL/MOL
REMARK 924 INTRA-LIGAND FREE ENERGY PREDICTED BY IDOCK:   -0.04 KCAL/MOL
REMARK 927      BINDING AFFINITY PREDICTED BY RF-SCORE:    0.00 PKD
ROOT
HETATM    1  N   UNL     1     -11.797   7.947  72.549  1.00  0.00    -0.502 N  
HETATM    2  C   UNL     1     -11.171   6.791  72.167  1.00  0.00    -0.259 C  
HETATM    3  H1  UNL     1     -11.325   8.820  72.313  1.00  0.00     0.000 HD 
HETATM    4  H2  UNL     1     -12.689   7.936  73.044  1.00  0.00     0.000 HD 
HETATM    5  O   UNL     1     -11.739   5.741  72.451  1.00  0.00    -0.301 OA 
ENDROOT
BRANCH   2   6
HETATM    6  N   UNL     1      -9.996   6.964  71.406  1.00  0.00    -0.182 N  
HETATM    7  C   UNL     1     -10.024   7.002  69.952  1.00  0.00    -0.177 A  
HETATM    8  C   UNL     1      -9.078   7.684  69.144  1.00  0.00    -0.141 A  
HETATM    9  C   UNL     1      -7.943   8.562  69.623  1.00  0.00    -0.101 C  
HETATM   10  C   UNL     1      -9.180   7.609  67.731  1.00  0.00    -0.141 A  
HETATM   11  C   UNL     1     -10.203   6.909  67.103  1.00  0.00    -0.308 A  
HETATM   12  C   UNL     1      -7.937   8.955  71.092  1.00  0.00    -0.144 C  
HETATM   13  O   UNL     1      -6.919   9.935  71.323  1.00  0.00    -0.318 OA 
HETATM   14  C   UNL     1      -7.686   7.715  71.903  1.00  0.00    -0.093 A  
HETATM   15  C   UNL     1     -11.143   6.258  67.878  1.00  0.00    -0.360 A  
HETATM   16  C   UNL     1     -11.047   6.302  69.273  1.00  0.00    -0.461 A  
HETATM   17  C   UNL     1      -8.707   6.758  72.007  1.00  0.00    -0.126 A  
HETATM   18  H   UNL     1      -6.916  10.181  72.241  1.00  0.00     0.000 HD 
HETATM   19  C   UNL     1      -8.482   5.599  72.769  1.00  0.00    -0.120 A  
HETATM   20  C   UNL     1      -7.258   5.378  73.404  1.00  0.00    -0.087 A  
HETATM   21  C   UNL     1      -6.243   6.320  73.283  1.00  0.00    -0.063 A  
HETATM   22  C   UNL     1      -6.455   7.479  72.541  1.00  0.00    -0.055 A  
ENDBRANCH   2   6
TORSDOF 1
ENDMDL
MODEL      107
REMARK 921   NORMALIZED FREE ENERGY PREDICTED BY IDOCK:   -3.71 KCAL/MOL
REMARK 922        TOTAL FREE ENERGY PREDICTED BY IDOCK:   -3.95 KCAL/MOL
REMARK 923 INTER-LIGAND FREE ENERGY PREDICTED BY IDOCK:   -4.59 KCAL/MOL
REMARK 924 INTRA-LIGAND FREE ENERGY PREDICTED BY IDOCK:    0.64 KCAL/MOL
REMARK 927      BINDING AFFINITY PREDICTED BY RF-SCORE:    0.00 PKD
ROOT
HETATM    1  N   UNL     1      -9.511   6.608  65.779  1.00  0.00    -0.377 N  
HETATM    2  C   UNL     1      -8.794   7.718  66.138  1.00  0.00    -0.162 C  
HETATM    3  H1  UNL     1     -10.420   6.490  66.226  1.00  0.00     0.000 HD 
HETATM    4  H2  UNL     1      -9.155   5.935  65.100  1.00  0.00     0.000 HD 
HETATM    5  O   UNL     1      -7.700   7.860  65.600  1.00  0.00    -0.087 OA 
ENDROOT
BRANCH   2   6
HETATM    6  N   UNL     1      -9.454   8.607  67.012  1.00  0.00    -0.160 N  
HETATM    7  C   UNL     1     -10.151   8.138  68.199  1.00  0.00    -0.198 A  
HETATM    8  C   UNL     1     -10.353   8.908  69.373  1.00  0.00    -0.217 A  
HETATM    9  C   UNL     1      -9.814  10.294  69.652  1.00  0.00    -0.230 C  
HETATM   10  C   UNL     1     -11.094   8.360  70.452  1.00  0.00    -0.240 A  
HETATM   11  C   UNL     1     -11.607   7.069  70.411  1.00  0.00    -0.341 A  
HETATM   12  C   UNL     1      -8.761  10.838  68.699  1.00  0.00    -0.152 C  
HETATM   13  O   UNL     1      -8.228  12.060  69.220  1.00  0.00    -0.292 OA 
HETATM   14  C   UNL     1      -9.415  11.061  67.365  1.00  0.00    -0.173 A  
HETATM   15  C   UNL     1     -11.399   6.301  69.282  1.00  0.00    -0.411 A  
HETATM   16  C   UNL     1     -10.690   6.832  68.199  1.00  0.00    -0.295 A  
HETATM   17  C   UNL     1      -9.760   9.946  66.587  1.00  0.00    -0.198 A  
HETATM   18  H   UNL     1      -7.569  12.400  68.625  1.00  0.00     0.000 HD 
HETATM   19  C   UNL     1     -10.365  10.146  65.334  1.00  0.00    -0.177 A  
HETATM   20  C   UNL     1     -10.644  11.431  64.864  1.00  0.00    -0.368 A  
HETATM   21  C   UNL     1     -10.318  12.533  65.646  1.00  0.00    -0.294 A  
HETATM   22  C   UNL     1      -9.707  12.350  66.884  1.00  0.00    -0.217 A  
ENDBRANCH   2   6
TORSDOF 1
ENDMDL
MODEL      108
REMARK 921   NORMALIZED FREE ENERGY PREDICTED BY IDOCK:   -3.70 KCAL/MOL
REMARK 922        TOTAL FREE ENERGY PREDICTED BY IDOCK:   -3.94 KCAL/MOL
REMARK 923 INTER-LIGAND FREE ENERGY PREDICTED BY IDOCK:   -3.89 KCAL/MOL
REMARK 924 INTRA-LIGAND FREE ENERGY PREDICTED BY IDOCK:   -0.04 KCAL/MOL
REMARK 927      BINDING AFFINITY PREDICTED BY RF-SCORE:    0.00 PKD
ROOT
HETATM    1  N   UNL     1     -10.057  13.330  63.967  1.00  0.00    -0.572 N  
HETATM    2  C   UNL     1     -10.481  12.063  64.270  1.00  0.00    -0.328 C  
HETATM    3  H1  UNL     1      -9.209  13.649  64.435  1.00  0.00     0.000 HD 
HETATM    4  H2  UNL     1     -10.562  13.922  63.307  1.00  0.00     0.000 HD 
HETATM    5  O   UNL     1     -11.502  11.679  63.706  1.00  0.00    -0.403 OA 
ENDROOT
BRANCH   2   6
HETATM    6  N   UNL     1      -9.630  11.328  65.121  1.00  0.00    -0.230 N  
HETATM    7  C   UNL     1      -8.661  10.377  64.599  1.00  0.00    -0.187 A  
HETATM    8  C   UNL     1      -7.451  10.021  65.247  1.00  0.00    -0.137 A  
HETATM    9  C   UNL     1      -6.897  10.615  66.523  1.00  0.00    -0.124 C  
HETATM   10  C   UNL     1      -6.606   9.041  64.664  1.00  0.00    -0.071 A  
HETATM   11  C   UNL     1      -6.911   8.434  63.451  1.00  0.00    -0.085 A  
HETATM   12  C   UNL     1      -7.563  11.875  67.052  1.00  0.00    -0.134 C  
HETATM   13  O   UNL     1      -6.796  12.403  68.139  1.00  0.00    -0.067 OA 
HETATM   14  C   UNL     1      -8.952  11.512  67.498  1.00  0.00    -0.159 A  
HETATM   15  C   UNL     1      -8.075   8.788  62.799  1.00  0.00    -0.176 A  
HETATM   16  C   UNL     1      -8.933   9.736  63.369  1.00  0.00    -0.271 A  
HETATM   17  C   UNL     1      -9.921  11.227  66.525  1.00  0.00    -0.212 A  
HETATM   18  H   UNL     1      -7.212  13.191  68.470  1.00  0.00     0.000 HD 
HETATM   19  C   UNL     1     -11.223  10.894  66.934  1.00  0.00    -0.162 A  
HETATM   20  C   UNL     1     -11.560  10.825  68.287  1.00  0.00    -0.297 A  
HETATM   21  C   UNL     1     -10.592  11.089  69.249  1.00  0.00    -0.236 A  
HETATM   22  C   UNL     1      -9.300  11.432  68.858  1.00  0.00    -0.044 A  
ENDBRANCH   2   6
TORSDOF 1
ENDMDL
MODEL      109
REMARK 921   NORMALIZED FREE ENERGY PREDICTED BY IDOCK:   -3.70 KCAL/MOL
REMARK 922        TOTAL FREE ENERGY PREDICTED BY IDOCK:   -3.93 KCAL/MOL
REMARK 923 INTER-LIGAND FREE ENERGY PREDICTED BY IDOCK:   -3.98 KCAL/MOL
REMARK 924 INTRA-LIGAND FREE ENERGY PREDICTED BY IDOCK:    0.05 KCAL/MOL
REMARK 927      BINDING AFFINITY PREDICTED BY RF-SCORE:    0.00 PKD
ROOT
HETATM    1  N   UNL     1     -11.461  11.777  69.783  1.00  0.00    -0.440 N  
HETATM    2  C   UNL     1     -11.138  10.766  68.917  1.00  0.00    -0.253 C  
HETATM    3  H1  UNL     1     -10.977  11.777  70.681  1.00  0.00     0.000 HD 
HETATM    4  H2  UNL     1     -12.148  12.491  69.543  1.00  0.00     0.000 HD 
HETATM    5  O   UNL     1     -11.720  10.765  67.837  1.00  0.00    -0.543 OA 
ENDROOT
BRANCH   2   6
HETATM    6  N   UNL     1     -10.102   9.910  69.346  1.00  0.00    -0.198 N  
HETATM    7  C   UNL     1      -8.707  10.322  69.317  1.00  0.00    -0.174 A  
HETATM    8  C   UNL     1      -7.699   9.820  70.179  1.00  0.00    -0.188 A  
HETATM    9  C   UNL     1      -7.888   8.859  71.332  1.00  0.00    -0.141 C  
HETATM   10  C   UNL     1      -6.360  10.262  70.022  1.00  0.00    -0.101 A  
HETATM   11  C   UNL     1      -6.002  11.202  69.064  1.00  0.00    -0.042 A  
HETATM   12  C   UNL     1      -9.315   8.573  71.774  1.00  0.00    -0.253 C  
HETATM   13  O   UNL     1      -9.298   7.811  72.986  1.00  0.00    -0.188 OA 
HETATM   14  C   UNL     1     -10.000   7.817  70.671  1.00  0.00    -0.186 A  
HETATM   15  C   UNL     1      -6.978  11.715  68.231  1.00  0.00    -0.074 A  
HETATM   16  C   UNL     1      -8.301  11.275  68.356  1.00  0.00    -0.152 A  
HETATM   17  C   UNL     1     -10.341   8.501  69.495  1.00  0.00    -0.218 A  
HETATM   18  H   UNL     1     -10.189   7.632  73.263  1.00  0.00     0.000 HD 
HETATM   19  C   UNL     1     -10.988   7.802  68.461  1.00  0.00     0.131 A  
HETATM   20  C   UNL     1     -11.277   6.442  68.579  1.00  0.00    -0.321 A  
HETATM   21  C   UNL     1     -10.920   5.763  69.738  1.00  0.00    -0.397 A  
HETATM   22  C   UNL     1     -10.289   6.445  70.776  1.00  0.00    -0.244 A  
ENDBRANCH   2   6
TORSDOF 1
ENDMDL
MODEL      110
REMARK 921   NORMALIZED FREE ENERGY PREDICTED BY IDOCK:   -3.69 KCAL/MOL
REMARK 922        TOTAL FREE ENERGY PREDICTED BY IDOCK:   -3.92 KCAL/MOL
REMARK 923 INTER-LIGAND FREE ENERGY PREDICTED BY IDOCK:   -4.68 KCAL/MOL
REMARK 924 INTRA-LIGAND FREE ENERGY PREDICTED BY IDOCK:    0.76 KCAL/MOL
REMARK 927      BINDING AFFINITY PREDICTED BY RF-SCORE:    0.00 PKD
ROOT
HETATM    1  N   UNL     1      -7.228  12.959  67.027  1.00  0.00    -0.361 N  
HETATM    2  C   UNL     1      -7.888  12.857  68.223  1.00  0.00    -0.142 C  
HETATM    3  H1  UNL     1      -7.792  12.838  66.185  1.00  0.00     0.000 HD 
HETATM    4  H2  UNL     1      -6.226  13.146  66.980  1.00  0.00     0.000 HD 
HETATM    5  O   UNL     1      -7.210  13.002  69.235  1.00  0.00     0.011 OA 
ENDROOT
BRANCH   2   6
HETATM    6  N   UNL     1      -9.286  12.694  68.129  1.00  0.00    -0.208 N  
HETATM    7  C   UNL     1      -9.978  11.610  68.810  1.00  0.00    -0.135 A  
HETATM    8  C   UNL     1     -11.330  11.657  69.234  1.00  0.00    -0.353 A  
HETATM    9  C   UNL     1     -12.265  12.844  69.155  1.00  0.00    -0.083 C  
HETATM   10  C   UNL     1     -11.913  10.516  69.845  1.00  0.00    -0.339 A  
HETATM   11  C   UNL     1     -11.188   9.353  70.073  1.00  0.00    -0.217 A  
HETATM   12  C   UNL     1     -11.652  14.192  68.807  1.00  0.00    -0.327 C  
HETATM   13  O   UNL     1     -12.634  15.221  68.970  1.00  0.00    -0.544 OA 
HETATM   14  C   UNL     1     -11.167  14.129  67.387  1.00  0.00    -0.334 A  
HETATM   15  C   UNL     1      -9.864   9.301  69.684  1.00  0.00    -0.196 A  
HETATM   16  C   UNL     1      -9.278  10.409  69.060  1.00  0.00    -0.194 A  
HETATM   17  C   UNL     1     -10.026  13.366  67.096  1.00  0.00    -0.242 A  
HETATM   18  H   UNL     1     -12.251  16.064  68.753  1.00  0.00     0.000 HD 
HETATM   19  C   UNL     1      -9.562  13.307  65.771  1.00  0.00    -0.068 A  
HETATM   20  C   UNL     1     -10.227  13.977  64.743  1.00  0.00    -0.332 A  
HETATM   21  C   UNL     1     -11.368  14.717  65.031  1.00  0.00    -0.390 A  
HETATM   22  C   UNL     1     -11.833  14.794  66.342  1.00  0.00    -0.231 A  
ENDBRANCH   2   6
TORSDOF 1
ENDMDL
MODEL      111
REMARK 921   NORMALIZED FREE ENERGY PREDICTED BY IDOCK:   -3.68 KCAL/MOL
REMARK 922        TOTAL FREE ENERGY PREDICTED BY IDOCK:   -3.92 KCAL/MOL
REMARK 923 INTER-LIGAND FREE ENERGY PREDICTED BY IDOCK:   -4.30 KCAL/MOL
REMARK 924 INTRA-LIGAND FREE ENERGY PREDICTED BY IDOCK:    0.38 KCAL/MOL
REMARK 927      BINDING AFFINITY PREDICTED BY RF-SCORE:    0.00 PKD
ROOT
HETATM    1  N   UNL     1     -13.151   7.152  70.960  1.00  0.00    -0.556 N  
HETATM    2  C   UNL     1     -12.009   7.741  71.435  1.00  0.00    -0.306 C  
HETATM    3  H1  UNL     1     -13.025   6.342  70.353  1.00  0.00     0.000 HD 
HETATM    4  H2  UNL     1     -14.078   7.503  71.202  1.00  0.00     0.000 HD 
HETATM    5  O   UNL     1     -12.161   8.715  72.167  1.00  0.00    -0.343 OA 
ENDROOT
BRANCH   2   6
HETATM    6  N   UNL     1     -10.806   7.088  71.098  1.00  0.00    -0.234 N  
HETATM    7  C   UNL     1      -9.687   7.016  72.025  1.00  0.00    -0.155 A  
HETATM    8  C   UNL     1      -8.712   5.986  72.035  1.00  0.00    -0.136 A  
HETATM    9  C   UNL     1      -8.698   4.743  71.173  1.00  0.00    -0.138 C  
HETATM   10  C   UNL     1      -7.635   6.050  72.957  1.00  0.00    -0.098 A  
HETATM   11  C   UNL     1      -7.518   7.080  73.882  1.00  0.00    -0.100 A  
HETATM   12  C   UNL     1      -9.958   4.429  70.381  1.00  0.00    -0.183 C  
HETATM   13  O   UNL     1      -9.840   3.131  69.788  1.00  0.00    -0.030 OA 
HETATM   14  C   UNL     1     -10.121   5.490  69.330  1.00  0.00    -0.293 A  
HETATM   15  C   UNL     1      -8.473   8.078  73.897  1.00  0.00    -0.321 A  
HETATM   16  C   UNL     1      -9.530   8.045  72.981  1.00  0.00    -0.345 A  
HETATM   17  C   UNL     1     -10.510   6.779  69.726  1.00  0.00    -0.210 A  
HETATM   18  H   UNL     1     -10.627   2.935  69.293  1.00  0.00     0.000 HD 
HETATM   19  C   UNL     1     -10.672   7.775  68.748  1.00  0.00    -0.093 A  
HETATM   20  C   UNL     1     -10.434   7.507  67.398  1.00  0.00    -0.367 A  
HETATM   21  C   UNL     1     -10.031   6.234  67.012  1.00  0.00    -0.201 A  
HETATM   22  C   UNL     1      -9.878   5.234  67.969  1.00  0.00    -0.193 A  
ENDBRANCH   2   6
TORSDOF 1
ENDMDL
MODEL      112
REMARK 921   NORMALIZED FREE ENERGY PREDICTED BY IDOCK:   -3.66 KCAL/MOL
REMARK 922        TOTAL FREE ENERGY PREDICTED BY IDOCK:   -3.89 KCAL/MOL
REMARK 923 INTER-LIGAND FREE ENERGY PREDICTED BY IDOCK:   -3.87 KCAL/MOL
REMARK 924 INTRA-LIGAND FREE ENERGY PREDICTED BY IDOCK:   -0.03 KCAL/MOL
REMARK 927      BINDING AFFINITY PREDICTED BY RF-SCORE:    0.00 PKD
ROOT
HETATM    1  N   UNL     1      -9.120   4.564  67.968  1.00  0.00    -0.117 N  
HETATM    2  C   UNL     1      -8.514   4.680  69.191  1.00  0.00    -0.079 C  
HETATM    3  H1  UNL     1      -9.910   5.185  67.791  1.00  0.00     0.000 HD 
HETATM    4  H2  UNL     1      -8.799   3.892  67.271  1.00  0.00     0.000 HD 
HETATM    5  O   UNL     1      -7.564   3.933  69.403  1.00  0.00    -0.053 OA 
ENDROOT
BRANCH   2   6
HETATM    6  N   UNL     1      -9.004   5.717  70.011  1.00  0.00    -0.137 N  
HETATM    7  C   UNL     1      -8.524   7.085  69.886  1.00  0.00    -0.140 A  
HETATM    8  C   UNL     1      -9.276   8.238  70.225  1.00  0.00    -0.155 A  
HETATM    9  C   UNL     1     -10.718   8.279  70.679  1.00  0.00    -0.240 C  
HETATM   10  C   UNL     1      -8.682   9.522  70.106  1.00  0.00    -0.258 A  
HETATM   11  C   UNL     1      -7.387   9.692  69.634  1.00  0.00    -0.093 A  
HETATM   12  C   UNL     1     -11.529   6.999  70.541  1.00  0.00    -0.319 C  
HETATM   13  O   UNL     1     -12.905   7.270  70.828  1.00  0.00    -0.598 OA 
HETATM   14  C   UNL     1     -10.967   5.989  71.501  1.00  0.00    -0.335 A  
HETATM   15  C   UNL     1      -6.651   8.579  69.279  1.00  0.00    -0.046 A  
HETATM   16  C   UNL     1      -7.211   7.303  69.410  1.00  0.00    -0.084 A  
HETATM   17  C   UNL     1      -9.721   5.409  71.218  1.00  0.00    -0.162 A  
HETATM   18  H   UNL     1     -13.412   6.471  70.741  1.00  0.00     0.000 HD 
HETATM   19  C   UNL     1      -9.193   4.457  72.107  1.00  0.00    -0.164 A  
HETATM   20  C   UNL     1      -9.876   4.097  73.270  1.00  0.00    -0.169 A  
HETATM   21  C   UNL     1     -11.101   4.689  73.557  1.00  0.00    -0.412 A  
HETATM   22  C   UNL     1     -11.643   5.624  72.679  1.00  0.00    -0.307 A  
ENDBRANCH   2   6
TORSDOF 1
ENDMDL
MODEL      113
REMARK 921   NORMALIZED FREE ENERGY PREDICTED BY IDOCK:   -3.64 KCAL/MOL
REMARK 922        TOTAL FREE ENERGY PREDICTED BY IDOCK:   -3.87 KCAL/MOL
REMARK 923 INTER-LIGAND FREE ENERGY PREDICTED BY IDOCK:   -3.85 KCAL/MOL
REMARK 924 INTRA-LIGAND FREE ENERGY PREDICTED BY IDOCK:   -0.02 KCAL/MOL
REMARK 927      BINDING AFFINITY PREDICTED BY RF-SCORE:    0.00 PKD
ROOT
HETATM    1  N   UNL     1      -6.176  11.562  66.530  1.00  0.00    -0.305 N  
HETATM    2  C   UNL     1      -7.429  11.308  67.021  1.00  0.00    -0.139 C  
HETATM    3  H1  UNL     1      -5.993  11.261  65.573  1.00  0.00     0.000 HD 
HETATM    4  H2  UNL     1      -5.463  12.029  67.092  1.00  0.00     0.000 HD 
HETATM    5  O   UNL     1      -7.649  11.671  68.173  1.00  0.00    -0.101 OA 
ENDROOT
BRANCH   2   6
HETATM    6  N   UNL     1      -8.337  10.747  66.099  1.00  0.00    -0.162 N  
HETATM    7  C   UNL     1      -9.411  11.530  65.508  1.00  0.00    -0.185 A  
HETATM    8  C   UNL     1      -9.996  11.272  64.242  1.00  0.00    -0.347 A  
HETATM    9  C   UNL     1      -9.565  10.222  63.242  1.00  0.00    -0.305 C  
HETATM   10  C   UNL     1     -11.074  12.077  63.792  1.00  0.00    -0.510 A  
HETATM   11  C   UNL     1     -11.562  13.140  64.541  1.00  0.00    -0.406 A  
HETATM   12  C   UNL     1      -8.238   9.523  63.492  1.00  0.00    -0.164 C  
HETATM   13  O   UNL     1      -7.899   8.717  62.359  1.00  0.00    -0.122 OA 
HETATM   14  C   UNL     1      -8.384   8.681  64.729  1.00  0.00    -0.167 A  
HETATM   15  C   UNL     1     -10.987  13.417  65.766  1.00  0.00    -0.288 A  
HETATM   16  C   UNL     1      -9.937  12.620  66.238  1.00  0.00    -0.266 A  
HETATM   17  C   UNL     1      -8.455   9.320  65.976  1.00  0.00    -0.136 A  
HETATM   18  H   UNL     1      -7.070   8.280  62.515  1.00  0.00     0.000 HD 
HETATM   19  C   UNL     1      -8.584   8.539  67.137  1.00  0.00    -0.123 A  
HETATM   20  C   UNL     1      -8.661   7.147  67.067  1.00  0.00    -0.122 A  
HETATM   21  C   UNL     1      -8.609   6.519  65.828  1.00  0.00    -0.149 A  
HETATM   22  C   UNL     1      -8.469   7.279  64.669  1.00  0.00     0.144 A  
ENDBRANCH   2   6
TORSDOF 1
ENDMDL
MODEL      114
REMARK 921   NORMALIZED FREE ENERGY PREDICTED BY IDOCK:   -3.59 KCAL/MOL
REMARK 922        TOTAL FREE ENERGY PREDICTED BY IDOCK:   -3.83 KCAL/MOL
REMARK 923 INTER-LIGAND FREE ENERGY PREDICTED BY IDOCK:   -3.79 KCAL/MOL
REMARK 924 INTRA-LIGAND FREE ENERGY PREDICTED BY IDOCK:   -0.04 KCAL/MOL
REMARK 927      BINDING AFFINITY PREDICTED BY RF-SCORE:    0.00 PKD
ROOT
HETATM    1  N   UNL     1      -8.126   6.486  68.759  1.00  0.00    -0.117 N  
HETATM    2  C   UNL     1      -9.325   5.843  68.915  1.00  0.00    -0.126 C  
HETATM    3  H1  UNL     1      -7.637   6.750  69.614  1.00  0.00     0.000 HD 
HETATM    4  H2  UNL     1      -7.741   6.690  67.836  1.00  0.00     0.000 HD 
HETATM    5  O   UNL     1      -9.913   5.525  67.885  1.00  0.00    -0.132 OA 
ENDROOT
BRANCH   2   6
HETATM    6  N   UNL     1      -9.681   5.542  70.246  1.00  0.00    -0.172 N  
HETATM    7  C   UNL     1      -9.468   4.221  70.816  1.00  0.00    -0.171 A  
HETATM    8  C   UNL     1      -9.267   3.959  72.195  1.00  0.00    -0.167 A  
HETATM    9  C   UNL     1      -9.139   4.982  73.302  1.00  0.00    -0.125 C  
HETATM   10  C   UNL     1      -9.120   2.620  72.641  1.00  0.00    -0.111 A  
HETATM   11  C   UNL     1      -9.134   1.546  71.759  1.00  0.00    -0.123 A  
HETATM   12  C   UNL     1      -8.972   6.437  72.892  1.00  0.00    -0.130 C  
HETATM   13  O   UNL     1      -8.670   7.230  74.045  1.00  0.00    -0.172 OA 
HETATM   14  C   UNL     1     -10.254   6.887  72.249  1.00  0.00    -0.207 A  
HETATM   15  C   UNL     1      -9.307   1.788  70.411  1.00  0.00    -0.173 A  
HETATM   16  C   UNL     1      -9.477   3.100  69.955  1.00  0.00    -0.203 A  
HETATM   17  C   UNL     1     -10.573   6.406  70.970  1.00  0.00    -0.234 A  
HETATM   18  H   UNL     1      -8.566   8.139  73.789  1.00  0.00     0.000 HD 
HETATM   19  C   UNL     1     -11.766   6.827  70.359  1.00  0.00    -0.418 A  
HETATM   20  C   UNL     1     -12.642   7.698  71.009  1.00  0.00    -0.177 A  
HETATM   21  C   UNL     1     -12.332   8.158  72.284  1.00  0.00    -0.371 A  
HETATM   22  C   UNL     1     -11.147   7.758  72.897  1.00  0.00    -0.457 A  
ENDBRANCH   2   6
TORSDOF 1
ENDMDL
MODEL      115
REMARK 921   NORMALIZED FREE ENERGY PREDICTED BY IDOCK:   -3.58 KCAL/MOL
REMARK 922        TOTAL FREE ENERGY PREDICTED BY IDOCK:   -3.81 KCAL/MOL
REMARK 923 INTER-LIGAND FREE ENERGY PREDICTED BY IDOCK:   -3.81 KCAL/MOL
REMARK 924 INTRA-LIGAND FREE ENERGY PREDICTED BY IDOCK:   -0.00 KCAL/MOL
REMARK 927      BINDING AFFINITY PREDICTED BY RF-SCORE:    0.00 PKD
ROOT
HETATM    1  N   UNL     1     -11.831   6.484  69.336  1.00  0.00    -0.554 N  
HETATM    2  C   UNL     1     -10.926   6.700  68.331  1.00  0.00    -0.239 C  
HETATM    3  H1  UNL     1     -11.591   6.862  70.252  1.00  0.00     0.000 HD 
HETATM    4  H2  UNL     1     -12.699   5.971  69.177  1.00  0.00     0.000 HD 
HETATM    5  O   UNL     1     -11.215   6.245  67.228  1.00  0.00    -0.332 OA 
ENDROOT
BRANCH   2   6
HETATM    6  N   UNL     1      -9.821   7.507  68.675  1.00  0.00    -0.162 N  
HETATM    7  C   UNL     1      -9.675   8.862  68.168  1.00  0.00    -0.160 A  
HETATM    8  C   UNL     1      -8.970   9.900  68.830  1.00  0.00    -0.153 A  
HETATM    9  C   UNL     1      -8.333   9.832  70.201  1.00  0.00    -0.201 C  
HETATM   10  C   UNL     1      -8.852  11.172  68.213  1.00  0.00    -0.155 A  
HETATM   11  C   UNL     1      -9.436  11.449  66.983  1.00  0.00    -0.186 A  
HETATM   12  C   UNL     1      -8.668   8.627  71.066  1.00  0.00    -0.186 C  
HETATM   13  O   UNL     1      -8.146   8.823  72.385  1.00  0.00    -0.368 OA 
HETATM   14  C   UNL     1      -8.065   7.411  70.422  1.00  0.00    -0.108 A  
HETATM   15  C   UNL     1     -10.144  10.455  66.337  1.00  0.00    -0.287 A  
HETATM   16  C   UNL     1     -10.253   9.187  66.920  1.00  0.00    -0.336 A  
HETATM   17  C   UNL     1      -8.642   6.914  69.244  1.00  0.00    -0.132 A  
HETATM   18  H   UNL     1      -8.355   8.070  72.926  1.00  0.00     0.000 HD 
HETATM   19  C   UNL     1      -8.087   5.773  68.639  1.00  0.00    -0.101 A  
HETATM   20  C   UNL     1      -6.966   5.142  69.181  1.00  0.00    -0.055 A  
HETATM   21  C   UNL     1      -6.385   5.648  70.338  1.00  0.00    -0.031 A  
HETATM   22  C   UNL     1      -6.931   6.771  70.954  1.00  0.00    -0.067 A  
ENDBRANCH   2   6
TORSDOF 1
ENDMDL
MODEL      116
REMARK 921   NORMALIZED FREE ENERGY PREDICTED BY IDOCK:   -3.56 KCAL/MOL
REMARK 922        TOTAL FREE ENERGY PREDICTED BY IDOCK:   -3.79 KCAL/MOL
REMARK 923 INTER-LIGAND FREE ENERGY PREDICTED BY IDOCK:   -4.17 KCAL/MOL
REMARK 924 INTRA-LIGAND FREE ENERGY PREDICTED BY IDOCK:    0.38 KCAL/MOL
REMARK 927      BINDING AFFINITY PREDICTED BY RF-SCORE:    0.00 PKD
ROOT
HETATM    1  N   UNL     1     -11.594  10.298  68.849  1.00  0.00    -0.497 N  
HETATM    2  C   UNL     1     -11.170  10.630  67.590  1.00  0.00    -0.290 C  
HETATM    3  H1  UNL     1     -11.053   9.584  69.337  1.00  0.00     0.000 HD 
HETATM    4  H2  UNL     1     -12.407  10.742  69.277  1.00  0.00     0.000 HD 
HETATM    5  O   UNL     1     -11.821  11.490  67.004  1.00  0.00    -0.568 OA 
ENDROOT
BRANCH   2   6
HETATM    6  N   UNL     1      -9.977  10.007  67.170  1.00  0.00    -0.191 N  
HETATM    7  C   UNL     1      -9.901   8.572  66.944  1.00  0.00    -0.242 A  
HETATM    8  C   UNL     1      -9.002   7.942  66.047  1.00  0.00    -0.195 A  
HETATM    9  C   UNL     1      -8.039   8.625  65.100  1.00  0.00    -0.143 C  
HETATM   10  C   UNL     1      -8.986   6.527  65.948  1.00  0.00    -0.103 A  
HETATM   11  C   UNL     1      -9.852   5.728  66.685  1.00  0.00    -0.194 A  
HETATM   12  C   UNL     1      -8.198  10.125  64.906  1.00  0.00    -0.157 C  
HETATM   13  O   UNL     1      -7.346  10.564  63.843  1.00  0.00    -0.326 OA 
HETATM   14  C   UNL     1      -7.838  10.801  66.199  1.00  0.00    -0.155 A  
HETATM   15  C   UNL     1     -10.748   6.329  67.547  1.00  0.00    -0.398 A  
HETATM   16  C   UNL     1     -10.763   7.723  67.675  1.00  0.00    -0.227 A  
HETATM   17  C   UNL     1      -8.721  10.695  67.285  1.00  0.00    -0.129 A  
HETATM   18  H   UNL     1      -7.445  11.502  63.721  1.00  0.00     0.000 HD 
HETATM   19  C   UNL     1      -8.394  11.330  68.495  1.00  0.00    -0.155 A  
HETATM   20  C   UNL     1      -7.203  12.044  68.639  1.00  0.00    -0.110 A  
HETATM   21  C   UNL     1      -6.322  12.130  67.567  1.00  0.00    -0.129 A  
HETATM   22  C   UNL     1      -6.638  11.516  66.358  1.00  0.00     0.042 A  
ENDBRANCH   2   6
TORSDOF 1
ENDMDL
MODEL      117
REMARK 921   NORMALIZED FREE ENERGY PREDICTED BY IDOCK:   -3.55 KCAL/MOL
REMARK 922        TOTAL FREE ENERGY PREDICTED BY IDOCK:   -3.78 KCAL/MOL
REMARK 923 INTER-LIGAND FREE ENERGY PREDICTED BY IDOCK:   -3.74 KCAL/MOL
REMARK 924 INTRA-LIGAND FREE ENERGY PREDICTED BY IDOCK:   -0.04 KCAL/MOL
REMARK 927      BINDING AFFINITY PREDICTED BY RF-SCORE:    0.00 PKD
ROOT
HETATM    1  N   UNL     1     -10.142  10.408  64.643  1.00  0.00    -0.345 N  
HETATM    2  C   UNL     1      -9.197   9.480  64.995  1.00  0.00    -0.236 C  
HETATM    3  H1  UNL     1     -10.688  10.811  65.404  1.00  0.00     0.000 HD 
HETATM    4  H2  UNL     1     -10.290  10.681  63.671  1.00  0.00     0.000 HD 
HETATM    5  O   UNL     1      -8.540   8.995  64.079  1.00  0.00    -0.194 OA 
ENDROOT
BRANCH   2   6
HETATM    6  N   UNL     1      -9.038   9.276  66.381  1.00  0.00    -0.151 N  
HETATM    7  C   UNL     1      -8.073  10.035  67.161  1.00  0.00    -0.117 A  
HETATM    8  C   UNL     1      -8.196  10.315  68.546  1.00  0.00    -0.111 A  
HETATM    9  C   UNL     1      -9.368   9.975  69.439  1.00  0.00    -0.237 C  
HETATM   10  C   UNL     1      -7.163  11.025  69.212  1.00  0.00    -0.124 A  
HETATM   11  C   UNL     1      -6.037  11.487  68.541  1.00  0.00    -0.049 A  
HETATM   12  C   UNL     1     -10.644   9.498  68.763  1.00  0.00    -0.214 C  
HETATM   13  O   UNL     1     -11.697   9.414  69.730  1.00  0.00    -0.443 OA 
HETATM   14  C   UNL     1     -10.369   8.155  68.147  1.00  0.00    -0.251 A  
HETATM   15  C   UNL     1      -5.915  11.240  67.188  1.00  0.00    -0.083 A  
HETATM   16  C   UNL     1      -6.913  10.523  66.518  1.00  0.00    -0.115 A  
HETATM   17  C   UNL     1      -9.559   8.090  67.003  1.00  0.00    -0.196 A  
HETATM   18  H   UNL     1     -12.494   9.116  69.307  1.00  0.00     0.000 HD 
HETATM   19  C   UNL     1      -9.303   6.839  66.418  1.00  0.00    -0.175 A  
HETATM   20  C   UNL     1      -9.823   5.665  66.965  1.00  0.00    -0.172 A  
HETATM   21  C   UNL     1     -10.609   5.731  68.110  1.00  0.00    -0.286 A  
HETATM   22  C   UNL     1     -10.882   6.965  68.694  1.00  0.00    -0.236 A  
ENDBRANCH   2   6
TORSDOF 1
ENDMDL
MODEL      118
REMARK 921   NORMALIZED FREE ENERGY PREDICTED BY IDOCK:   -3.54 KCAL/MOL
REMARK 922        TOTAL FREE ENERGY PREDICTED BY IDOCK:   -3.77 KCAL/MOL
REMARK 923 INTER-LIGAND FREE ENERGY PREDICTED BY IDOCK:   -3.73 KCAL/MOL
REMARK 924 INTRA-LIGAND FREE ENERGY PREDICTED BY IDOCK:   -0.04 KCAL/MOL
REMARK 927      BINDING AFFINITY PREDICTED BY RF-SCORE:    0.00 PKD
ROOT
HETATM    1  N   UNL     1      -6.075   7.112  68.017  1.00  0.00    -0.033 N  
HETATM    2  C   UNL     1      -6.587   7.511  66.811  1.00  0.00    -0.057 C  
HETATM    3  H1  UNL     1      -6.751   6.850  68.734  1.00  0.00     0.000 HD 
HETATM    4  H2  UNL     1      -5.069   7.080  68.190  1.00  0.00     0.000 HD 
HETATM    5  O   UNL     1      -5.772   7.827  65.949  1.00  0.00    -0.036 OA 
ENDROOT
BRANCH   2   6
HETATM    6  N   UNL     1      -7.988   7.412  66.687  1.00  0.00    -0.118 N  
HETATM    7  C   UNL     1      -8.627   6.223  66.143  1.00  0.00    -0.143 A  
HETATM    8  C   UNL     1      -9.940   5.794  66.464  1.00  0.00    -0.202 A  
HETATM    9  C   UNL     1     -10.874   6.414  67.480  1.00  0.00    -0.438 C  
HETATM   10  C   UNL     1     -10.475   4.643  65.830  1.00  0.00    -0.305 A  
HETATM   11  C   UNL     1      -9.739   3.894  64.921  1.00  0.00    -0.188 A  
HETATM   12  C   UNL     1     -10.286   7.451  68.426  1.00  0.00    -0.183 C  
HETATM   13  O   UNL     1     -11.247   7.780  69.434  1.00  0.00    -0.449 OA 
HETATM   14  C   UNL     1      -9.918   8.661  67.615  1.00  0.00    -0.248 A  
HETATM   15  C   UNL     1      -8.451   4.288  64.615  1.00  0.00    -0.117 A  
HETATM   16  C   UNL     1      -7.913   5.434  65.213  1.00  0.00    -0.109 A  
HETATM   17  C   UNL     1      -8.807   8.590  66.761  1.00  0.00    -0.139 A  
HETATM   18  H   UNL     1     -10.880   8.427  70.025  1.00  0.00     0.000 HD 
HETATM   19  C   UNL     1      -8.453   9.721  66.006  1.00  0.00    -0.131 A  
HETATM   20  C   UNL     1      -9.196  10.900  66.078  1.00  0.00    -0.210 A  
HETATM   21  C   UNL     1     -10.307  10.961  66.911  1.00  0.00    -0.285 A  
HETATM   22  C   UNL     1     -10.664   9.852  67.674  1.00  0.00    -0.339 A  
ENDBRANCH   2   6
TORSDOF 1
ENDMDL
MODEL      119
REMARK 921   NORMALIZED FREE ENERGY PREDICTED BY IDOCK:   -3.54 KCAL/MOL
REMARK 922        TOTAL FREE ENERGY PREDICTED BY IDOCK:   -3.77 KCAL/MOL
REMARK 923 INTER-LIGAND FREE ENERGY PREDICTED BY IDOCK:   -3.72 KCAL/MOL
REMARK 924 INTRA-LIGAND FREE ENERGY PREDICTED BY IDOCK:   -0.04 KCAL/MOL
REMARK 927      BINDING AFFINITY PREDICTED BY RF-SCORE:    0.00 PKD
ROOT
HETATM    1  N   UNL     1      -7.236  10.705  70.143  1.00  0.00    -0.301 N  
HETATM    2  C   UNL     1      -7.934   9.566  69.838  1.00  0.00    -0.149 C  
HETATM    3  H1  UNL     1      -7.492  11.546  69.627  1.00  0.00     0.000 HD 
HETATM    4  H2  UNL     1      -6.499  10.710  70.849  1.00  0.00     0.000 HD 
HETATM    5  O   UNL     1      -7.625   8.553  70.459  1.00  0.00    -0.064 OA 
ENDROOT
BRANCH   2   6
HETATM    6  N   UNL     1      -8.987   9.732  68.914  1.00  0.00    -0.138 N  
HETATM    7  C   UNL     1     -10.347  10.015  69.346  1.00  0.00    -0.227 A  
HETATM    8  C   UNL     1     -11.310  10.713  68.573  1.00  0.00    -0.348 A  
HETATM    9  C   UNL     1     -11.090  11.368  67.227  1.00  0.00    -0.363 C  
HETATM   10  C   UNL     1     -12.623  10.886  69.081  1.00  0.00     0.369 A  
HETATM   11  C   UNL     1     -12.995  10.418  70.335  1.00  0.00    -0.188 A  
HETATM   12  C   UNL     1      -9.655  11.508  66.745  1.00  0.00    -0.186 C  
HETATM   13  O   UNL     1      -9.621  12.316  65.564  1.00  0.00    -0.373 OA 
HETATM   14  C   UNL     1      -9.122  10.130  66.471  1.00  0.00    -0.166 A  
HETATM   15  C   UNL     1     -12.061   9.756  71.107  1.00  0.00    -0.460 A  
HETATM   16  C   UNL     1     -10.766   9.556  70.615  1.00  0.00    -0.375 A  
HETATM   17  C   UNL     1      -8.835   9.288  67.555  1.00  0.00    -0.118 A  
HETATM   18  H   UNL     1      -8.724  12.404  65.263  1.00  0.00     0.000 HD 
HETATM   19  C   UNL     1      -8.330   8.000  67.307  1.00  0.00    -0.122 A  
HETATM   20  C   UNL     1      -8.128   7.543  66.003  1.00  0.00    -0.123 A  
HETATM   21  C   UNL     1      -8.432   8.373  64.930  1.00  0.00    -0.141 A  
HETATM   22  C   UNL     1      -8.922   9.655  65.162  1.00  0.00    -0.249 A  
ENDBRANCH   2   6
TORSDOF 1
ENDMDL
MODEL      120
REMARK 921   NORMALIZED FREE ENERGY PREDICTED BY IDOCK:   -3.51 KCAL/MOL
REMARK 922        TOTAL FREE ENERGY PREDICTED BY IDOCK:   -3.74 KCAL/MOL
REMARK 923 INTER-LIGAND FREE ENERGY PREDICTED BY IDOCK:   -4.01 KCAL/MOL
REMARK 924 INTRA-LIGAND FREE ENERGY PREDICTED BY IDOCK:    0.28 KCAL/MOL
REMARK 927      BINDING AFFINITY PREDICTED BY RF-SCORE:    0.00 PKD
ROOT
HETATM    1  N   UNL     1     -11.267   7.158  73.446  1.00  0.00    -0.555 N  
HETATM    2  C   UNL     1     -10.314   6.183  73.322  1.00  0.00    -0.227 C  
HETATM    3  H1  UNL     1     -11.532   7.646  72.590  1.00  0.00     0.000 HD 
HETATM    4  H2  UNL     1     -11.691   7.385  74.346  1.00  0.00     0.000 HD 
HETATM    5  O   UNL     1      -9.996   5.595  74.352  1.00  0.00    -0.198 OA 
ENDROOT
BRANCH   2   6
HETATM    6  N   UNL     1      -9.893   5.913  72.003  1.00  0.00    -0.157 N  
HETATM    7  C   UNL     1      -9.721   4.553  71.516  1.00  0.00    -0.175 A  
HETATM    8  C   UNL     1      -9.844   4.160  70.159  1.00  0.00    -0.242 A  
HETATM    9  C   UNL     1     -10.264   5.033  68.997  1.00  0.00    -0.207 C  
HETATM   10  C   UNL     1      -9.605   2.809  69.797  1.00  0.00    -0.077 A  
HETATM   11  C   UNL     1      -9.280   1.841  70.739  1.00  0.00    -0.170 A  
HETATM   12  C   UNL     1     -10.838   6.403  69.326  1.00  0.00    -0.327 C  
HETATM   13  O   UNL     1     -11.358   7.003  68.134  1.00  0.00    -0.509 OA 
HETATM   14  C   UNL     1      -9.736   7.238  69.913  1.00  0.00    -0.174 A  
HETATM   15  C   UNL     1      -9.178   2.206  72.067  1.00  0.00    -0.145 A  
HETATM   16  C   UNL     1      -9.389   3.538  72.442  1.00  0.00    -0.167 A  
HETATM   17  C   UNL     1      -9.287   6.949  71.211  1.00  0.00    -0.164 A  
HETATM   18  H   UNL     1     -11.717   7.859  68.339  1.00  0.00     0.000 HD 
HETATM   19  C   UNL     1      -8.262   7.730  71.770  1.00  0.00    -0.126 A  
HETATM   20  C   UNL     1      -7.674   8.772  71.051  1.00  0.00    -0.137 A  
HETATM   21  C   UNL     1      -8.108   9.044  69.758  1.00  0.00    -0.109 A  
HETATM   22  C   UNL     1      -9.131   8.286  69.196  1.00  0.00    -0.148 A  
ENDBRANCH   2   6
TORSDOF 1
ENDMDL
MODEL      121
REMARK 921   NORMALIZED FREE ENERGY PREDICTED BY IDOCK:   -3.50 KCAL/MOL
REMARK 922        TOTAL FREE ENERGY PREDICTED BY IDOCK:   -3.73 KCAL/MOL
REMARK 923 INTER-LIGAND FREE ENERGY PREDICTED BY IDOCK:   -4.13 KCAL/MOL
REMARK 924 INTRA-LIGAND FREE ENERGY PREDICTED BY IDOCK:    0.40 KCAL/MOL
REMARK 927      BINDING AFFINITY PREDICTED BY RF-SCORE:    0.00 PKD
ROOT
HETATM    1  N   UNL     1      -6.889  11.285  69.960  1.00  0.00    -0.340 N  
HETATM    2  C   UNL     1      -7.099  10.182  69.175  1.00  0.00    -0.073 C  
HETATM    3  H1  UNL     1      -7.667  11.938  70.043  1.00  0.00     0.000 HD 
HETATM    4  H2  UNL     1      -6.001  11.443  70.438  1.00  0.00     0.000 HD 
HETATM    5  O   UNL     1      -6.162   9.395  69.076  1.00  0.00    -0.042 OA 
ENDROOT
BRANCH   2   6
HETATM    6  N   UNL     1      -8.405  10.047  68.660  1.00  0.00    -0.112 N  
HETATM    7  C   UNL     1      -8.965  11.014  67.729  1.00  0.00    -0.140 A  
HETATM    8  C   UNL     1      -9.968  10.723  66.769  1.00  0.00    -0.249 A  
HETATM    9  C   UNL     1     -10.565   9.367  66.465  1.00  0.00    -0.125 C  
HETATM   10  C   UNL     1     -10.473  11.763  65.947  1.00  0.00    -0.296 A  
HETATM   11  C   UNL     1      -9.993  13.064  66.027  1.00  0.00    -0.277 A  
HETATM   12  C   UNL     1      -9.877   8.151  67.067  1.00  0.00    -0.232 C  
HETATM   13  O   UNL     1     -10.449   6.957  66.521  1.00  0.00    -0.474 OA 
HETATM   14  C   UNL     1     -10.061   8.204  68.557  1.00  0.00    -0.220 A  
HETATM   15  C   UNL     1      -9.001  13.357  66.943  1.00  0.00    -0.216 A  
HETATM   16  C   UNL     1      -8.505  12.349  67.778  1.00  0.00    -0.169 A  
HETATM   17  C   UNL     1      -9.344   9.161  69.292  1.00  0.00    -0.157 A  
HETATM   18  H   UNL     1     -10.019   6.197  66.897  1.00  0.00     0.000 HD 
HETATM   19  C   UNL     1      -9.505   9.213  70.687  1.00  0.00    -0.316 A  
HETATM   20  C   UNL     1     -10.376   8.344  71.346  1.00  0.00    -0.285 A  
HETATM   21  C   UNL     1     -11.099   7.410  70.613  1.00  0.00    -0.285 A  
HETATM   22  C   UNL     1     -10.941   7.339  69.231  1.00  0.00    -0.121 A  
ENDBRANCH   2   6
TORSDOF 1
ENDMDL
MODEL      122
REMARK 921   NORMALIZED FREE ENERGY PREDICTED BY IDOCK:   -3.49 KCAL/MOL
REMARK 922        TOTAL FREE ENERGY PREDICTED BY IDOCK:   -3.71 KCAL/MOL
REMARK 923 INTER-LIGAND FREE ENERGY PREDICTED BY IDOCK:   -3.67 KCAL/MOL
REMARK 924 INTRA-LIGAND FREE ENERGY PREDICTED BY IDOCK:   -0.04 KCAL/MOL
REMARK 927      BINDING AFFINITY PREDICTED BY RF-SCORE:    0.00 PKD
ROOT
HETATM    1  N   UNL     1      -6.693  10.224  70.359  1.00  0.00    -0.141 N  
HETATM    2  C   UNL     1      -7.073  10.767  69.160  1.00  0.00    -0.101 C  
HETATM    3  H1  UNL     1      -7.335   9.549  70.774  1.00  0.00     0.000 HD 
HETATM    4  H2  UNL     1      -5.816  10.481  70.811  1.00  0.00     0.000 HD 
HETATM    5  O   UNL     1      -6.301  11.580  68.659  1.00  0.00    -0.050 OA 
ENDROOT
BRANCH   2   6
HETATM    6  N   UNL     1      -8.261  10.245  68.609  1.00  0.00    -0.110 N  
HETATM    7  C   UNL     1      -8.248   9.120  67.686  1.00  0.00    -0.108 A  
HETATM    8  C   UNL     1      -9.317   8.204  67.515  1.00  0.00    -0.165 A  
HETATM    9  C   UNL     1     -10.606   8.157  68.306  1.00  0.00    -0.153 C  
HETATM   10  C   UNL     1      -9.207   7.172  66.547  1.00  0.00    -0.199 A  
HETATM   11  C   UNL     1      -8.065   7.008  65.773  1.00  0.00    -0.123 A  
HETATM   12  C   UNL     1     -10.686   9.013  69.560  1.00  0.00    -0.206 C  
HETATM   13  O   UNL     1     -11.883   8.698  70.280  1.00  0.00    -0.477 OA 
HETATM   14  C   UNL     1     -10.674  10.455  69.139  1.00  0.00    -0.266 A  
HETATM   15  C   UNL     1      -7.008   7.880  65.944  1.00  0.00    -0.057 A  
HETATM   16  C   UNL     1      -7.105   8.917  66.879  1.00  0.00    -0.082 A  
HETATM   17  C   UNL     1      -9.478  11.008  68.656  1.00  0.00    -0.195 A  
HETATM   18  H   UNL     1     -11.933   9.233  71.064  1.00  0.00     0.000 HD 
HETATM   19  C   UNL     1      -9.457  12.358  68.267  1.00  0.00    -0.203 A  
HETATM   20  C   UNL     1     -10.607  13.148  68.335  1.00  0.00    -0.264 A  
HETATM   21  C   UNL     1     -11.795  12.591  68.795  1.00  0.00    -0.347 A  
HETATM   22  C   UNL     1     -11.827  11.258  69.196  1.00  0.00    -0.423 A  
ENDBRANCH   2   6
TORSDOF 1
ENDMDL
MODEL      123
REMARK 921   NORMALIZED FREE ENERGY PREDICTED BY IDOCK:   -3.47 KCAL/MOL
REMARK 922        TOTAL FREE ENERGY PREDICTED BY IDOCK:   -3.69 KCAL/MOL
REMARK 923 INTER-LIGAND FREE ENERGY PREDICTED BY IDOCK:   -4.01 KCAL/MOL
REMARK 924 INTRA-LIGAND FREE ENERGY PREDICTED BY IDOCK:    0.32 KCAL/MOL
REMARK 927      BINDING AFFINITY PREDICTED BY RF-SCORE:    0.00 PKD
ROOT
HETATM    1  N   UNL     1     -11.859  11.843  69.512  1.00  0.00    -0.324 N  
HETATM    2  C   UNL     1     -11.554  12.419  68.308  1.00  0.00    -0.333 C  
HETATM    3  H1  UNL     1     -11.166  11.947  70.254  1.00  0.00     0.000 HD 
HETATM    4  H2  UNL     1     -12.733  11.338  69.661  1.00  0.00     0.000 HD 
HETATM    5  O   UNL     1     -12.389  12.295  67.416  1.00  0.00    -0.344 OA 
ENDROOT
BRANCH   2   6
HETATM    6  N   UNL     1     -10.359  13.167  68.280  1.00  0.00    -0.247 N  
HETATM    7  C   UNL     1      -9.054  12.524  68.233  1.00  0.00    -0.183 A  
HETATM    8  C   UNL     1      -7.889  13.105  67.672  1.00  0.00    -0.169 A  
HETATM    9  C   UNL     1      -7.795  14.428  66.944  1.00  0.00     0.177 C  
HETATM   10  C   UNL     1      -6.658  12.400  67.729  1.00  0.00    -0.113 A  
HETATM   11  C   UNL     1      -6.561  11.134  68.293  1.00  0.00    -0.058 A  
HETATM   12  C   UNL     1      -9.101  15.107  66.560  1.00  0.00    -0.294 C  
HETATM   13  O   UNL     1      -8.828  16.230  65.717  1.00  0.00    -0.411 OA 
HETATM   14  C   UNL     1      -9.789  15.537  67.825  1.00  0.00    -0.213 A  
HETATM   15  C   UNL     1      -7.693  10.548  68.824  1.00  0.00    -0.109 A  
HETATM   16  C   UNL     1      -8.911  11.236  68.797  1.00  0.00    -0.116 A  
HETATM   17  C   UNL     1     -10.365  14.557  68.647  1.00  0.00    -0.242 A  
HETATM   18  H   UNL     1      -9.644  16.654  65.476  1.00  0.00     0.000 HD 
HETATM   19  C   UNL     1     -11.016  14.952  69.829  1.00  0.00    -0.280 A  
HETATM   20  C   UNL     1     -11.082  16.295  70.203  1.00  0.00    -0.346 A  
HETATM   21  C   UNL     1     -10.493  17.261  69.395  1.00  0.00    -0.142 A  
HETATM   22  C   UNL     1      -9.855  16.886  68.216  1.00  0.00    -0.266 A  
ENDBRANCH   2   6
TORSDOF 1
ENDMDL
MODEL      124
REMARK 921   NORMALIZED FREE ENERGY PREDICTED BY IDOCK:   -3.46 KCAL/MOL
REMARK 922        TOTAL FREE ENERGY PREDICTED BY IDOCK:   -3.68 KCAL/MOL
REMARK 923 INTER-LIGAND FREE ENERGY PREDICTED BY IDOCK:   -3.65 KCAL/MOL
REMARK 924 INTRA-LIGAND FREE ENERGY PREDICTED BY IDOCK:   -0.04 KCAL/MOL
REMARK 927      BINDING AFFINITY PREDICTED BY RF-SCORE:    0.00 PKD
ROOT
HETATM    1  N   UNL     1     -11.480   9.872  68.115  1.00  0.00    -0.499 N  
HETATM    2  C   UNL     1     -10.779  10.045  69.279  1.00  0.00    -0.224 C  
HETATM    3  H1  UNL     1     -11.252   9.044  67.566  1.00  0.00     0.000 HD 
HETATM    4  H2  UNL     1     -12.193  10.537  67.814  1.00  0.00     0.000 HD 
HETATM    5  O   UNL     1     -11.054  11.042  69.940  1.00  0.00    -0.259 OA 
ENDROOT
BRANCH   2   6
HETATM    6  N   UNL     1      -9.898   8.996  69.615  1.00  0.00    -0.173 N  
HETATM    7  C   UNL     1     -10.251   7.983  70.598  1.00  0.00    -0.196 A  
HETATM    8  C   UNL     1      -9.740   6.661  70.614  1.00  0.00    -0.183 A  
HETATM    9  C   UNL     1      -8.828   6.029  69.585  1.00  0.00    -0.133 C  
HETATM   10  C   UNL     1     -10.121   5.775  71.655  1.00  0.00    -0.241 A  
HETATM   11  C   UNL     1     -11.011   6.152  72.652  1.00  0.00    -0.291 A  
HETATM   12  C   UNL     1      -8.616   6.786  68.283  1.00  0.00    -0.124 C  
HETATM   13  O   UNL     1      -7.896   5.960  67.361  1.00  0.00    -0.100 OA 
HETATM   14  C   UNL     1      -7.850   8.040  68.595  1.00  0.00    -0.118 A  
HETATM   15  C   UNL     1     -11.534   7.430  72.637  1.00  0.00    -0.337 A  
HETATM   16  C   UNL     1     -11.153   8.326  71.631  1.00  0.00    -0.326 A  
HETATM   17  C   UNL     1      -8.505   9.081  69.269  1.00  0.00    -0.128 A  
HETATM   18  H   UNL     1      -7.764   6.433  66.547  1.00  0.00     0.000 HD 
HETATM   19  C   UNL     1      -7.797  10.260  69.559  1.00  0.00    -0.172 A  
HETATM   20  C   UNL     1      -6.455  10.402  69.204  1.00  0.00    -0.048 A  
HETATM   21  C   UNL     1      -5.803   9.361  68.554  1.00  0.00    -0.041 A  
HETATM   22  C   UNL     1      -6.495   8.191  68.250  1.00  0.00    -0.055 A  
ENDBRANCH   2   6
TORSDOF 1
ENDMDL
MODEL      125
REMARK 921   NORMALIZED FREE ENERGY PREDICTED BY IDOCK:   -3.46 KCAL/MOL
REMARK 922        TOTAL FREE ENERGY PREDICTED BY IDOCK:   -3.68 KCAL/MOL
REMARK 923 INTER-LIGAND FREE ENERGY PREDICTED BY IDOCK:   -3.65 KCAL/MOL
REMARK 924 INTRA-LIGAND FREE ENERGY PREDICTED BY IDOCK:   -0.03 KCAL/MOL
REMARK 927      BINDING AFFINITY PREDICTED BY RF-SCORE:    0.00 PKD
ROOT
HETATM    1  N   UNL     1     -10.358  11.246  69.548  1.00  0.00    -0.445 N  
HETATM    2  C   UNL     1     -10.350  10.001  68.977  1.00  0.00    -0.206 C  
HETATM    3  H1  UNL     1      -9.870  11.339  70.439  1.00  0.00     0.000 HD 
HETATM    4  H2  UNL     1     -10.826  12.037  69.106  1.00  0.00     0.000 HD 
HETATM    5  O   UNL     1     -10.936   9.888  67.904  1.00  0.00    -0.272 OA 
ENDROOT
BRANCH   2   6
HETATM    6  N   UNL     1      -9.582   9.030  69.653  1.00  0.00    -0.167 N  
HETATM    7  C   UNL     1      -8.250   8.657  69.201  1.00  0.00    -0.117 A  
HETATM    8  C   UNL     1      -7.224   8.156  70.042  1.00  0.00    -0.056 A  
HETATM    9  C   UNL     1      -7.277   8.007  71.547  1.00  0.00    -0.071 C  
HETATM   10  C   UNL     1      -5.978   7.778  69.478  1.00  0.00    -0.030 A  
HETATM   11  C   UNL     1      -5.713   7.913  68.121  1.00  0.00    -0.033 A  
HETATM   12  C   UNL     1      -8.439   8.668  72.272  1.00  0.00    -0.078 C  
HETATM   13  O   UNL     1      -8.225   8.596  73.686  1.00  0.00    -0.395 OA 
HETATM   14  C   UNL     1      -9.699   7.949  71.881  1.00  0.00    -0.231 A  
HETATM   15  C   UNL     1      -6.696   8.420  67.294  1.00  0.00    -0.063 A  
HETATM   16  C   UNL     1      -7.940   8.778  67.828  1.00  0.00    -0.106 A  
HETATM   17  C   UNL     1     -10.206   8.133  70.586  1.00  0.00    -0.196 A  
HETATM   18  H   UNL     1      -8.950   9.009  74.140  1.00  0.00     0.000 HD 
HETATM   19  C   UNL     1     -11.388   7.470  70.214  1.00  0.00    -0.219 A  
HETATM   20  C   UNL     1     -12.051   6.621  71.103  1.00  0.00    -0.391 A  
HETATM   21  C   UNL     1     -11.534   6.426  72.379  1.00  0.00    -0.320 A  
HETATM   22  C   UNL     1     -10.370   7.086  72.765  1.00  0.00    -0.248 A  
ENDBRANCH   2   6
TORSDOF 1
ENDMDL
MODEL      126
REMARK 921   NORMALIZED FREE ENERGY PREDICTED BY IDOCK:   -3.38 KCAL/MOL
REMARK 922        TOTAL FREE ENERGY PREDICTED BY IDOCK:   -3.60 KCAL/MOL
REMARK 923 INTER-LIGAND FREE ENERGY PREDICTED BY IDOCK:   -3.58 KCAL/MOL
REMARK 924 INTRA-LIGAND FREE ENERGY PREDICTED BY IDOCK:   -0.02 KCAL/MOL
REMARK 927      BINDING AFFINITY PREDICTED BY RF-SCORE:    0.00 PKD
ROOT
HETATM    1  N   UNL     1      -6.696  11.922  68.225  1.00  0.00    -0.060 N  
HETATM    2  C   UNL     1      -6.960  11.630  66.913  1.00  0.00    -0.123 C  
HETATM    3  H1  UNL     1      -7.419  11.674  68.900  1.00  0.00     0.000 HD 
HETATM    4  H2  UNL     1      -5.821  12.362  68.512  1.00  0.00     0.000 HD 
HETATM    5  O   UNL     1      -6.089  11.927  66.101  1.00  0.00     0.033 OA 
ENDROOT
BRANCH   2   6
HETATM    6  N   UNL     1      -8.165  10.934  66.680  1.00  0.00    -0.140 N  
HETATM    7  C   UNL     1      -8.179   9.517  66.349  1.00  0.00    -0.115 A  
HETATM    8  C   UNL     1      -9.253   8.634  66.628  1.00  0.00    -0.227 A  
HETATM    9  C   UNL     1     -10.518   8.958  67.390  1.00  0.00    -0.347 C  
HETATM   10  C   UNL     1      -9.172   7.280  66.211  1.00  0.00    -0.175 A  
HETATM   11  C   UNL     1      -8.053   6.775  65.561  1.00  0.00    -0.128 A  
HETATM   12  C   UNL     1     -10.562  10.281  68.139  1.00  0.00    -0.221 C  
HETATM   13  O   UNL     1     -11.737  10.333  68.955  1.00  0.00    -0.497 OA 
HETATM   14  C   UNL     1     -10.561  11.389  67.124  1.00  0.00    -0.279 A  
HETATM   15  C   UNL     1      -6.991   7.619  65.303  1.00  0.00    -0.058 A  
HETATM   16  C   UNL     1      -7.060   8.964  65.686  1.00  0.00    -0.084 A  
HETATM   17  C   UNL     1      -9.379  11.656  66.417  1.00  0.00    -0.213 A  
HETATM   18  H   UNL     1     -11.764  11.159  69.423  1.00  0.00     0.000 HD 
HETATM   19  C   UNL     1      -9.368  12.695  65.471  1.00  0.00     0.183 A  
HETATM   20  C   UNL     1     -10.515  13.449  65.213  1.00  0.00    -0.334 A  
HETATM   21  C   UNL     1     -11.689  13.169  65.902  1.00  0.00    -0.427 A  
HETATM   22  C   UNL     1     -11.711  12.150  66.851  1.00  0.00    -0.374 A  
ENDBRANCH   2   6
TORSDOF 1
ENDMDL
MODEL      127
REMARK 921   NORMALIZED FREE ENERGY PREDICTED BY IDOCK:   -3.37 KCAL/MOL
REMARK 922        TOTAL FREE ENERGY PREDICTED BY IDOCK:   -3.59 KCAL/MOL
REMARK 923 INTER-LIGAND FREE ENERGY PREDICTED BY IDOCK:   -3.55 KCAL/MOL
REMARK 924 INTRA-LIGAND FREE ENERGY PREDICTED BY IDOCK:   -0.04 KCAL/MOL
REMARK 927      BINDING AFFINITY PREDICTED BY RF-SCORE:    0.00 PKD
ROOT
HETATM    1  N   UNL     1      -7.103   7.192  69.681  1.00  0.00    -0.072 N  
HETATM    2  C   UNL     1      -8.379   7.161  69.184  1.00  0.00    -0.129 C  
HETATM    3  H1  UNL     1      -6.853   6.451  70.336  1.00  0.00     0.000 HD 
HETATM    4  H2  UNL     1      -6.437   7.916  69.409  1.00  0.00     0.000 HD 
HETATM    5  O   UNL     1      -8.679   8.052  68.395  1.00  0.00    -0.130 OA 
ENDROOT
BRANCH   2   6
HETATM    6  N   UNL     1      -9.152   6.047  69.572  1.00  0.00    -0.136 N  
HETATM    7  C   UNL     1      -9.116   4.795  68.833  1.00  0.00    -0.115 A  
HETATM    8  C   UNL     1      -9.381   3.519  69.393  1.00  0.00    -0.243 A  
HETATM    9  C   UNL     1      -9.649   3.206  70.848  1.00  0.00    -0.225 C  
HETATM   10  C   UNL     1      -9.365   2.371  68.559  1.00  0.00    -0.252 A  
HETATM   11  C   UNL     1      -9.065   2.449  67.205  1.00  0.00    -0.180 A  
HETATM   12  C   UNL     1      -9.383   4.311  71.860  1.00  0.00    -0.131 C  
HETATM   13  O   UNL     1      -9.497   3.785  73.186  1.00  0.00    -0.107 OA 
HETATM   14  C   UNL     1     -10.385   5.406  71.625  1.00  0.00    -0.280 A  
HETATM   15  C   UNL     1      -8.783   3.682  66.651  1.00  0.00    -0.122 A  
HETATM   16  C   UNL     1      -8.816   4.830  67.452  1.00  0.00    -0.106 A  
HETATM   17  C   UNL     1     -10.250   6.211  70.484  1.00  0.00    -0.199 A  
HETATM   18  H   UNL     1      -9.331   4.475  73.818  1.00  0.00     0.000 HD 
HETATM   19  C   UNL     1     -11.180   7.241  70.261  1.00  0.00    -0.287 A  
HETATM   20  C   UNL     1     -12.239   7.462  71.144  1.00  0.00    -0.357 A  
HETATM   21  C   UNL     1     -12.380   6.650  72.263  1.00  0.00    -0.146 A  
HETATM   22  C   UNL     1     -11.460   5.632  72.503  1.00  0.00    -0.335 A  
ENDBRANCH   2   6
TORSDOF 1
ENDMDL
MODEL      128
REMARK 921   NORMALIZED FREE ENERGY PREDICTED BY IDOCK:   -3.36 KCAL/MOL
REMARK 922        TOTAL FREE ENERGY PREDICTED BY IDOCK:   -3.58 KCAL/MOL
REMARK 923 INTER-LIGAND FREE ENERGY PREDICTED BY IDOCK:   -3.58 KCAL/MOL
REMARK 924 INTRA-LIGAND FREE ENERGY PREDICTED BY IDOCK:    0.00 KCAL/MOL
REMARK 927      BINDING AFFINITY PREDICTED BY RF-SCORE:    0.00 PKD
ROOT
HETATM    1  N   UNL     1     -10.078  10.964  70.003  1.00  0.00    -0.246 N  
HETATM    2  C   UNL     1      -9.064  10.119  69.638  1.00  0.00    -0.174 C  
HETATM    3  H1  UNL     1     -10.609  10.704  70.834  1.00  0.00     0.000 HD 
HETATM    4  H2  UNL     1     -10.290  11.810  69.472  1.00  0.00     0.000 HD 
HETATM    5  O   UNL     1      -8.425  10.432  68.638  1.00  0.00    -0.115 OA 
ENDROOT
BRANCH   2   6
HETATM    6  N   UNL     1      -8.825   9.045  70.520  1.00  0.00    -0.188 N  
HETATM    7  C   UNL     1      -7.638   8.992  71.359  1.00  0.00    -0.039 A  
HETATM    8  C   UNL     1      -7.558   8.316  72.603  1.00  0.00    -0.160 A  
HETATM    9  C   UNL     1      -8.686   7.619  73.330  1.00  0.00    -0.253 C  
HETATM   10  C   UNL     1      -6.328   8.293  73.310  1.00  0.00    -0.111 A  
HETATM   11  C   UNL     1      -5.194   8.943  72.836  1.00  0.00    -0.071 A  
HETATM   12  C   UNL     1     -10.098   7.852  72.814  1.00  0.00    -0.300 C  
HETATM   13  O   UNL     1     -11.043   7.285  73.728  1.00  0.00    -0.557 OA 
HETATM   14  C   UNL     1     -10.207   7.213  71.459  1.00  0.00    -0.210 A  
HETATM   15  C   UNL     1      -5.264   9.623  71.637  1.00  0.00    -0.074 A  
HETATM   16  C   UNL     1      -6.463   9.639  70.914  1.00  0.00    -0.083 A  
HETATM   17  C   UNL     1      -9.550   7.812  70.374  1.00  0.00    -0.175 A  
HETATM   18  H   UNL     1     -11.925   7.431  73.405  1.00  0.00     0.000 HD 
HETATM   19  C   UNL     1      -9.653   7.224  69.102  1.00  0.00    -0.155 A  
HETATM   20  C   UNL     1     -10.381   6.049  68.906  1.00  0.00    -0.273 A  
HETATM   21  C   UNL     1     -11.015   5.447  69.987  1.00  0.00    -0.058 A  
HETATM   22  C   UNL     1     -10.932   6.025  71.251  1.00  0.00    -0.340 A  
ENDBRANCH   2   6
TORSDOF 1
ENDMDL
MODEL      129
REMARK 921   NORMALIZED FREE ENERGY PREDICTED BY IDOCK:   -3.35 KCAL/MOL
REMARK 922        TOTAL FREE ENERGY PREDICTED BY IDOCK:   -3.56 KCAL/MOL
REMARK 923 INTER-LIGAND FREE ENERGY PREDICTED BY IDOCK:   -3.88 KCAL/MOL
REMARK 924 INTRA-LIGAND FREE ENERGY PREDICTED BY IDOCK:    0.31 KCAL/MOL
REMARK 927      BINDING AFFINITY PREDICTED BY RF-SCORE:    0.00 PKD
ROOT
HETATM    1  N   UNL     1     -11.438  12.488  70.375  1.00  0.00    -0.414 N  
HETATM    2  C   UNL     1     -11.639  12.015  69.106  1.00  0.00    -0.312 C  
HETATM    3  H1  UNL     1     -10.488  12.777  70.608  1.00  0.00     0.000 HD 
HETATM    4  H2  UNL     1     -12.199  12.548  71.053  1.00  0.00     0.000 HD 
HETATM    5  O   UNL     1     -12.782  11.667  68.826  1.00  0.00     0.106 OA 
ENDROOT
BRANCH   2   6
HETATM    6  N   UNL     1     -10.518  12.082  68.252  1.00  0.00    -0.198 N  
HETATM    7  C   UNL     1      -9.437  11.111  68.328  1.00  0.00    -0.182 A  
HETATM    8  C   UNL     1      -8.597  10.751  67.244  1.00  0.00    -0.130 A  
HETATM    9  C   UNL     1      -8.718  11.219  65.810  1.00  0.00    -0.111 C  
HETATM   10  C   UNL     1      -7.542   9.826  67.452  1.00  0.00    -0.091 A  
HETATM   11  C   UNL     1      -7.319   9.230  68.687  1.00  0.00    -0.076 A  
HETATM   12  C   UNL     1      -9.989  11.959  65.422  1.00  0.00    -0.252 C  
HETATM   13  O   UNL     1     -10.019  12.149  64.004  1.00  0.00    -0.434 OA 
HETATM   14  C   UNL     1      -9.997  13.277  66.143  1.00  0.00    -0.295 A  
HETATM   15  C   UNL     1      -8.143   9.554  69.747  1.00  0.00    -0.143 A  
HETATM   16  C   UNL     1      -9.176  10.482  69.567  1.00  0.00    -0.072 A  
HETATM   17  C   UNL     1     -10.232  13.289  67.526  1.00  0.00    -0.222 A  
HETATM   18  H   UNL     1     -10.814  12.610  63.761  1.00  0.00     0.000 HD 
HETATM   19  C   UNL     1     -10.248  14.519  68.206  1.00  0.00    -0.234 A  
HETATM   20  C   UNL     1     -10.015  15.720  67.533  1.00  0.00    -0.236 A  
HETATM   21  C   UNL     1      -9.763  15.702  66.166  1.00  0.00    -0.348 A  
HETATM   22  C   UNL     1      -9.757  14.492  65.477  1.00  0.00    -0.232 A  
ENDBRANCH   2   6
TORSDOF 1
ENDMDL
MODEL      130
REMARK 921   NORMALIZED FREE ENERGY PREDICTED BY IDOCK:   -3.34 KCAL/MOL
REMARK 922        TOTAL FREE ENERGY PREDICTED BY IDOCK:   -3.56 KCAL/MOL
REMARK 923 INTER-LIGAND FREE ENERGY PREDICTED BY IDOCK:   -3.55 KCAL/MOL
REMARK 924 INTRA-LIGAND FREE ENERGY PREDICTED BY IDOCK:   -0.01 KCAL/MOL
REMARK 927      BINDING AFFINITY PREDICTED BY RF-SCORE:    0.00 PKD
ROOT
HETATM    1  N   UNL     1      -8.755   9.890  66.350  1.00  0.00    -0.131 N  
HETATM    2  C   UNL     1      -8.221  10.697  67.319  1.00  0.00    -0.116 C  
HETATM    3  H1  UNL     1      -9.485   9.244  66.649  1.00  0.00     0.000 HD 
HETATM    4  H2  UNL     1      -8.440   9.934  65.381  1.00  0.00     0.000 HD 
HETATM    5  O   UNL     1      -7.342  11.476  66.959  1.00  0.00    -0.130 OA 
ENDROOT
BRANCH   2   6
HETATM    6  N   UNL     1      -8.823  10.595  68.590  1.00  0.00    -0.144 N  
HETATM    7  C   UNL     1     -10.048  11.309  68.918  1.00  0.00    -0.170 A  
HETATM    8  C   UNL     1     -10.995  10.886  69.885  1.00  0.00    -0.266 A  
HETATM    9  C   UNL     1     -10.969   9.596  70.675  1.00  0.00    -0.386 C  
HETATM   10  C   UNL     1     -12.130  11.693  70.154  1.00  0.00    -0.414 A  
HETATM   11  C   UNL     1     -12.366  12.881  69.473  1.00  0.00    -0.040 A  
HETATM   12  C   UNL     1      -9.973   8.532  70.240  1.00  0.00    -0.183 C  
HETATM   13  O   UNL     1     -10.221   7.320  70.961  1.00  0.00    -0.193 OA 
HETATM   14  C   UNL     1      -8.590   9.050  70.516  1.00  0.00    -0.229 A  
HETATM   15  C   UNL     1     -11.464  13.294  68.513  1.00  0.00    -0.347 A  
HETATM   16  C   UNL     1     -10.326  12.523  68.249  1.00  0.00    -0.241 A  
HETATM   17  C   UNL     1      -8.079  10.075  69.705  1.00  0.00    -0.172 A  
HETATM   18  H   UNL     1      -9.599   6.655  70.690  1.00  0.00     0.000 HD 
HETATM   19  C   UNL     1      -6.783  10.560  69.951  1.00  0.00    -0.142 A  
HETATM   20  C   UNL     1      -6.010  10.055  70.997  1.00  0.00    -0.055 A  
HETATM   21  C   UNL     1      -6.527   9.053  71.811  1.00  0.00    -0.033 A  
HETATM   22  C   UNL     1      -7.804   8.554  71.571  1.00  0.00    -0.158 A  
ENDBRANCH   2   6
TORSDOF 1
ENDMDL
MODEL      131
REMARK 921   NORMALIZED FREE ENERGY PREDICTED BY IDOCK:   -3.33 KCAL/MOL
REMARK 922        TOTAL FREE ENERGY PREDICTED BY IDOCK:   -3.54 KCAL/MOL
REMARK 923 INTER-LIGAND FREE ENERGY PREDICTED BY IDOCK:   -3.64 KCAL/MOL
REMARK 924 INTRA-LIGAND FREE ENERGY PREDICTED BY IDOCK:    0.10 KCAL/MOL
REMARK 927      BINDING AFFINITY PREDICTED BY RF-SCORE:    0.00 PKD
ROOT
HETATM    1  N   UNL     1     -11.429   5.960  73.015  1.00  0.00    -0.497 N  
HETATM    2  C   UNL     1     -11.567   6.421  71.733  1.00  0.00    -0.316 C  
HETATM    3  H1  UNL     1     -10.476   5.801  73.341  1.00  0.00     0.000 HD 
HETATM    4  H2  UNL     1     -12.238   5.787  73.614  1.00  0.00     0.000 HD 
HETATM    5  O   UNL     1     -12.714   6.614  71.341  1.00  0.00    -0.304 OA 
ENDROOT
BRANCH   2   6
HETATM    6  N   UNL     1     -10.360   6.708  71.061  1.00  0.00    -0.206 N  
HETATM    7  C   UNL     1     -10.068   8.036  70.543  1.00  0.00    -0.192 A  
HETATM    8  C   UNL     1      -8.765   8.565  70.367  1.00  0.00    -0.153 A  
HETATM    9  C   UNL     1      -7.460   7.910  70.764  1.00  0.00    -0.072 C  
HETATM   10  C   UNL     1      -8.603   9.858  69.805  1.00  0.00    -0.219 A  
HETATM   11  C   UNL     1      -9.690  10.645  69.447  1.00  0.00    -0.141 A  
HETATM   12  C   UNL     1      -7.539   6.675  71.647  1.00  0.00    -0.093 C  
HETATM   13  O   UNL     1      -6.225   6.310  72.082  1.00  0.00    -0.041 OA 
HETATM   14  C   UNL     1      -8.168   5.571  70.845  1.00  0.00    -0.118 A  
HETATM   15  C   UNL     1     -10.966  10.151  69.632  1.00  0.00    -0.305 A  
HETATM   16  C   UNL     1     -11.146   8.869  70.165  1.00  0.00    -0.217 A  
HETATM   17  C   UNL     1      -9.539   5.640  70.559  1.00  0.00    -0.174 A  
HETATM   18  H   UNL     1      -6.274   5.538  72.634  1.00  0.00     0.000 HD 
HETATM   19  C   UNL     1     -10.136   4.608  69.815  1.00  0.00    -0.243 A  
HETATM   20  C   UNL     1      -9.384   3.530  69.343  1.00  0.00    -0.243 A  
HETATM   21  C   UNL     1      -8.021   3.475  69.611  1.00  0.00    -0.056 A  
HETATM   22  C   UNL     1      -7.419   4.485  70.357  1.00  0.00    -0.050 A  
ENDBRANCH   2   6
TORSDOF 1
ENDMDL
MODEL      132
REMARK 921   NORMALIZED FREE ENERGY PREDICTED BY IDOCK:   -3.31 KCAL/MOL
REMARK 922        TOTAL FREE ENERGY PREDICTED BY IDOCK:   -3.53 KCAL/MOL
REMARK 923 INTER-LIGAND FREE ENERGY PREDICTED BY IDOCK:   -3.91 KCAL/MOL
REMARK 924 INTRA-LIGAND FREE ENERGY PREDICTED BY IDOCK:    0.38 KCAL/MOL
REMARK 927      BINDING AFFINITY PREDICTED BY RF-SCORE:    0.00 PKD
ROOT
HETATM    1  N   UNL     1     -12.094   7.000  69.961  1.00  0.00    -0.606 N  
HETATM    2  C   UNL     1     -10.824   6.967  69.449  1.00  0.00    -0.249 C  
HETATM    3  H1  UNL     1     -12.262   7.666  70.715  1.00  0.00     0.000 HD 
HETATM    4  H2  UNL     1     -12.832   6.391  69.607  1.00  0.00     0.000 HD 
HETATM    5  O   UNL     1     -10.621   6.165  68.541  1.00  0.00    -0.212 OA 
ENDROOT
BRANCH   2   6
HETATM    6  N   UNL     1      -9.937   7.932  69.970  1.00  0.00    -0.189 N  
HETATM    7  C   UNL     1      -9.499   7.901  71.357  1.00  0.00    -0.150 A  
HETATM    8  C   UNL     1      -8.269   8.426  71.827  1.00  0.00    -0.200 A  
HETATM    9  C   UNL     1      -7.157   9.017  70.989  1.00  0.00    -0.103 C  
HETATM   10  C   UNL     1      -7.973   8.383  73.214  1.00  0.00    -0.155 A  
HETATM   11  C   UNL     1      -8.841   7.810  74.134  1.00  0.00    -0.256 A  
HETATM   12  C   UNL     1      -7.242   8.827  69.482  1.00  0.00    -0.059 C  
HETATM   13  O   UNL     1      -6.024   9.269  68.873  1.00  0.00    -0.043 OA 
HETATM   14  C   UNL     1      -8.415   9.621  68.980  1.00  0.00    -0.131 A  
HETATM   15  C   UNL     1     -10.033   7.275  73.687  1.00  0.00    -0.377 A  
HETATM   16  C   UNL     1     -10.354   7.328  72.326  1.00  0.00    -0.239 A  
HETATM   17  C   UNL     1      -9.711   9.163  69.264  1.00  0.00    -0.164 A  
HETATM   18  H   UNL     1      -6.078   9.150  67.931  1.00  0.00     0.000 HD 
HETATM   19  C   UNL     1     -10.813   9.896  68.792  1.00  0.00    -0.240 A  
HETATM   20  C   UNL     1     -10.639  11.076  68.066  1.00  0.00    -0.241 A  
HETATM   21  C   UNL     1      -9.354  11.537  67.804  1.00  0.00    -0.168 A  
HETATM   22  C   UNL     1      -8.252  10.814  68.255  1.00  0.00    -0.124 A  
ENDBRANCH   2   6
TORSDOF 1
ENDMDL
MODEL      133
REMARK 921   NORMALIZED FREE ENERGY PREDICTED BY IDOCK:   -3.30 KCAL/MOL
REMARK 922        TOTAL FREE ENERGY PREDICTED BY IDOCK:   -3.52 KCAL/MOL
REMARK 923 INTER-LIGAND FREE ENERGY PREDICTED BY IDOCK:   -3.50 KCAL/MOL
REMARK 924 INTRA-LIGAND FREE ENERGY PREDICTED BY IDOCK:   -0.02 KCAL/MOL
REMARK 927      BINDING AFFINITY PREDICTED BY RF-SCORE:    0.00 PKD
ROOT
HETATM    1  N   UNL     1      -9.841   8.894  71.702  1.00  0.00    -0.307 N  
HETATM    2  C   UNL     1      -8.652   8.310  71.356  1.00  0.00    -0.149 C  
HETATM    3  H1  UNL     1     -10.639   8.691  71.100  1.00  0.00     0.000 HD 
HETATM    4  H2  UNL     1      -9.925   9.500  72.519  1.00  0.00     0.000 HD 
HETATM    5  O   UNL     1      -7.692   8.555  72.082  1.00  0.00    -0.181 OA 
ENDROOT
BRANCH   2   6
HETATM    6  N   UNL     1      -8.710   7.422  70.263  1.00  0.00    -0.145 N  
HETATM    7  C   UNL     1      -8.666   5.979  70.444  1.00  0.00    -0.144 A  
HETATM    8  C   UNL     1      -9.242   5.036  69.556  1.00  0.00    -0.167 A  
HETATM    9  C   UNL     1     -10.078   5.337  68.331  1.00  0.00    -0.224 C  
HETATM   10  C   UNL     1      -9.091   3.649  69.812  1.00  0.00    -0.193 A  
HETATM   11  C   UNL     1      -8.418   3.177  70.932  1.00  0.00    -0.100 A  
HETATM   12  C   UNL     1     -10.554   6.770  68.147  1.00  0.00    -0.230 C  
HETATM   13  O   UNL     1     -11.484   6.830  67.060  1.00  0.00    -0.735 OA 
HETATM   14  C   UNL     1      -9.351   7.627  67.876  1.00  0.00    -0.146 A  
HETATM   15  C   UNL     1      -7.870   4.084  71.817  1.00  0.00    -0.071 A  
HETATM   16  C   UNL     1      -7.989   5.457  71.570  1.00  0.00    -0.115 A  
HETATM   17  C   UNL     1      -8.464   7.898  68.929  1.00  0.00    -0.128 A  
HETATM   18  H   UNL     1     -11.782   7.725  66.945  1.00  0.00     0.000 HD 
HETATM   19  C   UNL     1      -7.340   8.705  68.685  1.00  0.00    -0.081 A  
HETATM   20  C   UNL     1      -7.084   9.223  67.414  1.00  0.00    -0.079 A  
HETATM   21  C   UNL     1      -7.955   8.937  66.369  1.00  0.00    -0.103 A  
HETATM   22  C   UNL     1      -9.079   8.148  66.599  1.00  0.00    -0.202 A  
ENDBRANCH   2   6
TORSDOF 1
ENDMDL
MODEL      134
REMARK 921   NORMALIZED FREE ENERGY PREDICTED BY IDOCK:   -3.30 KCAL/MOL
REMARK 922        TOTAL FREE ENERGY PREDICTED BY IDOCK:   -3.51 KCAL/MOL
REMARK 923 INTER-LIGAND FREE ENERGY PREDICTED BY IDOCK:   -3.48 KCAL/MOL
REMARK 924 INTRA-LIGAND FREE ENERGY PREDICTED BY IDOCK:   -0.04 KCAL/MOL
REMARK 927      BINDING AFFINITY PREDICTED BY RF-SCORE:    0.00 PKD
ROOT
HETATM    1  N   UNL     1     -10.949   4.833  65.582  1.00  0.00    -0.875 N  
HETATM    2  C   UNL     1      -9.657   4.921  66.028  1.00  0.00    -0.176 C  
HETATM    3  H1  UNL     1     -11.672   5.175  66.214  1.00  0.00     0.000 HD 
HETATM    4  H2  UNL     1     -11.175   4.445  64.665  1.00  0.00     0.000 HD 
HETATM    5  O   UNL     1      -8.786   4.509  65.267  1.00  0.00    -0.129 OA 
ENDROOT
BRANCH   2   6
HETATM    6  N   UNL     1      -9.490   5.568  67.271  1.00  0.00    -0.114 N  
HETATM    7  C   UNL     1      -9.318   7.009  67.367  1.00  0.00    -0.126 A  
HETATM    8  C   UNL     1      -9.681   7.792  68.492  1.00  0.00    -0.165 A  
HETATM    9  C   UNL     1     -10.390   7.312  69.740  1.00  0.00    -0.227 C  
HETATM   10  C   UNL     1      -9.419   9.186  68.490  1.00  0.00    -0.151 A  
HETATM   11  C   UNL     1      -8.840   9.824  67.400  1.00  0.00    -0.137 A  
HETATM   12  C   UNL     1     -10.987   5.913  69.708  1.00  0.00    -0.382 C  
HETATM   13  O   UNL     1     -11.780   5.703  70.881  1.00  0.00     0.182 OA 
HETATM   14  C   UNL     1      -9.856   4.927  69.638  1.00  0.00    -0.288 A  
HETATM   15  C   UNL     1      -8.501   9.077  66.289  1.00  0.00    -0.132 A  
HETATM   16  C   UNL     1      -8.732   7.697  66.280  1.00  0.00    -0.170 A  
HETATM   17  C   UNL     1      -9.135   4.810  68.439  1.00  0.00    -0.117 A  
HETATM   18  H   UNL     1     -12.153   4.830  70.862  1.00  0.00     0.000 HD 
HETATM   19  C   UNL     1      -8.080   3.885  68.364  1.00  0.00    -0.078 A  
HETATM   20  C   UNL     1      -7.728   3.099  69.463  1.00  0.00    -0.048 A  
HETATM   21  C   UNL     1      -8.432   3.232  70.654  1.00  0.00    -0.101 A  
HETATM   22  C   UNL     1      -9.488   4.136  70.740  1.00  0.00    -0.242 A  
ENDBRANCH   2   6
TORSDOF 1
ENDMDL
MODEL      135
REMARK 921   NORMALIZED FREE ENERGY PREDICTED BY IDOCK:   -3.26 KCAL/MOL
REMARK 922        TOTAL FREE ENERGY PREDICTED BY IDOCK:   -3.47 KCAL/MOL
REMARK 923 INTER-LIGAND FREE ENERGY PREDICTED BY IDOCK:   -3.66 KCAL/MOL
REMARK 924 INTRA-LIGAND FREE ENERGY PREDICTED BY IDOCK:    0.19 KCAL/MOL
REMARK 927      BINDING AFFINITY PREDICTED BY RF-SCORE:    0.00 PKD
ROOT
HETATM    1  N   UNL     1     -11.316  10.375  69.394  1.00  0.00    -0.280 N  
HETATM    2  C   UNL     1     -10.402  10.094  68.414  1.00  0.00    -0.183 C  
HETATM    3  H1  UNL     1     -11.382  11.350  69.688  1.00  0.00     0.000 HD 
HETATM    4  H2  UNL     1     -11.900   9.649  69.809  1.00  0.00     0.000 HD 
HETATM    5  O   UNL     1     -10.323   8.921  68.061  1.00  0.00    -0.204 OA 
ENDROOT
BRANCH   2   6
HETATM    6  N   UNL     1      -9.738  11.212  67.867  1.00  0.00    -0.171 N  
HETATM    7  C   UNL     1     -10.449  12.229  67.108  1.00  0.00    -0.219 A  
HETATM    8  C   UNL     1     -10.044  13.584  66.998  1.00  0.00    -0.244 A  
HETATM    9  C   UNL     1      -8.883  14.243  67.708  1.00  0.00    -0.185 C  
HETATM   10  C   UNL     1     -10.793  14.475  66.186  1.00  0.00    -0.317 A  
HETATM   11  C   UNL     1     -11.938  14.070  65.512  1.00  0.00    -0.393 A  
HETATM   12  C   UNL     1      -8.215  13.461  68.828  1.00  0.00     0.066 C  
HETATM   13  O   UNL     1      -7.280  14.303  69.511  1.00  0.00    -0.279 OA 
HETATM   14  C   UNL     1      -7.525  12.274  68.217  1.00  0.00    -0.119 A  
HETATM   15  C   UNL     1     -12.356  12.759  65.627  1.00  0.00    -0.444 A  
HETATM   16  C   UNL     1     -11.619  11.859  66.406  1.00  0.00    -0.315 A  
HETATM   17  C   UNL     1      -8.307  11.212  67.738  1.00  0.00    -0.123 A  
HETATM   18  H   UNL     1      -6.863  13.815  70.211  1.00  0.00     0.000 HD 
HETATM   19  C   UNL     1      -7.669  10.095  67.171  1.00  0.00    -0.092 A  
HETATM   20  C   UNL     1      -6.279  10.035  67.063  1.00  0.00    -0.063 A  
HETATM   21  C   UNL     1      -5.508  11.098  67.522  1.00  0.00    -0.043 A  
HETATM   22  C   UNL     1      -6.126  12.206  68.096  1.00  0.00    -0.055 A  
ENDBRANCH   2   6
TORSDOF 1
ENDMDL
MODEL      136
REMARK 921   NORMALIZED FREE ENERGY PREDICTED BY IDOCK:   -3.26 KCAL/MOL
REMARK 922        TOTAL FREE ENERGY PREDICTED BY IDOCK:   -3.47 KCAL/MOL
REMARK 923 INTER-LIGAND FREE ENERGY PREDICTED BY IDOCK:   -4.59 KCAL/MOL
REMARK 924 INTRA-LIGAND FREE ENERGY PREDICTED BY IDOCK:    1.12 KCAL/MOL
REMARK 927      BINDING AFFINITY PREDICTED BY RF-SCORE:    0.00 PKD
ROOT
HETATM    1  N   UNL     1      -6.875  11.866  66.470  1.00  0.00    -0.373 N  
HETATM    2  C   UNL     1      -8.202  11.636  66.723  1.00  0.00    -0.161 C  
HETATM    3  H1  UNL     1      -6.443  12.636  66.979  1.00  0.00     0.000 HD 
HETATM    4  H2  UNL     1      -6.348  11.296  65.808  1.00  0.00     0.000 HD 
HETATM    5  O   UNL     1      -8.723  10.708  66.110  1.00  0.00    -0.158 OA 
ENDROOT
BRANCH   2   6
HETATM    6  N   UNL     1      -8.772  12.439  67.733  1.00  0.00    -0.166 N  
HETATM    7  C   UNL     1      -8.146  13.676  68.173  1.00  0.00    -0.156 A  
HETATM    8  C   UNL     1      -8.842  14.780  68.727  1.00  0.00    -0.179 A  
HETATM    9  C   UNL     1     -10.340  14.925  68.875  1.00  0.00    -0.244 C  
HETATM   10  C   UNL     1      -8.116  15.917  69.168  1.00  0.00    -0.239 A  
HETATM   11  C   UNL     1      -6.734  16.000  69.045  1.00  0.00    -0.157 A  
HETATM   12  C   UNL     1     -11.214  13.908  68.157  1.00  0.00    -0.268 C  
HETATM   13  O   UNL     1     -12.586  14.309  68.241  1.00  0.00    -0.494 OA 
HETATM   14  C   UNL     1     -11.002  12.572  68.809  1.00  0.00    -0.294 A  
HETATM   15  C   UNL     1      -6.046  14.941  68.487  1.00  0.00    -0.093 A  
HETATM   16  C   UNL     1      -6.742  13.802  68.067  1.00  0.00    -0.140 A  
HETATM   17  C   UNL     1      -9.787  11.902  68.598  1.00  0.00    -0.131 A  
HETATM   18  H   UNL     1     -13.132  13.674  67.792  1.00  0.00     0.000 HD 
HETATM   19  C   UNL     1      -9.583  10.648  69.199  1.00  0.00    -0.193 A  
HETATM   20  C   UNL     1     -10.559  10.071  70.014  1.00  0.00    -0.344 A  
HETATM   21  C   UNL     1     -11.754  10.746  70.237  1.00  0.00    -0.442 A  
HETATM   22  C   UNL     1     -11.974  11.984  69.638  1.00  0.00    -0.360 A  
ENDBRANCH   2   6
TORSDOF 1
ENDMDL
MODEL      137
REMARK 921   NORMALIZED FREE ENERGY PREDICTED BY IDOCK:   -3.24 KCAL/MOL
REMARK 922        TOTAL FREE ENERGY PREDICTED BY IDOCK:   -3.45 KCAL/MOL
REMARK 923 INTER-LIGAND FREE ENERGY PREDICTED BY IDOCK:   -4.32 KCAL/MOL
REMARK 924 INTRA-LIGAND FREE ENERGY PREDICTED BY IDOCK:    0.87 KCAL/MOL
REMARK 927      BINDING AFFINITY PREDICTED BY RF-SCORE:    0.00 PKD
ROOT
HETATM    1  N   UNL     1      -6.319  16.038  70.024  1.00  0.00    -0.142 N  
HETATM    2  C   UNL     1      -6.164  16.993  69.054  1.00  0.00    -0.190 C  
HETATM    3  H1  UNL     1      -7.171  15.479  69.979  1.00  0.00     0.000 HD 
HETATM    4  H2  UNL     1      -5.619  15.892  70.752  1.00  0.00     0.000 HD 
HETATM    5  O   UNL     1      -5.138  17.665  69.108  1.00  0.00    -0.167 OA 
ENDROOT
BRANCH   2   6
HETATM    6  N   UNL     1      -7.163  17.012  68.059  1.00  0.00    -0.164 N  
HETATM    7  C   UNL     1      -7.875  15.806  67.665  1.00  0.00    -0.150 A  
HETATM    8  C   UNL     1      -9.189  15.782  67.132  1.00  0.00    -0.224 A  
HETATM    9  C   UNL     1     -10.121  16.962  66.965  1.00  0.00    -0.289 C  
HETATM   10  C   UNL     1      -9.763  14.546  66.737  1.00  0.00    -0.269 A  
HETATM   11  C   UNL     1      -9.087  13.341  66.884  1.00  0.00    -0.235 A  
HETATM   12  C   UNL     1      -9.723  18.266  67.639  1.00  0.00    -0.300 C  
HETATM   13  O   UNL     1     -10.801  19.203  67.544  1.00  0.00    -0.473 OA 
HETATM   14  C   UNL     1      -8.493  18.787  66.951  1.00  0.00    -0.285 A  
HETATM   15  C   UNL     1      -7.815  13.347  67.422  1.00  0.00    -0.154 A  
HETATM   16  C   UNL     1      -7.223  14.559  67.798  1.00  0.00    -0.192 A  
HETATM   17  C   UNL     1      -7.272  18.130  67.163  1.00  0.00    -0.199 A  
HETATM   18  H   UNL     1     -10.553  20.018  67.965  1.00  0.00     0.000 HD 
HETATM   19  C   UNL     1      -6.115  18.616  66.529  1.00  0.00    -0.182 A  
HETATM   20  C   UNL     1      -6.167  19.724  65.682  1.00  0.00    -0.235 A  
HETATM   21  C   UNL     1      -7.383  20.361  65.459  1.00  0.00    -0.124 A  
HETATM   22  C   UNL     1      -8.535  19.898  66.090  1.00  0.00    -0.350 A  
ENDBRANCH   2   6
TORSDOF 1
ENDMDL
MODEL      138
REMARK 921   NORMALIZED FREE ENERGY PREDICTED BY IDOCK:   -3.18 KCAL/MOL
REMARK 922        TOTAL FREE ENERGY PREDICTED BY IDOCK:   -3.39 KCAL/MOL
REMARK 923 INTER-LIGAND FREE ENERGY PREDICTED BY IDOCK:   -3.37 KCAL/MOL
REMARK 924 INTRA-LIGAND FREE ENERGY PREDICTED BY IDOCK:   -0.02 KCAL/MOL
REMARK 927      BINDING AFFINITY PREDICTED BY RF-SCORE:    0.00 PKD
ROOT
HETATM    1  N   UNL     1     -11.799   7.584  70.116  1.00  0.00    -0.494 N  
HETATM    2  C   UNL     1     -10.437   7.531  70.241  1.00  0.00    -0.222 C  
HETATM    3  H1  UNL     1     -12.162   7.832  69.195  1.00  0.00     0.000 HD 
HETATM    4  H2  UNL     1     -12.419   7.386  70.902  1.00  0.00     0.000 HD 
HETATM    5  O   UNL     1     -10.001   7.233  71.349  1.00  0.00    -0.187 OA 
ENDROOT
BRANCH   2   6
HETATM    6  N   UNL     1      -9.712   7.731  69.048  1.00  0.00    -0.156 N  
HETATM    7  C   UNL     1      -9.453   6.644  68.117  1.00  0.00    -0.115 A  
HETATM    8  C   UNL     1      -9.250   6.806  66.723  1.00  0.00    -0.172 A  
HETATM    9  C   UNL     1      -9.357   8.093  65.935  1.00  0.00    -0.126 C  
HETATM   10  C   UNL     1      -8.955   5.673  65.921  1.00  0.00    -0.160 A  
HETATM   11  C   UNL     1      -8.889   4.391  66.454  1.00  0.00    -0.114 A  
HETATM   12  C   UNL     1      -9.967   9.294  66.640  1.00  0.00    -0.264 C  
HETATM   13  O   UNL     1     -10.169  10.352  65.698  1.00  0.00    -0.267 OA 
HETATM   14  C   UNL     1      -9.025   9.718  67.732  1.00  0.00    -0.132 A  
HETATM   15  C   UNL     1      -9.106   4.216  67.807  1.00  0.00    -0.164 A  
HETATM   16  C   UNL     1      -9.376   5.324  68.618  1.00  0.00    -0.155 A  
HETATM   17  C   UNL     1      -8.912   8.913  68.876  1.00  0.00    -0.137 A  
HETATM   18  H   UNL     1     -10.551  11.103  66.139  1.00  0.00     0.000 HD 
HETATM   19  C   UNL     1      -8.039   9.306  69.905  1.00  0.00    -0.125 A  
HETATM   20  C   UNL     1      -7.273  10.468  69.798  1.00  0.00    -0.152 A  
HETATM   21  C   UNL     1      -7.374  11.253  68.654  1.00  0.00    -0.109 A  
HETATM   22  C   UNL     1      -8.244  10.882  67.632  1.00  0.00    -0.116 A  
ENDBRANCH   2   6
TORSDOF 1
ENDMDL
MODEL      139
REMARK 921   NORMALIZED FREE ENERGY PREDICTED BY IDOCK:   -3.16 KCAL/MOL
REMARK 922        TOTAL FREE ENERGY PREDICTED BY IDOCK:   -3.36 KCAL/MOL
REMARK 923 INTER-LIGAND FREE ENERGY PREDICTED BY IDOCK:   -3.76 KCAL/MOL
REMARK 924 INTRA-LIGAND FREE ENERGY PREDICTED BY IDOCK:    0.39 KCAL/MOL
REMARK 927      BINDING AFFINITY PREDICTED BY RF-SCORE:    0.00 PKD
ROOT
HETATM    1  N   UNL     1     -12.324   6.853  70.099  1.00  0.00    -0.578 N  
HETATM    2  C   UNL     1     -11.145   6.376  69.589  1.00  0.00    -0.401 C  
HETATM    3  H1  UNL     1     -12.307   7.158  71.072  1.00  0.00     0.000 HD 
HETATM    4  H2  UNL     1     -13.173   6.900  69.535  1.00  0.00     0.000 HD 
HETATM    5  O   UNL     1     -11.165   6.009  68.418  1.00  0.00    -0.287 OA 
ENDROOT
BRANCH   2   6
HETATM    6  N   UNL     1     -10.034   6.462  70.453  1.00  0.00    -0.182 N  
HETATM    7  C   UNL     1      -9.969   5.707  71.695  1.00  0.00    -0.174 A  
HETATM    8  C   UNL     1      -8.768   5.292  72.325  1.00  0.00    -0.129 A  
HETATM    9  C   UNL     1      -7.361   5.462  71.796  1.00  0.00    -0.090 C  
HETATM   10  C   UNL     1      -8.829   4.601  73.563  1.00  0.00    -0.105 A  
HETATM   11  C   UNL     1     -10.038   4.285  74.171  1.00  0.00    -0.224 A  
HETATM   12  C   UNL     1      -7.209   5.906  70.349  1.00  0.00    -0.072 C  
HETATM   13  O   UNL     1      -5.833   5.823  69.964  1.00  0.00    -0.022 OA 
HETATM   14  C   UNL     1      -7.716   7.316  70.240  1.00  0.00    -0.094 A  
HETATM   15  C   UNL     1     -11.216   4.664  73.557  1.00  0.00    -0.400 A  
HETATM   16  C   UNL     1     -11.176   5.366  72.347  1.00  0.00    -0.272 A  
HETATM   17  C   UNL     1      -9.098   7.545  70.324  1.00  0.00    -0.154 A  
HETATM   18  H   UNL     1      -5.738   6.100  69.060  1.00  0.00     0.000 HD 
HETATM   19  C   UNL     1      -9.580   8.861  70.216  1.00  0.00    -0.212 A  
HETATM   20  C   UNL     1      -8.709   9.938  70.048  1.00  0.00    -0.188 A  
HETATM   21  C   UNL     1      -7.339   9.709  69.985  1.00  0.00    -0.130 A  
HETATM   22  C   UNL     1      -6.847   8.410  70.078  1.00  0.00    -0.042 A  
ENDBRANCH   2   6
TORSDOF 1
ENDMDL
MODEL      140
REMARK 921   NORMALIZED FREE ENERGY PREDICTED BY IDOCK:   -3.15 KCAL/MOL
REMARK 922        TOTAL FREE ENERGY PREDICTED BY IDOCK:   -3.36 KCAL/MOL
REMARK 923 INTER-LIGAND FREE ENERGY PREDICTED BY IDOCK:   -3.34 KCAL/MOL
REMARK 924 INTRA-LIGAND FREE ENERGY PREDICTED BY IDOCK:   -0.01 KCAL/MOL
REMARK 927      BINDING AFFINITY PREDICTED BY RF-SCORE:    0.00 PKD
ROOT
HETATM    1  N   UNL     1      -8.216  10.045  68.646  1.00  0.00    -0.106 N  
HETATM    2  C   UNL     1      -7.912   9.451  69.843  1.00  0.00    -0.130 C  
HETATM    3  H1  UNL     1      -8.698   9.464  67.961  1.00  0.00     0.000 HD 
HETATM    4  H2  UNL     1      -7.973  11.017  68.452  1.00  0.00     0.000 HD 
HETATM    5  O   UNL     1      -7.332  10.150  70.668  1.00  0.00    -0.306 OA 
ENDROOT
BRANCH   2   6
HETATM    6  N   UNL     1      -8.396   8.136  70.005  1.00  0.00    -0.120 N  
HETATM    7  C   UNL     1      -9.766   7.869  70.417  1.00  0.00    -0.179 A  
HETATM    8  C   UNL     1     -10.492   6.695  70.094  1.00  0.00    -0.248 A  
HETATM    9  C   UNL     1     -10.034   5.564  69.199  1.00  0.00    -0.256 C  
HETATM   10  C   UNL     1     -11.808   6.524  70.596  1.00  0.00    -0.398 A  
HETATM   11  C   UNL     1     -12.429   7.492  71.376  1.00  0.00    -0.382 A  
HETATM   12  C   UNL     1      -8.779   5.793  68.372  1.00  0.00    -0.111 C  
HETATM   13  O   UNL     1      -8.608   4.712  67.449  1.00  0.00    -0.104 OA 
HETATM   14  C   UNL     1      -7.612   5.888  69.314  1.00  0.00    -0.089 A  
HETATM   15  C   UNL     1     -11.741   8.650  71.681  1.00  0.00    -0.380 A  
HETATM   16  C   UNL     1     -10.434   8.827  71.213  1.00  0.00    -0.326 A  
HETATM   17  C   UNL     1      -7.479   7.035  70.111  1.00  0.00    -0.086 A  
HETATM   18  H   UNL     1      -7.824   4.855  66.932  1.00  0.00     0.000 HD 
HETATM   19  C   UNL     1      -6.387   7.133  70.990  1.00  0.00    -0.036 A  
HETATM   20  C   UNL     1      -5.449   6.104  71.095  1.00  0.00    -0.018 A  
HETATM   21  C   UNL     1      -5.595   4.961  70.318  1.00  0.00    -0.015 A  
HETATM   22  C   UNL     1      -6.666   4.855  69.434  1.00  0.00    -0.051 A  
ENDBRANCH   2   6
TORSDOF 1
ENDMDL
MODEL      141
REMARK 921   NORMALIZED FREE ENERGY PREDICTED BY IDOCK:   -3.13 KCAL/MOL
REMARK 922        TOTAL FREE ENERGY PREDICTED BY IDOCK:   -3.34 KCAL/MOL
REMARK 923 INTER-LIGAND FREE ENERGY PREDICTED BY IDOCK:   -3.65 KCAL/MOL
REMARK 924 INTRA-LIGAND FREE ENERGY PREDICTED BY IDOCK:    0.31 KCAL/MOL
REMARK 927      BINDING AFFINITY PREDICTED BY RF-SCORE:    0.00 PKD
ROOT
HETATM    1  N   UNL     1      -7.991  10.347  67.881  1.00  0.00    -0.101 N  
HETATM    2  C   UNL     1      -7.738  11.364  66.999  1.00  0.00    -0.154 C  
HETATM    3  H1  UNL     1      -8.345  10.619  68.798  1.00  0.00     0.000 HD 
HETATM    4  H2  UNL     1      -7.834   9.369  67.634  1.00  0.00     0.000 HD 
HETATM    5  O   UNL     1      -7.313  11.036  65.895  1.00  0.00    -0.089 OA 
ENDROOT
BRANCH   2   6
HETATM    6  N   UNL     1      -8.094  12.653  67.445  1.00  0.00    -0.173 N  
HETATM    7  C   UNL     1      -7.189  13.465  68.245  1.00  0.00    -0.111 A  
HETATM    8  C   UNL     1      -7.191  14.882  68.276  1.00  0.00    -0.114 A  
HETATM    9  C   UNL     1      -8.043  15.807  67.435  1.00  0.00    -0.193 C  
HETATM   10  C   UNL     1      -6.292  15.565  69.135  1.00  0.00    -0.120 A  
HETATM   11  C   UNL     1      -5.378  14.887  69.932  1.00  0.00    -0.098 A  
HETATM   12  C   UNL     1      -8.807  15.188  66.274  1.00  0.00    -0.176 C  
HETATM   13  O   UNL     1      -9.392  16.224  65.478  1.00  0.00    -0.424 OA 
HETATM   14  C   UNL     1      -9.863  14.284  66.844  1.00  0.00    -0.264 A  
HETATM   15  C   UNL     1      -5.350  13.507  69.895  1.00  0.00    -0.090 A  
HETATM   16  C   UNL     1      -6.245  12.814  69.071  1.00  0.00    -0.095 A  
HETATM   17  C   UNL     1      -9.470  13.071  67.429  1.00  0.00    -0.210 A  
HETATM   18  H   UNL     1      -9.869  15.837  64.753  1.00  0.00     0.000 HD 
HETATM   19  C   UNL     1     -10.452  12.216  67.958  1.00  0.00    -0.227 A  
HETATM   20  C   UNL     1     -11.804  12.564  67.927  1.00  0.00    -0.383 A  
HETATM   21  C   UNL     1     -12.188  13.775  67.364  1.00  0.00    -0.290 A  
HETATM   22  C   UNL     1     -11.227  14.626  66.825  1.00  0.00    -0.344 A  
ENDBRANCH   2   6
TORSDOF 1
ENDMDL
MODEL      142
REMARK 921   NORMALIZED FREE ENERGY PREDICTED BY IDOCK:   -3.11 KCAL/MOL
REMARK 922        TOTAL FREE ENERGY PREDICTED BY IDOCK:   -3.31 KCAL/MOL
REMARK 923 INTER-LIGAND FREE ENERGY PREDICTED BY IDOCK:   -3.66 KCAL/MOL
REMARK 924 INTRA-LIGAND FREE ENERGY PREDICTED BY IDOCK:    0.35 KCAL/MOL
REMARK 927      BINDING AFFINITY PREDICTED BY RF-SCORE:    0.00 PKD
ROOT
HETATM    1  N   UNL     1      -7.793   9.546  70.217  1.00  0.00    -0.154 N  
HETATM    2  C   UNL     1      -7.470   8.221  70.342  1.00  0.00    -0.067 C  
HETATM    3  H1  UNL     1      -8.779   9.761  70.068  1.00  0.00     0.000 HD 
HETATM    4  H2  UNL     1      -7.085  10.279  70.272  1.00  0.00     0.000 HD 
HETATM    5  O   UNL     1      -6.284   7.962  70.522  1.00  0.00    -0.036 OA 
ENDROOT
BRANCH   2   6
HETATM    6  N   UNL     1      -8.563   7.330  70.343  1.00  0.00    -0.143 N  
HETATM    7  C   UNL     1      -9.339   7.067  69.141  1.00  0.00    -0.140 A  
HETATM    8  C   UNL     1     -10.045   5.865  68.883  1.00  0.00    -0.231 A  
HETATM    9  C   UNL     1     -10.051   4.616  69.737  1.00  0.00    -0.243 C  
HETATM   10  C   UNL     1     -10.811   5.743  67.694  1.00  0.00    -0.264 A  
HETATM   11  C   UNL     1     -10.867   6.759  66.749  1.00  0.00    -0.296 A  
HETATM   12  C   UNL     1      -9.028   4.533  70.859  1.00  0.00    -0.119 C  
HETATM   13  O   UNL     1      -9.045   3.220  71.428  1.00  0.00    -0.089 OA 
HETATM   14  C   UNL     1      -9.382   5.571  71.887  1.00  0.00    -0.163 A  
HETATM   15  C   UNL     1     -10.167   7.927  66.977  1.00  0.00    -0.382 A  
HETATM   16  C   UNL     1      -9.424   8.075  68.154  1.00  0.00    -0.152 A  
HETATM   17  C   UNL     1      -9.164   6.923  71.584  1.00  0.00    -0.146 A  
HETATM   18  H   UNL     1      -8.405   3.168  72.129  1.00  0.00     0.000 HD 
HETATM   19  C   UNL     1      -9.486   7.899  72.543  1.00  0.00    -0.262 A  
HETATM   20  C   UNL     1     -10.034   7.545  73.778  1.00  0.00    -0.275 A  
HETATM   21  C   UNL     1     -10.266   6.205  74.066  1.00  0.00    -0.309 A  
HETATM   22  C   UNL     1      -9.941   5.227  73.131  1.00  0.00    -0.189 A  
ENDBRANCH   2   6
TORSDOF 1
ENDMDL
MODEL      143
REMARK 921   NORMALIZED FREE ENERGY PREDICTED BY IDOCK:   -3.07 KCAL/MOL
REMARK 922        TOTAL FREE ENERGY PREDICTED BY IDOCK:   -3.27 KCAL/MOL
REMARK 923 INTER-LIGAND FREE ENERGY PREDICTED BY IDOCK:   -3.58 KCAL/MOL
REMARK 924 INTRA-LIGAND FREE ENERGY PREDICTED BY IDOCK:    0.31 KCAL/MOL
REMARK 927      BINDING AFFINITY PREDICTED BY RF-SCORE:    0.00 PKD
ROOT
HETATM    1  N   UNL     1      -6.765   4.991  69.558  1.00  0.00    -0.049 N  
HETATM    2  C   UNL     1      -8.086   4.936  69.915  1.00  0.00    -0.073 C  
HETATM    3  H1  UNL     1      -6.371   5.922  69.418  1.00  0.00     0.000 HD 
HETATM    4  H2  UNL     1      -6.204   4.147  69.439  1.00  0.00     0.000 HD 
HETATM    5  O   UNL     1      -8.560   3.816  70.085  1.00  0.00    -0.062 OA 
ENDROOT
BRANCH   2   6
HETATM    6  N   UNL     1      -8.705   6.183  70.138  1.00  0.00    -0.139 N  
HETATM    7  C   UNL     1      -9.215   6.992  69.041  1.00  0.00    -0.137 A  
HETATM    8  C   UNL     1     -10.281   7.920  69.151  1.00  0.00    -0.219 A  
HETATM    9  C   UNL     1     -11.139   8.175  70.371  1.00  0.00    -0.239 C  
HETATM   10  C   UNL     1     -10.659   8.690  68.021  1.00  0.00    -0.205 A  
HETATM   11  C   UNL     1     -10.036   8.542  66.788  1.00  0.00    -0.369 A  
HETATM   12  C   UNL     1     -11.020   7.192  71.526  1.00  0.00    -0.235 C  
HETATM   13  O   UNL     1     -12.033   7.470  72.498  1.00  0.00    -0.476 OA 
HETATM   14  C   UNL     1      -9.647   7.338  72.119  1.00  0.00    -0.162 A  
HETATM   15  C   UNL     1      -9.011   7.626  66.661  1.00  0.00    -0.181 A  
HETATM   16  C   UNL     1      -8.609   6.873  67.770  1.00  0.00    -0.122 A  
HETATM   17  C   UNL     1      -8.545   6.857  71.397  1.00  0.00    -0.119 A  
HETATM   18  H   UNL     1     -11.959   6.855  73.220  1.00  0.00     0.000 HD 
HETATM   19  C   UNL     1      -7.258   6.983  71.949  1.00  0.00    -0.081 A  
HETATM   20  C   UNL     1      -7.061   7.594  73.189  1.00  0.00    -0.086 A  
HETATM   21  C   UNL     1      -8.154   8.087  73.892  1.00  0.00    -0.288 A  
HETATM   22  C   UNL     1      -9.436   7.958  73.363  1.00  0.00    -0.341 A  
ENDBRANCH   2   6
TORSDOF 1
ENDMDL
MODEL      144
REMARK 921   NORMALIZED FREE ENERGY PREDICTED BY IDOCK:   -3.07 KCAL/MOL
REMARK 922        TOTAL FREE ENERGY PREDICTED BY IDOCK:   -3.27 KCAL/MOL
REMARK 923 INTER-LIGAND FREE ENERGY PREDICTED BY IDOCK:   -3.26 KCAL/MOL
REMARK 924 INTRA-LIGAND FREE ENERGY PREDICTED BY IDOCK:   -0.01 KCAL/MOL
REMARK 927      BINDING AFFINITY PREDICTED BY RF-SCORE:    0.00 PKD
ROOT
HETATM    1  N   UNL     1     -10.578  15.158  68.329  1.00  0.00    -0.239 N  
HETATM    2  C   UNL     1      -9.712  15.033  67.275  1.00  0.00    -0.220 C  
HETATM    3  H1  UNL     1     -10.172  15.080  69.262  1.00  0.00     0.000 HD 
HETATM    4  H2  UNL     1     -11.575  15.321  68.189  1.00  0.00     0.000 HD 
HETATM    5  O   UNL     1     -10.201  15.128  66.153  1.00  0.00    -0.266 OA 
ENDROOT
BRANCH   2   6
HETATM    6  N   UNL     1      -8.351  14.910  67.622  1.00  0.00    -0.156 N  
HETATM    7  C   UNL     1      -7.405  15.994  67.411  1.00  0.00    -0.184 A  
HETATM    8  C   UNL     1      -6.227  16.198  68.174  1.00  0.00    -0.124 A  
HETATM    9  C   UNL     1      -5.784  15.409  69.387  1.00  0.00    -0.102 C  
HETATM   10  C   UNL     1      -5.353  17.265  67.841  1.00  0.00    -0.121 A  
HETATM   11  C   UNL     1      -5.629  18.146  66.803  1.00  0.00    -0.169 A  
HETATM   12  C   UNL     1      -6.795  14.456  70.005  1.00  0.00    -0.028 C  
HETATM   13  O   UNL     1      -6.283  13.950  71.242  1.00  0.00    -0.473 OA 
HETATM   14  C   UNL     1      -7.040  13.342  69.027  1.00  0.00    -0.044 A  
HETATM   15  C   UNL     1      -6.783  17.972  66.065  1.00  0.00    -0.323 A  
HETATM   16  C   UNL     1      -7.647  16.912  66.364  1.00  0.00    -0.339 A  
HETATM   17  C   UNL     1      -7.780  13.613  67.866  1.00  0.00    -0.157 A  
HETATM   18  H   UNL     1      -6.914  13.354  71.629  1.00  0.00     0.000 HD 
HETATM   19  C   UNL     1      -8.020  12.575  66.950  1.00  0.00    -0.013 A  
HETATM   20  C   UNL     1      -7.519  11.290  67.167  1.00  0.00    -0.130 A  
HETATM   21  C   UNL     1      -6.770  11.030  68.309  1.00  0.00    -0.059 A  
HETATM   22  C   UNL     1      -6.535  12.046  69.232  1.00  0.00    -0.111 A  
ENDBRANCH   2   6
TORSDOF 1
ENDMDL
MODEL      145
REMARK 921   NORMALIZED FREE ENERGY PREDICTED BY IDOCK:   -3.06 KCAL/MOL
REMARK 922        TOTAL FREE ENERGY PREDICTED BY IDOCK:   -3.27 KCAL/MOL
REMARK 923 INTER-LIGAND FREE ENERGY PREDICTED BY IDOCK:   -3.73 KCAL/MOL
REMARK 924 INTRA-LIGAND FREE ENERGY PREDICTED BY IDOCK:    0.46 KCAL/MOL
REMARK 927      BINDING AFFINITY PREDICTED BY RF-SCORE:    0.00 PKD
ROOT
HETATM    1  N   UNL     1     -11.148   7.849  69.174  1.00  0.00    -0.424 N  
HETATM    2  C   UNL     1     -10.028   7.407  69.828  1.00  0.00    -0.188 C  
HETATM    3  H1  UNL     1     -11.740   7.133  68.753  1.00  0.00     0.000 HD 
HETATM    4  H2  UNL     1     -11.378   8.841  69.112  1.00  0.00     0.000 HD 
HETATM    5  O   UNL     1      -9.316   8.269  70.335  1.00  0.00    -0.156 OA 
ENDROOT
BRANCH   2   6
HETATM    6  N   UNL     1      -9.893   6.006  69.916  1.00  0.00    -0.165 N  
HETATM    7  C   UNL     1      -9.842   5.165  68.730  1.00  0.00    -0.168 A  
HETATM    8  C   UNL     1      -9.189   3.909  68.659  1.00  0.00    -0.211 A  
HETATM    9  C   UNL     1      -8.357   3.257  69.741  1.00  0.00    -0.081 C  
HETATM   10  C   UNL     1      -9.250   3.154  67.459  1.00  0.00    -0.233 A  
HETATM   11  C   UNL     1      -9.907   3.623  66.328  1.00  0.00    -0.013 A  
HETATM   12  C   UNL     1      -7.976   4.114  70.938  1.00  0.00    -0.063 C  
HETATM   13  O   UNL     1      -7.035   3.407  71.754  1.00  0.00    -0.029 OA 
HETATM   14  C   UNL     1      -9.230   4.423  71.705  1.00  0.00    -0.182 A  
HETATM   15  C   UNL     1     -10.529   4.855  66.376  1.00  0.00    -0.325 A  
HETATM   16  C   UNL     1     -10.499   5.604  67.558  1.00  0.00    -0.294 A  
HETATM   17  C   UNL     1     -10.150   5.330  71.158  1.00  0.00    -0.217 A  
HETATM   18  H   UNL     1      -6.797   3.943  72.502  1.00  0.00     0.000 HD 
HETATM   19  C   UNL     1     -11.322   5.630  71.873  1.00  0.00    -0.208 A  
HETATM   20  C   UNL     1     -11.592   5.028  73.103  1.00  0.00    -0.299 A  
HETATM   21  C   UNL     1     -10.688   4.115  73.633  1.00  0.00    -0.318 A  
HETATM   22  C   UNL     1      -9.516   3.817  72.942  1.00  0.00    -0.153 A  
ENDBRANCH   2   6
TORSDOF 1
ENDMDL
MODEL      146
REMARK 921   NORMALIZED FREE ENERGY PREDICTED BY IDOCK:   -2.97 KCAL/MOL
REMARK 922        TOTAL FREE ENERGY PREDICTED BY IDOCK:   -3.16 KCAL/MOL
REMARK 923 INTER-LIGAND FREE ENERGY PREDICTED BY IDOCK:   -3.15 KCAL/MOL
REMARK 924 INTRA-LIGAND FREE ENERGY PREDICTED BY IDOCK:   -0.01 KCAL/MOL
REMARK 927      BINDING AFFINITY PREDICTED BY RF-SCORE:    0.00 PKD
ROOT
HETATM    1  N   UNL     1     -11.684   7.591  69.923  1.00  0.00    -0.463 N  
HETATM    2  C   UNL     1     -11.102   8.805  70.171  1.00  0.00    -0.202 C  
HETATM    3  H1  UNL     1     -11.055   6.827  69.676  1.00  0.00     0.000 HD 
HETATM    4  H2  UNL     1     -12.694   7.457  69.982  1.00  0.00     0.000 HD 
HETATM    5  O   UNL     1     -11.860   9.724  70.468  1.00  0.00    -0.266 OA 
ENDROOT
BRANCH   2   6
HETATM    6  N   UNL     1      -9.692   8.815  70.148  1.00  0.00    -0.168 N  
HETATM    7  C   UNL     1      -8.904   8.393  71.296  1.00  0.00    -0.167 A  
HETATM    8  C   UNL     1      -7.594   7.855  71.221  1.00  0.00    -0.081 A  
HETATM    9  C   UNL     1      -6.818   7.530  69.964  1.00  0.00    -0.051 C  
HETATM   10  C   UNL     1      -6.903   7.525  72.415  1.00  0.00    -0.060 A  
HETATM   11  C   UNL     1      -7.483   7.682  73.668  1.00  0.00    -0.139 A  
HETATM   12  C   UNL     1      -7.580   7.555  68.648  1.00  0.00    -0.110 C  
HETATM   13  O   UNL     1      -6.749   7.036  67.603  1.00  0.00    -0.062 OA 
HETATM   14  C   UNL     1      -7.974   8.977  68.367  1.00  0.00    -0.104 A  
HETATM   15  C   UNL     1      -8.766   8.186  73.754  1.00  0.00    -0.292 A  
HETATM   16  C   UNL     1      -9.456   8.538  72.588  1.00  0.00    -0.295 A  
HETATM   17  C   UNL     1      -8.990   9.561  69.139  1.00  0.00    -0.148 A  
HETATM   18  H   UNL     1      -7.225   7.051  66.781  1.00  0.00     0.000 HD 
HETATM   19  C   UNL     1      -9.369  10.889  68.878  1.00  0.00    -0.169 A  
HETATM   20  C   UNL     1      -8.742  11.636  67.880  1.00  0.00    -0.154 A  
HETATM   21  C   UNL     1      -7.723  11.061  67.130  1.00  0.00    -0.131 A  
HETATM   22  C   UNL     1      -7.344   9.742  67.369  1.00  0.00    -0.090 A  
ENDBRANCH   2   6
TORSDOF 1
ENDMDL
MODEL      147
REMARK 921   NORMALIZED FREE ENERGY PREDICTED BY IDOCK:   -2.92 KCAL/MOL
REMARK 922        TOTAL FREE ENERGY PREDICTED BY IDOCK:   -3.11 KCAL/MOL
REMARK 923 INTER-LIGAND FREE ENERGY PREDICTED BY IDOCK:   -3.07 KCAL/MOL
REMARK 924 INTRA-LIGAND FREE ENERGY PREDICTED BY IDOCK:   -0.04 KCAL/MOL
REMARK 927      BINDING AFFINITY PREDICTED BY RF-SCORE:    0.00 PKD
ROOT
HETATM    1  N   UNL     1     -11.741   6.802  69.207  1.00  0.00    -0.605 N  
HETATM    2  C   UNL     1     -10.479   6.280  69.302  1.00  0.00    -0.244 C  
HETATM    3  H1  UNL     1     -11.820   7.723  68.777  1.00  0.00     0.000 HD 
HETATM    4  H2  UNL     1     -12.559   6.296  69.547  1.00  0.00     0.000 HD 
HETATM    5  O   UNL     1     -10.384   5.170  69.820  1.00  0.00    -0.271 OA 
ENDROOT
BRANCH   2   6
HETATM    6  N   UNL     1      -9.460   7.048  68.702  1.00  0.00    -0.136 N  
HETATM    7  C   UNL     1      -9.047   6.830  67.324  1.00  0.00    -0.119 A  
HETATM    8  C   UNL     1      -8.483   7.824  66.484  1.00  0.00    -0.132 A  
HETATM    9  C   UNL     1      -8.293   9.288  66.813  1.00  0.00    -0.123 C  
HETATM   10  C   UNL     1      -8.072   7.480  65.170  1.00  0.00    -0.130 A  
HETATM   11  C   UNL     1      -8.234   6.197  64.661  1.00  0.00    -0.094 A  
HETATM   12  C   UNL     1      -8.979   9.816  68.064  1.00  0.00    -0.118 C  
HETATM   13  O   UNL     1      -8.858  11.242  68.111  1.00  0.00    -0.145 OA 
HETATM   14  C   UNL     1      -8.322   9.180  69.256  1.00  0.00    -0.123 A  
HETATM   15  C   UNL     1      -8.803   5.225  65.460  1.00  0.00    -0.153 A  
HETATM   16  C   UNL     1      -9.194   5.540  66.767  1.00  0.00    -0.129 A  
HETATM   17  C   UNL     1      -8.562   7.822  69.515  1.00  0.00    -0.135 A  
HETATM   18  H   UNL     1      -9.287  11.572  68.892  1.00  0.00     0.000 HD 
HETATM   19  C   UNL     1      -7.957   7.222  70.632  1.00  0.00    -0.099 A  
HETATM   20  C   UNL     1      -7.110   7.947  71.472  1.00  0.00    -0.065 A  
HETATM   21  C   UNL     1      -6.859   9.287  71.201  1.00  0.00    -0.069 A  
HETATM   22  C   UNL     1      -7.461   9.899  70.105  1.00  0.00    -0.178 A  
ENDBRANCH   2   6
TORSDOF 1
ENDMDL
MODEL      148
REMARK 921   NORMALIZED FREE ENERGY PREDICTED BY IDOCK:   -2.87 KCAL/MOL
REMARK 922        TOTAL FREE ENERGY PREDICTED BY IDOCK:   -3.06 KCAL/MOL
REMARK 923 INTER-LIGAND FREE ENERGY PREDICTED BY IDOCK:   -3.09 KCAL/MOL
REMARK 924 INTRA-LIGAND FREE ENERGY PREDICTED BY IDOCK:    0.03 KCAL/MOL
REMARK 927      BINDING AFFINITY PREDICTED BY RF-SCORE:    0.00 PKD
ROOT
HETATM    1  N   UNL     1      -6.590   8.384  67.245  1.00  0.00    -0.058 N  
HETATM    2  C   UNL     1      -6.322   9.270  66.236  1.00  0.00    -0.065 C  
HETATM    3  H1  UNL     1      -7.421   8.572  67.805  1.00  0.00     0.000 HD 
HETATM    4  H2  UNL     1      -5.990   7.579  67.426  1.00  0.00     0.000 HD 
HETATM    5  O   UNL     1      -5.321   9.044  65.561  1.00  0.00    -0.037 OA 
ENDROOT
BRANCH   2   6
HETATM    6  N   UNL     1      -7.291  10.277  66.042  1.00  0.00    -0.122 N  
HETATM    7  C   UNL     1      -8.102  10.337  64.836  1.00  0.00    -0.154 A  
HETATM    8  C   UNL     1      -9.399  10.906  64.763  1.00  0.00    -0.259 A  
HETATM    9  C   UNL     1     -10.213  11.457  65.913  1.00  0.00    -0.292 C  
HETATM   10  C   UNL     1     -10.075  10.952  63.517  1.00  0.00    -0.406 A  
HETATM   11  C   UNL     1      -9.518  10.426  62.358  1.00  0.00    -0.256 A  
HETATM   12  C   UNL     1      -9.712  11.173  67.321  1.00  0.00    -0.166 C  
HETATM   13  O   UNL     1     -10.695  11.592  68.274  1.00  0.00    -0.192 OA 
HETATM   14  C   UNL     1      -8.422  11.920  67.514  1.00  0.00    -0.161 A  
HETATM   15  C   UNL     1      -8.264   9.850  62.418  1.00  0.00    -0.149 A  
HETATM   16  C   UNL     1      -7.572   9.815  63.634  1.00  0.00    -0.130 A  
HETATM   17  C   UNL     1      -7.273  11.465  66.851  1.00  0.00    -0.144 A  
HETATM   18  H   UNL     1     -10.383  11.414  69.153  1.00  0.00     0.000 HD 
HETATM   19  C   UNL     1      -6.061  12.154  67.032  1.00  0.00    -0.097 A  
HETATM   20  C   UNL     1      -5.989  13.288  67.842  1.00  0.00    -0.138 A  
HETATM   21  C   UNL     1      -7.135  13.748  68.482  1.00  0.00    -0.106 A  
HETATM   22  C   UNL     1      -8.340  13.068  68.322  1.00  0.00    -0.158 A  
ENDBRANCH   2   6
TORSDOF 1
ENDMDL
MODEL      149
REMARK 921   NORMALIZED FREE ENERGY PREDICTED BY IDOCK:   -2.87 KCAL/MOL
REMARK 922        TOTAL FREE ENERGY PREDICTED BY IDOCK:   -3.06 KCAL/MOL
REMARK 923 INTER-LIGAND FREE ENERGY PREDICTED BY IDOCK:   -3.02 KCAL/MOL
REMARK 924 INTRA-LIGAND FREE ENERGY PREDICTED BY IDOCK:   -0.03 KCAL/MOL
REMARK 927      BINDING AFFINITY PREDICTED BY RF-SCORE:    0.00 PKD
ROOT
HETATM    1  N   UNL     1      -8.420  10.932  65.709  1.00  0.00    -0.206 N  
HETATM    2  C   UNL     1      -7.463  10.024  66.078  1.00  0.00    -0.112 C  
HETATM    3  H1  UNL     1      -9.388  10.680  65.913  1.00  0.00     0.000 HD 
HETATM    4  H2  UNL     1      -8.178  11.813  65.256  1.00  0.00     0.000 HD 
HETATM    5  O   UNL     1      -6.299  10.327  65.834  1.00  0.00    -0.089 OA 
ENDROOT
BRANCH   2   6
HETATM    6  N   UNL     1      -7.938   8.898  66.782  1.00  0.00    -0.106 N  
HETATM    7  C   UNL     1      -8.128   8.919  68.224  1.00  0.00    -0.109 A  
HETATM    8  C   UNL     1      -9.061   8.116  68.928  1.00  0.00    -0.147 A  
HETATM    9  C   UNL     1     -10.082   7.176  68.327  1.00  0.00    -0.187 C  
HETATM   10  C   UNL     1      -9.121   8.188  70.344  1.00  0.00    -0.150 A  
HETATM   11  C   UNL     1      -8.311   9.052  71.071  1.00  0.00    -0.237 A  
HETATM   12  C   UNL     1     -10.307   7.259  66.825  1.00  0.00    -0.241 C  
HETATM   13  O   UNL     1     -11.432   6.450  66.463  1.00  0.00    -0.651 OA 
HETATM   14  C   UNL     1      -9.058   6.780  66.141  1.00  0.00    -0.138 A  
HETATM   15  C   UNL     1      -7.413   9.856  70.397  1.00  0.00    -0.137 A  
HETATM   16  C   UNL     1      -7.323   9.783  69.002  1.00  0.00    -0.078 A  
HETATM   17  C   UNL     1      -7.918   7.598  66.168  1.00  0.00    -0.110 A  
HETATM   18  H   UNL     1     -11.574   6.502  65.525  1.00  0.00     0.000 HD 
HETATM   19  C   UNL     1      -6.748   7.161  65.524  1.00  0.00    -0.052 A  
HETATM   20  C   UNL     1      -6.697   5.924  64.880  1.00  0.00    -0.047 A  
HETATM   21  C   UNL     1      -7.822   5.108  64.872  1.00  0.00    -0.093 A  
HETATM   22  C   UNL     1      -8.993   5.533  65.495  1.00  0.00    -0.133 A  
ENDBRANCH   2   6
TORSDOF 1
ENDMDL
MODEL      150
REMARK 921   NORMALIZED FREE ENERGY PREDICTED BY IDOCK:   -2.86 KCAL/MOL
REMARK 922        TOTAL FREE ENERGY PREDICTED BY IDOCK:   -3.05 KCAL/MOL
REMARK 923 INTER-LIGAND FREE ENERGY PREDICTED BY IDOCK:   -3.79 KCAL/MOL
REMARK 924 INTRA-LIGAND FREE ENERGY PREDICTED BY IDOCK:    0.74 KCAL/MOL
REMARK 927      BINDING AFFINITY PREDICTED BY RF-SCORE:    0.00 PKD
ROOT
HETATM    1  N   UNL     1      -6.090  10.657  67.655  1.00  0.00    -0.048 N  
HETATM    2  C   UNL     1      -7.359  10.144  67.584  1.00  0.00    -0.089 C  
HETATM    3  H1  UNL     1      -5.993  11.567  68.104  1.00  0.00     0.000 HD 
HETATM    4  H2  UNL     1      -5.286  10.155  67.278  1.00  0.00     0.000 HD 
HETATM    5  O   UNL     1      -7.476   9.048  67.043  1.00  0.00    -0.086 OA 
ENDROOT
BRANCH   2   6
HETATM    6  N   UNL     1      -8.354  10.903  68.233  1.00  0.00    -0.123 N  
HETATM    7  C   UNL     1      -8.388  12.355  68.148  1.00  0.00    -0.178 A  
HETATM    8  C   UNL     1      -9.561  13.143  68.266  1.00  0.00    -0.218 A  
HETATM    9  C   UNL     1     -10.981  12.640  68.402  1.00  0.00    -0.284 C  
HETATM   10  C   UNL     1      -9.463  14.558  68.216  1.00  0.00    -0.207 A  
HETATM   11  C   UNL     1      -8.248  15.204  68.021  1.00  0.00    -0.144 A  
HETATM   12  C   UNL     1     -11.223  11.159  68.155  1.00  0.00    -0.292 C  
HETATM   13  O   UNL     1     -12.631  10.900  68.131  1.00  0.00    -0.082 OA 
HETATM   14  C   UNL     1     -10.553  10.390  69.258  1.00  0.00    -0.259 A  
HETATM   15  C   UNL     1      -7.101  14.448  67.883  1.00  0.00    -0.169 A  
HETATM   16  C   UNL     1      -7.174  13.052  67.952  1.00  0.00    -0.129 A  
HETATM   17  C   UNL     1      -9.152  10.313  69.273  1.00  0.00    -0.194 A  
HETATM   18  H   UNL     1     -12.782   9.975  67.976  1.00  0.00     0.000 HD 
HETATM   19  C   UNL     1      -8.518   9.589  70.298  1.00  0.00    -0.237 A  
HETATM   20  C   UNL     1      -9.256   8.966  71.305  1.00  0.00    -0.328 A  
HETATM   21  C   UNL     1     -10.643   9.060  71.298  1.00  0.00    -0.378 A  
HETATM   22  C   UNL     1     -11.286   9.764  70.282  1.00  0.00    -0.347 A  
ENDBRANCH   2   6
TORSDOF 1
ENDMDL
MODEL      151
REMARK 921   NORMALIZED FREE ENERGY PREDICTED BY IDOCK:   -2.83 KCAL/MOL
REMARK 922        TOTAL FREE ENERGY PREDICTED BY IDOCK:   -3.02 KCAL/MOL
REMARK 923 INTER-LIGAND FREE ENERGY PREDICTED BY IDOCK:   -3.75 KCAL/MOL
REMARK 924 INTRA-LIGAND FREE ENERGY PREDICTED BY IDOCK:    0.73 KCAL/MOL
REMARK 927      BINDING AFFINITY PREDICTED BY RF-SCORE:    0.00 PKD
ROOT
HETATM    1  N   UNL     1     -11.320   6.702  68.681  1.00  0.00    -0.576 N  
HETATM    2  C   UNL     1     -11.313   6.532  70.040  1.00  0.00    -0.410 C  
HETATM    3  H1  UNL     1     -10.552   6.271  68.166  1.00  0.00     0.000 HD 
HETATM    4  H2  UNL     1     -12.054   7.230  68.209  1.00  0.00     0.000 HD 
HETATM    5  O   UNL     1     -12.238   7.051  70.660  1.00  0.00    -0.330 OA 
ENDROOT
BRANCH   2   6
HETATM    6  N   UNL     1     -10.293   5.697  70.541  1.00  0.00    -0.239 N  
HETATM    7  C   UNL     1      -9.371   6.148  71.572  1.00  0.00    -0.148 A  
HETATM    8  C   UNL     1      -8.716   5.296  72.497  1.00  0.00    -0.120 A  
HETATM    9  C   UNL     1      -8.915   3.805  72.654  1.00  0.00    -0.119 C  
HETATM   10  C   UNL     1      -7.798   5.847  73.428  1.00  0.00    -0.101 A  
HETATM   11  C   UNL     1      -7.538   7.210  73.487  1.00  0.00    -0.102 A  
HETATM   12  C   UNL     1     -10.093   3.178  71.924  1.00  0.00    -0.082 C  
HETATM   13  O   UNL     1     -10.245   1.816  72.339  1.00  0.00    -0.136 OA 
HETATM   14  C   UNL     1      -9.823   3.265  70.448  1.00  0.00     0.011 A  
HETATM   15  C   UNL     1      -8.186   8.054  72.606  1.00  0.00    -0.203 A  
HETATM   16  C   UNL     1      -9.079   7.528  71.666  1.00  0.00    -0.149 A  
HETATM   17  C   UNL     1      -9.905   4.516  69.819  1.00  0.00    -0.225 A  
HETATM   18  H   UNL     1     -10.981   1.424  71.883  1.00  0.00     0.000 HD 
HETATM   19  C   UNL     1      -9.660   4.605  68.438  1.00  0.00    -0.212 A  
HETATM   20  C   UNL     1      -9.321   3.476  67.691  1.00  0.00    -0.250 A  
HETATM   21  C   UNL     1      -9.221   2.241  68.321  1.00  0.00    -0.243 A  
HETATM   22  C   UNL     1      -9.472   2.136  69.687  1.00  0.00    -0.112 A  
ENDBRANCH   2   6
TORSDOF 1
ENDMDL
MODEL      152
REMARK 921   NORMALIZED FREE ENERGY PREDICTED BY IDOCK:   -2.83 KCAL/MOL
REMARK 922        TOTAL FREE ENERGY PREDICTED BY IDOCK:   -3.01 KCAL/MOL
REMARK 923 INTER-LIGAND FREE ENERGY PREDICTED BY IDOCK:   -2.98 KCAL/MOL
REMARK 924 INTRA-LIGAND FREE ENERGY PREDICTED BY IDOCK:   -0.03 KCAL/MOL
REMARK 927      BINDING AFFINITY PREDICTED BY RF-SCORE:    0.00 PKD
ROOT
HETATM    1  N   UNL     1     -11.282   9.748  67.987  1.00  0.00    -0.521 N  
HETATM    2  C   UNL     1      -9.943   9.780  67.700  1.00  0.00    -0.174 C  
HETATM    3  H1  UNL     1     -11.677   8.834  68.209  1.00  0.00     0.000 HD 
HETATM    4  H2  UNL     1     -11.853  10.593  67.980  1.00  0.00     0.000 HD 
HETATM    5  O   UNL     1      -9.468  10.880  67.433  1.00  0.00    -0.155 OA 
ENDROOT
BRANCH   2   6
HETATM    6  N   UNL     1      -9.264   8.552  67.845  1.00  0.00    -0.139 N  
HETATM    7  C   UNL     1      -8.728   8.120  69.126  1.00  0.00    -0.140 A  
HETATM    8  C   UNL     1      -8.542   6.767  69.508  1.00  0.00    -0.133 A  
HETATM    9  C   UNL     1      -8.943   5.539  68.720  1.00  0.00    -0.120 C  
HETATM   10  C   UNL     1      -7.963   6.467  70.768  1.00  0.00    -0.115 A  
HETATM   11  C   UNL     1      -7.597   7.464  71.665  1.00  0.00    -0.085 A  
HETATM   12  C   UNL     1      -9.842   5.749  67.511  1.00  0.00    -0.130 C  
HETATM   13  O   UNL     1     -10.277   4.481  67.010  1.00  0.00    -0.180 OA 
HETATM   14  C   UNL     1      -9.056   6.498  66.472  1.00  0.00    -0.166 A  
HETATM   15  C   UNL     1      -7.793   8.785  71.315  1.00  0.00    -0.167 A  
HETATM   16  C   UNL     1      -8.343   9.101  70.067  1.00  0.00    -0.156 A  
HETATM   17  C   UNL     1      -8.773   7.855  66.688  1.00  0.00    -0.142 A  
HETATM   18  H   UNL     1     -10.839   4.612  66.256  1.00  0.00     0.000 HD 
HETATM   19  C   UNL     1      -8.044   8.564  65.717  1.00  0.00    -0.116 A  
HETATM   20  C   UNL     1      -7.583   7.936  64.559  1.00  0.00    -0.111 A  
HETATM   21  C   UNL     1      -7.848   6.586  64.358  1.00  0.00    -0.115 A  
HETATM   22  C   UNL     1      -8.580   5.874  65.305  1.00  0.00    -0.119 A  
ENDBRANCH   2   6
TORSDOF 1
ENDMDL
MODEL      153
REMARK 921   NORMALIZED FREE ENERGY PREDICTED BY IDOCK:   -2.82 KCAL/MOL
REMARK 922        TOTAL FREE ENERGY PREDICTED BY IDOCK:   -3.00 KCAL/MOL
REMARK 923 INTER-LIGAND FREE ENERGY PREDICTED BY IDOCK:   -2.96 KCAL/MOL
REMARK 924 INTRA-LIGAND FREE ENERGY PREDICTED BY IDOCK:   -0.04 KCAL/MOL
REMARK 927      BINDING AFFINITY PREDICTED BY RF-SCORE:    0.00 PKD
ROOT
HETATM    1  N   UNL     1     -10.231   3.957  66.361  1.00  0.00    -0.330 N  
HETATM    2  C   UNL     1      -9.150   3.938  67.202  1.00  0.00    -0.156 C  
HETATM    3  H1  UNL     1     -10.801   4.802  66.373  1.00  0.00     0.000 HD 
HETATM    4  H2  UNL     1     -10.453   3.167  65.754  1.00  0.00     0.000 HD 
HETATM    5  O   UNL     1      -8.463   2.921  67.187  1.00  0.00    -0.088 OA 
ENDROOT
BRANCH   2   6
HETATM    6  N   UNL     1      -8.912   5.136  67.908  1.00  0.00    -0.109 N  
HETATM    7  C   UNL     1      -8.057   6.184  67.371  1.00  0.00    -0.109 A  
HETATM    8  C   UNL     1      -8.177   7.562  67.684  1.00  0.00    -0.118 A  
HETATM    9  C   UNL     1      -9.247   8.209  68.535  1.00  0.00    -0.136 C  
HETATM   10  C   UNL     1      -7.250   8.487  67.137  1.00  0.00    -0.080 A  
HETATM   11  C   UNL     1      -6.239   8.091  66.271  1.00  0.00    -0.046 A  
HETATM   12  C   UNL     1     -10.451   7.357  68.907  1.00  0.00    -0.203 C  
HETATM   13  O   UNL     1     -11.442   8.177  69.536  1.00  0.00    -0.412 OA 
HETATM   14  C   UNL     1      -9.982   6.272  69.834  1.00  0.00    -0.206 A  
HETATM   15  C   UNL     1      -6.124   6.755  65.941  1.00  0.00    -0.038 A  
HETATM   16  C   UNL     1      -7.014   5.824  66.488  1.00  0.00    -0.064 A  
HETATM   17  C   UNL     1      -9.213   5.222  69.310  1.00  0.00    -0.114 A  
HETATM   18  H   UNL     1     -12.195   7.645  69.768  1.00  0.00     0.000 HD 
HETATM   19  C   UNL     1      -8.776   4.199  70.170  1.00  0.00    -0.117 A  
HETATM   20  C   UNL     1      -9.080   4.222  71.532  1.00  0.00    -0.176 A  
HETATM   21  C   UNL     1      -9.827   5.273  72.051  1.00  0.00    -0.222 A  
HETATM   22  C   UNL     1     -10.276   6.288  71.209  1.00  0.00    -0.238 A  
ENDBRANCH   2   6
TORSDOF 1
ENDMDL
MODEL      154
REMARK 921   NORMALIZED FREE ENERGY PREDICTED BY IDOCK:   -2.81 KCAL/MOL
REMARK 922        TOTAL FREE ENERGY PREDICTED BY IDOCK:   -3.00 KCAL/MOL
REMARK 923 INTER-LIGAND FREE ENERGY PREDICTED BY IDOCK:   -2.96 KCAL/MOL
REMARK 924 INTRA-LIGAND FREE ENERGY PREDICTED BY IDOCK:   -0.04 KCAL/MOL
REMARK 927      BINDING AFFINITY PREDICTED BY RF-SCORE:    0.00 PKD
ROOT
HETATM    1  N   UNL     1     -11.406   6.512  66.778  1.00  0.00    -0.800 N  
HETATM    2  C   UNL     1     -10.689   6.402  67.940  1.00  0.00    -0.299 C  
HETATM    3  H1  UNL     1     -10.871   6.480  65.910  1.00  0.00     0.000 HD 
HETATM    4  H2  UNL     1     -12.421   6.620  66.780  1.00  0.00     0.000 HD 
HETATM    5  O   UNL     1     -11.333   6.440  68.985  1.00  0.00    -0.355 OA 
ENDROOT
BRANCH   2   6
HETATM    6  N   UNL     1      -9.309   6.160  67.778  1.00  0.00    -0.111 N  
HETATM    7  C   UNL     1      -8.754   4.817  67.845  1.00  0.00    -0.103 A  
HETATM    8  C   UNL     1      -7.569   4.400  67.187  1.00  0.00    -0.085 A  
HETATM    9  C   UNL     1      -6.725   5.219  66.236  1.00  0.00    -0.057 C  
HETATM   10  C   UNL     1      -7.097   3.074  67.367  1.00  0.00    -0.053 A  
HETATM   11  C   UNL     1      -7.780   2.150  68.148  1.00  0.00    -0.054 A  
HETATM   12  C   UNL     1      -7.309   6.532  65.739  1.00  0.00    -0.079 C  
HETATM   13  O   UNL     1      -6.473   7.069  64.708  1.00  0.00    -0.039 OA 
HETATM   14  C   UNL     1      -7.395   7.473  66.907  1.00  0.00    -0.093 A  
HETATM   15  C   UNL     1      -8.947   2.536  68.776  1.00  0.00    -0.176 A  
HETATM   16  C   UNL     1      -9.417   3.846  68.629  1.00  0.00    -0.217 A  
HETATM   17  C   UNL     1      -8.367   7.239  67.892  1.00  0.00    -0.119 A  
HETATM   18  H   UNL     1      -6.838   7.890  64.397  1.00  0.00     0.000 HD 
HETATM   19  C   UNL     1      -8.458   8.118  68.984  1.00  0.00    -0.129 A  
HETATM   20  C   UNL     1      -7.590   9.203  69.113  1.00  0.00    -0.073 A  
HETATM   21  C   UNL     1      -6.615   9.421  68.146  1.00  0.00    -0.059 A  
HETATM   22  C   UNL     1      -6.520   8.565  67.051  1.00  0.00    -0.057 A  
ENDBRANCH   2   6
TORSDOF 1
ENDMDL
MODEL      155
REMARK 921   NORMALIZED FREE ENERGY PREDICTED BY IDOCK:   -2.78 KCAL/MOL
REMARK 922        TOTAL FREE ENERGY PREDICTED BY IDOCK:   -2.97 KCAL/MOL
REMARK 923 INTER-LIGAND FREE ENERGY PREDICTED BY IDOCK:   -3.22 KCAL/MOL
REMARK 924 INTRA-LIGAND FREE ENERGY PREDICTED BY IDOCK:    0.25 KCAL/MOL
REMARK 927      BINDING AFFINITY PREDICTED BY RF-SCORE:    0.00 PKD
ROOT
HETATM    1  N   UNL     1      -8.890  11.321  69.109  1.00  0.00    -0.382 N  
HETATM    2  C   UNL     1      -7.902  10.399  69.332  1.00  0.00    -0.161 C  
HETATM    3  H1  UNL     1      -9.850  10.980  69.163  1.00  0.00     0.000 HD 
HETATM    4  H2  UNL     1      -8.678  12.297  68.901  1.00  0.00     0.000 HD 
HETATM    5  O   UNL     1      -6.747  10.810  69.268  1.00  0.00    -0.061 OA 
ENDROOT
BRANCH   2   6
HETATM    6  N   UNL     1      -8.348   9.114  69.705  1.00  0.00    -0.124 N  
HETATM    7  C   UNL     1      -7.746   8.386  70.811  1.00  0.00    -0.083 A  
HETATM    8  C   UNL     1      -8.414   7.410  71.594  1.00  0.00    -0.120 A  
HETATM    9  C   UNL     1      -9.872   7.016  71.501  1.00  0.00    -0.176 C  
HETATM   10  C   UNL     1      -7.707   6.728  72.618  1.00  0.00    -0.099 A  
HETATM   11  C   UNL     1      -6.376   7.008  72.905  1.00  0.00    -0.057 A  
HETATM   12  C   UNL     1     -10.780   7.899  70.658  1.00  0.00    -0.228 C  
HETATM   13  O   UNL     1     -12.142   7.498  70.841  1.00  0.00    -0.397 OA 
HETATM   14  C   UNL     1     -10.364   7.754  69.222  1.00  0.00    -0.220 A  
HETATM   15  C   UNL     1      -5.719   7.971  72.164  1.00  0.00    -0.037 A  
HETATM   16  C   UNL     1      -6.394   8.639  71.135  1.00  0.00    -0.049 A  
HETATM   17  C   UNL     1      -9.158   8.339  68.806  1.00  0.00    -0.144 A  
HETATM   18  H   UNL     1     -12.710   8.050  70.315  1.00  0.00     0.000 HD 
HETATM   19  C   UNL     1      -8.766   8.215  67.462  1.00  0.00    -0.129 A  
HETATM   20  C   UNL     1      -9.544   7.506  66.545  1.00  0.00    -0.239 A  
HETATM   21  C   UNL     1     -10.728   6.911  66.965  1.00  0.00    -0.432 A  
HETATM   22  C   UNL     1     -11.136   7.036  68.291  1.00  0.00    -0.080 A  
ENDBRANCH   2   6
TORSDOF 1
ENDMDL
MODEL      156
REMARK 921   NORMALIZED FREE ENERGY PREDICTED BY IDOCK:   -2.78 KCAL/MOL
REMARK 922        TOTAL FREE ENERGY PREDICTED BY IDOCK:   -2.96 KCAL/MOL
REMARK 923 INTER-LIGAND FREE ENERGY PREDICTED BY IDOCK:   -3.20 KCAL/MOL
REMARK 924 INTRA-LIGAND FREE ENERGY PREDICTED BY IDOCK:    0.24 KCAL/MOL
REMARK 927      BINDING AFFINITY PREDICTED BY RF-SCORE:    0.00 PKD
ROOT
HETATM    1  N   UNL     1     -11.313   7.662  69.760  1.00  0.00    -0.456 N  
HETATM    2  C   UNL     1      -9.944   7.622  69.792  1.00  0.00    -0.184 C  
HETATM    3  H1  UNL     1     -11.785   6.809  69.461  1.00  0.00     0.000 HD 
HETATM    4  H2  UNL     1     -11.832   8.501  70.021  1.00  0.00     0.000 HD 
HETATM    5  O   UNL     1      -9.376   8.649  70.152  1.00  0.00    -0.156 OA 
ENDROOT
BRANCH   2   6
HETATM    6  N   UNL     1      -9.369   6.368  69.499  1.00  0.00    -0.143 N  
HETATM    7  C   UNL     1      -9.605   5.202  70.338  1.00  0.00    -0.187 A  
HETATM    8  C   UNL     1      -9.560   3.860  69.884  1.00  0.00    -0.270 A  
HETATM    9  C   UNL     1      -9.360   3.390  68.460  1.00  0.00    -0.231 C  
HETATM   10  C   UNL     1      -9.758   2.801  70.808  1.00  0.00    -0.109 A  
HETATM   11  C   UNL     1     -10.030   3.037  72.150  1.00  0.00    -0.233 A  
HETATM   12  C   UNL     1      -9.448   4.438  67.361  1.00  0.00    -0.171 C  
HETATM   13  O   UNL     1      -9.433   3.795  66.082  1.00  0.00    -0.169 OA 
HETATM   14  C   UNL     1      -8.277   5.367  67.511  1.00  0.00    -0.100 A  
HETATM   15  C   UNL     1     -10.099   4.340  72.601  1.00  0.00    -0.222 A  
HETATM   16  C   UNL     1      -9.884   5.398  71.709  1.00  0.00    -0.223 A  
HETATM   17  C   UNL     1      -8.266   6.273  68.583  1.00  0.00    -0.112 A  
HETATM   18  H   UNL     1      -9.489   4.450  65.396  1.00  0.00     0.000 HD 
HETATM   19  C   UNL     1      -7.178   7.150  68.726  1.00  0.00    -0.094 A  
HETATM   20  C   UNL     1      -6.104   7.121  67.834  1.00  0.00    -0.034 A  
HETATM   21  C   UNL     1      -6.109   6.208  66.785  1.00  0.00    -0.025 A  
HETATM   22  C   UNL     1      -7.187   5.341  66.623  1.00  0.00    -0.077 A  
ENDBRANCH   2   6
TORSDOF 1
ENDMDL
MODEL      157
REMARK 921   NORMALIZED FREE ENERGY PREDICTED BY IDOCK:   -2.77 KCAL/MOL
REMARK 922        TOTAL FREE ENERGY PREDICTED BY IDOCK:   -2.96 KCAL/MOL
REMARK 923 INTER-LIGAND FREE ENERGY PREDICTED BY IDOCK:   -2.92 KCAL/MOL
REMARK 924 INTRA-LIGAND FREE ENERGY PREDICTED BY IDOCK:   -0.04 KCAL/MOL
REMARK 927      BINDING AFFINITY PREDICTED BY RF-SCORE:    0.00 PKD
ROOT
HETATM    1  N   UNL     1     -11.908   6.540  69.546  1.00  0.00    -0.589 N  
HETATM    2  C   UNL     1     -10.868   6.495  68.656  1.00  0.00    -0.295 C  
HETATM    3  H1  UNL     1     -11.661   6.524  70.535  1.00  0.00     0.000 HD 
HETATM    4  H2  UNL     1     -12.879   6.587  69.235  1.00  0.00     0.000 HD 
HETATM    5  O   UNL     1     -11.166   6.515  67.465  1.00  0.00    -0.343 OA 
ENDROOT
BRANCH   2   6
HETATM    6  N   UNL     1      -9.580   6.532  69.230  1.00  0.00    -0.139 N  
HETATM    7  C   UNL     1      -8.876   7.785  69.453  1.00  0.00    -0.139 A  
HETATM    8  C   UNL     1      -7.900   7.994  70.460  1.00  0.00    -0.094 A  
HETATM    9  C   UNL     1      -7.479   7.014  71.532  1.00  0.00    -0.084 C  
HETATM   10  C   UNL     1      -7.243   9.249  70.549  1.00  0.00    -0.111 A  
HETATM   11  C   UNL     1      -7.549  10.302  69.696  1.00  0.00    -0.167 A  
HETATM   12  C   UNL     1      -8.335   5.769  71.714  1.00  0.00    -0.120 C  
HETATM   13  O   UNL     1      -7.913   5.064  72.886  1.00  0.00    -0.099 OA 
HETATM   14  C   UNL     1      -8.180   4.917  70.486  1.00  0.00    -0.096 A  
HETATM   15  C   UNL     1      -8.514  10.119  68.725  1.00  0.00    -0.131 A  
HETATM   16  C   UNL     1      -9.157   8.882  68.606  1.00  0.00    -0.137 A  
HETATM   17  C   UNL     1      -8.780   5.339  69.291  1.00  0.00    -0.100 A  
HETATM   18  H   UNL     1      -8.448   4.287  73.000  1.00  0.00     0.000 HD 
HETATM   19  C   UNL     1      -8.646   4.544  68.140  1.00  0.00    -0.110 A  
HETATM   20  C   UNL     1      -7.912   3.356  68.164  1.00  0.00    -0.075 A  
HETATM   21  C   UNL     1      -7.302   2.951  69.346  1.00  0.00    -0.044 A  
HETATM   22  C   UNL     1      -7.437   3.723  70.497  1.00  0.00    -0.041 A  
ENDBRANCH   2   6
TORSDOF 1
ENDMDL
MODEL      158
REMARK 921   NORMALIZED FREE ENERGY PREDICTED BY IDOCK:   -2.76 KCAL/MOL
REMARK 922        TOTAL FREE ENERGY PREDICTED BY IDOCK:   -2.94 KCAL/MOL
REMARK 923 INTER-LIGAND FREE ENERGY PREDICTED BY IDOCK:   -2.95 KCAL/MOL
REMARK 924 INTRA-LIGAND FREE ENERGY PREDICTED BY IDOCK:    0.01 KCAL/MOL
REMARK 927      BINDING AFFINITY PREDICTED BY RF-SCORE:    0.00 PKD
ROOT
HETATM    1  N   UNL     1      -8.603   7.810  65.890  1.00  0.00    -0.148 N  
HETATM    2  C   UNL     1      -8.375   8.811  66.796  1.00  0.00    -0.108 C  
HETATM    3  H1  UNL     1      -9.092   6.985  66.238  1.00  0.00     0.000 HD 
HETATM    4  H2  UNL     1      -8.299   7.884  64.919  1.00  0.00     0.000 HD 
HETATM    5  O   UNL     1      -7.786   9.804  66.377  1.00  0.00    -0.104 OA 
ENDROOT
BRANCH   2   6
HETATM    6  N   UNL     1      -8.936   8.609  68.074  1.00  0.00    -0.141 N  
HETATM    7  C   UNL     1     -10.057   9.405  68.553  1.00  0.00    -0.187 A  
HETATM    8  C   UNL     1     -11.009   8.965  69.507  1.00  0.00    -0.097 A  
HETATM    9  C   UNL     1     -11.103   7.587  70.125  1.00  0.00    -0.246 C  
HETATM   10  C   UNL     1     -12.032   9.850  69.935  1.00  0.00    -0.006 A  
HETATM   11  C   UNL     1     -12.155  11.135  69.423  1.00  0.00    -0.396 A  
HETATM   12  C   UNL     1     -10.255   6.486  69.508  1.00  0.00    -0.186 C  
HETATM   13  O   UNL     1     -10.614   5.225  70.082  1.00  0.00    -0.290 OA 
HETATM   14  C   UNL     1      -8.811   6.809  69.774  1.00  0.00    -0.141 A  
HETATM   15  C   UNL     1     -11.247  11.569  68.477  1.00  0.00    -0.315 A  
HETATM   16  C   UNL     1     -10.217  10.719  68.058  1.00  0.00    -0.203 A  
HETATM   17  C   UNL     1      -8.216   7.868  69.073  1.00  0.00    -0.126 A  
HETATM   18  H   UNL     1     -10.084   4.537  69.696  1.00  0.00     0.000 HD 
HETATM   19  C   UNL     1      -6.865   8.171  69.311  1.00  0.00    -0.051 A  
HETATM   20  C   UNL     1      -6.116   7.450  70.243  1.00  0.00    -0.027 A  
HETATM   21  C   UNL     1      -6.714   6.414  70.949  1.00  0.00    -0.058 A  
HETATM   22  C   UNL     1      -8.050   6.094  70.715  1.00  0.00    -0.124 A  
ENDBRANCH   2   6
TORSDOF 1
ENDMDL
MODEL      159
REMARK 921   NORMALIZED FREE ENERGY PREDICTED BY IDOCK:   -2.73 KCAL/MOL
REMARK 922        TOTAL FREE ENERGY PREDICTED BY IDOCK:   -2.91 KCAL/MOL
REMARK 923 INTER-LIGAND FREE ENERGY PREDICTED BY IDOCK:   -3.31 KCAL/MOL
REMARK 924 INTRA-LIGAND FREE ENERGY PREDICTED BY IDOCK:    0.39 KCAL/MOL
REMARK 927      BINDING AFFINITY PREDICTED BY RF-SCORE:    0.00 PKD
ROOT
HETATM    1  N   UNL     1      -5.839   8.525  68.846  1.00  0.00    -0.039 N  
HETATM    2  C   UNL     1      -7.089   8.659  69.389  1.00  0.00    -0.053 C  
HETATM    3  H1  UNL     1      -5.797   8.323  67.847  1.00  0.00     0.000 HD 
HETATM    4  H2  UNL     1      -4.995   8.622  69.411  1.00  0.00     0.000 HD 
HETATM    5  O   UNL     1      -7.140   8.902  70.591  1.00  0.00    -0.054 OA 
ENDROOT
BRANCH   2   6
HETATM    6  N   UNL     1      -8.157   8.596  68.470  1.00  0.00    -0.116 N  
HETATM    7  C   UNL     1      -9.351   9.413  68.626  1.00  0.00    -0.142 A  
HETATM    8  C   UNL     1     -10.183   9.837  67.559  1.00  0.00    -0.271 A  
HETATM    9  C   UNL     1      -9.948   9.615  66.082  1.00  0.00    -0.346 C  
HETATM   10  C   UNL     1     -11.353  10.591  67.840  1.00  0.00    -0.297 A  
HETATM   11  C   UNL     1     -11.697  10.959  69.135  1.00  0.00    -0.397 A  
HETATM   12  C   UNL     1      -8.581   9.096  65.664  1.00  0.00    -0.158 C  
HETATM   13  O   UNL     1      -8.469   9.133  64.237  1.00  0.00    -0.175 OA 
HETATM   14  C   UNL     1      -8.441   7.691  66.179  1.00  0.00    -0.147 A  
HETATM   15  C   UNL     1     -10.884  10.571  70.181  1.00  0.00    -0.291 A  
HETATM   16  C   UNL     1      -9.738   9.808  69.926  1.00  0.00    -0.273 A  
HETATM   17  C   UNL     1      -8.263   7.492  67.556  1.00  0.00    -0.113 A  
HETATM   18  H   UNL     1      -7.614   8.809  63.976  1.00  0.00     0.000 HD 
HETATM   19  C   UNL     1      -8.124   6.181  68.045  1.00  0.00    -0.114 A  
HETATM   20  C   UNL     1      -8.179   5.081  67.188  1.00  0.00    -0.107 A  
HETATM   21  C   UNL     1      -8.375   5.282  65.826  1.00  0.00    -0.123 A  
HETATM   22  C   UNL     1      -8.502   6.575  65.326  1.00  0.00    -0.091 A  
ENDBRANCH   2   6
TORSDOF 1
ENDMDL
MODEL      160
REMARK 921   NORMALIZED FREE ENERGY PREDICTED BY IDOCK:   -2.72 KCAL/MOL
REMARK 922        TOTAL FREE ENERGY PREDICTED BY IDOCK:   -2.90 KCAL/MOL
REMARK 923 INTER-LIGAND FREE ENERGY PREDICTED BY IDOCK:   -3.41 KCAL/MOL
REMARK 924 INTRA-LIGAND FREE ENERGY PREDICTED BY IDOCK:    0.51 KCAL/MOL
REMARK 927      BINDING AFFINITY PREDICTED BY RF-SCORE:    0.00 PKD
ROOT
HETATM    1  N   UNL     1     -11.143   6.392  68.242  1.00  0.00    -0.468 N  
HETATM    2  C   UNL     1     -11.087   6.331  69.609  1.00  0.00    -0.412 C  
HETATM    3  H1  UNL     1     -10.263   6.259  67.744  1.00  0.00     0.000 HD 
HETATM    4  H2  UNL     1     -12.020   6.562  67.747  1.00  0.00     0.000 HD 
HETATM    5  O   UNL     1     -12.146   6.492  70.208  1.00  0.00    -0.348 OA 
ENDROOT
BRANCH   2   6
HETATM    6  N   UNL     1      -9.828   5.993  70.147  1.00  0.00    -0.169 N  
HETATM    7  C   UNL     1      -9.063   4.858  69.653  1.00  0.00    -0.107 A  
HETATM    8  C   UNL     1      -7.650   4.753  69.705  1.00  0.00    -0.055 A  
HETATM    9  C   UNL     1      -6.679   5.810  70.182  1.00  0.00    -0.048 C  
HETATM   10  C   UNL     1      -7.018   3.572  69.236  1.00  0.00    -0.045 A  
HETATM   11  C   UNL     1      -7.740   2.517  68.692  1.00  0.00    -0.051 A  
HETATM   12  C   UNL     1      -7.229   7.210  70.410  1.00  0.00    -0.070 C  
HETATM   13  O   UNL     1      -6.149   8.115  70.662  1.00  0.00    -0.032 OA 
HETATM   14  C   UNL     1      -8.170   7.153  71.580  1.00  0.00    -0.107 A  
HETATM   15  C   UNL     1      -9.115   2.616  68.615  1.00  0.00    -0.211 A  
HETATM   16  C   UNL     1      -9.759   3.763  69.093  1.00  0.00    -0.107 A  
HETATM   17  C   UNL     1      -9.415   6.527  71.416  1.00  0.00    -0.158 A  
HETATM   18  H   UNL     1      -6.493   8.989  70.804  1.00  0.00     0.000 HD 
HETATM   19  C   UNL     1     -10.303   6.477  72.504  1.00  0.00    -0.216 A  
HETATM   20  C   UNL     1      -9.960   7.020  73.743  1.00  0.00    -0.367 A  
HETATM   21  C   UNL     1      -8.718   7.622  73.907  1.00  0.00    -0.302 A  
HETATM   22  C   UNL     1      -7.832   7.691  72.835  1.00  0.00    -0.135 A  
ENDBRANCH   2   6
TORSDOF 1
ENDMDL
MODEL      161
REMARK 921   NORMALIZED FREE ENERGY PREDICTED BY IDOCK:   -2.71 KCAL/MOL
REMARK 922        TOTAL FREE ENERGY PREDICTED BY IDOCK:   -2.89 KCAL/MOL
REMARK 923 INTER-LIGAND FREE ENERGY PREDICTED BY IDOCK:   -2.87 KCAL/MOL
REMARK 924 INTRA-LIGAND FREE ENERGY PREDICTED BY IDOCK:   -0.02 KCAL/MOL
REMARK 927      BINDING AFFINITY PREDICTED BY RF-SCORE:    0.00 PKD
ROOT
HETATM    1  N   UNL     1      -7.307  15.349  67.713  1.00  0.00    -0.145 N  
HETATM    2  C   UNL     1      -8.531  15.095  67.153  1.00  0.00    -0.212 C  
HETATM    3  H1  UNL     1      -7.285  16.042  68.461  1.00  0.00     0.000 HD 
HETATM    4  H2  UNL     1      -6.463  14.870  67.398  1.00  0.00     0.000 HD 
HETATM    5  O   UNL     1      -8.558  14.260  66.252  1.00  0.00     0.129 OA 
ENDROOT
BRANCH   2   6
HETATM    6  N   UNL     1      -9.621  15.758  67.755  1.00  0.00    -0.213 N  
HETATM    7  C   UNL     1     -10.544  15.066  68.641  1.00  0.00    -0.237 A  
HETATM    8  C   UNL     1     -11.284  15.686  69.679  1.00  0.00    -0.310 A  
HETATM    9  C   UNL     1     -11.190  17.129  70.122  1.00  0.00     0.817 C  
HETATM   10  C   UNL     1     -12.194  14.915  70.448  1.00  0.00    -0.393 A  
HETATM   11  C   UNL     1     -12.364  13.552  70.238  1.00  0.00    -0.370 A  
HETATM   12  C   UNL     1     -10.033  17.952  69.576  1.00  0.00     0.173 C  
HETATM   13  O   UNL     1      -9.986  19.217  70.245  1.00  0.00     0.311 OA 
HETATM   14  C   UNL     1     -10.248  18.131  68.099  1.00  0.00    -0.400 A  
HETATM   15  C   UNL     1     -11.633  12.931  69.245  1.00  0.00    -0.368 A  
HETATM   16  C   UNL     1     -10.747  13.679  68.461  1.00  0.00    -0.269 A  
HETATM   17  C   UNL     1     -10.062  17.029  67.251  1.00  0.00    -0.295 A  
HETATM   18  H   UNL     1      -9.263  19.731  69.904  1.00  0.00     0.000 HD 
HETATM   19  C   UNL     1     -10.255  17.191  65.868  1.00  0.00    -0.290 A  
HETATM   20  C   UNL     1     -10.644  18.419  65.332  1.00  0.00     0.224 A  
HETATM   21  C   UNL     1     -10.846  19.504  66.177  1.00  0.00    -0.429 A  
HETATM   22  C   UNL     1     -10.647  19.362  67.548  1.00  0.00    -0.591 A  
ENDBRANCH   2   6
TORSDOF 1
ENDMDL
MODEL      162
REMARK 921   NORMALIZED FREE ENERGY PREDICTED BY IDOCK:   -2.66 KCAL/MOL
REMARK 922        TOTAL FREE ENERGY PREDICTED BY IDOCK:   -2.84 KCAL/MOL
REMARK 923 INTER-LIGAND FREE ENERGY PREDICTED BY IDOCK:   -2.80 KCAL/MOL
REMARK 924 INTRA-LIGAND FREE ENERGY PREDICTED BY IDOCK:   -0.04 KCAL/MOL
REMARK 927      BINDING AFFINITY PREDICTED BY RF-SCORE:    0.00 PKD
ROOT
HETATM    1  N   UNL     1      -8.349   6.626  63.531  1.00  0.00    -0.334 N  
HETATM    2  C   UNL     1      -7.368   6.581  64.486  1.00  0.00    -0.082 C  
HETATM    3  H1  UNL     1      -9.298   6.796  63.863  1.00  0.00     0.000 HD 
HETATM    4  H2  UNL     1      -8.141   6.497  62.541  1.00  0.00     0.000 HD 
HETATM    5  O   UNL     1      -6.225   6.377  64.086  1.00  0.00    -0.029 OA 
ENDROOT
BRANCH   2   6
HETATM    6  N   UNL     1      -7.789   6.874  65.800  1.00  0.00    -0.100 N  
HETATM    7  C   UNL     1      -7.648   8.205  66.371  1.00  0.00    -0.091 A  
HETATM    8  C   UNL     1      -8.479   8.739  67.388  1.00  0.00    -0.116 A  
HETATM    9  C   UNL     1      -9.702   8.087  67.994  1.00  0.00    -0.184 C  
HETATM   10  C   UNL     1      -8.212  10.034  67.902  1.00  0.00    -0.113 A  
HETATM   11  C   UNL     1      -7.174  10.819  67.417  1.00  0.00    -0.093 A  
HETATM   12  C   UNL     1     -10.248   6.848  67.301  1.00  0.00    -0.220 C  
HETATM   13  O   UNL     1     -11.504   6.486  67.885  1.00  0.00    -0.635 OA 
HETATM   14  C   UNL     1      -9.241   5.745  67.462  1.00  0.00    -0.108 A  
HETATM   15  C   UNL     1      -6.370  10.320  66.411  1.00  0.00    -0.085 A  
HETATM   16  C   UNL     1      -6.603   9.035  65.906  1.00  0.00    -0.064 A  
HETATM   17  C   UNL     1      -8.045   5.811  66.733  1.00  0.00    -0.102 A  
HETATM   18  H   UNL     1     -11.846   5.713  67.452  1.00  0.00     0.000 HD 
HETATM   19  C   UNL     1      -7.101   4.779  66.873  1.00  0.00    -0.075 A  
HETATM   20  C   UNL     1      -7.326   3.706  67.737  1.00  0.00    -0.062 A  
HETATM   21  C   UNL     1      -8.504   3.654  68.473  1.00  0.00    -0.106 A  
HETATM   22  C   UNL     1      -9.454   4.663  68.335  1.00  0.00    -0.201 A  
ENDBRANCH   2   6
TORSDOF 1
ENDMDL
MODEL      163
REMARK 921   NORMALIZED FREE ENERGY PREDICTED BY IDOCK:   -2.66 KCAL/MOL
REMARK 922        TOTAL FREE ENERGY PREDICTED BY IDOCK:   -2.84 KCAL/MOL
REMARK 923 INTER-LIGAND FREE ENERGY PREDICTED BY IDOCK:   -3.20 KCAL/MOL
REMARK 924 INTRA-LIGAND FREE ENERGY PREDICTED BY IDOCK:    0.37 KCAL/MOL
REMARK 927      BINDING AFFINITY PREDICTED BY RF-SCORE:    0.00 PKD
ROOT
HETATM    1  N   UNL     1     -11.352   6.495  68.373  1.00  0.00    -0.566 N  
HETATM    2  C   UNL     1     -10.641   6.273  67.223  1.00  0.00    -0.302 C  
HETATM    3  H1  UNL     1     -10.925   7.120  69.057  1.00  0.00     0.000 HD 
HETATM    4  H2  UNL     1     -12.259   6.058  68.536  1.00  0.00     0.000 HD 
HETATM    5  O   UNL     1     -11.155   5.521  66.400  1.00  0.00    -0.167 OA 
ENDROOT
BRANCH   2   6
HETATM    6  N   UNL     1      -9.451   7.019  67.094  1.00  0.00    -0.139 N  
HETATM    7  C   UNL     1      -8.303   6.785  67.956  1.00  0.00    -0.120 A  
HETATM    8  C   UNL     1      -6.957   7.046  67.595  1.00  0.00    -0.083 A  
HETATM    9  C   UNL     1      -6.454   7.513  66.247  1.00  0.00    -0.049 C  
HETATM   10  C   UNL     1      -5.922   6.824  68.540  1.00  0.00    -0.025 A  
HETATM   11  C   UNL     1      -6.181   6.324  69.810  1.00  0.00    -0.027 A  
HETATM   12  C   UNL     1      -7.437   7.482  65.087  1.00  0.00    -0.085 C  
HETATM   13  O   UNL     1      -6.746   7.764  63.865  1.00  0.00    -0.060 OA 
HETATM   14  C   UNL     1      -8.502   8.508  65.354  1.00  0.00    -0.190 A  
HETATM   15  C   UNL     1      -7.485   6.045  70.168  1.00  0.00    -0.090 A  
HETATM   16  C   UNL     1      -8.522   6.279  69.257  1.00  0.00    -0.124 A  
HETATM   17  C   UNL     1      -9.447   8.254  66.359  1.00  0.00    -0.221 A  
HETATM   18  H   UNL     1      -7.361   7.744  63.140  1.00  0.00     0.000 HD 
HETATM   19  C   UNL     1     -10.451   9.206  66.609  1.00  0.00    -0.237 A  
HETATM   20  C   UNL     1     -10.509  10.401  65.890  1.00  0.00    -0.196 A  
HETATM   21  C   UNL     1      -9.559  10.657  64.908  1.00  0.00    -0.323 A  
HETATM   22  C   UNL     1      -8.566   9.718  64.640  1.00  0.00    -0.199 A  
ENDBRANCH   2   6
TORSDOF 1
ENDMDL
MODEL      164
REMARK 921   NORMALIZED FREE ENERGY PREDICTED BY IDOCK:   -2.62 KCAL/MOL
REMARK 922        TOTAL FREE ENERGY PREDICTED BY IDOCK:   -2.79 KCAL/MOL
REMARK 923 INTER-LIGAND FREE ENERGY PREDICTED BY IDOCK:   -2.77 KCAL/MOL
REMARK 924 INTRA-LIGAND FREE ENERGY PREDICTED BY IDOCK:   -0.02 KCAL/MOL
REMARK 927      BINDING AFFINITY PREDICTED BY RF-SCORE:    0.00 PKD
ROOT
HETATM    1  N   UNL     1      -6.519   8.433  68.591  1.00  0.00    -0.053 N  
HETATM    2  C   UNL     1      -6.992   9.066  69.710  1.00  0.00    -0.054 C  
HETATM    3  H1  UNL     1      -6.680   8.903  67.700  1.00  0.00     0.000 HD 
HETATM    4  H2  UNL     1      -6.031   7.538  68.645  1.00  0.00     0.000 HD 
HETATM    5  O   UNL     1      -6.797   8.499  70.781  1.00  0.00    -0.038 OA 
ENDROOT
BRANCH   2   6
HETATM    6  N   UNL     1      -7.557  10.339  69.490  1.00  0.00    -0.135 N  
HETATM    7  C   UNL     1      -6.844  11.562  69.827  1.00  0.00     0.013 A  
HETATM    8  C   UNL     1      -7.039  12.812  69.187  1.00  0.00     0.032 A  
HETATM    9  C   UNL     1      -7.930  13.092  67.997  1.00  0.00    -0.155 C  
HETATM   10  C   UNL     1      -6.319  13.949  69.637  1.00  0.00    -0.123 A  
HETATM   11  C   UNL     1      -5.396  13.874  70.672  1.00  0.00    -0.126 A  
HETATM   12  C   UNL     1      -8.498  11.893  67.254  1.00  0.00    -0.172 C  
HETATM   13  O   UNL     1      -9.145  12.333  66.055  1.00  0.00    -0.397 OA 
HETATM   14  C   UNL     1      -9.469  11.198  68.167  1.00  0.00    -0.180 A  
HETATM   15  C   UNL     1      -5.180  12.657  71.290  1.00  0.00    -0.149 A  
HETATM   16  C   UNL     1      -5.897  11.529  70.876  1.00  0.00     0.054 A  
HETATM   17  C   UNL     1      -8.969  10.475  69.260  1.00  0.00    -0.134 A  
HETATM   18  H   UNL     1      -9.500  11.584  65.591  1.00  0.00     0.000 HD 
HETATM   19  C   UNL     1      -9.870   9.817  70.114  1.00  0.00    -0.306 A  
HETATM   20  C   UNL     1     -11.248   9.888  69.903  1.00  0.00    -0.298 A  
HETATM   21  C   UNL     1     -11.741  10.622  68.831  1.00  0.00    -0.282 A  
HETATM   22  C   UNL     1     -10.859  11.269  67.969  1.00  0.00    -0.266 A  
ENDBRANCH   2   6
TORSDOF 1
ENDMDL
MODEL      165
REMARK 921   NORMALIZED FREE ENERGY PREDICTED BY IDOCK:   -2.61 KCAL/MOL
REMARK 922        TOTAL FREE ENERGY PREDICTED BY IDOCK:   -2.78 KCAL/MOL
REMARK 923 INTER-LIGAND FREE ENERGY PREDICTED BY IDOCK:   -2.74 KCAL/MOL
REMARK 924 INTRA-LIGAND FREE ENERGY PREDICTED BY IDOCK:   -0.04 KCAL/MOL
REMARK 927      BINDING AFFINITY PREDICTED BY RF-SCORE:    0.00 PKD
ROOT
HETATM    1  N   UNL     1      -7.494   9.340  69.726  1.00  0.00    -0.067 N  
HETATM    2  C   UNL     1      -8.672   8.804  69.276  1.00  0.00    -0.135 C  
HETATM    3  H1  UNL     1      -6.813   8.684  70.108  1.00  0.00     0.000 HD 
HETATM    4  H2  UNL     1      -7.308  10.342  69.680  1.00  0.00     0.000 HD 
HETATM    5  O   UNL     1      -9.491   9.594  68.816  1.00  0.00    -0.144 OA 
ENDROOT
BRANCH   2   6
HETATM    6  N   UNL     1      -8.748   7.396  69.312  1.00  0.00    -0.137 N  
HETATM    7  C   UNL     1      -8.402   6.581  68.158  1.00  0.00    -0.116 A  
HETATM    8  C   UNL     1      -7.924   5.247  68.226  1.00  0.00    -0.088 A  
HETATM    9  C   UNL     1      -7.594   4.466  69.479  1.00  0.00    -0.054 C  
HETATM   10  C   UNL     1      -7.667   4.533  67.028  1.00  0.00    -0.090 A  
HETATM   11  C   UNL     1      -7.840   5.110  65.776  1.00  0.00    -0.095 A  
HETATM   12  C   UNL     1      -7.538   5.238  70.788  1.00  0.00    -0.083 C  
HETATM   13  O   UNL     1      -7.025   4.391  71.822  1.00  0.00    -0.036 OA 
HETATM   14  C   UNL     1      -8.930   5.701  71.112  1.00  0.00    -0.148 A  
HETATM   15  C   UNL     1      -8.284   6.415  65.695  1.00  0.00    -0.140 A  
HETATM   16  C   UNL     1      -8.564   7.129  66.866  1.00  0.00    -0.124 A  
HETATM   17  C   UNL     1      -9.491   6.737  70.351  1.00  0.00    -0.166 A  
HETATM   18  H   UNL     1      -6.990   4.873  72.641  1.00  0.00     0.000 HD 
HETATM   19  C   UNL     1     -10.790   7.182  70.653  1.00  0.00    -0.268 A  
HETATM   20  C   UNL     1     -11.533   6.598  71.681  1.00  0.00    -0.332 A  
HETATM   21  C   UNL     1     -10.981   5.558  72.420  1.00  0.00    -0.310 A  
HETATM   22  C   UNL     1      -9.690   5.116  72.141  1.00  0.00    -0.205 A  
ENDBRANCH   2   6
TORSDOF 1
ENDMDL
MODEL      166
REMARK 921   NORMALIZED FREE ENERGY PREDICTED BY IDOCK:   -2.60 KCAL/MOL
REMARK 922        TOTAL FREE ENERGY PREDICTED BY IDOCK:   -2.77 KCAL/MOL
REMARK 923 INTER-LIGAND FREE ENERGY PREDICTED BY IDOCK:   -2.74 KCAL/MOL
REMARK 924 INTRA-LIGAND FREE ENERGY PREDICTED BY IDOCK:   -0.03 KCAL/MOL
REMARK 927      BINDING AFFINITY PREDICTED BY RF-SCORE:    0.00 PKD
ROOT
HETATM    1  N   UNL     1      -5.185   7.904  68.432  1.00  0.00    -0.030 N  
HETATM    2  C   UNL     1      -6.077   8.199  69.429  1.00  0.00    -0.034 C  
HETATM    3  H1  UNL     1      -5.496   8.081  67.477  1.00  0.00     0.000 HD 
HETATM    4  H2  UNL     1      -4.258   7.528  68.634  1.00  0.00     0.000 HD 
HETATM    5  O   UNL     1      -5.702   7.986  70.578  1.00  0.00    -0.029 OA 
ENDROOT
BRANCH   2   6
HETATM    6  N   UNL     1      -7.278   8.804  69.005  1.00  0.00    -0.071 N  
HETATM    7  C   UNL     1      -7.380  10.239  68.790  1.00  0.00    -0.086 A  
HETATM    8  C   UNL     1      -8.285  10.858  67.891  1.00  0.00    -0.114 A  
HETATM    9  C   UNL     1      -9.229  10.165  66.933  1.00  0.00    -0.168 C  
HETATM   10  C   UNL     1      -8.327  12.274  67.803  1.00  0.00    -0.162 A  
HETATM   11  C   UNL     1      -7.481  13.083  68.551  1.00  0.00    -0.123 A  
HETATM   12  C   UNL     1      -9.041   8.669  66.729  1.00  0.00    -0.149 C  
HETATM   13  O   UNL     1      -9.877   8.222  65.657  1.00  0.00    -0.391 OA 
HETATM   14  C   UNL     1      -9.396   7.978  68.015  1.00  0.00    -0.146 A  
HETATM   15  C   UNL     1      -6.579  12.492  69.415  1.00  0.00    -0.073 A  
HETATM   16  C   UNL     1      -6.538  11.098  69.532  1.00  0.00    -0.126 A  
HETATM   17  C   UNL     1      -8.523   8.091  69.107  1.00  0.00    -0.136 A  
HETATM   18  H   UNL     1      -9.760   7.288  65.529  1.00  0.00     0.000 HD 
HETATM   19  C   UNL     1      -8.845   7.441  70.311  1.00  0.00    -0.147 A  
HETATM   20  C   UNL     1     -10.023   6.704  70.441  1.00  0.00    -0.193 A  
HETATM   21  C   UNL     1     -10.896   6.610  69.363  1.00  0.00    -0.340 A  
HETATM   22  C   UNL     1     -10.584   7.239  68.160  1.00  0.00    -0.228 A  
ENDBRANCH   2   6
TORSDOF 1
ENDMDL
MODEL      167
REMARK 921   NORMALIZED FREE ENERGY PREDICTED BY IDOCK:   -2.54 KCAL/MOL
REMARK 922        TOTAL FREE ENERGY PREDICTED BY IDOCK:   -2.71 KCAL/MOL
REMARK 923 INTER-LIGAND FREE ENERGY PREDICTED BY IDOCK:   -3.58 KCAL/MOL
REMARK 924 INTRA-LIGAND FREE ENERGY PREDICTED BY IDOCK:    0.87 KCAL/MOL
REMARK 927      BINDING AFFINITY PREDICTED BY RF-SCORE:    0.00 PKD
ROOT
HETATM    1  N   UNL     1     -12.126  11.960  64.947  1.00  0.00    -0.159 N  
HETATM    2  C   UNL     1     -10.774  11.955  64.725  1.00  0.00    -0.307 C  
HETATM    3  H1  UNL     1     -12.427  11.884  65.918  1.00  0.00     0.000 HD 
HETATM    4  H2  UNL     1     -12.796  12.035  64.181  1.00  0.00     0.000 HD 
HETATM    5  O   UNL     1     -10.412  12.046  63.555  1.00  0.00    -0.401 OA 
ENDROOT
BRANCH   2   6
HETATM    6  N   UNL     1      -9.971  11.944  65.884  1.00  0.00    -0.228 N  
HETATM    7  C   UNL     1      -8.805  11.081  66.000  1.00  0.00    -0.191 A  
HETATM    8  C   UNL     1      -7.674  11.358  66.808  1.00  0.00    -0.150 A  
HETATM    9  C   UNL     1      -7.419  12.615  67.611  1.00  0.00    -0.143 C  
HETATM   10  C   UNL     1      -6.616  10.415  66.880  1.00  0.00    -0.078 A  
HETATM   11  C   UNL     1      -6.635   9.231  66.153  1.00  0.00    -0.070 A  
HETATM   12  C   UNL     1      -8.335  13.803  67.357  1.00  0.00    -0.193 C  
HETATM   13  O   UNL     1      -7.833  14.952  68.046  1.00  0.00    -0.114 OA 
HETATM   14  C   UNL     1      -9.710  13.440  67.843  1.00  0.00    -0.226 A  
HETATM   15  C   UNL     1      -7.721   8.959  65.345  1.00  0.00    -0.092 A  
HETATM   16  C   UNL     1      -8.785   9.866  65.278  1.00  0.00    -0.181 A  
HETATM   17  C   UNL     1     -10.462  12.510  67.110  1.00  0.00    -0.224 A  
HETATM   18  H   UNL     1      -8.405  15.694  67.887  1.00  0.00     0.000 HD 
HETATM   19  C   UNL     1     -11.751  12.171  67.555  1.00  0.00    -0.385 A  
HETATM   20  C   UNL     1     -12.284  12.729  68.719  1.00  0.00     0.004 A  
HETATM   21  C   UNL     1     -11.528  13.635  69.453  1.00  0.00    -0.343 A  
HETATM   22  C   UNL     1     -10.253  13.989  69.018  1.00  0.00    -0.100 A  
ENDBRANCH   2   6
TORSDOF 1
ENDMDL
MODEL      168
REMARK 921   NORMALIZED FREE ENERGY PREDICTED BY IDOCK:   -2.50 KCAL/MOL
REMARK 922        TOTAL FREE ENERGY PREDICTED BY IDOCK:   -2.67 KCAL/MOL
REMARK 923 INTER-LIGAND FREE ENERGY PREDICTED BY IDOCK:   -3.22 KCAL/MOL
REMARK 924 INTRA-LIGAND FREE ENERGY PREDICTED BY IDOCK:    0.55 KCAL/MOL
REMARK 927      BINDING AFFINITY PREDICTED BY RF-SCORE:    0.00 PKD
ROOT
HETATM    1  N   UNL     1     -11.675   7.046  69.565  1.00  0.00    -0.531 N  
HETATM    2  C   UNL     1     -11.057   7.754  70.561  1.00  0.00    -0.257 C  
HETATM    3  H1  UNL     1     -11.103   6.358  69.075  1.00  0.00     0.000 HD 
HETATM    4  H2  UNL     1     -12.655   7.198  69.325  1.00  0.00     0.000 HD 
HETATM    5  O   UNL     1     -11.746   8.582  71.151  1.00  0.00    -0.276 OA 
ENDROOT
BRANCH   2   6
HETATM    6  N   UNL     1      -9.731   7.367  70.846  1.00  0.00    -0.170 N  
HETATM    7  C   UNL     1      -8.722   7.268  69.803  1.00  0.00    -0.142 A  
HETATM    8  C   UNL     1      -7.329   7.432  70.010  1.00  0.00    -0.082 A  
HETATM    9  C   UNL     1      -6.645   7.828  71.300  1.00  0.00    -0.041 C  
HETATM   10  C   UNL     1      -6.434   7.263  68.922  1.00  0.00    -0.040 A  
HETATM   11  C   UNL     1      -6.881   6.970  67.640  1.00  0.00    -0.074 A  
HETATM   12  C   UNL     1      -7.528   8.331  72.432  1.00  0.00    -0.118 C  
HETATM   13  O   UNL     1      -6.708   8.841  73.489  1.00  0.00    -0.302 OA 
HETATM   14  C   UNL     1      -8.369   7.181  72.909  1.00  0.00    -0.124 A  
HETATM   15  C   UNL     1      -8.237   6.829  67.419  1.00  0.00    -0.122 A  
HETATM   16  C   UNL     1      -9.135   6.970  68.484  1.00  0.00    -0.131 A  
HETATM   17  C   UNL     1      -9.416   6.726  72.093  1.00  0.00    -0.139 A  
HETATM   18  H   UNL     1      -7.260   9.155  74.196  1.00  0.00     0.000 HD 
HETATM   19  C   UNL     1     -10.212   5.655  72.535  1.00  0.00    -0.225 A  
HETATM   20  C   UNL     1      -9.966   5.030  73.759  1.00  0.00    -0.195 A  
HETATM   21  C   UNL     1      -8.916   5.471  74.556  1.00  0.00    -0.121 A  
HETATM   22  C   UNL     1      -8.127   6.539  74.136  1.00  0.00    -0.128 A  
ENDBRANCH   2   6
TORSDOF 1
ENDMDL
MODEL      169
REMARK 921   NORMALIZED FREE ENERGY PREDICTED BY IDOCK:   -2.44 KCAL/MOL
REMARK 922        TOTAL FREE ENERGY PREDICTED BY IDOCK:   -2.61 KCAL/MOL
REMARK 923 INTER-LIGAND FREE ENERGY PREDICTED BY IDOCK:   -2.93 KCAL/MOL
REMARK 924 INTRA-LIGAND FREE ENERGY PREDICTED BY IDOCK:    0.33 KCAL/MOL
REMARK 927      BINDING AFFINITY PREDICTED BY RF-SCORE:    0.00 PKD
ROOT
HETATM    1  N   UNL     1     -11.731   6.564  69.471  1.00  0.00    -0.645 N  
HETATM    2  C   UNL     1     -10.810   6.307  68.490  1.00  0.00    -0.323 C  
HETATM    3  H1  UNL     1     -11.385   6.564  70.430  1.00  0.00     0.000 HD 
HETATM    4  H2  UNL     1     -12.711   6.747  69.253  1.00  0.00     0.000 HD 
HETATM    5  O   UNL     1     -11.226   6.307  67.336  1.00  0.00    -0.328 OA 
ENDROOT
BRANCH   2   6
HETATM    6  N   UNL     1      -9.478   6.171  68.933  1.00  0.00    -0.123 N  
HETATM    7  C   UNL     1      -9.020   4.979  69.631  1.00  0.00    -0.099 A  
HETATM    8  C   UNL     1      -7.683   4.505  69.627  1.00  0.00    -0.054 A  
HETATM    9  C   UNL     1      -6.523   5.072  68.840  1.00  0.00    -0.036 C  
HETATM   10  C   UNL     1      -7.345   3.356  70.387  1.00  0.00    -0.041 A  
HETATM   11  C   UNL     1      -8.294   2.652  71.118  1.00  0.00    -0.082 A  
HETATM   12  C   UNL     1      -6.844   6.100  67.766  1.00  0.00    -0.063 C  
HETATM   13  O   UNL     1      -5.668   6.376  66.998  1.00  0.00    -0.012 OA 
HETATM   14  C   UNL     1      -7.346   7.341  68.448  1.00  0.00    -0.103 A  
HETATM   15  C   UNL     1      -9.604   3.090  71.114  1.00  0.00    -0.229 A  
HETATM   16  C   UNL     1      -9.953   4.235  70.388  1.00  0.00    -0.213 A  
HETATM   17  C   UNL     1      -8.624   7.324  69.027  1.00  0.00    -0.129 A  
HETATM   18  H   UNL     1      -5.869   7.018  66.327  1.00  0.00     0.000 HD 
HETATM   19  C   UNL     1      -9.104   8.483  69.660  1.00  0.00    -0.149 A  
HETATM   20  C   UNL     1      -8.325   9.639  69.738  1.00  0.00    -0.183 A  
HETATM   21  C   UNL     1      -7.051   9.646  69.180  1.00  0.00    -0.062 A  
HETATM   22  C   UNL     1      -6.568   8.508  68.539  1.00  0.00    -0.059 A  
ENDBRANCH   2   6
TORSDOF 1
ENDMDL
MODEL      170
REMARK 921   NORMALIZED FREE ENERGY PREDICTED BY IDOCK:   -2.42 KCAL/MOL
REMARK 922        TOTAL FREE ENERGY PREDICTED BY IDOCK:   -2.59 KCAL/MOL
REMARK 923 INTER-LIGAND FREE ENERGY PREDICTED BY IDOCK:   -2.71 KCAL/MOL
REMARK 924 INTRA-LIGAND FREE ENERGY PREDICTED BY IDOCK:    0.12 KCAL/MOL
REMARK 927      BINDING AFFINITY PREDICTED BY RF-SCORE:    0.00 PKD
ROOT
HETATM    1  N   UNL     1     -11.617   6.487  67.376  1.00  0.00    -0.637 N  
HETATM    2  C   UNL     1     -10.573   5.826  66.784  1.00  0.00    -0.306 C  
HETATM    3  H1  UNL     1     -11.391   7.048  68.197  1.00  0.00     0.000 HD 
HETATM    4  H2  UNL     1     -12.569   6.421  67.014  1.00  0.00     0.000 HD 
HETATM    5  O   UNL     1     -10.844   5.150  65.796  1.00  0.00    -0.149 OA 
ENDROOT
BRANCH   2   6
HETATM    6  N   UNL     1      -9.301   6.088  67.334  1.00  0.00    -0.111 N  
HETATM    7  C   UNL     1      -8.652   7.381  67.179  1.00  0.00    -0.118 A  
HETATM    8  C   UNL     1      -7.708   7.924  68.088  1.00  0.00    -0.125 A  
HETATM    9  C   UNL     1      -7.275   7.328  69.409  1.00  0.00    -0.084 C  
HETATM   10  C   UNL     1      -7.102   9.175  67.804  1.00  0.00    -0.079 A  
HETATM   11  C   UNL     1      -7.429   9.911  66.672  1.00  0.00    -0.099 A  
HETATM   12  C   UNL     1      -8.086   6.159  69.946  1.00  0.00    -0.119 C  
HETATM   13  O   UNL     1      -7.665   5.855  71.280  1.00  0.00    -0.104 OA 
HETATM   14  C   UNL     1      -7.870   4.986  69.032  1.00  0.00    -0.080 A  
HETATM   15  C   UNL     1      -8.363   9.404  65.790  1.00  0.00    -0.126 A  
HETATM   16  C   UNL     1      -8.955   8.161  66.040  1.00  0.00    -0.213 A  
HETATM   17  C   UNL     1      -8.458   5.005  67.758  1.00  0.00    -0.104 A  
HETATM   18  H   UNL     1      -8.172   5.125  71.616  1.00  0.00     0.000 HD 
HETATM   19  C   UNL     1      -8.265   3.908  66.900  1.00  0.00    -0.100 A  
HETATM   20  C   UNL     1      -7.487   2.816  67.287  1.00  0.00    -0.065 A  
HETATM   21  C   UNL     1      -6.890   2.810  68.543  1.00  0.00    -0.047 A  
HETATM   22  C   UNL     1      -7.082   3.884  69.408  1.00  0.00    -0.046 A  
ENDBRANCH   2   6
TORSDOF 1
ENDMDL
MODEL      171
REMARK 921   NORMALIZED FREE ENERGY PREDICTED BY IDOCK:   -2.41 KCAL/MOL
REMARK 922        TOTAL FREE ENERGY PREDICTED BY IDOCK:   -2.57 KCAL/MOL
REMARK 923 INTER-LIGAND FREE ENERGY PREDICTED BY IDOCK:   -3.44 KCAL/MOL
REMARK 924 INTRA-LIGAND FREE ENERGY PREDICTED BY IDOCK:    0.86 KCAL/MOL
REMARK 927      BINDING AFFINITY PREDICTED BY RF-SCORE:    0.00 PKD
ROOT
HETATM    1  N   UNL     1      -9.556   5.871  66.803  1.00  0.00    -0.142 N  
HETATM    2  C   UNL     1     -10.138   6.778  67.648  1.00  0.00    -0.161 C  
HETATM    3  H1  UNL     1      -8.934   5.185  67.231  1.00  0.00     0.000 HD 
HETATM    4  H2  UNL     1      -9.735   5.881  65.798  1.00  0.00     0.000 HD 
HETATM    5  O   UNL     1     -10.886   7.604  67.133  1.00  0.00    -0.317 OA 
ENDROOT
BRANCH   2   6
HETATM    6  N   UNL     1      -9.875   6.581  69.020  1.00  0.00    -0.141 N  
HETATM    7  C   UNL     1     -10.461   7.434  70.042  1.00  0.00    -0.226 A  
HETATM    8  C   UNL     1     -10.718   7.033  71.378  1.00  0.00    -0.241 A  
HETATM    9  C   UNL     1     -10.532   5.649  71.960  1.00  0.00    -0.270 C  
HETATM   10  C   UNL     1     -11.248   7.970  72.301  1.00  0.00    -0.402 A  
HETATM   11  C   UNL     1     -11.557   9.274  71.932  1.00  0.00    -0.405 A  
HETATM   12  C   UNL     1     -10.268   4.512  70.985  1.00  0.00    -0.097 C  
HETATM   13  O   UNL     1     -10.314   3.262  71.682  1.00  0.00     0.003 OA 
HETATM   14  C   UNL     1      -8.916   4.735  70.368  1.00  0.00    -0.147 A  
HETATM   15  C   UNL     1     -11.331   9.672  70.629  1.00  0.00    -0.379 A  
HETATM   16  C   UNL     1     -10.788   8.768  69.708  1.00  0.00    -0.196 A  
HETATM   17  C   UNL     1      -8.763   5.771  69.435  1.00  0.00    -0.111 A  
HETATM   18  H   UNL     1     -10.150   2.551  71.074  1.00  0.00     0.000 HD 
HETATM   19  C   UNL     1      -7.503   5.981  68.847  1.00  0.00    -0.086 A  
HETATM   20  C   UNL     1      -6.405   5.191  69.191  1.00  0.00    -0.034 A  
HETATM   21  C   UNL     1      -6.556   4.177  70.130  1.00  0.00    -0.033 A  
HETATM   22  C   UNL     1      -7.801   3.950  70.712  1.00  0.00    -0.051 A  
ENDBRANCH   2   6
TORSDOF 1
ENDMDL
MODEL      172
REMARK 921   NORMALIZED FREE ENERGY PREDICTED BY IDOCK:   -2.38 KCAL/MOL
REMARK 922        TOTAL FREE ENERGY PREDICTED BY IDOCK:   -2.54 KCAL/MOL
REMARK 923 INTER-LIGAND FREE ENERGY PREDICTED BY IDOCK:   -3.52 KCAL/MOL
REMARK 924 INTRA-LIGAND FREE ENERGY PREDICTED BY IDOCK:    0.98 KCAL/MOL
REMARK 927      BINDING AFFINITY PREDICTED BY RF-SCORE:    0.00 PKD
ROOT
HETATM    1  N   UNL     1     -11.490   6.449  67.842  1.00  0.00    -0.604 N  
HETATM    2  C   UNL     1     -10.397   6.120  67.085  1.00  0.00    -0.230 C  
HETATM    3  H1  UNL     1     -11.561   7.422  68.138  1.00  0.00     0.000 HD 
HETATM    4  H2  UNL     1     -12.196   5.757  68.095  1.00  0.00     0.000 HD 
HETATM    5  O   UNL     1     -10.312   4.949  66.728  1.00  0.00    -0.237 OA 
ENDROOT
BRANCH   2   6
HETATM    6  N   UNL     1      -9.560   7.199  66.732  1.00  0.00    -0.170 N  
HETATM    7  C   UNL     1      -8.227   6.988  66.187  1.00  0.00    -0.125 A  
HETATM    8  C   UNL     1      -7.555   7.893  65.327  1.00  0.00    -0.090 A  
HETATM    9  C   UNL     1      -8.111   9.173  64.744  1.00  0.00    -0.140 C  
HETATM   10  C   UNL     1      -6.234   7.602  64.898  1.00  0.00    -0.038 A  
HETATM   11  C   UNL     1      -5.581   6.433  65.269  1.00  0.00    -0.022 A  
HETATM   12  C   UNL     1      -9.606   9.414  64.889  1.00  0.00     0.018 C  
HETATM   13  O   UNL     1      -9.985  10.558  64.117  1.00  0.00    -0.322 OA 
HETATM   14  C   UNL     1      -9.902   9.624  66.347  1.00  0.00    -0.309 A  
HETATM   15  C   UNL     1      -6.232   5.533  66.089  1.00  0.00    -0.034 A  
HETATM   16  C   UNL     1      -7.527   5.813  66.540  1.00  0.00    -0.083 A  
HETATM   17  C   UNL     1      -9.842   8.523  67.214  1.00  0.00    -0.199 A  
HETATM   18  H   UNL     1     -10.919  10.709  64.208  1.00  0.00     0.000 HD 
HETATM   19  C   UNL     1     -10.124   8.711  68.578  1.00  0.00    -0.211 A  
HETATM   20  C   UNL     1     -10.443   9.973  69.083  1.00  0.00    -0.238 A  
HETATM   21  C   UNL     1     -10.483  11.065  68.224  1.00  0.00    -0.212 A  
HETATM   22  C   UNL     1     -10.217  10.892  66.868  1.00  0.00    -0.272 A  
ENDBRANCH   2   6
TORSDOF 1
ENDMDL
MODEL      173
REMARK 921   NORMALIZED FREE ENERGY PREDICTED BY IDOCK:   -2.34 KCAL/MOL
REMARK 922        TOTAL FREE ENERGY PREDICTED BY IDOCK:   -2.50 KCAL/MOL
REMARK 923 INTER-LIGAND FREE ENERGY PREDICTED BY IDOCK:   -2.45 KCAL/MOL
REMARK 924 INTRA-LIGAND FREE ENERGY PREDICTED BY IDOCK:   -0.04 KCAL/MOL
REMARK 927      BINDING AFFINITY PREDICTED BY RF-SCORE:    0.00 PKD
ROOT
HETATM    1  N   UNL     1     -11.153   8.733  67.896  1.00  0.00    -0.435 N  
HETATM    2  C   UNL     1     -10.016   9.078  68.578  1.00  0.00    -0.176 C  
HETATM    3  H1  UNL     1     -11.134   7.840  67.405  1.00  0.00     0.000 HD 
HETATM    4  H2  UNL     1     -11.974   9.338  67.880  1.00  0.00     0.000 HD 
HETATM    5  O   UNL     1     -10.039  10.154  69.170  1.00  0.00    -0.189 OA 
ENDROOT
BRANCH   2   6
HETATM    6  N   UNL     1      -8.999   8.101  68.592  1.00  0.00    -0.137 N  
HETATM    7  C   UNL     1      -8.872   7.143  69.680  1.00  0.00    -0.141 A  
HETATM    8  C   UNL     1      -8.299   5.852  69.555  1.00  0.00    -0.114 A  
HETATM    9  C   UNL     1      -7.809   5.196  68.282  1.00  0.00    -0.087 C  
HETATM   10  C   UNL     1      -8.184   5.023  70.700  1.00  0.00    -0.102 A  
HETATM   11  C   UNL     1      -8.647   5.423  71.948  1.00  0.00    -0.131 A  
HETATM   12  C   UNL     1      -8.170   5.870  66.967  1.00  0.00    -0.105 C  
HETATM   13  O   UNL     1      -7.803   5.020  65.876  1.00  0.00    -0.090 OA 
HETATM   14  C   UNL     1      -7.437   7.180  66.901  1.00  0.00    -0.100 A  
HETATM   15  C   UNL     1      -9.227   6.669  72.079  1.00  0.00    -0.142 A  
HETATM   16  C   UNL     1      -9.330   7.511  70.965  1.00  0.00    -0.157 A  
HETATM   17  C   UNL     1      -7.857   8.232  67.729  1.00  0.00    -0.114 A  
HETATM   18  H   UNL     1      -8.029   5.441  65.054  1.00  0.00     0.000 HD 
HETATM   19  C   UNL     1      -7.181   9.462  67.668  1.00  0.00    -0.083 A  
HETATM   20  C   UNL     1      -6.092   9.647  66.814  1.00  0.00    -0.063 A  
HETATM   21  C   UNL     1      -5.667   8.596  66.009  1.00  0.00    -0.046 A  
HETATM   22  C   UNL     1      -6.335   7.375  66.050  1.00  0.00    -0.042 A  
ENDBRANCH   2   6
TORSDOF 1
ENDMDL
MODEL      174
REMARK 921   NORMALIZED FREE ENERGY PREDICTED BY IDOCK:   -2.23 KCAL/MOL
REMARK 922        TOTAL FREE ENERGY PREDICTED BY IDOCK:   -2.39 KCAL/MOL
REMARK 923 INTER-LIGAND FREE ENERGY PREDICTED BY IDOCK:   -3.21 KCAL/MOL
REMARK 924 INTRA-LIGAND FREE ENERGY PREDICTED BY IDOCK:    0.82 KCAL/MOL
REMARK 927      BINDING AFFINITY PREDICTED BY RF-SCORE:    0.00 PKD
ROOT
HETATM    1  N   UNL     1     -11.614   8.051  70.060  1.00  0.00    -0.462 N  
HETATM    2  C   UNL     1     -10.387   7.443  70.022  1.00  0.00    -0.219 C  
HETATM    3  H1  UNL     1     -11.660   9.004  69.699  1.00  0.00     0.000 HD 
HETATM    4  H2  UNL     1     -12.438   7.576  70.429  1.00  0.00     0.000 HD 
HETATM    5  O   UNL     1     -10.332   6.296  70.456  1.00  0.00    -0.190 OA 
ENDROOT
BRANCH   2   6
HETATM    6  N   UNL     1      -9.364   8.185  69.396  1.00  0.00    -0.155 N  
HETATM    7  C   UNL     1      -8.057   8.359  70.011  1.00  0.00    -0.115 A  
HETATM    8  C   UNL     1      -6.852   8.579  69.297  1.00  0.00    -0.050 A  
HETATM    9  C   UNL     1      -6.675   8.578  67.794  1.00  0.00    -0.066 C  
HETATM   10  C   UNL     1      -5.642   8.784  70.010  1.00  0.00    -0.028 A  
HETATM   11  C   UNL     1      -5.591   8.746  71.398  1.00  0.00    -0.042 A  
HETATM   12  C   UNL     1      -7.836   8.064  66.956  1.00  0.00    -0.104 C  
HETATM   13  O   UNL     1      -7.427   7.949  65.589  1.00  0.00    -0.077 OA 
HETATM   14  C   UNL     1      -8.975   9.033  67.098  1.00  0.00    -0.144 A  
HETATM   15  C   UNL     1      -6.754   8.511  72.105  1.00  0.00    -0.089 A  
HETATM   16  C   UNL     1      -7.961   8.328  71.421  1.00  0.00    -0.139 A  
HETATM   17  C   UNL     1      -9.676   9.078  68.313  1.00  0.00    -0.152 A  
HETATM   18  H   UNL     1      -8.151   7.628  65.065  1.00  0.00     0.000 HD 
HETATM   19  C   UNL     1     -10.747   9.977  68.451  1.00  0.00    -0.271 A  
HETATM   20  C   UNL     1     -11.111  10.833  67.411  1.00  0.00    -0.363 A  
HETATM   21  C   UNL     1     -10.402  10.799  66.215  1.00  0.00    -0.303 A  
HETATM   22  C   UNL     1      -9.346   9.905  66.060  1.00  0.00    -0.240 A  
ENDBRANCH   2   6
TORSDOF 1
ENDMDL
MODEL      175
REMARK 921   NORMALIZED FREE ENERGY PREDICTED BY IDOCK:   -2.19 KCAL/MOL
REMARK 922        TOTAL FREE ENERGY PREDICTED BY IDOCK:   -2.34 KCAL/MOL
REMARK 923 INTER-LIGAND FREE ENERGY PREDICTED BY IDOCK:   -3.23 KCAL/MOL
REMARK 924 INTRA-LIGAND FREE ENERGY PREDICTED BY IDOCK:    0.89 KCAL/MOL
REMARK 927      BINDING AFFINITY PREDICTED BY RF-SCORE:    0.00 PKD
ROOT
HETATM    1  N   UNL     1     -10.782   5.508  69.108  1.00  0.00    -0.237 N  
HETATM    2  C   UNL     1     -10.803   6.851  68.843  1.00  0.00    -0.207 C  
HETATM    3  H1  UNL     1     -10.387   4.908  68.384  1.00  0.00     0.000 HD 
HETATM    4  H2  UNL     1     -11.141   5.127  69.984  1.00  0.00     0.000 HD 
HETATM    5  O   UNL     1     -11.278   7.573  69.715  1.00  0.00    -0.182 OA 
ENDROOT
BRANCH   2   6
HETATM    6  N   UNL     1     -10.183   7.239  67.637  1.00  0.00    -0.183 N  
HETATM    7  C   UNL     1     -10.130   8.630  67.216  1.00  0.00    -0.244 A  
HETATM    8  C   UNL     1      -9.125   9.183  66.382  1.00  0.00    -0.211 A  
HETATM    9  C   UNL     1      -7.892   8.479  65.859  1.00  0.00    -0.099 C  
HETATM   10  C   UNL     1      -9.206  10.546  65.997  1.00  0.00    -0.205 A  
HETATM   11  C   UNL     1     -10.228  11.376  66.439  1.00  0.00    -0.270 A  
HETATM   12  C   UNL     1      -7.555   7.124  66.462  1.00  0.00    -0.092 C  
HETATM   13  O   UNL     1      -6.268   6.701  66.001  1.00  0.00    -0.038 OA 
HETATM   14  C   UNL     1      -8.623   6.153  66.045  1.00  0.00    -0.145 A  
HETATM   15  C   UNL     1     -11.202  10.857  67.269  1.00  0.00    -0.307 A  
HETATM   16  C   UNL     1     -11.152   9.509  67.642  1.00  0.00    -0.009 A  
HETATM   17  C   UNL     1      -9.897   6.261  66.623  1.00  0.00    -0.154 A  
HETATM   18  H   UNL     1      -6.057   5.854  66.377  1.00  0.00     0.000 HD 
HETATM   19  C   UNL     1     -10.899   5.352  66.243  1.00  0.00    -0.161 A  
HETATM   20  C   UNL     1     -10.653   4.360  65.292  1.00  0.00    -0.181 A  
HETATM   21  C   UNL     1      -9.395   4.268  64.708  1.00  0.00    -0.163 A  
HETATM   22  C   UNL     1      -8.389   5.155  65.083  1.00  0.00    -0.141 A  
ENDBRANCH   2   6
TORSDOF 1
ENDMDL
MODEL      176
REMARK 921   NORMALIZED FREE ENERGY PREDICTED BY IDOCK:   -2.14 KCAL/MOL
REMARK 922        TOTAL FREE ENERGY PREDICTED BY IDOCK:   -2.28 KCAL/MOL
REMARK 923 INTER-LIGAND FREE ENERGY PREDICTED BY IDOCK:   -3.06 KCAL/MOL
REMARK 924 INTRA-LIGAND FREE ENERGY PREDICTED BY IDOCK:    0.77 KCAL/MOL
REMARK 927      BINDING AFFINITY PREDICTED BY RF-SCORE:    0.00 PKD
ROOT
HETATM    1  N   UNL     1     -11.270   6.474  69.570  1.00  0.00    -0.455 N  
HETATM    2  C   UNL     1     -10.646   7.690  69.670  1.00  0.00    -0.243 C  
HETATM    3  H1  UNL     1     -10.990   5.883  68.788  1.00  0.00     0.000 HD 
HETATM    4  H2  UNL     1     -11.976   6.176  70.243  1.00  0.00     0.000 HD 
HETATM    5  O   UNL     1     -10.984   8.401  70.612  1.00  0.00    -0.235 OA 
ENDROOT
BRANCH   2   6
HETATM    6  N   UNL     1      -9.624   7.923  68.727  1.00  0.00    -0.150 N  
HETATM    7  C   UNL     1      -9.596   9.126  67.909  1.00  0.00    -0.146 A  
HETATM    8  C   UNL     1      -8.420   9.712  67.375  1.00  0.00    -0.125 A  
HETATM    9  C   UNL     1      -6.994   9.271  67.624  1.00  0.00    -0.078 C  
HETATM   10  C   UNL     1      -8.523  10.860  66.548  1.00  0.00    -0.159 A  
HETATM   11  C   UNL     1      -9.745  11.456  66.265  1.00  0.00    -0.239 A  
HETATM   12  C   UNL     1      -6.761   8.256  68.732  1.00  0.00    -0.058 C  
HETATM   13  O   UNL     1      -5.356   8.106  68.958  1.00  0.00    -0.026 OA 
HETATM   14  C   UNL     1      -7.381   6.955  68.306  1.00  0.00    -0.097 A  
HETATM   15  C   UNL     1     -10.897  10.909  66.797  1.00  0.00    -0.283 A  
HETATM   16  C   UNL     1     -10.818   9.763  67.597  1.00  0.00    -0.301 A  
HETATM   17  C   UNL     1      -8.779   6.845  68.292  1.00  0.00    -0.123 A  
HETATM   18  H   UNL     1      -5.210   7.472  69.651  1.00  0.00     0.000 HD 
HETATM   19  C   UNL     1      -9.366   5.629  67.902  1.00  0.00    -0.112 A  
HETATM   20  C   UNL     1      -8.582   4.541  67.511  1.00  0.00    -0.105 A  
HETATM   21  C   UNL     1      -7.197   4.660  67.507  1.00  0.00    -0.069 A  
HETATM   22  C   UNL     1      -6.602   5.855  67.903  1.00  0.00    -0.052 A  
ENDBRANCH   2   6
TORSDOF 1
ENDMDL
MODEL      177
REMARK 921   NORMALIZED FREE ENERGY PREDICTED BY IDOCK:   -2.09 KCAL/MOL
REMARK 922        TOTAL FREE ENERGY PREDICTED BY IDOCK:   -2.23 KCAL/MOL
REMARK 923 INTER-LIGAND FREE ENERGY PREDICTED BY IDOCK:   -2.34 KCAL/MOL
REMARK 924 INTRA-LIGAND FREE ENERGY PREDICTED BY IDOCK:    0.10 KCAL/MOL
REMARK 927      BINDING AFFINITY PREDICTED BY RF-SCORE:    0.00 PKD
ROOT
HETATM    1  N   UNL     1     -10.926   7.692  67.716  1.00  0.00    -0.501 N  
HETATM    2  C   UNL     1      -9.632   7.434  67.351  1.00  0.00    -0.148 C  
HETATM    3  H1  UNL     1     -11.118   7.726  68.717  1.00  0.00     0.000 HD 
HETATM    4  H2  UNL     1     -11.660   7.844  67.023  1.00  0.00     0.000 HD 
HETATM    5  O   UNL     1      -9.401   7.394  66.145  1.00  0.00    -0.146 OA 
ENDROOT
BRANCH   2   6
HETATM    6  N   UNL     1      -8.710   7.343  68.415  1.00  0.00    -0.124 N  
HETATM    7  C   UNL     1      -7.546   8.212  68.495  1.00  0.00    -0.104 A  
HETATM    8  C   UNL     1      -6.901   8.587  69.701  1.00  0.00    -0.043 A  
HETATM    9  C   UNL     1      -7.343   8.249  71.108  1.00  0.00    -0.070 C  
HETATM   10  C   UNL     1      -5.740   9.401  69.651  1.00  0.00    -0.033 A  
HETATM   11  C   UNL     1      -5.225   9.875  68.451  1.00  0.00    -0.036 A  
HETATM   12  C   UNL     1      -8.731   7.652  71.279  1.00  0.00    -0.131 C  
HETATM   13  O   UNL     1      -9.055   7.581  72.672  1.00  0.00    -0.136 OA 
HETATM   14  C   UNL     1      -8.727   6.284  70.656  1.00  0.00    -0.140 A  
HETATM   15  C   UNL     1      -5.855   9.535  67.270  1.00  0.00    -0.045 A  
HETATM   16  C   UNL     1      -6.989   8.714  67.297  1.00  0.00    -0.075 A  
HETATM   17  C   UNL     1      -8.689   6.180  69.258  1.00  0.00    -0.122 A  
HETATM   18  H   UNL     1      -9.922   7.208  72.779  1.00  0.00     0.000 HD 
HETATM   19  C   UNL     1      -8.693   4.904  68.668  1.00  0.00    -0.103 A  
HETATM   20  C   UNL     1      -8.714   3.747  69.448  1.00  0.00    -0.127 A  
HETATM   21  C   UNL     1      -8.731   3.855  70.834  1.00  0.00    -0.117 A  
HETATM   22  C   UNL     1      -8.741   5.112  71.433  1.00  0.00    -0.137 A  
ENDBRANCH   2   6
TORSDOF 1
ENDMDL
MODEL      178
REMARK 921   NORMALIZED FREE ENERGY PREDICTED BY IDOCK:   -2.01 KCAL/MOL
REMARK 922        TOTAL FREE ENERGY PREDICTED BY IDOCK:   -2.15 KCAL/MOL
REMARK 923 INTER-LIGAND FREE ENERGY PREDICTED BY IDOCK:   -2.53 KCAL/MOL
REMARK 924 INTRA-LIGAND FREE ENERGY PREDICTED BY IDOCK:    0.38 KCAL/MOL
REMARK 927      BINDING AFFINITY PREDICTED BY RF-SCORE:    0.00 PKD
ROOT
HETATM    1  N   UNL     1      -8.834  13.924  69.039  1.00  0.00    -0.372 N  
HETATM    2  C   UNL     1      -9.241  13.282  67.901  1.00  0.00    -0.213 C  
HETATM    3  H1  UNL     1      -9.090  13.487  69.924  1.00  0.00     0.000 HD 
HETATM    4  H2  UNL     1      -8.302  14.795  69.004  1.00  0.00     0.000 HD 
HETATM    5  O   UNL     1      -8.933  13.809  66.836  1.00  0.00    -0.237 OA 
ENDROOT
BRANCH   2   6
HETATM    6  N   UNL     1      -9.881  12.041  68.103  1.00  0.00    -0.196 N  
HETATM    7  C   UNL     1      -9.680  10.920  67.198  1.00  0.00    -0.174 A  
HETATM    8  C   UNL     1      -9.799   9.555  67.566  1.00  0.00    -0.213 A  
HETATM    9  C   UNL     1     -10.054   9.009  68.953  1.00  0.00    -0.207 C  
HETATM   10  C   UNL     1      -9.629   8.547  66.582  1.00  0.00    -0.292 A  
HETATM   11  C   UNL     1      -9.315   8.852  65.263  1.00  0.00    -0.095 A  
HETATM   12  C   UNL     1      -9.942   9.982  70.117  1.00  0.00    -0.184 C  
HETATM   13  O   UNL     1     -10.017   9.263  71.352  1.00  0.00    -0.306 OA 
HETATM   14  C   UNL     1     -11.065  10.974  70.002  1.00  0.00    -0.236 A  
HETATM   15  C   UNL     1      -9.175  10.176  64.896  1.00  0.00    -0.281 A  
HETATM   16  C   UNL     1      -9.361  11.186  65.847  1.00  0.00    -0.235 A  
HETATM   17  C   UNL     1     -11.008  11.943  68.989  1.00  0.00    -0.219 A  
HETATM   18  H   UNL     1      -9.947   9.870  72.080  1.00  0.00     0.000 HD 
HETATM   19  C   UNL     1     -12.051  12.879  68.879  1.00  0.00    -0.182 A  
HETATM   20  C   UNL     1     -13.145  12.846  69.746  1.00  0.00     1.223 A  
HETATM   21  C   UNL     1     -13.207  11.872  70.735  1.00  0.00     0.375 A  
HETATM   22  C   UNL     1     -12.175  10.946  70.864  1.00  0.00    -0.485 A  
ENDBRANCH   2   6
TORSDOF 1
ENDMDL
MODEL      179
REMARK 921   NORMALIZED FREE ENERGY PREDICTED BY IDOCK:   -1.81 KCAL/MOL
REMARK 922        TOTAL FREE ENERGY PREDICTED BY IDOCK:   -1.94 KCAL/MOL
REMARK 923 INTER-LIGAND FREE ENERGY PREDICTED BY IDOCK:   -1.90 KCAL/MOL
REMARK 924 INTRA-LIGAND FREE ENERGY PREDICTED BY IDOCK:   -0.04 KCAL/MOL
REMARK 927      BINDING AFFINITY PREDICTED BY RF-SCORE:    0.00 PKD
ROOT
HETATM    1  N   UNL     1     -10.509   7.129  68.668  1.00  0.00    -0.195 N  
HETATM    2  C   UNL     1      -9.398   6.620  68.051  1.00  0.00    -0.113 C  
HETATM    3  H1  UNL     1     -10.374   7.974  69.223  1.00  0.00     0.000 HD 
HETATM    4  H2  UNL     1     -11.425   6.687  68.577  1.00  0.00     0.000 HD 
HETATM    5  O   UNL     1      -9.562   5.603  67.383  1.00  0.00    -0.112 OA 
ENDROOT
BRANCH   2   6
HETATM    6  N   UNL     1      -8.225   7.390  68.186  1.00  0.00    -0.124 N  
HETATM    7  C   UNL     1      -7.874   8.426  67.226  1.00  0.00    -0.098 A  
HETATM    8  C   UNL     1      -7.088   9.568  67.523  1.00  0.00    -0.085 A  
HETATM    9  C   UNL     1      -6.556   9.975  68.879  1.00  0.00    -0.049 C  
HETATM   10  C   UNL     1      -6.769  10.487  66.489  1.00  0.00    -0.105 A  
HETATM   11  C   UNL     1      -7.231  10.322  65.190  1.00  0.00    -0.125 A  
HETATM   12  C   UNL     1      -7.098   9.234  70.092  1.00  0.00    -0.072 C  
HETATM   13  O   UNL     1      -6.642   9.874  71.288  1.00  0.00    -0.321 OA 
HETATM   14  C   UNL     1      -6.613   7.813  70.021  1.00  0.00    -0.037 A  
HETATM   15  C   UNL     1      -8.016   9.225  64.891  1.00  0.00    -0.121 A  
HETATM   16  C   UNL     1      -8.323   8.296  65.892  1.00  0.00    -0.132 A  
HETATM   17  C   UNL     1      -7.170   6.957  69.060  1.00  0.00    -0.091 A  
HETATM   18  H   UNL     1      -6.980   9.411  72.046  1.00  0.00     0.000 HD 
HETATM   19  C   UNL     1      -6.727   5.625  68.993  1.00  0.00    -0.060 A  
HETATM   20  C   UNL     1      -5.733   5.150  69.851  1.00  0.00    -0.016 A  
HETATM   21  C   UNL     1      -5.169   6.007  70.789  1.00  0.00    -0.013 A  
HETATM   22  C   UNL     1      -5.607   7.326  70.875  1.00  0.00    -0.027 A  
ENDBRANCH   2   6
TORSDOF 1
ENDMDL
MODEL      180
REMARK 921   NORMALIZED FREE ENERGY PREDICTED BY IDOCK:   -1.56 KCAL/MOL
REMARK 922        TOTAL FREE ENERGY PREDICTED BY IDOCK:   -1.67 KCAL/MOL
REMARK 923 INTER-LIGAND FREE ENERGY PREDICTED BY IDOCK:   -2.33 KCAL/MOL
REMARK 924 INTRA-LIGAND FREE ENERGY PREDICTED BY IDOCK:    0.66 KCAL/MOL
REMARK 927      BINDING AFFINITY PREDICTED BY RF-SCORE:    0.00 PKD
ROOT
HETATM    1  N   UNL     1      -7.388   9.035  68.726  1.00  0.00    -0.075 N  
HETATM    2  C   UNL     1      -6.869   8.098  67.873  1.00  0.00    -0.073 C  
HETATM    3  H1  UNL     1      -8.232   9.515  68.415  1.00  0.00     0.000 HD 
HETATM    4  H2  UNL     1      -6.953   9.243  69.626  1.00  0.00     0.000 HD 
HETATM    5  O   UNL     1      -5.853   7.520  68.249  1.00  0.00    -0.026 OA 
ENDROOT
BRANCH   2   6
HETATM    6  N   UNL     1      -7.631   7.849  66.713  1.00  0.00    -0.096 N  
HETATM    7  C   UNL     1      -8.181   8.931  65.911  1.00  0.00    -0.119 A  
HETATM    8  C   UNL     1      -8.457   8.847  64.523  1.00  0.00    -0.178 A  
HETATM    9  C   UNL     1      -8.153   7.681  63.607  1.00  0.00    -0.038 C  
HETATM   10  C   UNL     1      -9.041   9.955  63.856  1.00  0.00    -0.298 A  
HETATM   11  C   UNL     1      -9.325  11.144  64.515  1.00  0.00    -0.191 A  
HETATM   12  C   UNL     1      -7.256   6.581  64.153  1.00  0.00    -0.070 C  
HETATM   13  O   UNL     1      -6.917   5.672  63.100  1.00  0.00    -0.038 OA 
HETATM   14  C   UNL     1      -8.000   5.879  65.253  1.00  0.00    -0.115 A  
HETATM   15  C   UNL     1      -9.041  11.248  65.863  1.00  0.00    -0.217 A  
HETATM   16  C   UNL     1      -8.485  10.158  66.543  1.00  0.00    -0.128 A  
HETATM   17  C   UNL     1      -8.183   6.544  66.475  1.00  0.00    -0.113 A  
HETATM   18  H   UNL     1      -6.356   4.985  63.441  1.00  0.00     0.000 HD 
HETATM   19  C   UNL     1      -8.872   5.891  67.512  1.00  0.00    -0.106 A  
HETATM   20  C   UNL     1      -9.390   4.606  67.338  1.00  0.00    -0.162 A  
HETATM   21  C   UNL     1      -9.223   3.958  66.119  1.00  0.00    -0.161 A  
HETATM   22  C   UNL     1      -8.532   4.588  65.087  1.00  0.00    -0.126 A  
ENDBRANCH   2   6
TORSDOF 1
ENDMDL
MODEL      181
REMARK 921   NORMALIZED FREE ENERGY PREDICTED BY IDOCK:   -1.54 KCAL/MOL
REMARK 922        TOTAL FREE ENERGY PREDICTED BY IDOCK:   -1.65 KCAL/MOL
REMARK 923 INTER-LIGAND FREE ENERGY PREDICTED BY IDOCK:   -2.36 KCAL/MOL
REMARK 924 INTRA-LIGAND FREE ENERGY PREDICTED BY IDOCK:    0.70 KCAL/MOL
REMARK 927      BINDING AFFINITY PREDICTED BY RF-SCORE:    0.00 PKD
ROOT
HETATM    1  N   UNL     1      -9.186  10.140  69.120  1.00  0.00    -0.186 N  
HETATM    2  C   UNL     1      -7.972   9.622  68.754  1.00  0.00    -0.089 C  
HETATM    3  H1  UNL     1     -10.006   9.574  68.901  1.00  0.00     0.000 HD 
HETATM    4  H2  UNL     1      -9.266  11.043  69.588  1.00  0.00     0.000 HD 
HETATM    5  O   UNL     1      -6.986  10.303  69.018  1.00  0.00    -0.057 OA 
ENDROOT
BRANCH   2   6
HETATM    6  N   UNL     1      -8.010   8.323  68.206  1.00  0.00    -0.118 N  
HETATM    7  C   UNL     1      -7.466   8.031  66.889  1.00  0.00    -0.091 A  
HETATM    8  C   UNL     1      -6.963   6.768  66.485  1.00  0.00    -0.063 A  
HETATM    9  C   UNL     1      -6.806   5.536  67.349  1.00  0.00    -0.060 C  
HETATM   10  C   UNL     1      -6.503   6.589  65.155  1.00  0.00    -0.038 A  
HETATM   11  C   UNL     1      -6.498   7.629  64.232  1.00  0.00    -0.049 A  
HETATM   12  C   UNL     1      -6.976   5.712  68.851  1.00  0.00    -0.067 C  
HETATM   13  O   UNL     1      -6.602   4.503  69.520  1.00  0.00    -0.034 OA 
HETATM   14  C   UNL     1      -8.415   6.053  69.117  1.00  0.00    -0.114 A  
HETATM   15  C   UNL     1      -6.965   8.870  64.618  1.00  0.00    -0.084 A  
HETATM   16  C   UNL     1      -7.444   9.060  65.920  1.00  0.00    -0.094 A  
HETATM   17  C   UNL     1      -8.884   7.327  68.763  1.00  0.00    -0.127 A  
HETATM   18  H   UNL     1      -6.708   4.612  70.458  1.00  0.00     0.000 HD 
HETATM   19  C   UNL     1     -10.227   7.656  69.016  1.00  0.00    -0.211 A  
HETATM   20  C   UNL     1     -11.100   6.733  69.593  1.00  0.00    -0.343 A  
HETATM   21  C   UNL     1     -10.637   5.465  69.925  1.00  0.00    -0.351 A  
HETATM   22  C   UNL     1      -9.306   5.129  69.692  1.00  0.00    -0.182 A  
ENDBRANCH   2   6
TORSDOF 1
ENDMDL
MODEL      182
REMARK 921   NORMALIZED FREE ENERGY PREDICTED BY IDOCK:   -1.42 KCAL/MOL
REMARK 922        TOTAL FREE ENERGY PREDICTED BY IDOCK:   -1.53 KCAL/MOL
REMARK 923 INTER-LIGAND FREE ENERGY PREDICTED BY IDOCK:   -2.35 KCAL/MOL
REMARK 924 INTRA-LIGAND FREE ENERGY PREDICTED BY IDOCK:    0.82 KCAL/MOL
REMARK 927      BINDING AFFINITY PREDICTED BY RF-SCORE:    0.00 PKD
ROOT
HETATM    1  N   UNL     1     -10.797   5.543  69.367  1.00  0.00    -0.260 N  
HETATM    2  C   UNL     1     -10.135   6.719  69.131  1.00  0.00    -0.171 C  
HETATM    3  H1  UNL     1     -10.639   4.791  68.697  1.00  0.00     0.000 HD 
HETATM    4  H2  UNL     1     -11.415   5.426  70.171  1.00  0.00     0.000 HD 
HETATM    5  O   UNL     1     -10.325   7.625  69.938  1.00  0.00    -0.213 OA 
ENDROOT
BRANCH   2   6
HETATM    6  N   UNL     1      -9.241   6.701  68.040  1.00  0.00    -0.114 N  
HETATM    7  C   UNL     1      -8.372   7.830  67.743  1.00  0.00    -0.125 A  
HETATM    8  C   UNL     1      -7.123   7.734  67.079  1.00  0.00    -0.085 A  
HETATM    9  C   UNL     1      -6.421   6.465  66.647  1.00  0.00    -0.047 C  
HETATM   10  C   UNL     1      -6.386   8.913  66.799  1.00  0.00    -0.059 A  
HETATM   11  C   UNL     1      -6.834  10.170  67.186  1.00  0.00    -0.082 A  
HETATM   12  C   UNL     1      -6.974   5.149  67.172  1.00  0.00    -0.064 C  
HETATM   13  O   UNL     1      -6.082   4.083  66.830  1.00  0.00    -0.026 OA 
HETATM   14  C   UNL     1      -8.329   4.937  66.557  1.00  0.00    -0.107 A  
HETATM   15  C   UNL     1      -8.038  10.276  67.854  1.00  0.00    -0.102 A  
HETATM   16  C   UNL     1      -8.791   9.127  68.119  1.00  0.00    -0.129 A  
HETATM   17  C   UNL     1      -9.399   5.733  66.990  1.00  0.00    -0.119 A  
HETATM   18  H   UNL     1      -6.427   3.261  67.158  1.00  0.00     0.000 HD 
HETATM   19  C   UNL     1     -10.671   5.536  66.425  1.00  0.00    -0.262 A  
HETATM   20  C   UNL     1     -10.878   4.578  65.431  1.00  0.00    -0.096 A  
HETATM   21  C   UNL     1      -9.811   3.804  64.990  1.00  0.00    -0.175 A  
HETATM   22  C   UNL     1      -8.548   3.980  65.550  1.00  0.00    -0.114 A  
ENDBRANCH   2   6
TORSDOF 1
ENDMDL
MODEL      183
REMARK 921   NORMALIZED FREE ENERGY PREDICTED BY IDOCK:    1.11 KCAL/MOL
REMARK 922        TOTAL FREE ENERGY PREDICTED BY IDOCK:    1.15 KCAL/MOL
REMARK 923 INTER-LIGAND FREE ENERGY PREDICTED BY IDOCK:   -0.04 KCAL/MOL
REMARK 924 INTRA-LIGAND FREE ENERGY PREDICTED BY IDOCK:    1.19 KCAL/MOL
REMARK 927      BINDING AFFINITY PREDICTED BY RF-SCORE:    0.00 PKD
ROOT
HETATM    1  N   UNL     1      -6.096  15.656  71.898  1.00  0.00     1.192 N  
HETATM    2  C   UNL     1      -6.303  16.433  70.789  1.00  0.00     0.982 C  
HETATM    3  H1  UNL     1      -6.286  14.659  71.797  1.00  0.00     0.000 HD 
HETATM    4  H2  UNL     1      -5.769  16.054  72.779  1.00  0.00     0.000 HD 
HETATM    5  O   UNL     1      -6.074  17.633  70.911  1.00  0.00     0.444 OA 
ENDROOT
BRANCH   2   6
HETATM    6  N   UNL     1      -6.660  15.731  69.618  1.00  0.00    -0.184 N  
HETATM    7  C   UNL     1      -6.728  14.278  69.587  1.00  0.00    -0.118 A  
HETATM    8  C   UNL     1      -7.558  13.528  68.715  1.00  0.00    -0.066 A  
HETATM    9  C   UNL     1      -8.578  14.075  67.741  1.00  0.00    -0.183 C  
HETATM   10  C   UNL     1      -7.502  12.111  68.742  1.00  0.00    -0.075 A  
HETATM   11  C   UNL     1      -6.678  11.423  69.624  1.00  0.00    -0.105 A  
HETATM   12  C   UNL     1      -8.933  15.550  67.857  1.00  0.00    -0.173 C  
HETATM   13  O   UNL     1     -10.043  15.845  67.002  1.00  0.00    -0.256 OA 
HETATM   14  C   UNL     1      -7.723  16.350  67.466  1.00  0.00    -0.164 A  
HETATM   15  C   UNL     1      -5.881  12.141  70.494  1.00  0.00    -0.119 A  
HETATM   16  C   UNL     1      -5.905  13.540  70.467  1.00  0.00    -0.164 A  
HETATM   17  C   UNL     1      -6.627  16.389  68.341  1.00  0.00    -0.136 A  
HETATM   18  H   UNL     1     -10.265  16.766  67.075  1.00  0.00     0.000 HD 
HETATM   19  C   UNL     1      -5.495  17.141  67.985  1.00  0.00    -0.122 A  
HETATM   20  C   UNL     1      -5.437  17.830  66.772  1.00  0.00    -0.187 A  
HETATM   21  C   UNL     1      -6.516  17.773  65.899  1.00  0.00    -0.264 A  
HETATM   22  C   UNL     1      -7.650  17.041  66.243  1.00  0.00    -0.340 A  
ENDBRANCH   2   6
TORSDOF 1
ENDMDL
MODEL      184
REMARK 921   NORMALIZED FREE ENERGY PREDICTED BY IDOCK:    3.81 KCAL/MOL
REMARK 922        TOTAL FREE ENERGY PREDICTED BY IDOCK:    4.01 KCAL/MOL
REMARK 923 INTER-LIGAND FREE ENERGY PREDICTED BY IDOCK:    3.48 KCAL/MOL
REMARK 924 INTRA-LIGAND FREE ENERGY PREDICTED BY IDOCK:    0.53 KCAL/MOL
REMARK 927      BINDING AFFINITY PREDICTED BY RF-SCORE:    0.00 PKD
ROOT
HETATM    1  N   UNL     1      -7.471   8.936  68.636  1.00  0.00    -0.086 N  
HETATM    2  C   UNL     1      -6.864   7.900  67.977  1.00  0.00    -0.072 C  
HETATM    3  H1  UNL     1      -8.439   9.131  68.382  1.00  0.00     0.000 HD 
HETATM    4  H2  UNL     1      -6.981   9.483  69.345  1.00  0.00     0.000 HD 
HETATM    5  O   UNL     1      -5.698   7.665  68.284  1.00  0.00    -0.026 OA 
ENDROOT
BRANCH   2   6
HETATM    6  N   UNL     1      -7.693   7.174  67.098  1.00  0.00    -0.106 N  
HETATM    7  C   UNL     1      -9.013   6.711  67.497  1.00  0.00    -0.114 A  
HETATM    8  C   UNL     1     -10.093   6.486  66.605  1.00  0.00    -0.201 A  
HETATM    9  C   UNL     1     -10.116   6.769  65.119  1.00  0.00     2.531 C  
HETATM   10  C   UNL     1     -11.323   5.985  67.106  1.00  0.00     0.150 A  
HETATM   11  C   UNL     1     -11.518   5.734  68.459  1.00  0.00     0.779 A  
HETATM   12  C   UNL     1      -8.969   7.588  64.548  1.00  0.00     0.872 C  
HETATM   13  O   UNL     1      -9.252   7.924  63.185  1.00  0.00     0.496 OA 
HETATM   14  C   UNL     1      -7.715   6.767  64.652  1.00  0.00    -0.112 A  
HETATM   15  C   UNL     1     -10.482   5.969  69.341  1.00  0.00    -0.331 A  
HETATM   16  C   UNL     1      -9.255   6.442  68.863  1.00  0.00    -0.128 A  
HETATM   17  C   UNL     1      -7.142   6.568  65.917  1.00  0.00    -0.062 A  
HETATM   18  H   UNL     1      -8.536   8.436  62.828  1.00  0.00     0.000 HD 
HETATM   19  C   UNL     1      -5.965   5.807  66.022  1.00  0.00    -0.025 A  
HETATM   20  C   UNL     1      -5.373   5.233  64.895  1.00  0.00    -0.013 A  
HETATM   21  C   UNL     1      -5.955   5.417  63.646  1.00  0.00    -0.021 A  
HETATM   22  C   UNL     1      -7.114   6.179  63.525  1.00  0.00    -0.049 A  
ENDBRANCH   2   6
TORSDOF 1
ENDMDL
MODEL      185
REMARK 921   NORMALIZED FREE ENERGY PREDICTED BY IDOCK:   10.63 KCAL/MOL
REMARK 922        TOTAL FREE ENERGY PREDICTED BY IDOCK:   11.23 KCAL/MOL
REMARK 923 INTER-LIGAND FREE ENERGY PREDICTED BY IDOCK:   10.71 KCAL/MOL
REMARK 924 INTRA-LIGAND FREE ENERGY PREDICTED BY IDOCK:    0.52 KCAL/MOL
REMARK 927      BINDING AFFINITY PREDICTED BY RF-SCORE:    0.00 PKD
ROOT
HETATM    1  N   UNL     1      -7.322  11.219  67.948  1.00  0.00    -0.089 N  
HETATM    2  C   UNL     1      -6.872  12.506  68.068  1.00  0.00    -0.094 C  
HETATM    3  H1  UNL     1      -7.690  10.785  68.795  1.00  0.00     0.000 HD 
HETATM    4  H2  UNL     1      -7.292  10.719  67.059  1.00  0.00     0.000 HD 
HETATM    5  O   UNL     1      -6.429  13.028  67.049  1.00  0.00    -0.165 OA 
ENDROOT
BRANCH   2   6
HETATM    6  N   UNL     1      -7.067  13.100  69.333  1.00  0.00     0.081 N  
HETATM    7  C   UNL     1      -6.587  12.473  70.555  1.00  0.00     0.949 A  
HETATM    8  C   UNL     1      -6.239  13.173  71.738  1.00  0.00     1.603 A  
HETATM    9  C   UNL     1      -6.203  14.674  71.926  1.00  0.00     0.538 C  
HETATM   10  C   UNL     1      -5.830  12.447  72.887  1.00  0.00     2.057 A  
HETATM   11  C   UNL     1      -5.728  11.062  72.884  1.00  0.00     1.451 A  
HETATM   12  C   UNL     1      -6.320  15.536  70.678  1.00  0.00     0.276 C  
HETATM   13  O   UNL     1      -6.070  16.904  71.016  1.00  0.00     0.615 OA 
HETATM   14  C   UNL     1      -7.705  15.361  70.123  1.00  0.00     0.394 A  
HETATM   15  C   UNL     1      -6.044  10.369  71.732  1.00  0.00     0.666 A  
HETATM   16  C   UNL     1      -6.471  11.065  70.595  1.00  0.00     0.271 A  
HETATM   17  C   UNL     1      -8.035  14.149  69.499  1.00  0.00     0.408 A  
HETATM   18  H   UNL     1      -6.143  17.443  70.236  1.00  0.00     0.000 HD 
HETATM   19  C   UNL     1      -9.326  13.981  68.971  1.00  0.00     0.131 A  
HETATM   20  C   UNL     1     -10.286  14.989  69.074  1.00  0.00    -0.242 A  
HETATM   21  C   UNL     1      -9.961  16.182  69.710  1.00  0.00    -0.115 A  
HETATM   22  C   UNL     1      -8.682  16.368  70.227  1.00  0.00     1.968 A  
ENDBRANCH   2   6
TORSDOF 1
ENDMDL
MODEL      186
REMARK 921   NORMALIZED FREE ENERGY PREDICTED BY IDOCK:   10.82 KCAL/MOL
REMARK 922        TOTAL FREE ENERGY PREDICTED BY IDOCK:   11.43 KCAL/MOL
REMARK 923 INTER-LIGAND FREE ENERGY PREDICTED BY IDOCK:   10.47 KCAL/MOL
REMARK 924 INTRA-LIGAND FREE ENERGY PREDICTED BY IDOCK:    0.96 KCAL/MOL
REMARK 927      BINDING AFFINITY PREDICTED BY RF-SCORE:    0.00 PKD
ROOT
HETATM    1  N   UNL     1      -6.138  15.525  72.096  1.00  0.00     1.262 N  
HETATM    2  C   UNL     1      -6.591  16.536  71.290  1.00  0.00     2.746 C  
HETATM    3  H1  UNL     1      -6.256  14.576  71.743  1.00  0.00     0.000 HD 
HETATM    4  H2  UNL     1      -5.705  15.712  73.001  1.00  0.00     0.000 HD 
HETATM    5  O   UNL     1      -6.448  17.679  71.716  1.00  0.00     2.742 OA 
ENDROOT
BRANCH   2   6
HETATM    6  N   UNL     1      -7.075  16.133  70.029  1.00  0.00     0.218 N  
HETATM    7  C   UNL     1      -8.178  16.821  69.376  1.00  0.00     0.182 A  
HETATM    8  C   UNL     1      -8.376  16.879  67.973  1.00  0.00    -0.204 A  
HETATM    9  C   UNL     1      -7.453  16.336  66.904  1.00  0.00    -0.271 C  
HETATM   10  C   UNL     1      -9.519  17.540  67.453  1.00  0.00    -0.255 A  
HETATM   11  C   UNL     1     -10.445  18.166  68.278  1.00  0.00    -0.333 A  
HETATM   12  C   UNL     1      -6.065  15.891  67.341  1.00  0.00    -0.115 C  
HETATM   13  O   UNL     1      -5.271  15.597  66.187  1.00  0.00     1.677 OA 
HETATM   14  C   UNL     1      -6.221  14.677  68.213  1.00  0.00    -0.123 A  
HETATM   15  C   UNL     1     -10.253  18.137  69.645  1.00  0.00     0.435 A  
HETATM   16  C   UNL     1      -9.143  17.471  70.178  1.00  0.00     2.359 A  
HETATM   17  C   UNL     1      -6.742  14.837  69.505  1.00  0.00    -0.160 A  
HETATM   18  H   UNL     1      -4.404  15.319  66.460  1.00  0.00     0.000 HD 
HETATM   19  C   UNL     1      -6.883  13.707  70.330  1.00  0.00     0.467 A  
HETATM   20  C   UNL     1      -6.533  12.434  69.876  1.00  0.00     0.024 A  
HETATM   21  C   UNL     1      -6.036  12.277  68.588  1.00  0.00    -0.055 A  
HETATM   22  C   UNL     1      -5.879  13.389  67.764  1.00  0.00    -0.128 A  
ENDBRANCH   2   6
TORSDOF 1
ENDMDL
MODEL      187
REMARK 921   NORMALIZED FREE ENERGY PREDICTED BY IDOCK:   11.19 KCAL/MOL
REMARK 922        TOTAL FREE ENERGY PREDICTED BY IDOCK:   11.83 KCAL/MOL
REMARK 923 INTER-LIGAND FREE ENERGY PREDICTED BY IDOCK:   11.83 KCAL/MOL
REMARK 924 INTRA-LIGAND FREE ENERGY PREDICTED BY IDOCK:    0.00 KCAL/MOL
REMARK 927      BINDING AFFINITY PREDICTED BY RF-SCORE:    0.00 PKD
ROOT
HETATM    1  N   UNL     1      -9.647  15.575  69.768  1.00  0.00    -0.354 N  
HETATM    2  C   UNL     1     -10.818  15.193  69.170  1.00  0.00    -0.251 C  
HETATM    3  H1  UNL     1      -9.487  15.232  70.715  1.00  0.00     0.000 HD 
HETATM    4  H2  UNL     1      -8.969  16.171  69.291  1.00  0.00     0.000 HD 
HETATM    5  O   UNL     1     -11.010  15.606  68.030  1.00  0.00    -0.296 OA 
ENDROOT
BRANCH   2   6
HETATM    6  N   UNL     1     -11.609  14.290  69.912  1.00  0.00    -0.274 N  
HETATM    7  C   UNL     1     -11.758  12.899  69.515  1.00  0.00    -0.323 A  
HETATM    8  C   UNL     1     -12.034  11.831  70.406  1.00  0.00    -0.422 A  
HETATM    9  C   UNL     1     -12.128  11.910  71.914  1.00  0.00     1.191 C  
HETATM   10  C   UNL     1     -12.208  10.519  69.895  1.00  0.00    -0.289 A  
HETATM   11  C   UNL     1     -12.085  10.234  68.541  1.00  0.00     0.730 A  
HETATM   12  C   UNL     1     -11.655  13.195  72.576  1.00  0.00     4.115 C  
HETATM   13  O   UNL     1     -11.629  13.021  73.997  1.00  0.00     6.106 OA 
HETATM   14  C   UNL     1     -12.601  14.294  72.184  1.00  0.00    -0.352 A  
HETATM   15  C   UNL     1     -11.794  11.261  67.664  1.00  0.00    -0.102 A  
HETATM   16  C   UNL     1     -11.641  12.566  68.146  1.00  0.00    -0.390 A  
HETATM   17  C   UNL     1     -12.563  14.780  70.868  1.00  0.00    -0.336 A  
HETATM   18  H   UNL     1     -11.333  13.824  74.411  1.00  0.00     0.000 HD 
HETATM   19  C   UNL     1     -13.440  15.813  70.495  1.00  0.00     0.486 A  
HETATM   20  C   UNL     1     -14.355  16.347  71.404  1.00  0.00     3.037 A  
HETATM   21  C   UNL     1     -14.403  15.850  72.702  1.00  0.00    -0.102 A  
HETATM   22  C   UNL     1     -13.532  14.834  73.089  1.00  0.00    -0.350 A  
ENDBRANCH   2   6
TORSDOF 1
ENDMDL
MODEL      188
REMARK 921   NORMALIZED FREE ENERGY PREDICTED BY IDOCK:   16.93 KCAL/MOL
REMARK 922        TOTAL FREE ENERGY PREDICTED BY IDOCK:   17.89 KCAL/MOL
REMARK 923 INTER-LIGAND FREE ENERGY PREDICTED BY IDOCK:   16.72 KCAL/MOL
REMARK 924 INTRA-LIGAND FREE ENERGY PREDICTED BY IDOCK:    1.17 KCAL/MOL
REMARK 927      BINDING AFFINITY PREDICTED BY RF-SCORE:    0.00 PKD
ROOT
HETATM    1  N   UNL     1      -5.389  16.283  69.663  1.00  0.00    -0.127 N  
HETATM    2  C   UNL     1      -5.963  17.113  70.589  1.00  0.00     0.390 C  
HETATM    3  H1  UNL     1      -5.651  16.439  68.690  1.00  0.00     0.000 HD 
HETATM    4  H2  UNL     1      -4.733  15.549  69.932  1.00  0.00     0.000 HD 
HETATM    5  O   UNL     1      -5.647  16.925  71.761  1.00  0.00     0.385 OA 
ENDROOT
BRANCH   2   6
HETATM    6  N   UNL     1      -6.771  18.141  70.062  1.00  0.00     0.230 N  
HETATM    7  C   UNL     1      -6.866  18.383  68.630  1.00  0.00    -0.264 A  
HETATM    8  C   UNL     1      -7.986  18.962  67.982  1.00  0.00    -0.315 A  
HETATM    9  C   UNL     1      -9.305  19.342  68.618  1.00  0.00    -0.446 C  
HETATM   10  C   UNL     1      -7.943  19.195  66.583  1.00  0.00    -0.283 A  
HETATM   11  C   UNL     1      -6.842  18.842  65.812  1.00  0.00    -0.307 A  
HETATM   12  C   UNL     1      -9.563  18.851  70.034  1.00  0.00     1.024 C  
HETATM   13  O   UNL     1     -10.919  19.129  70.399  1.00  0.00     1.368 OA 
HETATM   14  C   UNL     1      -8.603  19.555  70.951  1.00  0.00     2.679 A  
HETATM   15  C   UNL     1      -5.753  18.257  66.427  1.00  0.00    -0.195 A  
HETATM   16  C   UNL     1      -5.767  18.040  67.810  1.00  0.00    -0.152 A  
HETATM   17  C   UNL     1      -7.247  19.197  70.913  1.00  0.00     1.923 A  
HETATM   18  H   UNL     1     -11.081  18.823  71.284  1.00  0.00     0.000 HD 
HETATM   19  C   UNL     1      -6.344  19.846  71.772  1.00  0.00     0.050 A  
HETATM   20  C   UNL     1      -6.771  20.848  72.645  1.00  0.00     3.467 A  
HETATM   21  C   UNL     1      -8.112  21.214  72.666  1.00  0.00     4.973 A  
HETATM   22  C   UNL     1      -9.020  20.571  71.829  1.00  0.00     2.325 A  
ENDBRANCH   2   6
TORSDOF 1
ENDMDL
