MODEL        1
REMARK 921   NORMALIZED FREE ENERGY PREDICTED BY IDOCK:   -5.94 KCAL/MOL
REMARK 922        TOTAL FREE ENERGY PREDICTED BY IDOCK:  -10.29 KCAL/MOL
REMARK 923 INTER-LIGAND FREE ENERGY PREDICTED BY IDOCK:   -9.42 KCAL/MOL
REMARK 924 INTRA-LIGAND FREE ENERGY PREDICTED BY IDOCK:   -0.88 KCAL/MOL
REMARK 927      BINDING AFFINITY PREDICTED BY RF-SCORE:    0.00 PKD
ROOT
HETATM    1  C   UNL     1     -12.003  12.298  63.557  1.00  0.00    -0.533 C  
HETATM    2  O   UNL     1     -12.559  13.584  63.297  1.00  0.00    -0.773 OA 
ENDROOT
BRANCH   2   3
HETATM    3  C   UNL     1     -12.366  14.487  64.301  1.00  0.00    -0.369 C  
HETATM    4  O   UNL     1     -11.947  15.628  64.153  1.00  0.00    -0.530 OA 
BRANCH   3   5
HETATM    5  C   UNL     1     -12.728  13.852  65.611  1.00  0.00    -0.534 C  
BRANCH   5   6
HETATM    6  C   UNL     1     -11.717  14.174  66.717  1.00  0.00    -0.432 C  
BRANCH   6   7
HETATM    7  C   UNL     1     -11.766  13.199  67.873  1.00  0.00    -0.398 A  
HETATM    8  C   UNL     1     -11.968  13.648  69.179  1.00  0.00    -0.394 A  
HETATM    9  C   UNL     1     -11.996  12.759  70.247  1.00  0.00    -0.358 A  
HETATM   10  C   UNL     1     -11.841  11.389  70.042  1.00  0.00    -0.359 A  
HETATM   11  C   UNL     1     -11.653  11.816  67.655  1.00  0.00    -0.364 A  
HETATM   12  C   UNL     1     -11.686  10.919  68.736  1.00  0.00    -0.355 A  
BRANCH  10  13
HETATM   13  O   UNL     1     -11.837  10.451  71.048  1.00  0.00    -0.343 OA 
BRANCH  13  14
HETATM   14  C   UNL     1     -13.140  10.155  71.582  1.00  0.00    -0.447 C  
BRANCH  14  15
HETATM   15  C   UNL     1     -13.148   8.817  72.326  1.00  0.00    -0.409 C  
HETATM   16  O   UNL     1     -14.151   8.843  73.349  1.00  0.00    -1.256 OA 
HETATM   17  H   UNL     1     -14.156   8.012  73.811  1.00  0.00     0.000 HD 
BRANCH  15  18
HETATM   18  C   UNL     1     -13.392   7.618  71.393  1.00  0.00    -0.288 C  
BRANCH  18  19
HETATM   19  N   UNL     1     -12.187   7.258  70.637  1.00  0.00    -0.558 NA 
HETATM   20  H   UNL     1     -12.005   7.943  69.903  1.00  0.00     0.000 HD 
BRANCH  19  21
HETATM   21  C   UNL     1     -10.997   7.070  71.475  1.00  0.00    -0.234 C  
HETATM   22  C   UNL     1     -10.915   5.671  72.088  1.00  0.00    -0.307 C  
HETATM   23  C   UNL     1      -9.765   7.310  70.598  1.00  0.00    -0.175 C  
ENDBRANCH  19  21
ENDBRANCH  18  19
ENDBRANCH  15  18
ENDBRANCH  14  15
ENDBRANCH  13  14
ENDBRANCH  10  13
ENDBRANCH   6   7
ENDBRANCH   5   6
ENDBRANCH   3   5
ENDBRANCH   2   3
TORSDOF 10
ENDMDL
MODEL        2
REMARK 921   NORMALIZED FREE ENERGY PREDICTED BY IDOCK:   -5.94 KCAL/MOL
REMARK 922        TOTAL FREE ENERGY PREDICTED BY IDOCK:  -10.29 KCAL/MOL
REMARK 923 INTER-LIGAND FREE ENERGY PREDICTED BY IDOCK:   -9.38 KCAL/MOL
REMARK 924 INTRA-LIGAND FREE ENERGY PREDICTED BY IDOCK:   -0.91 KCAL/MOL
REMARK 927      BINDING AFFINITY PREDICTED BY RF-SCORE:    0.00 PKD
ROOT
HETATM    1  C   UNL     1     -11.768   7.608  72.563  1.00  0.00    -0.301 C  
HETATM    2  O   UNL     1     -12.382   8.427  71.571  1.00  0.00    -0.295 OA 
ENDROOT
BRANCH   2   3
HETATM    3  C   UNL     1     -13.330   9.276  72.060  1.00  0.00    -0.450 C  
HETATM    4  O   UNL     1     -14.287   8.946  72.749  1.00  0.00    -0.600 OA 
BRANCH   3   5
HETATM    5  C   UNL     1     -13.026  10.672  71.600  1.00  0.00    -0.582 C  
BRANCH   5   6
HETATM    6  C   UNL     1     -11.788  10.735  70.699  1.00  0.00    -0.460 C  
BRANCH   6   7
HETATM    7  C   UNL     1     -11.827  11.878  69.709  1.00  0.00    -0.411 A  
HETATM    8  C   UNL     1     -11.996  13.194  70.141  1.00  0.00    -0.381 A  
HETATM    9  C   UNL     1     -12.050  14.246  69.235  1.00  0.00    -0.351 A  
HETATM   10  C   UNL     1     -11.917  14.018  67.865  1.00  0.00    -0.351 A  
HETATM   11  C   UNL     1     -11.649  11.647  68.335  1.00  0.00    -0.376 A  
HETATM   12  C   UNL     1     -11.700  12.713  67.420  1.00  0.00    -0.432 A  
BRANCH  10  13
HETATM   13  O   UNL     1     -11.980  15.003  66.907  1.00  0.00    -0.205 OA 
BRANCH  13  14
HETATM   14  C   UNL     1     -11.751  14.535  65.567  1.00  0.00    -0.343 C  
BRANCH  14  15
HETATM   15  C   UNL     1     -10.767  15.439  64.820  1.00  0.00    -0.314 C  
HETATM   16  O   UNL     1     -11.482  16.268  63.896  1.00  0.00    -1.484 OA 
HETATM   17  H   UNL     1     -10.871  16.829  63.432  1.00  0.00     0.000 HD 
BRANCH  15  18
HETATM   18  C   UNL     1      -9.930  16.319  65.765  1.00  0.00    -0.323 C  
BRANCH  18  19
HETATM   19  N   UNL     1     -10.481  17.674  65.883  1.00  0.00    -0.516 NA 
HETATM   20  H   UNL     1     -11.351  17.756  65.357  1.00  0.00     0.000 HD 
BRANCH  19  21
HETATM   21  C   UNL     1     -10.673  18.115  67.270  1.00  0.00    -0.315 C  
HETATM   22  C   UNL     1      -9.805  17.344  68.267  1.00  0.00    -0.310 C  
HETATM   23  C   UNL     1     -10.321  19.604  67.340  1.00  0.00    -0.581 C  
ENDBRANCH  19  21
ENDBRANCH  18  19
ENDBRANCH  15  18
ENDBRANCH  14  15
ENDBRANCH  13  14
ENDBRANCH  10  13
ENDBRANCH   6   7
ENDBRANCH   5   6
ENDBRANCH   3   5
ENDBRANCH   2   3
TORSDOF 10
ENDMDL
MODEL        3
REMARK 921   NORMALIZED FREE ENERGY PREDICTED BY IDOCK:   -5.80 KCAL/MOL
REMARK 922        TOTAL FREE ENERGY PREDICTED BY IDOCK:  -10.07 KCAL/MOL
REMARK 923 INTER-LIGAND FREE ENERGY PREDICTED BY IDOCK:   -8.90 KCAL/MOL
REMARK 924 INTRA-LIGAND FREE ENERGY PREDICTED BY IDOCK:   -1.17 KCAL/MOL
REMARK 927      BINDING AFFINITY PREDICTED BY RF-SCORE:    0.00 PKD
ROOT
HETATM    1  C   UNL     1     -12.997   6.934  71.647  1.00  0.00    -0.307 C  
HETATM    2  O   UNL     1     -12.632   8.282  71.365  1.00  0.00    -0.305 OA 
ENDROOT
BRANCH   2   3
HETATM    3  C   UNL     1     -13.404   9.212  71.996  1.00  0.00    -0.445 C  
HETATM    4  O   UNL     1     -14.375   8.964  72.700  1.00  0.00    -0.613 OA 
BRANCH   3   5
HETATM    5  C   UNL     1     -12.888  10.584  71.673  1.00  0.00    -0.581 C  
BRANCH   5   6
HETATM    6  C   UNL     1     -11.743  10.553  70.654  1.00  0.00    -0.453 C  
BRANCH   6   7
HETATM    7  C   UNL     1     -11.818  11.672  69.638  1.00  0.00    -0.419 A  
HETATM    8  C   UNL     1     -11.674  11.410  68.274  1.00  0.00    -0.359 A  
HETATM    9  C   UNL     1     -11.724  12.436  67.338  1.00  0.00    -0.417 A  
HETATM   10  C   UNL     1     -11.939  13.756  67.733  1.00  0.00    -0.356 A  
HETATM   11  C   UNL     1     -12.079  12.993  70.038  1.00  0.00    -0.367 A  
HETATM   12  C   UNL     1     -12.133  14.027  69.089  1.00  0.00    -0.375 A  
BRANCH  10  13
HETATM   13  O   UNL     1     -11.981  14.824  66.869  1.00  0.00    -0.334 OA 
BRANCH  13  14
HETATM   14  C   UNL     1     -11.588  14.508  65.522  1.00  0.00    -0.350 C  
BRANCH  14  15
HETATM   15  C   UNL     1     -10.852  15.678  64.864  1.00  0.00    -0.418 C  
HETATM   16  O   UNL     1     -11.727  16.340  63.943  1.00  0.00    -1.441 OA 
HETATM   17  H   UNL     1     -11.270  17.066  63.534  1.00  0.00     0.000 HD 
BRANCH  15  18
HETATM   18  C   UNL     1     -10.314  16.695  65.887  1.00  0.00    -0.340 C  
BRANCH  18  19
HETATM   19  N   UNL     1      -9.141  16.182  66.604  1.00  0.00    -0.229 NA 
HETATM   20  H   UNL     1      -8.282  16.442  66.120  1.00  0.00     0.000 HD 
BRANCH  19  21
HETATM   21  C   UNL     1      -9.084  16.591  68.012  1.00  0.00    -0.209 C  
HETATM   22  C   UNL     1     -10.413  17.148  68.526  1.00  0.00    -0.377 C  
HETATM   23  C   UNL     1      -8.697  15.363  68.841  1.00  0.00    -0.208 C  
ENDBRANCH  19  21
ENDBRANCH  18  19
ENDBRANCH  15  18
ENDBRANCH  14  15
ENDBRANCH  13  14
ENDBRANCH  10  13
ENDBRANCH   6   7
ENDBRANCH   5   6
ENDBRANCH   3   5
ENDBRANCH   2   3
TORSDOF 10
ENDMDL
MODEL        4
REMARK 921   NORMALIZED FREE ENERGY PREDICTED BY IDOCK:   -5.75 KCAL/MOL
REMARK 922        TOTAL FREE ENERGY PREDICTED BY IDOCK:   -9.99 KCAL/MOL
REMARK 923 INTER-LIGAND FREE ENERGY PREDICTED BY IDOCK:   -9.09 KCAL/MOL
REMARK 924 INTRA-LIGAND FREE ENERGY PREDICTED BY IDOCK:   -0.90 KCAL/MOL
REMARK 927      BINDING AFFINITY PREDICTED BY RF-SCORE:    0.00 PKD
ROOT
HETATM    1  C   UNL     1     -12.641  15.908  74.203  1.00  0.00    -0.604 C  
HETATM    2  O   UNL     1     -12.552  14.615  73.612  1.00  0.00    -0.463 OA 
ENDROOT
BRANCH   2   3
HETATM    3  C   UNL     1     -13.432  14.407  72.591  1.00  0.00    -0.509 C  
HETATM    4  O   UNL     1     -14.325  13.571  72.587  1.00  0.00    -0.716 OA 
BRANCH   3   5
HETATM    5  C   UNL     1     -13.116  15.353  71.469  1.00  0.00    -0.545 C  
BRANCH   5   6
HETATM    6  C   UNL     1     -11.740  15.087  70.849  1.00  0.00    -0.376 C  
BRANCH   6   7
HETATM    7  C   UNL     1     -11.803  14.266  69.580  1.00  0.00    -0.370 A  
HETATM    8  C   UNL     1     -11.804  12.871  69.630  1.00  0.00    -0.387 A  
HETATM    9  C   UNL     1     -11.845  12.112  68.466  1.00  0.00    -0.365 A  
HETATM   10  C   UNL     1     -11.906  12.724  67.214  1.00  0.00    -0.350 A  
HETATM   11  C   UNL     1     -11.908  14.887  68.325  1.00  0.00    -0.308 A  
HETATM   12  C   UNL     1     -11.954  14.118  67.150  1.00  0.00    -0.460 A  
BRANCH  10  13
HETATM   13  O   UNL     1     -11.928  12.042  66.021  1.00  0.00    -0.559 OA 
BRANCH  13  14
HETATM   14  C   UNL     1     -12.352  12.835  64.898  1.00  0.00    -0.490 C  
BRANCH  14  15
HETATM   15  C   UNL     1     -11.307  12.823  63.778  1.00  0.00    -0.461 C  
HETATM   16  O   UNL     1     -10.306  13.812  64.045  1.00  0.00    -0.611 OA 
HETATM   17  H   UNL     1      -9.658  13.805  63.350  1.00  0.00     0.000 HD 
BRANCH  15  18
HETATM   18  C   UNL     1     -10.640  11.447  63.600  1.00  0.00    -0.412 C  
BRANCH  18  19
HETATM   19  N   UNL     1      -9.324  11.388  64.246  1.00  0.00    -0.404 NA 
HETATM   20  H   UNL     1      -9.330  11.911  65.122  1.00  0.00     0.000 HD 
BRANCH  19  21
HETATM   21  C   UNL     1      -8.832  10.023  64.462  1.00  0.00    -0.205 C  
HETATM   22  C   UNL     1      -7.343   9.973  64.808  1.00  0.00    -0.143 C  
HETATM   23  C   UNL     1      -9.638   9.411  65.612  1.00  0.00    -0.345 C  
ENDBRANCH  19  21
ENDBRANCH  18  19
ENDBRANCH  15  18
ENDBRANCH  14  15
ENDBRANCH  13  14
ENDBRANCH  10  13
ENDBRANCH   6   7
ENDBRANCH   5   6
ENDBRANCH   3   5
ENDBRANCH   2   3
TORSDOF 10
ENDMDL
MODEL        5
REMARK 921   NORMALIZED FREE ENERGY PREDICTED BY IDOCK:   -5.71 KCAL/MOL
REMARK 922        TOTAL FREE ENERGY PREDICTED BY IDOCK:   -9.93 KCAL/MOL
REMARK 923 INTER-LIGAND FREE ENERGY PREDICTED BY IDOCK:   -9.02 KCAL/MOL
REMARK 924 INTRA-LIGAND FREE ENERGY PREDICTED BY IDOCK:   -0.91 KCAL/MOL
REMARK 927      BINDING AFFINITY PREDICTED BY RF-SCORE:    0.00 PKD
ROOT
HETATM    1  C   UNL     1     -10.032  11.474  63.582  1.00  0.00    -0.376 C  
HETATM    2  O   UNL     1     -11.431  11.742  63.614  1.00  0.00    -0.420 OA 
ENDROOT
BRANCH   2   3
HETATM    3  C   UNL     1     -11.745  13.023  63.960  1.00  0.00    -0.436 C  
HETATM    4  O   UNL     1     -12.505  13.756  63.340  1.00  0.00    -0.817 OA 
BRANCH   3   5
HETATM    5  C   UNL     1     -10.997  13.394  65.207  1.00  0.00    -0.306 C  
BRANCH   5   6
HETATM    6  C   UNL     1     -11.930  13.821  66.345  1.00  0.00    -0.473 C  
BRANCH   6   7
HETATM    7  C   UNL     1     -11.844  12.921  67.559  1.00  0.00    -0.407 A  
HETATM    8  C   UNL     1     -11.568  11.560  67.422  1.00  0.00    -0.307 A  
HETATM    9  C   UNL     1     -11.505  10.726  68.532  1.00  0.00    -0.362 A  
HETATM   10  C   UNL     1     -11.698  11.230  69.818  1.00  0.00    -0.349 A  
HETATM   11  C   UNL     1     -11.996  13.443  68.854  1.00  0.00    -0.362 A  
HETATM   12  C   UNL     1     -11.928  12.598  69.975  1.00  0.00    -0.377 A  
BRANCH  10  13
HETATM   13  O   UNL     1     -11.671  10.465  70.961  1.00  0.00    -0.348 OA 
BRANCH  13  14
HETATM   14  C   UNL     1     -12.970  10.050  71.421  1.00  0.00    -0.418 C  
BRANCH  14  15
HETATM   15  C   UNL     1     -12.869   8.862  72.381  1.00  0.00    -0.380 C  
HETATM   16  O   UNL     1     -13.826   9.013  73.436  1.00  0.00    -1.173 OA 
HETATM   17  H   UNL     1     -13.764   8.276  74.032  1.00  0.00     0.000 HD 
BRANCH  15  18
HETATM   18  C   UNL     1     -13.082   7.509  71.679  1.00  0.00    -0.358 C  
BRANCH  18  19
HETATM   19  N   UNL     1     -12.343   7.425  70.414  1.00  0.00    -0.512 NA 
HETATM   20  H   UNL     1     -12.278   8.343  69.974  1.00  0.00     0.000 HD 
BRANCH  19  21
HETATM   21  C   UNL     1     -11.013   6.820  70.545  1.00  0.00    -0.280 C  
HETATM   22  C   UNL     1     -10.819   5.604  69.636  1.00  0.00    -0.365 C  
HETATM   23  C   UNL     1      -9.975   7.888  70.189  1.00  0.00    -0.190 C  
ENDBRANCH  19  21
ENDBRANCH  18  19
ENDBRANCH  15  18
ENDBRANCH  14  15
ENDBRANCH  13  14
ENDBRANCH  10  13
ENDBRANCH   6   7
ENDBRANCH   5   6
ENDBRANCH   3   5
ENDBRANCH   2   3
TORSDOF 10
ENDMDL
MODEL        6
REMARK 921   NORMALIZED FREE ENERGY PREDICTED BY IDOCK:   -5.68 KCAL/MOL
REMARK 922        TOTAL FREE ENERGY PREDICTED BY IDOCK:   -9.88 KCAL/MOL
REMARK 923 INTER-LIGAND FREE ENERGY PREDICTED BY IDOCK:   -8.96 KCAL/MOL
REMARK 924 INTRA-LIGAND FREE ENERGY PREDICTED BY IDOCK:   -0.92 KCAL/MOL
REMARK 927      BINDING AFFINITY PREDICTED BY RF-SCORE:    0.00 PKD
ROOT
HETATM    1  C   UNL     1     -12.105  12.488  63.507  1.00  0.00    -0.562 C  
HETATM    2  O   UNL     1     -12.464  13.849  63.286  1.00  0.00    -0.817 OA 
ENDROOT
BRANCH   2   3
HETATM    3  C   UNL     1     -12.233  14.665  64.354  1.00  0.00    -0.452 C  
HETATM    4  O   UNL     1     -11.659  15.745  64.307  1.00  0.00    -0.387 OA 
BRANCH   3   5
HETATM    5  C   UNL     1     -12.775  14.018  65.595  1.00  0.00    -0.515 C  
BRANCH   5   6
HETATM    6  C   UNL     1     -11.944  14.349  66.839  1.00  0.00    -0.425 C  
BRANCH   6   7
HETATM    7  C   UNL     1     -11.836  13.194  67.810  1.00  0.00    -0.392 A  
HETATM    8  C   UNL     1     -11.444  11.927  67.375  1.00  0.00    -0.393 A  
HETATM    9  C   UNL     1     -11.359  10.859  68.260  1.00  0.00    -0.374 A  
HETATM   10  C   UNL     1     -11.647  11.027  69.614  1.00  0.00    -0.318 A  
HETATM   11  C   UNL     1     -12.085  13.379  69.180  1.00  0.00    -0.306 A  
HETATM   12  C   UNL     1     -11.995  12.299  70.074  1.00  0.00    -0.379 A  
BRANCH  10  13
HETATM   13  O   UNL     1     -11.607  10.015  70.545  1.00  0.00    -0.279 OA 
BRANCH  13  14
HETATM   14  C   UNL     1     -12.857   9.784  71.217  1.00  0.00    -0.377 C  
BRANCH  14  15
HETATM   15  C   UNL     1     -12.646   9.104  72.573  1.00  0.00    -0.241 C  
HETATM   16  O   UNL     1     -13.915   8.844  73.183  1.00  0.00    -1.118 OA 
HETATM   17  H   UNL     1     -13.784   8.422  74.025  1.00  0.00     0.000 HD 
BRANCH  15  18
HETATM   18  C   UNL     1     -11.846   7.794  72.464  1.00  0.00    -0.302 C  
BRANCH  18  19
HETATM   19  N   UNL     1     -12.284   6.976  71.327  1.00  0.00    -0.359 NA 
HETATM   20  H   UNL     1     -12.782   7.547  70.644  1.00  0.00     0.000 HD 
BRANCH  19  21
HETATM   21  C   UNL     1     -11.198   6.230  70.682  1.00  0.00    -0.337 C  
HETATM   22  C   UNL     1     -11.234   6.324  69.155  1.00  0.00    -0.439 C  
HETATM   23  C   UNL     1      -9.871   6.799  71.192  1.00  0.00    -0.188 C  
ENDBRANCH  19  21
ENDBRANCH  18  19
ENDBRANCH  15  18
ENDBRANCH  14  15
ENDBRANCH  13  14
ENDBRANCH  10  13
ENDBRANCH   6   7
ENDBRANCH   5   6
ENDBRANCH   3   5
ENDBRANCH   2   3
TORSDOF 10
ENDMDL
MODEL        7
REMARK 921   NORMALIZED FREE ENERGY PREDICTED BY IDOCK:   -5.61 KCAL/MOL
REMARK 922        TOTAL FREE ENERGY PREDICTED BY IDOCK:   -9.77 KCAL/MOL
REMARK 923 INTER-LIGAND FREE ENERGY PREDICTED BY IDOCK:   -9.14 KCAL/MOL
REMARK 924 INTRA-LIGAND FREE ENERGY PREDICTED BY IDOCK:   -0.63 KCAL/MOL
REMARK 927      BINDING AFFINITY PREDICTED BY RF-SCORE:    0.00 PKD
ROOT
HETATM    1  C   UNL     1     -14.404   7.961  71.666  1.00  0.00    -0.479 C  
HETATM    2  O   UNL     1     -13.575   9.107  71.840  1.00  0.00    -0.383 OA 
ENDROOT
BRANCH   2   3
HETATM    3  C   UNL     1     -12.239   8.832  71.849  1.00  0.00    -0.361 C  
HETATM    4  O   UNL     1     -11.734   7.798  72.269  1.00  0.00    -0.306 OA 
BRANCH   3   5
HETATM    5  C   UNL     1     -11.490  10.003  71.283  1.00  0.00    -0.390 C  
BRANCH   5   6
HETATM    6  C   UNL     1     -11.220   9.854  69.782  1.00  0.00    -0.279 C  
BRANCH   6   7
HETATM    7  C   UNL     1     -11.428  11.137  69.007  1.00  0.00    -0.364 A  
HETATM    8  C   UNL     1     -11.378  11.147  67.612  1.00  0.00    -0.356 A  
HETATM    9  C   UNL     1     -11.551  12.326  66.897  1.00  0.00    -0.427 A  
HETATM   10  C   UNL     1     -11.798  13.532  67.553  1.00  0.00    -0.368 A  
HETATM   11  C   UNL     1     -11.720  12.340  69.671  1.00  0.00    -0.386 A  
HETATM   12  C   UNL     1     -11.898  13.530  68.945  1.00  0.00    -0.384 A  
BRANCH  10  13
HETATM   13  O   UNL     1     -11.958  14.740  66.916  1.00  0.00    -0.334 OA 
BRANCH  13  14
HETATM   14  C   UNL     1     -11.769  14.684  65.491  1.00  0.00    -0.316 C  
BRANCH  14  15
HETATM   15  C   UNL     1     -10.718  15.696  65.026  1.00  0.00    -0.436 C  
HETATM   16  O   UNL     1     -11.332  16.670  64.173  1.00  0.00    -1.419 OA 
HETATM   17  H   UNL     1     -10.680  17.297  63.885  1.00  0.00     0.000 HD 
BRANCH  15  18
HETATM   18  C   UNL     1     -10.014  16.404  66.197  1.00  0.00    -0.339 C  
BRANCH  18  19
HETATM   19  N   UNL     1      -9.311  17.617  65.762  1.00  0.00    -0.470 NA 
HETATM   20  H   UNL     1      -9.622  17.898  64.832  1.00  0.00     0.000 HD 
BRANCH  19  21
HETATM   21  C   UNL     1      -9.424  18.736  66.704  1.00  0.00    -0.330 C  
HETATM   22  C   UNL     1     -10.150  19.945  66.110  1.00  0.00    -0.611 C  
HETATM   23  C   UNL     1     -10.193  18.238  67.932  1.00  0.00    -0.400 C  
ENDBRANCH  19  21
ENDBRANCH  18  19
ENDBRANCH  15  18
ENDBRANCH  14  15
ENDBRANCH  13  14
ENDBRANCH  10  13
ENDBRANCH   6   7
ENDBRANCH   5   6
ENDBRANCH   3   5
ENDBRANCH   2   3
TORSDOF 10
ENDMDL
MODEL        8
REMARK 921   NORMALIZED FREE ENERGY PREDICTED BY IDOCK:   -5.55 KCAL/MOL
REMARK 922        TOTAL FREE ENERGY PREDICTED BY IDOCK:   -9.67 KCAL/MOL
REMARK 923 INTER-LIGAND FREE ENERGY PREDICTED BY IDOCK:   -8.48 KCAL/MOL
REMARK 924 INTRA-LIGAND FREE ENERGY PREDICTED BY IDOCK:   -1.19 KCAL/MOL
REMARK 927      BINDING AFFINITY PREDICTED BY RF-SCORE:    0.00 PKD
ROOT
HETATM    1  C   UNL     1     -12.491  15.562  74.239  1.00  0.00    -0.643 C  
HETATM    2  O   UNL     1     -13.423  15.897  73.214  1.00  0.00    -0.576 OA 
ENDROOT
BRANCH   2   3
HETATM    3  C   UNL     1     -13.635  14.902  72.307  1.00  0.00    -0.434 C  
HETATM    4  O   UNL     1     -14.058  13.784  72.572  1.00  0.00    -0.686 OA 
BRANCH   3   5
HETATM    5  C   UNL     1     -13.248  15.388  70.941  1.00  0.00    -0.512 C  
BRANCH   5   6
HETATM    6  C   UNL     1     -11.738  15.301  70.694  1.00  0.00    -0.371 C  
BRANCH   6   7
HETATM    7  C   UNL     1     -11.365  14.301  69.622  1.00  0.00    -0.292 A  
HETATM    8  C   UNL     1     -10.392  14.604  68.668  1.00  0.00    -0.246 A  
HETATM    9  C   UNL     1     -10.057  13.695  67.671  1.00  0.00    -0.242 A  
HETATM   10  C   UNL     1     -10.672  12.445  67.606  1.00  0.00    -0.221 A  
HETATM   11  C   UNL     1     -11.956  13.027  69.588  1.00  0.00    -0.367 A  
HETATM   12  C   UNL     1     -11.613  12.109  68.582  1.00  0.00    -0.372 A  
BRANCH  10  13
HETATM   13  O   UNL     1     -10.409  11.504  66.639  1.00  0.00    -0.213 OA 
BRANCH  13  14
HETATM   14  C   UNL     1      -9.239  11.781  65.851  1.00  0.00    -0.170 C  
BRANCH  14  15
HETATM   15  C   UNL     1      -9.234  10.969  64.553  1.00  0.00    -0.164 C  
HETATM   16  O   UNL     1      -9.868   9.703  64.775  1.00  0.00    -0.424 OA 
HETATM   17  H   UNL     1      -9.864   9.199  63.970  1.00  0.00     0.000 HD 
BRANCH  15  18
HETATM   18  C   UNL     1      -9.929  11.699  63.390  1.00  0.00    -0.425 C  
BRANCH  18  19
HETATM   19  N   UNL     1     -10.392  13.035  63.780  1.00  0.00    -0.648 NA 
HETATM   20  H   UNL     1      -9.829  13.756  63.330  1.00  0.00     0.000 HD 
BRANCH  19  21
HETATM   21  C   UNL     1     -11.820  13.263  63.529  1.00  0.00    -0.418 C  
HETATM   22  C   UNL     1     -12.634  11.968  63.499  1.00  0.00    -0.625 C  
HETATM   23  C   UNL     1     -12.352  14.168  64.644  1.00  0.00    -0.432 C  
ENDBRANCH  19  21
ENDBRANCH  18  19
ENDBRANCH  15  18
ENDBRANCH  14  15
ENDBRANCH  13  14
ENDBRANCH  10  13
ENDBRANCH   6   7
ENDBRANCH   5   6
ENDBRANCH   3   5
ENDBRANCH   2   3
TORSDOF 10
ENDMDL
MODEL        9
REMARK 921   NORMALIZED FREE ENERGY PREDICTED BY IDOCK:   -5.50 KCAL/MOL
REMARK 922        TOTAL FREE ENERGY PREDICTED BY IDOCK:   -9.60 KCAL/MOL
REMARK 923 INTER-LIGAND FREE ENERGY PREDICTED BY IDOCK:   -8.96 KCAL/MOL
REMARK 924 INTRA-LIGAND FREE ENERGY PREDICTED BY IDOCK:   -0.64 KCAL/MOL
REMARK 927      BINDING AFFINITY PREDICTED BY RF-SCORE:    0.00 PKD
ROOT
HETATM    1  C   UNL     1     -10.511   7.242  73.230  1.00  0.00    -0.370 C  
HETATM    2  O   UNL     1     -11.133   8.398  72.676  1.00  0.00    -0.359 OA 
ENDROOT
BRANCH   2   3
HETATM    3  C   UNL     1     -11.328   8.332  71.328  1.00  0.00    -0.267 C  
HETATM    4  O   UNL     1     -11.668   7.330  70.712  1.00  0.00    -0.299 OA 
BRANCH   3   5
HETATM    5  C   UNL     1     -11.042   9.675  70.723  1.00  0.00    -0.403 C  
BRANCH   5   6
HETATM    6  C   UNL     1     -12.297  10.547  70.611  1.00  0.00    -0.449 C  
BRANCH   6   7
HETATM    7  C   UNL     1     -12.134  11.711  69.659  1.00  0.00    -0.345 A  
HETATM    8  C   UNL     1     -11.911  11.496  68.298  1.00  0.00    -0.239 A  
HETATM    9  C   UNL     1     -11.744  12.561  67.421  1.00  0.00    -0.432 A  
HETATM   10  C   UNL     1     -11.813  13.878  67.874  1.00  0.00    -0.378 A  
HETATM   11  C   UNL     1     -12.249  13.035  70.113  1.00  0.00    -0.342 A  
HETATM   12  C   UNL     1     -12.083  14.111  69.224  1.00  0.00    -0.364 A  
BRANCH  10  13
HETATM   13  O   UNL     1     -11.637  14.982  67.073  1.00  0.00    -0.331 OA 
BRANCH  13  14
HETATM   14  C   UNL     1     -11.710  14.703  65.663  1.00  0.00    -0.304 C  
BRANCH  14  15
HETATM   15  C   UNL     1     -10.817  15.652  64.859  1.00  0.00    -0.418 C  
HETATM   16  O   UNL     1     -11.629  16.474  64.012  1.00  0.00    -1.490 OA 
HETATM   17  H   UNL     1     -11.075  17.063  63.512  1.00  0.00     0.000 HD 
BRANCH  15  18
HETATM   18  C   UNL     1      -9.935  16.542  65.752  1.00  0.00    -0.274 C  
BRANCH  18  19
HETATM   19  N   UNL     1     -10.341  17.951  65.694  1.00  0.00    -0.617 NA 
HETATM   20  H   UNL     1     -11.168  18.063  65.108  1.00  0.00     0.000 HD 
BRANCH  19  21
HETATM   21  C   UNL     1     -10.554  18.559  67.012  1.00  0.00    -0.380 C  
HETATM   22  C   UNL     1      -9.658  17.960  68.098  1.00  0.00    -0.306 C  
HETATM   23  C   UNL     1     -10.263  20.058  66.888  1.00  0.00    -0.595 C  
ENDBRANCH  19  21
ENDBRANCH  18  19
ENDBRANCH  15  18
ENDBRANCH  14  15
ENDBRANCH  13  14
ENDBRANCH  10  13
ENDBRANCH   6   7
ENDBRANCH   5   6
ENDBRANCH   3   5
ENDBRANCH   2   3
TORSDOF 10
ENDMDL
MODEL       10
REMARK 921   NORMALIZED FREE ENERGY PREDICTED BY IDOCK:   -5.50 KCAL/MOL
REMARK 922        TOTAL FREE ENERGY PREDICTED BY IDOCK:   -9.59 KCAL/MOL
REMARK 923 INTER-LIGAND FREE ENERGY PREDICTED BY IDOCK:   -9.11 KCAL/MOL
REMARK 924 INTRA-LIGAND FREE ENERGY PREDICTED BY IDOCK:   -0.48 KCAL/MOL
REMARK 927      BINDING AFFINITY PREDICTED BY RF-SCORE:    0.00 PKD
ROOT
HETATM    1  C   UNL     1     -11.437   8.165  72.675  1.00  0.00    -0.387 C  
HETATM    2  O   UNL     1     -11.263   9.262  71.782  1.00  0.00    -0.362 OA 
ENDROOT
BRANCH   2   3
HETATM    3  C   UNL     1     -12.393   9.996  71.576  1.00  0.00    -0.419 C  
HETATM    4  O   UNL     1     -13.446   9.857  72.184  1.00  0.00    -0.429 OA 
BRANCH   3   5
HETATM    5  C   UNL     1     -12.144  10.985  70.474  1.00  0.00    -0.470 C  
BRANCH   5   6
HETATM    6  C   UNL     1     -12.455  12.424  70.897  1.00  0.00    -0.367 C  
BRANCH   6   7
HETATM    7  C   UNL     1     -11.963  13.458  69.908  1.00  0.00    -0.408 A  
HETATM    8  C   UNL     1     -11.194  13.084  68.805  1.00  0.00    -0.325 A  
HETATM    9  C   UNL     1     -10.725  14.031  67.903  1.00  0.00    -0.246 A  
HETATM   10  C   UNL     1     -11.026  15.383  68.064  1.00  0.00    -0.307 A  
HETATM   11  C   UNL     1     -12.306  14.812  70.052  1.00  0.00    -0.365 A  
HETATM   12  C   UNL     1     -11.834  15.768  69.136  1.00  0.00    -0.367 A  
BRANCH  10  13
HETATM   13  O   UNL     1     -10.581  16.380  67.227  1.00  0.00    -0.314 OA 
BRANCH  13  14
HETATM   14  C   UNL     1     -10.363  15.954  65.870  1.00  0.00    -0.365 C  
BRANCH  14  15
HETATM   15  C   UNL     1     -11.666  15.960  65.066  1.00  0.00     0.164 C  
HETATM   16  O   UNL     1     -11.431  16.534  63.774  1.00  0.00    -1.615 OA 
HETATM   17  H   UNL     1     -12.239  16.538  63.275  1.00  0.00     0.000 HD 
BRANCH  15  18
HETATM   18  C   UNL     1     -12.274  14.556  64.906  1.00  0.00    -0.402 C  
BRANCH  18  19
HETATM   19  N   UNL     1     -12.225  14.092  63.514  1.00  0.00    -1.090 NA 
HETATM   20  H   UNL     1     -11.605  14.683  62.960  1.00  0.00     0.000 HD 
BRANCH  19  21
HETATM   21  C   UNL     1     -11.855  12.680  63.375  1.00  0.00    -0.514 C  
HETATM   22  C   UNL     1     -10.374  12.420  63.658  1.00  0.00    -0.434 C  
HETATM   23  C   UNL     1     -12.707  11.873  64.360  1.00  0.00    -0.082 C  
ENDBRANCH  19  21
ENDBRANCH  18  19
ENDBRANCH  15  18
ENDBRANCH  14  15
ENDBRANCH  13  14
ENDBRANCH  10  13
ENDBRANCH   6   7
ENDBRANCH   5   6
ENDBRANCH   3   5
ENDBRANCH   2   3
TORSDOF 10
ENDMDL
MODEL       11
REMARK 921   NORMALIZED FREE ENERGY PREDICTED BY IDOCK:   -5.49 KCAL/MOL
REMARK 922        TOTAL FREE ENERGY PREDICTED BY IDOCK:   -9.58 KCAL/MOL
REMARK 923 INTER-LIGAND FREE ENERGY PREDICTED BY IDOCK:   -9.07 KCAL/MOL
REMARK 924 INTRA-LIGAND FREE ENERGY PREDICTED BY IDOCK:   -0.51 KCAL/MOL
REMARK 927      BINDING AFFINITY PREDICTED BY RF-SCORE:    0.00 PKD
ROOT
HETATM    1  C   UNL     1     -12.621   6.867  72.005  1.00  0.00    -0.221 C  
HETATM    2  O   UNL     1     -12.286   8.245  71.870  1.00  0.00    -0.304 OA 
ENDROOT
BRANCH   2   3
HETATM    3  C   UNL     1     -13.318   9.097  72.133  1.00  0.00    -0.463 C  
HETATM    4  O   UNL     1     -14.409   8.768  72.582  1.00  0.00    -0.585 OA 
BRANCH   3   5
HETATM    5  C   UNL     1     -12.911  10.493  71.764  1.00  0.00    -0.582 C  
BRANCH   5   6
HETATM    6  C   UNL     1     -11.680  10.523  70.852  1.00  0.00    -0.431 C  
BRANCH   6   7
HETATM    7  C   UNL     1     -11.746  11.603  69.794  1.00  0.00    -0.425 A  
HETATM    8  C   UNL     1     -11.825  12.950  70.151  1.00  0.00    -0.319 A  
HETATM    9  C   UNL     1     -11.903  13.945  69.184  1.00  0.00    -0.401 A  
HETATM   10  C   UNL     1     -11.885  13.626  67.826  1.00  0.00    -0.368 A  
HETATM   11  C   UNL     1     -11.683  11.279  68.429  1.00  0.00    -0.365 A  
HETATM   12  C   UNL     1     -11.757  12.287  67.453  1.00  0.00    -0.405 A  
BRANCH  10  13
HETATM   13  O   UNL     1     -11.978  14.552  66.813  1.00  0.00    -0.397 OA 
BRANCH  13  14
HETATM   14  C   UNL     1     -11.358  14.141  65.582  1.00  0.00    -0.319 C  
BRANCH  14  15
HETATM   15  C   UNL     1     -12.399  13.895  64.486  1.00  0.00    -0.372 C  
HETATM   16  O   UNL     1     -12.453  15.028  63.611  1.00  0.00    -1.036 OA 
HETATM   17  H   UNL     1     -13.099  14.876  62.932  1.00  0.00     0.000 HD 
BRANCH  15  18
HETATM   18  C   UNL     1     -12.115  12.623  63.668  1.00  0.00    -0.547 C  
BRANCH  18  19
HETATM   19  N   UNL     1     -10.683  12.455  63.395  1.00  0.00    -0.529 NA 
HETATM   20  H   UNL     1     -10.135  13.140  63.916  1.00  0.00     0.000 HD 
BRANCH  19  21
HETATM   21  C   UNL     1     -10.188  11.097  63.648  1.00  0.00    -0.387 C  
HETATM   22  C   UNL     1      -9.101  10.665  62.661  1.00  0.00    -0.321 C  
HETATM   23  C   UNL     1      -9.620  11.064  65.070  1.00  0.00    -0.291 C  
ENDBRANCH  19  21
ENDBRANCH  18  19
ENDBRANCH  15  18
ENDBRANCH  14  15
ENDBRANCH  13  14
ENDBRANCH  10  13
ENDBRANCH   6   7
ENDBRANCH   5   6
ENDBRANCH   3   5
ENDBRANCH   2   3
TORSDOF 10
ENDMDL
MODEL       12
REMARK 921   NORMALIZED FREE ENERGY PREDICTED BY IDOCK:   -5.47 KCAL/MOL
REMARK 922        TOTAL FREE ENERGY PREDICTED BY IDOCK:   -9.55 KCAL/MOL
REMARK 923 INTER-LIGAND FREE ENERGY PREDICTED BY IDOCK:   -8.72 KCAL/MOL
REMARK 924 INTRA-LIGAND FREE ENERGY PREDICTED BY IDOCK:   -0.83 KCAL/MOL
REMARK 927      BINDING AFFINITY PREDICTED BY RF-SCORE:    0.00 PKD
ROOT
HETATM    1  C   UNL     1      -9.423  16.098  66.078  1.00  0.00    -0.339 C  
HETATM    2  O   UNL     1     -10.519  16.189  65.172  1.00  0.00    -0.560 OA 
ENDROOT
BRANCH   2   3
HETATM    3  C   UNL     1     -11.209  15.023  65.014  1.00  0.00    -0.409 C  
HETATM    4  O   UNL     1     -12.291  14.913  64.452  1.00  0.00    -0.490 OA 
BRANCH   3   5
HETATM    5  C   UNL     1     -10.441  13.905  65.657  1.00  0.00    -0.320 C  
BRANCH   5   6
HETATM    6  C   UNL     1     -11.239  12.598  65.704  1.00  0.00    -0.344 C  
BRANCH   6   7
HETATM    7  C   UNL     1     -11.341  12.010  67.095  1.00  0.00    -0.396 A  
HETATM    8  C   UNL     1     -11.854  12.761  68.153  1.00  0.00    -0.372 A  
HETATM    9  C   UNL     1     -11.933  12.232  69.436  1.00  0.00    -0.318 A  
HETATM   10  C   UNL     1     -11.519  10.926  69.698  1.00  0.00    -0.305 A  
HETATM   11  C   UNL     1     -10.963  10.680  67.344  1.00  0.00    -0.361 A  
HETATM   12  C   UNL     1     -11.049  10.146  68.640  1.00  0.00    -0.254 A  
BRANCH  10  13
HETATM   13  O   UNL     1     -11.548  10.341  70.942  1.00  0.00    -0.337 OA 
BRANCH  13  14
HETATM   14  C   UNL     1     -12.871  10.172  71.483  1.00  0.00    -0.443 C  
BRANCH  14  15
HETATM   15  C   UNL     1     -12.963   8.915  72.353  1.00  0.00    -0.404 C  
HETATM   16  O   UNL     1     -14.006   9.077  73.321  1.00  0.00    -1.205 OA 
HETATM   17  H   UNL     1     -14.063   8.298  73.862  1.00  0.00     0.000 HD 
BRANCH  15  18
HETATM   18  C   UNL     1     -13.212   7.638  71.532  1.00  0.00    -0.334 C  
BRANCH  18  19
HETATM   19  N   UNL     1     -12.181   7.435  70.508  1.00  0.00    -0.547 NA 
HETATM   20  H   UNL     1     -11.861   8.330  70.137  1.00  0.00     0.000 HD 
BRANCH  19  21
HETATM   21  C   UNL     1     -11.044   6.628  70.965  1.00  0.00    -0.282 C  
HETATM   22  C   UNL     1     -11.375   5.769  72.188  1.00  0.00    -0.317 C  
HETATM   23  C   UNL     1     -10.621   5.718  69.808  1.00  0.00    -0.388 C  
ENDBRANCH  19  21
ENDBRANCH  18  19
ENDBRANCH  15  18
ENDBRANCH  14  15
ENDBRANCH  13  14
ENDBRANCH  10  13
ENDBRANCH   6   7
ENDBRANCH   5   6
ENDBRANCH   3   5
ENDBRANCH   2   3
TORSDOF 10
ENDMDL
MODEL       13
REMARK 921   NORMALIZED FREE ENERGY PREDICTED BY IDOCK:   -5.41 KCAL/MOL
REMARK 922        TOTAL FREE ENERGY PREDICTED BY IDOCK:   -9.45 KCAL/MOL
REMARK 923 INTER-LIGAND FREE ENERGY PREDICTED BY IDOCK:   -8.58 KCAL/MOL
REMARK 924 INTRA-LIGAND FREE ENERGY PREDICTED BY IDOCK:   -0.87 KCAL/MOL
REMARK 927      BINDING AFFINITY PREDICTED BY RF-SCORE:    0.00 PKD
ROOT
HETATM    1  C   UNL     1     -11.818  15.185  64.519  1.00  0.00    -0.330 C  
HETATM    2  O   UNL     1     -12.593  14.248  63.776  1.00  0.00    -0.821 OA 
ENDROOT
BRANCH   2   3
HETATM    3  C   UNL     1     -12.254  12.946  63.999  1.00  0.00    -0.426 C  
HETATM    4  O   UNL     1     -12.892  11.974  63.614  1.00  0.00    -0.713 OA 
BRANCH   3   5
HETATM    5  C   UNL     1     -10.989  12.896  64.805  1.00  0.00    -0.344 C  
BRANCH   5   6
HETATM    6  C   UNL     1     -10.695  11.494  65.348  1.00  0.00    -0.335 C  
BRANCH   6   7
HETATM    7  C   UNL     1     -11.009  11.345  66.821  1.00  0.00    -0.347 A  
HETATM    8  C   UNL     1     -11.494  12.423  67.562  1.00  0.00    -0.410 A  
HETATM    9  C   UNL     1     -11.768  12.296  68.918  1.00  0.00    -0.380 A  
HETATM   10  C   UNL     1     -11.583  11.080  69.575  1.00  0.00    -0.313 A  
HETATM   11  C   UNL     1     -10.863  10.106  67.466  1.00  0.00    -0.349 A  
HETATM   12  C   UNL     1     -11.144   9.979  68.837  1.00  0.00    -0.219 A  
BRANCH  10  13
HETATM   13  O   UNL     1     -11.812  10.882  70.916  1.00  0.00    -0.323 OA 
BRANCH  13  14
HETATM   14  C   UNL     1     -13.108  10.336  71.218  1.00  0.00    -0.398 C  
BRANCH  14  15
HETATM   15  C   UNL     1     -13.040   9.347  72.385  1.00  0.00    -0.379 C  
HETATM   16  O   UNL     1     -14.301   9.320  73.066  1.00  0.00    -1.004 OA 
HETATM   17  H   UNL     1     -14.258   8.706  73.790  1.00  0.00     0.000 HD 
BRANCH  15  18
HETATM   18  C   UNL     1     -12.663   7.923  71.938  1.00  0.00    -0.316 C  
BRANCH  18  19
HETATM   19  N   UNL     1     -11.253   7.827  71.545  1.00  0.00    -0.240 NA 
HETATM   20  H   UNL     1     -10.809   8.746  71.570  1.00  0.00     0.000 HD 
BRANCH  19  21
HETATM   21  C   UNL     1     -10.483   6.860  72.334  1.00  0.00    -0.208 C  
HETATM   22  C   UNL     1     -10.058   7.407  73.699  1.00  0.00    -0.376 C  
HETATM   23  C   UNL     1     -11.358   5.620  72.538  1.00  0.00    -0.349 C  
ENDBRANCH  19  21
ENDBRANCH  18  19
ENDBRANCH  15  18
ENDBRANCH  14  15
ENDBRANCH  13  14
ENDBRANCH  10  13
ENDBRANCH   6   7
ENDBRANCH   5   6
ENDBRANCH   3   5
ENDBRANCH   2   3
TORSDOF 10
ENDMDL
MODEL       14
REMARK 921   NORMALIZED FREE ENERGY PREDICTED BY IDOCK:   -5.39 KCAL/MOL
REMARK 922        TOTAL FREE ENERGY PREDICTED BY IDOCK:   -9.42 KCAL/MOL
REMARK 923 INTER-LIGAND FREE ENERGY PREDICTED BY IDOCK:   -8.70 KCAL/MOL
REMARK 924 INTRA-LIGAND FREE ENERGY PREDICTED BY IDOCK:   -0.73 KCAL/MOL
REMARK 927      BINDING AFFINITY PREDICTED BY RF-SCORE:    0.00 PKD
ROOT
HETATM    1  C   UNL     1     -12.413  15.956  74.372  1.00  0.00    -0.621 C  
HETATM    2  O   UNL     1     -13.517  16.276  73.529  1.00  0.00    -0.654 OA 
ENDROOT
BRANCH   2   3
HETATM    3  C   UNL     1     -13.710  15.395  72.507  1.00  0.00    -0.552 C  
HETATM    4  O   UNL     1     -14.400  15.602  71.517  1.00  0.00    -0.507 OA 
BRANCH   3   5
HETATM    5  C   UNL     1     -12.961  14.128  72.800  1.00  0.00    -0.516 C  
BRANCH   5   6
HETATM    6  C   UNL     1     -13.567  12.912  72.091  1.00  0.00    -0.589 C  
BRANCH   6   7
HETATM    7  C   UNL     1     -12.646  12.302  71.057  1.00  0.00    -0.352 A  
HETATM    8  C   UNL     1     -12.301  10.951  71.114  1.00  0.00    -0.479 A  
HETATM    9  C   UNL     1     -11.442  10.390  70.176  1.00  0.00    -0.396 A  
HETATM   10  C   UNL     1     -10.914  11.159  69.139  1.00  0.00    -0.242 A  
HETATM   11  C   UNL     1     -12.153  13.071  69.989  1.00  0.00    -0.367 A  
HETATM   12  C   UNL     1     -11.288  12.501  69.040  1.00  0.00    -0.342 A  
BRANCH  10  13
HETATM   13  O   UNL     1     -10.044  10.681  68.188  1.00  0.00    -0.152 OA 
BRANCH  13  14
HETATM   14  C   UNL     1     -10.677  10.278  66.960  1.00  0.00    -0.216 C  
BRANCH  14  15
HETATM   15  C   UNL     1      -9.739  10.456  65.763  1.00  0.00    -0.228 C  
HETATM   16  O   UNL     1      -9.562   9.198  65.100  1.00  0.00    -0.456 OA 
HETATM   17  H   UNL     1      -8.980   9.308  64.358  1.00  0.00     0.000 HD 
BRANCH  15  18
HETATM   18  C   UNL     1     -10.249  11.503  64.757  1.00  0.00    -0.281 C  
BRANCH  18  19
HETATM   19  N   UNL     1     -10.004  12.873  65.220  1.00  0.00    -0.452 NA 
HETATM   20  H   UNL     1      -9.207  13.281  64.730  1.00  0.00     0.000 HD 
BRANCH  19  21
HETATM   21  C   UNL     1     -11.175  13.750  65.119  1.00  0.00    -0.316 C  
HETATM   22  C   UNL     1     -10.807  15.234  65.057  1.00  0.00    -0.457 C  
HETATM   23  C   UNL     1     -11.939  13.367  63.848  1.00  0.00    -0.520 C  
ENDBRANCH  19  21
ENDBRANCH  18  19
ENDBRANCH  15  18
ENDBRANCH  14  15
ENDBRANCH  13  14
ENDBRANCH  10  13
ENDBRANCH   6   7
ENDBRANCH   5   6
ENDBRANCH   3   5
ENDBRANCH   2   3
TORSDOF 10
ENDMDL
MODEL       15
REMARK 921   NORMALIZED FREE ENERGY PREDICTED BY IDOCK:   -5.39 KCAL/MOL
REMARK 922        TOTAL FREE ENERGY PREDICTED BY IDOCK:   -9.42 KCAL/MOL
REMARK 923 INTER-LIGAND FREE ENERGY PREDICTED BY IDOCK:   -8.46 KCAL/MOL
REMARK 924 INTRA-LIGAND FREE ENERGY PREDICTED BY IDOCK:   -0.96 KCAL/MOL
REMARK 927      BINDING AFFINITY PREDICTED BY RF-SCORE:    0.00 PKD
ROOT
HETATM    1  C   UNL     1     -10.910   5.843  70.711  1.00  0.00    -0.283 C  
HETATM    2  O   UNL     1     -10.837   7.217  70.339  1.00  0.00    -0.232 OA 
ENDROOT
BRANCH   2   3
HETATM    3  C   UNL     1     -11.677   8.029  71.043  1.00  0.00    -0.277 C  
HETATM    4  O   UNL     1     -12.754   7.690  71.517  1.00  0.00    -0.327 OA 
BRANCH   3   5
HETATM    5  C   UNL     1     -11.081   9.403  71.123  1.00  0.00    -0.432 C  
BRANCH   5   6
HETATM    6  C   UNL     1     -12.145  10.495  71.275  1.00  0.00    -0.432 C  
BRANCH   6   7
HETATM    7  C   UNL     1     -12.076  11.552  70.195  1.00  0.00    -0.432 A  
HETATM    8  C   UNL     1     -12.253  12.902  70.502  1.00  0.00    -0.395 A  
HETATM    9  C   UNL     1     -12.208  13.875  69.510  1.00  0.00    -0.356 A  
HETATM   10  C   UNL     1     -11.965  13.531  68.181  1.00  0.00    -0.341 A  
HETATM   11  C   UNL     1     -11.788  11.204  68.865  1.00  0.00    -0.406 A  
HETATM   12  C   UNL     1     -11.738  12.190  67.865  1.00  0.00    -0.403 A  
BRANCH  10  13
HETATM   13  O   UNL     1     -11.926  14.433  67.143  1.00  0.00    -0.405 OA 
BRANCH  13  14
HETATM   14  C   UNL     1     -10.693  15.169  67.049  1.00  0.00    -0.307 C  
BRANCH  14  15
HETATM   15  C   UNL     1      -9.852  14.700  65.859  1.00  0.00    -0.330 C  
HETATM   16  O   UNL     1      -8.878  13.748  66.304  1.00  0.00    -0.458 OA 
HETATM   17  H   UNL     1      -8.355  13.458  65.566  1.00  0.00     0.000 HD 
BRANCH  15  18
HETATM   18  C   UNL     1     -10.702  14.084  64.734  1.00  0.00    -0.427 C  
BRANCH  18  19
HETATM   19  N   UNL     1      -9.928  13.144  63.915  1.00  0.00    -0.745 NA 
HETATM   20  H   UNL     1      -9.003  12.994  64.317  1.00  0.00     0.000 HD 
BRANCH  19  21
HETATM   21  C   UNL     1     -10.606  11.863  63.685  1.00  0.00    -0.446 C  
HETATM   22  C   UNL     1     -10.236  10.798  64.720  1.00  0.00    -0.403 C  
HETATM   23  C   UNL     1     -12.116  12.117  63.740  1.00  0.00    -0.620 C  
ENDBRANCH  19  21
ENDBRANCH  18  19
ENDBRANCH  15  18
ENDBRANCH  14  15
ENDBRANCH  13  14
ENDBRANCH  10  13
ENDBRANCH   6   7
ENDBRANCH   5   6
ENDBRANCH   3   5
ENDBRANCH   2   3
TORSDOF 10
ENDMDL
MODEL       16
REMARK 921   NORMALIZED FREE ENERGY PREDICTED BY IDOCK:   -5.33 KCAL/MOL
REMARK 922        TOTAL FREE ENERGY PREDICTED BY IDOCK:   -9.32 KCAL/MOL
REMARK 923 INTER-LIGAND FREE ENERGY PREDICTED BY IDOCK:   -8.32 KCAL/MOL
REMARK 924 INTRA-LIGAND FREE ENERGY PREDICTED BY IDOCK:   -1.00 KCAL/MOL
REMARK 927      BINDING AFFINITY PREDICTED BY RF-SCORE:    0.00 PKD
ROOT
HETATM    1  C   UNL     1     -14.348   8.453  72.006  1.00  0.00    -0.464 C  
HETATM    2  O   UNL     1     -13.823   7.210  71.547  1.00  0.00    -0.376 OA 
ENDROOT
BRANCH   2   3
HETATM    3  C   UNL     1     -12.463   7.181  71.453  1.00  0.00    -0.388 C  
HETATM    4  O   UNL     1     -11.820   6.409  70.753  1.00  0.00    -0.361 OA 
BRANCH   3   5
HETATM    5  C   UNL     1     -11.884   8.230  72.356  1.00  0.00    -0.461 C  
BRANCH   5   6
HETATM    6  C   UNL     1     -10.663   8.923  71.741  1.00  0.00    -0.432 C  
BRANCH   6   7
HETATM    7  C   UNL     1     -10.996   9.743  70.514  1.00  0.00    -0.384 A  
HETATM    8  C   UNL     1     -11.803  10.877  70.609  1.00  0.00    -0.453 A  
HETATM    9  C   UNL     1     -12.126  11.624  69.482  1.00  0.00    -0.336 A  
HETATM   10  C   UNL     1     -11.637  11.270  68.224  1.00  0.00    -0.300 A  
HETATM   11  C   UNL     1     -10.466   9.406  69.258  1.00  0.00    -0.230 A  
HETATM   12  C   UNL     1     -10.790  10.165  68.120  1.00  0.00    -0.310 A  
BRANCH  10  13
HETATM   13  O   UNL     1     -11.929  11.945  67.063  1.00  0.00    -0.615 OA 
BRANCH  13  14
HETATM   14  C   UNL     1     -11.031  11.661  65.975  1.00  0.00    -0.286 C  
BRANCH  14  15
HETATM   15  C   UNL     1     -11.508  12.308  64.672  1.00  0.00    -0.336 C  
HETATM   16  O   UNL     1     -12.922  12.534  64.737  1.00  0.00    -0.827 OA 
HETATM   17  H   UNL     1     -13.218  12.935  63.928  1.00  0.00     0.000 HD 
BRANCH  15  18
HETATM   18  C   UNL     1     -10.787  13.632  64.365  1.00  0.00    -0.361 C  
BRANCH  18  19
HETATM   19  N   UNL     1      -9.948  14.073  65.486  1.00  0.00    -0.477 NA 
HETATM   20  H   UNL     1      -9.051  14.421  65.148  1.00  0.00     0.000 HD 
BRANCH  19  21
HETATM   21  C   UNL     1     -10.595  15.065  66.353  1.00  0.00    -0.310 C  
HETATM   22  C   UNL     1     -10.214  14.906  67.827  1.00  0.00    -0.236 C  
HETATM   23  C   UNL     1     -10.172  16.455  65.869  1.00  0.00    -0.379 C  
ENDBRANCH  19  21
ENDBRANCH  18  19
ENDBRANCH  15  18
ENDBRANCH  14  15
ENDBRANCH  13  14
ENDBRANCH  10  13
ENDBRANCH   6   7
ENDBRANCH   5   6
ENDBRANCH   3   5
ENDBRANCH   2   3
TORSDOF 10
ENDMDL
MODEL       17
REMARK 921   NORMALIZED FREE ENERGY PREDICTED BY IDOCK:   -5.33 KCAL/MOL
REMARK 922        TOTAL FREE ENERGY PREDICTED BY IDOCK:   -9.32 KCAL/MOL
REMARK 923 INTER-LIGAND FREE ENERGY PREDICTED BY IDOCK:   -8.51 KCAL/MOL
REMARK 924 INTRA-LIGAND FREE ENERGY PREDICTED BY IDOCK:   -0.80 KCAL/MOL
REMARK 927      BINDING AFFINITY PREDICTED BY RF-SCORE:    0.00 PKD
ROOT
HETATM    1  C   UNL     1     -11.610  15.595  64.444  1.00  0.00    -0.249 C  
HETATM    2  O   UNL     1     -12.571  14.705  63.883  1.00  0.00    -0.834 OA 
ENDROOT
BRANCH   2   3
HETATM    3  C   UNL     1     -12.280  13.385  64.068  1.00  0.00    -0.405 C  
HETATM    4  O   UNL     1     -12.744  12.461  63.412  1.00  0.00    -0.722 OA 
BRANCH   3   5
HETATM    5  C   UNL     1     -11.320  13.247  65.213  1.00  0.00    -0.317 C  
BRANCH   5   6
HETATM    6  C   UNL     1     -11.038  11.784  65.567  1.00  0.00    -0.336 C  
BRANCH   6   7
HETATM    7  C   UNL     1     -11.185  11.487  67.044  1.00  0.00    -0.365 A  
HETATM    8  C   UNL     1     -10.838  10.237  67.560  1.00  0.00    -0.355 A  
HETATM    9  C   UNL     1     -10.987   9.953  68.913  1.00  0.00    -0.214 A  
HETATM   10  C   UNL     1     -11.471  10.917  69.797  1.00  0.00    -0.313 A  
HETATM   11  C   UNL     1     -11.632  12.475  67.936  1.00  0.00    -0.403 A  
HETATM   12  C   UNL     1     -11.778  12.187  69.304  1.00  0.00    -0.386 A  
BRANCH  10  13
HETATM   13  O   UNL     1     -11.666  10.705  71.141  1.00  0.00    -0.305 OA 
BRANCH  13  14
HETATM   14  C   UNL     1     -13.042  10.516  71.514  1.00  0.00    -0.430 C  
BRANCH  14  15
HETATM   15  C   UNL     1     -13.285   9.106  72.059  1.00  0.00    -0.441 C  
HETATM   16  O   UNL     1     -14.045   8.348  71.109  1.00  0.00    -0.607 OA 
HETATM   17  H   UNL     1     -14.196   7.473  71.447  1.00  0.00     0.000 HD 
BRANCH  15  18
HETATM   18  C   UNL     1     -11.980   8.361  72.389  1.00  0.00    -0.384 C  
BRANCH  18  19
HETATM   19  N   UNL     1     -12.074   6.928  72.088  1.00  0.00    -0.440 NA 
HETATM   20  H   UNL     1     -12.929   6.725  71.570  1.00  0.00     0.000 HD 
BRANCH  19  21
HETATM   21  C   UNL     1     -10.904   6.394  71.382  1.00  0.00    -0.253 C  
HETATM   22  C   UNL     1     -10.444   5.040  71.928  1.00  0.00    -0.255 C  
HETATM   23  C   UNL     1     -11.277   6.243  69.905  1.00  0.00    -0.498 C  
ENDBRANCH  19  21
ENDBRANCH  18  19
ENDBRANCH  15  18
ENDBRANCH  14  15
ENDBRANCH  13  14
ENDBRANCH  10  13
ENDBRANCH   6   7
ENDBRANCH   5   6
ENDBRANCH   3   5
ENDBRANCH   2   3
TORSDOF 10
ENDMDL
MODEL       18
REMARK 921   NORMALIZED FREE ENERGY PREDICTED BY IDOCK:   -5.30 KCAL/MOL
REMARK 922        TOTAL FREE ENERGY PREDICTED BY IDOCK:   -9.28 KCAL/MOL
REMARK 923 INTER-LIGAND FREE ENERGY PREDICTED BY IDOCK:   -8.49 KCAL/MOL
REMARK 924 INTRA-LIGAND FREE ENERGY PREDICTED BY IDOCK:   -0.79 KCAL/MOL
REMARK 927      BINDING AFFINITY PREDICTED BY RF-SCORE:    0.00 PKD
ROOT
HETATM    1  C   UNL     1     -13.296  12.394  71.752  1.00  0.00    -0.270 C  
HETATM    2  O   UNL     1     -14.022  13.567  72.110  1.00  0.00    -0.499 OA 
ENDROOT
BRANCH   2   3
HETATM    3  C   UNL     1     -13.276  14.506  72.759  1.00  0.00    -0.508 C  
HETATM    4  O   UNL     1     -12.892  14.424  73.919  1.00  0.00    -0.394 OA 
BRANCH   3   5
HETATM    5  C   UNL     1     -13.022  15.660  71.834  1.00  0.00    -0.541 C  
BRANCH   5   6
HETATM    6  C   UNL     1     -11.532  15.851  71.531  1.00  0.00    -0.484 C  
BRANCH   6   7
HETATM    7  C   UNL     1     -11.145  15.415  70.135  1.00  0.00    -0.324 A  
HETATM    8  C   UNL     1      -9.817  15.474  69.710  1.00  0.00    -0.268 A  
HETATM    9  C   UNL     1      -9.459  15.091  68.422  1.00  0.00    -0.201 A  
HETATM   10  C   UNL     1     -10.415  14.619  67.524  1.00  0.00    -0.247 A  
HETATM   11  C   UNL     1     -12.106  14.900  69.249  1.00  0.00    -0.286 A  
HETATM   12  C   UNL     1     -11.741  14.510  67.950  1.00  0.00    -0.381 A  
BRANCH  10  13
HETATM   13  O   UNL     1     -10.141  14.242  66.230  1.00  0.00    -0.278 OA 
BRANCH  13  14
HETATM   14  C   UNL     1     -11.133  14.657  65.274  1.00  0.00    -0.360 C  
BRANCH  14  15
HETATM   15  C   UNL     1     -10.804  16.033  64.688  1.00  0.00    -0.179 C  
HETATM   16  O   UNL     1     -11.769  16.370  63.684  1.00  0.00    -1.520 OA 
HETATM   17  H   UNL     1     -11.564  17.224  63.320  1.00  0.00     0.000 HD 
BRANCH  15  18
HETATM   18  C   UNL     1     -10.759  17.140  65.756  1.00  0.00    -0.138 C  
BRANCH  18  19
HETATM   19  N   UNL     1      -9.462  17.825  65.781  1.00  0.00    -0.482 NA 
HETATM   20  H   UNL     1      -9.367  18.445  64.977  1.00  0.00     0.000 HD 
BRANCH  19  21
HETATM   21  C   UNL     1      -9.203  18.553  67.028  1.00  0.00    -0.284 C  
HETATM   22  C   UNL     1      -8.600  19.940  66.795  1.00  0.00    -0.394 C  
HETATM   23  C   UNL     1     -10.535  18.700  67.770  1.00  0.00    -0.457 C  
ENDBRANCH  19  21
ENDBRANCH  18  19
ENDBRANCH  15  18
ENDBRANCH  14  15
ENDBRANCH  13  14
ENDBRANCH  10  13
ENDBRANCH   6   7
ENDBRANCH   5   6
ENDBRANCH   3   5
ENDBRANCH   2   3
TORSDOF 10
ENDMDL
MODEL       19
REMARK 921   NORMALIZED FREE ENERGY PREDICTED BY IDOCK:   -5.30 KCAL/MOL
REMARK 922        TOTAL FREE ENERGY PREDICTED BY IDOCK:   -9.28 KCAL/MOL
REMARK 923 INTER-LIGAND FREE ENERGY PREDICTED BY IDOCK:   -7.85 KCAL/MOL
REMARK 924 INTRA-LIGAND FREE ENERGY PREDICTED BY IDOCK:   -1.42 KCAL/MOL
REMARK 927      BINDING AFFINITY PREDICTED BY RF-SCORE:    0.00 PKD
ROOT
HETATM    1  C   UNL     1     -14.268  14.064  72.224  1.00  0.00    -0.504 C  
HETATM    2  O   UNL     1     -13.633  15.117  71.505  1.00  0.00    -0.402 OA 
ENDROOT
BRANCH   2   3
HETATM    3  C   UNL     1     -12.686  15.787  72.221  1.00  0.00    -0.446 C  
HETATM    4  O   UNL     1     -12.813  16.167  73.379  1.00  0.00    -0.495 OA 
BRANCH   3   5
HETATM    5  C   UNL     1     -11.476  16.002  71.360  1.00  0.00    -0.464 C  
BRANCH   5   6
HETATM    6  C   UNL     1     -11.473  15.101  70.120  1.00  0.00    -0.313 C  
BRANCH   6   7
HETATM    7  C   UNL     1     -10.587  15.619  69.007  1.00  0.00    -0.234 A  
HETATM    8  C   UNL     1      -9.260  15.971  69.254  1.00  0.00    -0.243 A  
HETATM    9  C   UNL     1      -8.447  16.463  68.240  1.00  0.00    -0.195 A  
HETATM   10  C   UNL     1      -8.931  16.602  66.939  1.00  0.00    -0.222 A  
HETATM   11  C   UNL     1     -11.067  15.715  67.691  1.00  0.00    -0.305 A  
HETATM   12  C   UNL     1     -10.243  16.209  66.666  1.00  0.00    -0.291 A  
BRANCH  10  13
HETATM   13  O   UNL     1      -8.196  17.100  65.889  1.00  0.00    -0.526 OA 
BRANCH  13  14
HETATM   14  C   UNL     1      -6.867  17.517  66.248  1.00  0.00    -0.287 C  
BRANCH  14  15
HETATM   15  C   UNL     1      -6.578  18.941  65.764  1.00  0.00    -0.252 C  
HETATM   16  O   UNL     1      -6.198  18.911  64.383  1.00  0.00    -0.475 OA 
HETATM   17  H   UNL     1      -6.018  19.795  64.083  1.00  0.00     0.000 HD 
BRANCH  15  18
HETATM   18  C   UNL     1      -7.777  19.888  65.950  1.00  0.00    -0.315 C  
BRANCH  18  19
HETATM   19  N   UNL     1      -8.173  20.001  67.359  1.00  0.00    -0.321 NA 
HETATM   20  H   UNL     1      -7.600  20.695  67.839  1.00  0.00     0.000 HD 
BRANCH  19  21
HETATM   21  C   UNL     1      -9.599  20.286  67.551  1.00  0.00    -0.425 C  
HETATM   22  C   UNL     1     -10.462  19.834  66.370  1.00  0.00    -0.618 C  
HETATM   23  C   UNL     1     -10.056  19.557  68.818  1.00  0.00    -0.519 C  
ENDBRANCH  19  21
ENDBRANCH  18  19
ENDBRANCH  15  18
ENDBRANCH  14  15
ENDBRANCH  13  14
ENDBRANCH  10  13
ENDBRANCH   6   7
ENDBRANCH   5   6
ENDBRANCH   3   5
ENDBRANCH   2   3
TORSDOF 10
ENDMDL
MODEL       20
REMARK 921   NORMALIZED FREE ENERGY PREDICTED BY IDOCK:   -5.27 KCAL/MOL
REMARK 922        TOTAL FREE ENERGY PREDICTED BY IDOCK:   -9.23 KCAL/MOL
REMARK 923 INTER-LIGAND FREE ENERGY PREDICTED BY IDOCK:   -8.47 KCAL/MOL
REMARK 924 INTRA-LIGAND FREE ENERGY PREDICTED BY IDOCK:   -0.76 KCAL/MOL
REMARK 927      BINDING AFFINITY PREDICTED BY RF-SCORE:    0.00 PKD
ROOT
HETATM    1  C   UNL     1     -13.371  12.315  72.029  1.00  0.00    -0.386 C  
HETATM    2  O   UNL     1     -14.130  13.449  72.443  1.00  0.00    -0.639 OA 
ENDROOT
BRANCH   2   3
HETATM    3  C   UNL     1     -13.383  14.568  72.665  1.00  0.00    -0.495 C  
HETATM    4  O   UNL     1     -13.052  14.989  73.766  1.00  0.00    -0.478 OA 
BRANCH   3   5
HETATM    5  C   UNL     1     -13.051  15.208  71.349  1.00  0.00    -0.499 C  
BRANCH   5   6
HETATM    6  C   UNL     1     -11.681  15.894  71.360  1.00  0.00    -0.530 C  
BRANCH   6   7
HETATM    7  C   UNL     1     -11.032  15.956  69.995  1.00  0.00    -0.361 A  
HETATM    8  C   UNL     1     -10.856  17.177  69.342  1.00  0.00     0.025 A  
HETATM    9  C   UNL     1     -10.276  17.239  68.080  1.00  0.00    -0.332 A  
HETATM   10  C   UNL     1      -9.836  16.082  67.437  1.00  0.00    -0.236 A  
HETATM   11  C   UNL     1     -10.552  14.793  69.372  1.00  0.00    -0.229 A  
HETATM   12  C   UNL     1      -9.962  14.858  68.098  1.00  0.00    -0.222 A  
BRANCH  10  13
HETATM   13  O   UNL     1      -9.273  16.060  66.183  1.00  0.00    -0.301 OA 
BRANCH  13  14
HETATM   14  C   UNL     1      -9.960  15.214  65.244  1.00  0.00    -0.290 C  
BRANCH  14  15
HETATM   15  C   UNL     1     -11.390  15.700  64.995  1.00  0.00    -0.253 C  
HETATM   16  O   UNL     1     -11.459  16.363  63.726  1.00  0.00    -1.590 OA 
HETATM   17  H   UNL     1     -12.346  16.665  63.572  1.00  0.00     0.000 HD 
BRANCH  15  18
HETATM   18  C   UNL     1     -12.424  14.561  65.040  1.00  0.00    -0.301 C  
BRANCH  18  19
HETATM   19  N   UNL     1     -11.829  13.299  65.494  1.00  0.00    -0.350 NA 
HETATM   20  H   UNL     1     -12.196  13.038  66.410  1.00  0.00     0.000 HD 
BRANCH  19  21
HETATM   21  C   UNL     1     -11.986  12.195  64.541  1.00  0.00    -0.337 C  
HETATM   22  C   UNL     1     -12.631  12.631  63.224  1.00  0.00    -0.273 C  
HETATM   23  C   UNL     1     -10.595  11.621  64.256  1.00  0.00    -0.394 C  
ENDBRANCH  19  21
ENDBRANCH  18  19
ENDBRANCH  15  18
ENDBRANCH  14  15
ENDBRANCH  13  14
ENDBRANCH  10  13
ENDBRANCH   6   7
ENDBRANCH   5   6
ENDBRANCH   3   5
ENDBRANCH   2   3
TORSDOF 10
ENDMDL
MODEL       21
REMARK 921   NORMALIZED FREE ENERGY PREDICTED BY IDOCK:   -5.25 KCAL/MOL
REMARK 922        TOTAL FREE ENERGY PREDICTED BY IDOCK:   -9.19 KCAL/MOL
REMARK 923 INTER-LIGAND FREE ENERGY PREDICTED BY IDOCK:   -8.02 KCAL/MOL
REMARK 924 INTRA-LIGAND FREE ENERGY PREDICTED BY IDOCK:   -1.18 KCAL/MOL
REMARK 927      BINDING AFFINITY PREDICTED BY RF-SCORE:    0.00 PKD
ROOT
HETATM    1  C   UNL     1     -12.526  12.098  63.488  1.00  0.00    -0.555 C  
HETATM    2  O   UNL     1     -13.059  12.545  64.731  1.00  0.00    -0.853 OA 
ENDROOT
BRANCH   2   3
HETATM    3  C   UNL     1     -12.705  13.819  65.062  1.00  0.00    -0.336 C  
HETATM    4  O   UNL     1     -12.658  14.764  64.285  1.00  0.00    -0.706 OA 
BRANCH   3   5
HETATM    5  C   UNL     1     -12.362  13.872  66.523  1.00  0.00    -0.447 C  
BRANCH   5   6
HETATM    6  C   UNL     1     -10.896  13.519  66.793  1.00  0.00    -0.284 C  
BRANCH   6   7
HETATM    7  C   UNL     1     -10.725  12.409  67.806  1.00  0.00    -0.247 A  
HETATM    8  C   UNL     1      -9.492  11.777  67.975  1.00  0.00    -0.188 A  
HETATM    9  C   UNL     1      -9.334  10.745  68.893  1.00  0.00    -0.183 A  
HETATM   10  C   UNL     1     -10.401  10.323  69.685  1.00  0.00    -0.248 A  
HETATM   11  C   UNL     1     -11.792  12.017  68.632  1.00  0.00    -0.366 A  
HETATM   12  C   UNL     1     -11.629  10.976  69.562  1.00  0.00    -0.384 A  
BRANCH  10  13
HETATM   13  O   UNL     1     -10.328   9.297  70.598  1.00  0.00    -0.222 OA 
BRANCH  13  14
HETATM   14  C   UNL     1     -11.448   9.228  71.497  1.00  0.00    -0.384 C  
BRANCH  14  15
HETATM   15  C   UNL     1     -11.679   7.799  71.995  1.00  0.00    -0.304 C  
HETATM   16  O   UNL     1     -13.072   7.604  72.268  1.00  0.00    -0.495 OA 
HETATM   17  H   UNL     1     -13.216   6.718  72.578  1.00  0.00     0.000 HD 
BRANCH  15  18
HETATM   18  C   UNL     1     -11.195   6.734  70.995  1.00  0.00    -0.290 C  
BRANCH  18  19
HETATM   19  N   UNL     1     -11.812   6.900  69.675  1.00  0.00    -0.610 NA 
HETATM   20  H   UNL     1     -11.936   7.889  69.458  1.00  0.00     0.000 HD 
BRANCH  19  21
HETATM   21  C   UNL     1     -11.089   6.220  68.594  1.00  0.00    -0.325 C  
HETATM   22  C   UNL     1     -10.430   7.192  67.613  1.00  0.00    -0.306 C  
HETATM   23  C   UNL     1     -10.010   5.341  69.235  1.00  0.00    -0.285 C  
ENDBRANCH  19  21
ENDBRANCH  18  19
ENDBRANCH  15  18
ENDBRANCH  14  15
ENDBRANCH  13  14
ENDBRANCH  10  13
ENDBRANCH   6   7
ENDBRANCH   5   6
ENDBRANCH   3   5
ENDBRANCH   2   3
TORSDOF 10
ENDMDL
MODEL       22
REMARK 921   NORMALIZED FREE ENERGY PREDICTED BY IDOCK:   -5.24 KCAL/MOL
REMARK 922        TOTAL FREE ENERGY PREDICTED BY IDOCK:   -9.18 KCAL/MOL
REMARK 923 INTER-LIGAND FREE ENERGY PREDICTED BY IDOCK:   -7.98 KCAL/MOL
REMARK 924 INTRA-LIGAND FREE ENERGY PREDICTED BY IDOCK:   -1.20 KCAL/MOL
REMARK 927      BINDING AFFINITY PREDICTED BY RF-SCORE:    0.00 PKD
ROOT
HETATM    1  C   UNL     1     -11.335   6.523  69.778  1.00  0.00    -0.393 C  
HETATM    2  O   UNL     1     -11.764   7.429  70.791  1.00  0.00    -0.294 OA 
ENDROOT
BRANCH   2   3
HETATM    3  C   UNL     1     -10.745   8.061  71.439  1.00  0.00    -0.229 C  
HETATM    4  O   UNL     1     -10.069   7.575  72.337  1.00  0.00    -0.184 OA 
BRANCH   3   5
HETATM    5  C   UNL     1     -10.599   9.451  70.891  1.00  0.00    -0.390 C  
BRANCH   5   6
HETATM    6  C   UNL     1     -11.936  10.196  70.821  1.00  0.00    -0.442 C  
BRANCH   6   7
HETATM    7  C   UNL     1     -11.934  11.336  69.827  1.00  0.00    -0.431 A  
HETATM    8  C   UNL     1     -12.072  12.658  70.254  1.00  0.00    -0.372 A  
HETATM    9  C   UNL     1     -12.088  13.708  69.343  1.00  0.00    -0.364 A  
HETATM   10  C   UNL     1     -11.948  13.472  67.976  1.00  0.00    -0.337 A  
HETATM   11  C   UNL     1     -11.749  11.096  68.455  1.00  0.00    -0.368 A  
HETATM   12  C   UNL     1     -11.761  12.160  67.537  1.00  0.00    -0.385 A  
BRANCH  10  13
HETATM   13  O   UNL     1     -11.974  14.455  67.015  1.00  0.00    -0.409 OA 
BRANCH  13  14
HETATM   14  C   UNL     1     -12.484  14.020  65.742  1.00  0.00    -0.494 C  
BRANCH  14  15
HETATM   15  C   UNL     1     -11.603  14.510  64.590  1.00  0.00    -0.408 C  
HETATM   16  O   UNL     1     -12.370  15.360  63.727  1.00  0.00    -0.979 OA 
HETATM   17  H   UNL     1     -11.824  15.664  63.012  1.00  0.00     0.000 HD 
BRANCH  15  18
HETATM   18  C   UNL     1     -10.350  15.261  65.075  1.00  0.00    -0.342 C  
BRANCH  18  19
HETATM   19  N   UNL     1      -9.384  14.359  65.713  1.00  0.00    -0.530 NA 
HETATM   20  H   UNL     1      -8.774  13.934  65.015  1.00  0.00     0.000 HD 
BRANCH  19  21
HETATM   21  C   UNL     1      -8.594  14.995  66.773  1.00  0.00    -0.244 C  
HETATM   22  C   UNL     1      -9.229  16.284  67.299  1.00  0.00    -0.217 C  
HETATM   23  C   UNL     1      -8.461  13.992  67.923  1.00  0.00    -0.170 C  
ENDBRANCH  19  21
ENDBRANCH  18  19
ENDBRANCH  15  18
ENDBRANCH  14  15
ENDBRANCH  13  14
ENDBRANCH  10  13
ENDBRANCH   6   7
ENDBRANCH   5   6
ENDBRANCH   3   5
ENDBRANCH   2   3
TORSDOF 10
ENDMDL
MODEL       23
REMARK 921   NORMALIZED FREE ENERGY PREDICTED BY IDOCK:   -5.18 KCAL/MOL
REMARK 922        TOTAL FREE ENERGY PREDICTED BY IDOCK:   -9.09 KCAL/MOL
REMARK 923 INTER-LIGAND FREE ENERGY PREDICTED BY IDOCK:   -8.16 KCAL/MOL
REMARK 924 INTRA-LIGAND FREE ENERGY PREDICTED BY IDOCK:   -0.94 KCAL/MOL
REMARK 927      BINDING AFFINITY PREDICTED BY RF-SCORE:    0.00 PKD
ROOT
HETATM    1  C   UNL     1     -10.995   3.738  73.490  1.00  0.00    -0.247 C  
HETATM    2  O   UNL     1     -11.613   5.008  73.303  1.00  0.00    -0.322 OA 
ENDROOT
BRANCH   2   3
HETATM    3  C   UNL     1     -11.321   5.598  72.109  1.00  0.00    -0.214 C  
HETATM    4  O   UNL     1     -10.536   5.161  71.278  1.00  0.00    -0.219 OA 
BRANCH   3   5
HETATM    5  C   UNL     1     -12.099   6.876  71.988  1.00  0.00    -0.331 C  
BRANCH   5   6
HETATM    6  C   UNL     1     -11.287   8.100  72.425  1.00  0.00    -0.456 C  
BRANCH   6   7
HETATM    7  C   UNL     1     -11.497   9.306  71.536  1.00  0.00    -0.454 A  
HETATM    8  C   UNL     1     -12.525  10.214  71.793  1.00  0.00    -0.455 A  
HETATM    9  C   UNL     1     -12.733  11.315  70.969  1.00  0.00    -0.457 A  
HETATM   10  C   UNL     1     -11.907  11.552  69.871  1.00  0.00    -0.355 A  
HETATM   11  C   UNL     1     -10.636   9.563  70.456  1.00  0.00    -0.358 A  
HETATM   12  C   UNL     1     -10.846  10.678  69.627  1.00  0.00    -0.318 A  
BRANCH  10  13
HETATM   13  O   UNL     1     -12.063  12.604  69.000  1.00  0.00    -0.261 OA 
BRANCH  13  14
HETATM   14  C   UNL     1     -10.863  13.366  68.776  1.00  0.00    -0.246 C  
BRANCH  14  15
HETATM   15  C   UNL     1     -11.179  14.836  68.487  1.00  0.00    -0.276 C  
HETATM   16  O   UNL     1     -12.214  14.920  67.500  1.00  0.00    -0.494 OA 
HETATM   17  H   UNL     1     -12.410  15.832  67.321  1.00  0.00     0.000 HD 
BRANCH  15  18
HETATM   18  C   UNL     1     -11.600  15.614  69.747  1.00  0.00    -0.352 C  
BRANCH  18  19
HETATM   19  N   UNL     1     -12.948  15.245  70.193  1.00  0.00    -0.662 NA 
HETATM   20  H   UNL     1     -13.142  14.266  69.982  1.00  0.00     0.000 HD 
BRANCH  19  21
HETATM   21  C   UNL     1     -13.199  15.528  71.611  1.00  0.00    -0.492 C  
HETATM   22  C   UNL     1     -13.985  14.417  72.311  1.00  0.00    -0.610 C  
HETATM   23  C   UNL     1     -11.843  15.699  72.301  1.00  0.00    -0.578 C  
ENDBRANCH  19  21
ENDBRANCH  18  19
ENDBRANCH  15  18
ENDBRANCH  14  15
ENDBRANCH  13  14
ENDBRANCH  10  13
ENDBRANCH   6   7
ENDBRANCH   5   6
ENDBRANCH   3   5
ENDBRANCH   2   3
TORSDOF 10
ENDMDL
MODEL       24
REMARK 921   NORMALIZED FREE ENERGY PREDICTED BY IDOCK:   -5.18 KCAL/MOL
REMARK 922        TOTAL FREE ENERGY PREDICTED BY IDOCK:   -9.08 KCAL/MOL
REMARK 923 INTER-LIGAND FREE ENERGY PREDICTED BY IDOCK:   -8.38 KCAL/MOL
REMARK 924 INTRA-LIGAND FREE ENERGY PREDICTED BY IDOCK:   -0.70 KCAL/MOL
REMARK 927      BINDING AFFINITY PREDICTED BY RF-SCORE:    0.00 PKD
ROOT
HETATM    1  C   UNL     1     -10.588   8.104  68.453  1.00  0.00    -0.099 C  
HETATM    2  O   UNL     1     -10.598   7.593  67.123  1.00  0.00    -0.315 OA 
ENDROOT
BRANCH   2   3
HETATM    3  C   UNL     1      -9.362   7.490  66.557  1.00  0.00    -0.181 C  
HETATM    4  O   UNL     1      -8.888   6.469  66.074  1.00  0.00    -0.152 OA 
BRANCH   3   5
HETATM    5  C   UNL     1      -8.669   8.819  66.639  1.00  0.00    -0.138 C  
BRANCH   5   6
HETATM    6  C   UNL     1      -8.592   9.524  65.281  1.00  0.00    -0.175 C  
BRANCH   6   7
HETATM    7  C   UNL     1      -9.691  10.544  65.074  1.00  0.00    -0.351 A  
HETATM    8  C   UNL     1     -10.110  10.893  63.789  1.00  0.00    -0.413 A  
HETATM    9  C   UNL     1     -11.106  11.842  63.592  1.00  0.00    -0.518 A  
HETATM   10  C   UNL     1     -11.730  12.459  64.676  1.00  0.00    -0.365 A  
HETATM   11  C   UNL     1     -10.346  11.130  66.170  1.00  0.00    -0.302 A  
HETATM   12  C   UNL     1     -11.356  12.086  65.968  1.00  0.00    -0.398 A  
BRANCH  10  13
HETATM   13  O   UNL     1     -12.707  13.420  64.561  1.00  0.00    -0.633 OA 
BRANCH  13  14
HETATM   14  C   UNL     1     -12.436  14.625  65.298  1.00  0.00    -0.182 C  
BRANCH  14  15
HETATM   15  C   UNL     1     -11.230  15.373  64.723  1.00  0.00    -0.395 C  
HETATM   16  O   UNL     1     -11.671  16.302  63.726  1.00  0.00    -1.511 OA 
HETATM   17  H   UNL     1     -10.923  16.766  63.369  1.00  0.00     0.000 HD 
BRANCH  15  18
HETATM   18  C   UNL     1     -10.420  16.116  65.800  1.00  0.00    -0.367 C  
BRANCH  18  19
HETATM   19  N   UNL     1     -10.354  17.558  65.539  1.00  0.00    -0.636 NA 
HETATM   20  H   UNL     1     -11.273  17.919  65.280  1.00  0.00     0.000 HD 
BRANCH  19  21
HETATM   21  C   UNL     1      -9.789  18.334  66.649  1.00  0.00    -0.352 C  
HETATM   22  C   UNL     1     -10.511  19.664  66.875  1.00  0.00    -0.606 C  
HETATM   23  C   UNL     1      -9.892  17.482  67.917  1.00  0.00    -0.293 C  
ENDBRANCH  19  21
ENDBRANCH  18  19
ENDBRANCH  15  18
ENDBRANCH  14  15
ENDBRANCH  13  14
ENDBRANCH  10  13
ENDBRANCH   6   7
ENDBRANCH   5   6
ENDBRANCH   3   5
ENDBRANCH   2   3
TORSDOF 10
ENDMDL
MODEL       25
REMARK 921   NORMALIZED FREE ENERGY PREDICTED BY IDOCK:   -5.17 KCAL/MOL
REMARK 922        TOTAL FREE ENERGY PREDICTED BY IDOCK:   -9.06 KCAL/MOL
REMARK 923 INTER-LIGAND FREE ENERGY PREDICTED BY IDOCK:   -7.94 KCAL/MOL
REMARK 924 INTRA-LIGAND FREE ENERGY PREDICTED BY IDOCK:   -1.12 KCAL/MOL
REMARK 927      BINDING AFFINITY PREDICTED BY RF-SCORE:    0.00 PKD
ROOT
HETATM    1  C   UNL     1     -12.624  14.390  64.793  1.00  0.00    -0.265 C  
HETATM    2  O   UNL     1     -12.348  13.885  63.489  1.00  0.00    -0.739 OA 
ENDROOT
BRANCH   2   3
HETATM    3  C   UNL     1     -12.284  12.525  63.422  1.00  0.00    -0.517 C  
HETATM    4  O   UNL     1     -13.250  11.772  63.411  1.00  0.00    -0.569 OA 
BRANCH   3   5
HETATM    5  C   UNL     1     -10.845  12.100  63.383  1.00  0.00    -0.474 C  
BRANCH   5   6
HETATM    6  C   UNL     1     -10.486  11.146  64.527  1.00  0.00    -0.415 C  
BRANCH   6   7
HETATM    7  C   UNL     1     -10.479  11.814  65.884  1.00  0.00    -0.296 A  
HETATM    8  C   UNL     1     -11.306  11.356  66.911  1.00  0.00    -0.284 A  
HETATM    9  C   UNL     1     -11.316  11.977  68.155  1.00  0.00    -0.349 A  
HETATM   10  C   UNL     1     -10.486  13.066  68.417  1.00  0.00    -0.252 A  
HETATM   11  C   UNL     1      -9.610  12.883  66.156  1.00  0.00    -0.215 A  
HETATM   12  C   UNL     1      -9.619  13.506  67.415  1.00  0.00    -0.227 A  
BRANCH  10  13
HETATM   13  O   UNL     1     -10.456  13.744  69.613  1.00  0.00     0.162 OA 
BRANCH  13  14
HETATM   14  C   UNL     1      -9.898  15.067  69.525  1.00  0.00    -0.126 C  
BRANCH  14  15
HETATM   15  C   UNL     1     -10.972  16.141  69.723  1.00  0.00    -0.349 C  
HETATM   16  O   UNL     1     -11.831  16.179  68.577  1.00  0.00    -0.313 OA 
HETATM   17  H   UNL     1     -12.497  16.845  68.700  1.00  0.00     0.000 HD 
BRANCH  15  18
HETATM   18  C   UNL     1     -11.812  15.916  70.993  1.00  0.00    -0.428 C  
BRANCH  18  19
HETATM   19  N   UNL     1     -13.103  15.288  70.692  1.00  0.00    -0.638 NA 
HETATM   20  H   UNL     1     -13.007  14.616  69.930  1.00  0.00     0.000 HD 
BRANCH  19  21
HETATM   21  C   UNL     1     -13.741  14.661  71.855  1.00  0.00    -0.419 C  
HETATM   22  C   UNL     1     -13.446  13.164  71.964  1.00  0.00    -0.598 C  
HETATM   23  C   UNL     1     -13.224  15.370  73.111  1.00  0.00    -0.636 C  
ENDBRANCH  19  21
ENDBRANCH  18  19
ENDBRANCH  15  18
ENDBRANCH  14  15
ENDBRANCH  13  14
ENDBRANCH  10  13
ENDBRANCH   6   7
ENDBRANCH   5   6
ENDBRANCH   3   5
ENDBRANCH   2   3
TORSDOF 10
ENDMDL
MODEL       26
REMARK 921   NORMALIZED FREE ENERGY PREDICTED BY IDOCK:   -5.17 KCAL/MOL
REMARK 922        TOTAL FREE ENERGY PREDICTED BY IDOCK:   -9.06 KCAL/MOL
REMARK 923 INTER-LIGAND FREE ENERGY PREDICTED BY IDOCK:   -8.55 KCAL/MOL
REMARK 924 INTRA-LIGAND FREE ENERGY PREDICTED BY IDOCK:   -0.51 KCAL/MOL
REMARK 927      BINDING AFFINITY PREDICTED BY RF-SCORE:    0.00 PKD
ROOT
HETATM    1  C   UNL     1      -8.063  16.642  66.334  1.00  0.00    -0.324 C  
HETATM    2  O   UNL     1      -9.411  16.782  66.774  1.00  0.00    -0.229 OA 
ENDROOT
BRANCH   2   3
HETATM    3  C   UNL     1     -10.298  15.984  66.113  1.00  0.00    -0.328 C  
HETATM    4  O   UNL     1     -10.652  16.133  64.951  1.00  0.00    -0.622 OA 
BRANCH   3   5
HETATM    5  C   UNL     1     -10.783  14.911  67.044  1.00  0.00    -0.307 C  
BRANCH   5   6
HETATM    6  C   UNL     1     -11.389  15.481  68.330  1.00  0.00    -0.357 C  
BRANCH   6   7
HETATM    7  C   UNL     1     -11.833  14.414  69.306  1.00  0.00    -0.365 A  
HETATM    8  C   UNL     1     -12.446  14.757  70.512  1.00  0.00    -0.411 A  
HETATM    9  C   UNL     1     -12.840  13.781  71.420  1.00  0.00    -0.449 A  
HETATM   10  C   UNL     1     -12.650  12.428  71.143  1.00  0.00    -0.251 A  
HETATM   11  C   UNL     1     -11.678  13.051  69.003  1.00  0.00    -0.376 A  
HETATM   12  C   UNL     1     -12.081  12.066  69.921  1.00  0.00    -0.334 A  
BRANCH  10  13
HETATM   13  O   UNL     1     -12.993  11.408  71.999  1.00  0.00    -0.442 OA 
BRANCH  13  14
HETATM   14  C   UNL     1     -13.312  10.169  71.340  1.00  0.00    -0.325 C  
BRANCH  14  15
HETATM   15  C   UNL     1     -13.153   8.976  72.286  1.00  0.00    -0.445 C  
HETATM   16  O   UNL     1     -14.209   8.986  73.255  1.00  0.00    -1.192 OA 
HETATM   17  H   UNL     1     -14.110   8.245  73.842  1.00  0.00     0.000 HD 
BRANCH  15  18
HETATM   18  C   UNL     1     -13.143   7.626  71.546  1.00  0.00    -0.338 C  
BRANCH  18  19
HETATM   19  N   UNL     1     -12.541   6.561  72.356  1.00  0.00    -0.534 NA 
HETATM   20  H   UNL     1     -12.862   5.646  72.042  1.00  0.00     0.000 HD 
BRANCH  19  21
HETATM   21  C   UNL     1     -11.075   6.608  72.399  1.00  0.00    -0.259 C  
HETATM   22  C   UNL     1     -10.527   6.869  73.803  1.00  0.00    -0.390 C  
HETATM   23  C   UNL     1     -10.549   5.261  71.893  1.00  0.00    -0.274 C  
ENDBRANCH  19  21
ENDBRANCH  18  19
ENDBRANCH  15  18
ENDBRANCH  14  15
ENDBRANCH  13  14
ENDBRANCH  10  13
ENDBRANCH   6   7
ENDBRANCH   5   6
ENDBRANCH   3   5
ENDBRANCH   2   3
TORSDOF 10
ENDMDL
MODEL       27
REMARK 921   NORMALIZED FREE ENERGY PREDICTED BY IDOCK:   -5.16 KCAL/MOL
REMARK 922        TOTAL FREE ENERGY PREDICTED BY IDOCK:   -9.06 KCAL/MOL
REMARK 923 INTER-LIGAND FREE ENERGY PREDICTED BY IDOCK:   -8.25 KCAL/MOL
REMARK 924 INTRA-LIGAND FREE ENERGY PREDICTED BY IDOCK:   -0.80 KCAL/MOL
REMARK 927      BINDING AFFINITY PREDICTED BY RF-SCORE:    0.00 PKD
ROOT
HETATM    1  C   UNL     1     -10.778   7.152  70.828  1.00  0.00    -0.231 C  
HETATM    2  O   UNL     1     -12.023   6.539  71.151  1.00  0.00    -0.353 OA 
ENDROOT
BRANCH   2   3
HETATM    3  C   UNL     1     -13.004   7.422  71.495  1.00  0.00    -0.375 C  
HETATM    4  O   UNL     1     -14.207   7.220  71.386  1.00  0.00    -0.422 OA 
BRANCH   3   5
HETATM    5  C   UNL     1     -12.374   8.684  72.008  1.00  0.00    -0.435 C  
BRANCH   5   6
HETATM    6  C   UNL     1     -13.381   9.832  72.135  1.00  0.00    -0.527 C  
BRANCH   6   7
HETATM    7  C   UNL     1     -12.947  11.090  71.416  1.00  0.00    -0.517 A  
HETATM    8  C   UNL     1     -13.208  12.350  71.958  1.00  0.00    -0.514 A  
HETATM    9  C   UNL     1     -12.827  13.510  71.293  1.00  0.00    -0.420 A  
HETATM   10  C   UNL     1     -12.155  13.447  70.073  1.00  0.00    -0.334 A  
HETATM   11  C   UNL     1     -12.232  11.020  70.210  1.00  0.00    -0.447 A  
HETATM   12  C   UNL     1     -11.844  12.194  69.542  1.00  0.00    -0.386 A  
BRANCH  10  13
HETATM   13  O   UNL     1     -11.765  14.548  69.348  1.00  0.00    -0.281 OA 
BRANCH  13  14
HETATM   14  C   UNL     1     -10.985  14.237  68.179  1.00  0.00    -0.246 C  
BRANCH  14  15
HETATM   15  C   UNL     1     -11.522  14.958  66.940  1.00  0.00    -0.313 C  
HETATM   16  O   UNL     1     -10.445  15.623  66.267  1.00  0.00    -0.288 OA 
HETATM   17  H   UNL     1     -10.779  16.071  65.498  1.00  0.00     0.000 HD 
BRANCH  15  18
HETATM   18  C   UNL     1     -12.238  14.011  65.962  1.00  0.00    -0.458 C  
BRANCH  18  19
HETATM   19  N   UNL     1     -11.528  13.906  64.682  1.00  0.00    -0.362 NA 
HETATM   20  H   UNL     1     -10.680  14.472  64.694  1.00  0.00     0.000 HD 
BRANCH  19  21
HETATM   21  C   UNL     1     -11.224  12.526  64.286  1.00  0.00    -0.355 C  
HETATM   22  C   UNL     1     -10.992  11.600  65.482  1.00  0.00    -0.327 C  
HETATM   23  C   UNL     1     -12.406  12.003  63.464  1.00  0.00    -0.661 C  
ENDBRANCH  19  21
ENDBRANCH  18  19
ENDBRANCH  15  18
ENDBRANCH  14  15
ENDBRANCH  13  14
ENDBRANCH  10  13
ENDBRANCH   6   7
ENDBRANCH   5   6
ENDBRANCH   3   5
ENDBRANCH   2   3
TORSDOF 10
ENDMDL
MODEL       28
REMARK 921   NORMALIZED FREE ENERGY PREDICTED BY IDOCK:   -5.13 KCAL/MOL
REMARK 922        TOTAL FREE ENERGY PREDICTED BY IDOCK:   -9.00 KCAL/MOL
REMARK 923 INTER-LIGAND FREE ENERGY PREDICTED BY IDOCK:   -8.09 KCAL/MOL
REMARK 924 INTRA-LIGAND FREE ENERGY PREDICTED BY IDOCK:   -0.91 KCAL/MOL
REMARK 927      BINDING AFFINITY PREDICTED BY RF-SCORE:    0.00 PKD
ROOT
HETATM    1  C   UNL     1      -8.874  17.471  66.728  1.00  0.00    -0.256 C  
HETATM    2  O   UNL     1     -10.067  17.796  67.437  1.00  0.00    -0.311 OA 
ENDROOT
BRANCH   2   3
HETATM    3  C   UNL     1     -10.541  16.786  68.220  1.00  0.00    -0.352 C  
HETATM    4  O   UNL     1     -10.893  16.903  69.387  1.00  0.00    -0.308 OA 
BRANCH   3   5
HETATM    5  C   UNL     1     -10.543  15.510  67.431  1.00  0.00    -0.292 C  
BRANCH   5   6
HETATM    6  C   UNL     1     -11.903  14.805  67.461  1.00  0.00    -0.326 C  
BRANCH   6   7
HETATM    7  C   UNL     1     -11.885  13.501  68.229  1.00  0.00    -0.401 A  
HETATM    8  C   UNL     1     -11.596  12.296  67.587  1.00  0.00    -0.421 A  
HETATM    9  C   UNL     1     -11.594  11.094  68.284  1.00  0.00    -0.359 A  
HETATM   10  C   UNL     1     -11.863  11.060  69.652  1.00  0.00    -0.342 A  
HETATM   11  C   UNL     1     -12.113  13.478  69.614  1.00  0.00    -0.365 A  
HETATM   12  C   UNL     1     -12.107  12.262  70.318  1.00  0.00    -0.376 A  
BRANCH  10  13
HETATM   13  O   UNL     1     -11.900   9.910  70.404  1.00  0.00    -0.267 OA 
BRANCH  13  14
HETATM   14  C   UNL     1     -13.091   9.764  71.199  1.00  0.00    -0.346 C  
BRANCH  14  15
HETATM   15  C   UNL     1     -12.827   8.927  72.454  1.00  0.00    -0.380 C  
HETATM   16  O   UNL     1     -14.011   8.883  73.259  1.00  0.00    -1.203 OA 
HETATM   17  H   UNL     1     -13.847   8.364  74.038  1.00  0.00     0.000 HD 
BRANCH  15  18
HETATM   18  C   UNL     1     -12.368   7.495  72.129  1.00  0.00    -0.217 C  
BRANCH  18  19
HETATM   19  N   UNL     1     -12.446   7.206  70.692  1.00  0.00    -0.610 NA 
HETATM   20  H   UNL     1     -12.506   8.071  70.155  1.00  0.00     0.000 HD 
BRANCH  19  21
HETATM   21  C   UNL     1     -11.350   6.365  70.198  1.00  0.00    -0.420 C  
HETATM   22  C   UNL     1     -11.274   6.321  68.671  1.00  0.00    -0.328 C  
HETATM   23  C   UNL     1     -10.040   6.929  70.754  1.00  0.00    -0.208 C  
ENDBRANCH  19  21
ENDBRANCH  18  19
ENDBRANCH  15  18
ENDBRANCH  14  15
ENDBRANCH  13  14
ENDBRANCH  10  13
ENDBRANCH   6   7
ENDBRANCH   5   6
ENDBRANCH   3   5
ENDBRANCH   2   3
TORSDOF 10
ENDMDL
MODEL       29
REMARK 921   NORMALIZED FREE ENERGY PREDICTED BY IDOCK:   -5.11 KCAL/MOL
REMARK 922        TOTAL FREE ENERGY PREDICTED BY IDOCK:   -8.97 KCAL/MOL
REMARK 923 INTER-LIGAND FREE ENERGY PREDICTED BY IDOCK:   -7.94 KCAL/MOL
REMARK 924 INTRA-LIGAND FREE ENERGY PREDICTED BY IDOCK:   -1.03 KCAL/MOL
REMARK 927      BINDING AFFINITY PREDICTED BY RF-SCORE:    0.00 PKD
ROOT
HETATM    1  C   UNL     1      -9.129  16.256  66.237  1.00  0.00    -0.331 C  
HETATM    2  O   UNL     1     -10.522  16.468  66.028  1.00  0.00    -0.328 OA 
ENDROOT
BRANCH   2   3
HETATM    3  C   UNL     1     -11.009  15.890  64.893  1.00  0.00    -0.411 C  
HETATM    4  O   UNL     1     -11.322  16.491  63.873  1.00  0.00    -1.057 OA 
BRANCH   3   5
HETATM    5  C   UNL     1     -11.117  14.408  65.101  1.00  0.00    -0.365 C  
BRANCH   5   6
HETATM    6  C   UNL     1     -12.299  14.028  65.999  1.00  0.00    -0.504 C  
BRANCH   6   7
HETATM    7  C   UNL     1     -11.959  12.957  67.013  1.00  0.00    -0.390 A  
HETATM    8  C   UNL     1     -11.354  11.763  66.617  1.00  0.00    -0.381 A  
HETATM    9  C   UNL     1     -11.056  10.769  67.541  1.00  0.00    -0.374 A  
HETATM   10  C   UNL     1     -11.336  10.944  68.896  1.00  0.00    -0.288 A  
HETATM   11  C   UNL     1     -12.203  13.157  68.381  1.00  0.00    -0.065 A  
HETATM   12  C   UNL     1     -11.897  12.152  69.314  1.00  0.00    -0.370 A  
BRANCH  10  13
HETATM   13  O   UNL     1     -11.090  10.000  69.865  1.00  0.00    -0.253 OA 
BRANCH  13  14
HETATM   14  C   UNL     1     -12.113   9.910  70.872  1.00  0.00    -0.341 C  
BRANCH  14  15
HETATM   15  C   UNL     1     -11.853   8.744  71.830  1.00  0.00    -0.367 C  
HETATM   16  O   UNL     1     -13.099   8.257  72.343  1.00  0.00    -0.519 OA 
HETATM   17  H   UNL     1     -12.938   7.534  72.938  1.00  0.00     0.000 HD 
BRANCH  15  18
HETATM   18  C   UNL     1     -11.079   7.590  71.169  1.00  0.00    -0.251 C  
BRANCH  18  19
HETATM   19  N   UNL     1     -11.730   7.128  69.937  1.00  0.00    -0.558 NA 
HETATM   20  H   UNL     1     -12.202   7.901  69.468  1.00  0.00     0.000 HD 
BRANCH  19  21
HETATM   21  C   UNL     1     -10.823   6.439  69.012  1.00  0.00    -0.327 C  
HETATM   22  C   UNL     1     -10.872   7.009  67.593  1.00  0.00    -0.312 C  
HETATM   23  C   UNL     1      -9.400   6.576  69.563  1.00  0.00    -0.148 C  
ENDBRANCH  19  21
ENDBRANCH  18  19
ENDBRANCH  15  18
ENDBRANCH  14  15
ENDBRANCH  13  14
ENDBRANCH  10  13
ENDBRANCH   6   7
ENDBRANCH   5   6
ENDBRANCH   3   5
ENDBRANCH   2   3
TORSDOF 10
ENDMDL
MODEL       30
REMARK 921   NORMALIZED FREE ENERGY PREDICTED BY IDOCK:   -5.08 KCAL/MOL
REMARK 922        TOTAL FREE ENERGY PREDICTED BY IDOCK:   -8.93 KCAL/MOL
REMARK 923 INTER-LIGAND FREE ENERGY PREDICTED BY IDOCK:   -7.58 KCAL/MOL
REMARK 924 INTRA-LIGAND FREE ENERGY PREDICTED BY IDOCK:   -1.35 KCAL/MOL
REMARK 927      BINDING AFFINITY PREDICTED BY RF-SCORE:    0.00 PKD
ROOT
HETATM    1  C   UNL     1     -12.483  12.046  63.549  1.00  0.00    -0.540 C  
HETATM    2  O   UNL     1     -12.685  12.232  64.947  1.00  0.00    -0.575 OA 
ENDROOT
BRANCH   2   3
HETATM    3  C   UNL     1     -12.409  13.493  65.386  1.00  0.00    -0.478 C  
HETATM    4  O   UNL     1     -12.685  14.525  64.788  1.00  0.00    -0.606 OA 
BRANCH   3   5
HETATM    5  C   UNL     1     -11.699  13.411  66.705  1.00  0.00    -0.429 C  
BRANCH   5   6
HETATM    6  C   UNL     1     -11.665  14.757  67.437  1.00  0.00    -0.371 C  
BRANCH   6   7
HETATM    7  C   UNL     1     -10.293  15.395  67.454  1.00  0.00    -0.262 A  
HETATM    8  C   UNL     1      -9.543  15.446  68.630  1.00  0.00    -0.204 A  
HETATM    9  C   UNL     1      -8.289  16.046  68.655  1.00  0.00    -0.203 A  
HETATM   10  C   UNL     1      -7.737  16.598  67.500  1.00  0.00    -0.165 A  
HETATM   11  C   UNL     1      -9.723  15.909  66.278  1.00  0.00    -0.332 A  
HETATM   12  C   UNL     1      -8.454  16.511  66.305  1.00  0.00    -0.363 A  
BRANCH  10  13
HETATM   13  O   UNL     1      -6.514  17.225  67.451  1.00  0.00    -0.133 OA 
BRANCH  13  14
HETATM   14  C   UNL     1      -6.423  18.260  66.456  1.00  0.00    -0.194 C  
BRANCH  14  15
HETATM   15  C   UNL     1      -6.111  19.619  67.090  1.00  0.00    -0.184 C  
HETATM   16  O   UNL     1      -5.483  20.468  66.122  1.00  0.00    -0.172 OA 
HETATM   17  H   UNL     1      -5.289  21.310  66.515  1.00  0.00     0.000 HD 
BRANCH  15  18
HETATM   18  C   UNL     1      -7.363  20.315  67.653  1.00  0.00    -0.305 C  
BRANCH  18  19
HETATM   19  N   UNL     1      -8.404  20.480  66.634  1.00  0.00    -0.543 NA 
HETATM   20  H   UNL     1      -8.220  19.880  65.830  1.00  0.00     0.000 HD 
BRANCH  19  21
HETATM   21  C   UNL     1      -9.765  20.264  67.138  1.00  0.00    -0.452 C  
HETATM   22  C   UNL     1     -10.661  19.526  66.141  1.00  0.00    -0.585 C  
HETATM   23  C   UNL     1      -9.661  19.443  68.427  1.00  0.00    -0.488 C  
ENDBRANCH  19  21
ENDBRANCH  18  19
ENDBRANCH  15  18
ENDBRANCH  14  15
ENDBRANCH  13  14
ENDBRANCH  10  13
ENDBRANCH   6   7
ENDBRANCH   5   6
ENDBRANCH   3   5
ENDBRANCH   2   3
TORSDOF 10
ENDMDL
MODEL       31
REMARK 921   NORMALIZED FREE ENERGY PREDICTED BY IDOCK:   -5.08 KCAL/MOL
REMARK 922        TOTAL FREE ENERGY PREDICTED BY IDOCK:   -8.93 KCAL/MOL
REMARK 923 INTER-LIGAND FREE ENERGY PREDICTED BY IDOCK:   -8.18 KCAL/MOL
REMARK 924 INTRA-LIGAND FREE ENERGY PREDICTED BY IDOCK:   -0.75 KCAL/MOL
REMARK 927      BINDING AFFINITY PREDICTED BY RF-SCORE:    0.00 PKD
ROOT
HETATM    1  C   UNL     1     -10.491  19.135  66.604  1.00  0.00    -0.443 C  
HETATM    2  O   UNL     1     -11.034  18.357  67.669  1.00  0.00    -0.346 OA 
ENDROOT
BRANCH   2   3
HETATM    3  C   UNL     1     -10.209  17.365  68.109  1.00  0.00    -0.350 C  
HETATM    4  O   UNL     1      -9.023  17.502  68.384  1.00  0.00    -0.262 OA 
BRANCH   3   5
HETATM    5  C   UNL     1     -10.979  16.079  68.182  1.00  0.00    -0.339 C  
BRANCH   5   6
HETATM    6  C   UNL     1     -11.511  15.795  69.591  1.00  0.00    -0.348 C  
BRANCH   6   7
HETATM    7  C   UNL     1     -11.767  14.326  69.848  1.00  0.00    -0.373 A  
HETATM    8  C   UNL     1     -12.441  13.908  70.996  1.00  0.00    -0.452 A  
HETATM    9  C   UNL     1     -12.664  12.559  71.246  1.00  0.00    -0.350 A  
HETATM   10  C   UNL     1     -12.235  11.584  70.346  1.00  0.00    -0.355 A  
HETATM   11  C   UNL     1     -11.371  13.352  68.917  1.00  0.00    -0.331 A  
HETATM   12  C   UNL     1     -11.601  11.989  69.170  1.00  0.00    -0.370 A  
BRANCH  10  13
HETATM   13  O   UNL     1     -12.399  10.232  70.534  1.00  0.00    -0.289 OA 
BRANCH  13  14
HETATM   14  C   UNL     1     -13.533   9.884  71.348  1.00  0.00    -0.302 C  
BRANCH  14  15
HETATM   15  C   UNL     1     -13.167   8.831  72.396  1.00  0.00    -0.394 C  
HETATM   16  O   UNL     1     -14.161   8.813  73.428  1.00  0.00    -1.167 OA 
HETATM   17  H   UNL     1     -13.933   8.159  74.079  1.00  0.00     0.000 HD 
BRANCH  15  18
HETATM   18  C   UNL     1     -13.017   7.421  71.798  1.00  0.00    -0.325 C  
BRANCH  18  19
HETATM   19  N   UNL     1     -12.320   7.444  70.507  1.00  0.00    -0.554 NA 
HETATM   20  H   UNL     1     -12.282   8.393  70.136  1.00  0.00     0.000 HD 
BRANCH  19  21
HETATM   21  C   UNL     1     -10.977   6.853  70.550  1.00  0.00    -0.273 C  
HETATM   22  C   UNL     1     -10.831   5.636  69.634  1.00  0.00    -0.365 C  
HETATM   23  C   UNL     1      -9.977   7.931  70.121  1.00  0.00    -0.190 C  
ENDBRANCH  19  21
ENDBRANCH  18  19
ENDBRANCH  15  18
ENDBRANCH  14  15
ENDBRANCH  13  14
ENDBRANCH  10  13
ENDBRANCH   6   7
ENDBRANCH   5   6
ENDBRANCH   3   5
ENDBRANCH   2   3
TORSDOF 10
ENDMDL
MODEL       32
REMARK 921   NORMALIZED FREE ENERGY PREDICTED BY IDOCK:   -5.08 KCAL/MOL
REMARK 922        TOTAL FREE ENERGY PREDICTED BY IDOCK:   -8.92 KCAL/MOL
REMARK 923 INTER-LIGAND FREE ENERGY PREDICTED BY IDOCK:   -8.03 KCAL/MOL
REMARK 924 INTRA-LIGAND FREE ENERGY PREDICTED BY IDOCK:   -0.90 KCAL/MOL
REMARK 927      BINDING AFFINITY PREDICTED BY RF-SCORE:    0.00 PKD
ROOT
HETATM    1  C   UNL     1      -7.315  10.243  69.994  1.00  0.00    -0.149 C  
HETATM    2  O   UNL     1      -8.641   9.890  69.610  1.00  0.00    -0.166 OA 
ENDROOT
BRANCH   2   3
HETATM    3  C   UNL     1      -9.414   9.433  70.636  1.00  0.00    -0.262 C  
HETATM    4  O   UNL     1      -9.007   9.148  71.754  1.00  0.00    -0.345 OA 
BRANCH   3   5
HETATM    5  C   UNL     1     -10.836   9.318  70.168  1.00  0.00    -0.275 C  
BRANCH   5   6
HETATM    6  C   UNL     1     -11.699  10.500  70.622  1.00  0.00    -0.453 C  
BRANCH   6   7
HETATM    7  C   UNL     1     -11.764  11.618  69.605  1.00  0.00    -0.418 A  
HETATM    8  C   UNL     1     -11.955  12.941  70.007  1.00  0.00    -0.380 A  
HETATM    9  C   UNL     1     -12.032  13.970  69.076  1.00  0.00    -0.392 A  
HETATM   10  C   UNL     1     -11.903  13.712  67.712  1.00  0.00    -0.368 A  
HETATM   11  C   UNL     1     -11.589  11.358  68.236  1.00  0.00    -0.376 A  
HETATM   12  C   UNL     1     -11.663  12.400  67.297  1.00  0.00    -0.419 A  
BRANCH  10  13
HETATM   13  O   UNL     1     -11.988  14.672  66.731  1.00  0.00    -0.373 OA 
BRANCH  13  14
HETATM   14  C   UNL     1     -11.423  14.277  65.469  1.00  0.00    -0.329 C  
BRANCH  14  15
HETATM   15  C   UNL     1     -10.492  15.356  64.910  1.00  0.00    -0.292 C  
HETATM   16  O   UNL     1     -11.229  16.222  64.038  1.00  0.00    -1.241 OA 
HETATM   17  H   UNL     1     -10.651  16.891  63.691  1.00  0.00     0.000 HD 
BRANCH  15  18
HETATM   18  C   UNL     1      -9.814  16.188  66.013  1.00  0.00    -0.347 C  
BRANCH  18  19
HETATM   19  N   UNL     1     -10.534  17.439  66.277  1.00  0.00    -0.315 NA 
HETATM   20  H   UNL     1     -11.267  17.292  66.972  1.00  0.00     0.000 HD 
BRANCH  19  21
HETATM   21  C   UNL     1      -9.662  18.550  66.673  1.00  0.00    -0.341 C  
HETATM   22  C   UNL     1      -8.183  18.279  66.390  1.00  0.00    -0.276 C  
HETATM   23  C   UNL     1     -10.105  19.793  65.895  1.00  0.00    -0.513 C  
ENDBRANCH  19  21
ENDBRANCH  18  19
ENDBRANCH  15  18
ENDBRANCH  14  15
ENDBRANCH  13  14
ENDBRANCH  10  13
ENDBRANCH   6   7
ENDBRANCH   5   6
ENDBRANCH   3   5
ENDBRANCH   2   3
TORSDOF 10
ENDMDL
MODEL       33
REMARK 921   NORMALIZED FREE ENERGY PREDICTED BY IDOCK:   -5.07 KCAL/MOL
REMARK 922        TOTAL FREE ENERGY PREDICTED BY IDOCK:   -8.91 KCAL/MOL
REMARK 923 INTER-LIGAND FREE ENERGY PREDICTED BY IDOCK:   -8.08 KCAL/MOL
REMARK 924 INTRA-LIGAND FREE ENERGY PREDICTED BY IDOCK:   -0.83 KCAL/MOL
REMARK 927      BINDING AFFINITY PREDICTED BY RF-SCORE:    0.00 PKD
ROOT
HETATM    1  C   UNL     1     -10.985   7.351  72.985  1.00  0.00    -0.374 C  
HETATM    2  O   UNL     1     -12.002   8.285  72.631  1.00  0.00    -0.399 OA 
ENDROOT
BRANCH   2   3
HETATM    3  C   UNL     1     -11.620   9.191  71.686  1.00  0.00    -0.379 C  
HETATM    4  O   UNL     1     -10.467   9.396  71.329  1.00  0.00    -0.318 OA 
BRANCH   3   5
HETATM    5  C   UNL     1     -12.834   9.907  71.170  1.00  0.00    -0.461 C  
BRANCH   5   6
HETATM    6  C   UNL     1     -13.042  11.267  71.845  1.00  0.00    -0.510 C  
BRANCH   6   7
HETATM    7  C   UNL     1     -12.591  12.432  70.993  1.00  0.00    -0.349 A  
HETATM    8  C   UNL     1     -11.934  12.220  69.780  1.00  0.00    -0.365 A  
HETATM    9  C   UNL     1     -11.501  13.287  69.001  1.00  0.00    -0.350 A  
HETATM   10  C   UNL     1     -11.729  14.603  69.402  1.00  0.00    -0.316 A  
HETATM   11  C   UNL     1     -12.862  13.755  71.380  1.00  0.00    -0.449 A  
HETATM   12  C   UNL     1     -12.427  14.832  70.589  1.00  0.00    -0.407 A  
BRANCH  10  13
HETATM   13  O   UNL     1     -11.314  15.709  68.697  1.00  0.00    -0.315 OA 
BRANCH  13  14
HETATM   14  C   UNL     1     -11.041  15.452  67.308  1.00  0.00    -0.302 C  
BRANCH  14  15
HETATM   15  C   UNL     1      -9.613  15.861  66.934  1.00  0.00    -0.229 C  
HETATM   16  O   UNL     1      -9.170  15.089  65.812  1.00  0.00    -0.478 OA 
HETATM   17  H   UNL     1      -8.284  15.343  65.580  1.00  0.00     0.000 HD 
BRANCH  15  18
HETATM   18  C   UNL     1      -9.488  17.361  66.612  1.00  0.00    -0.274 C  
BRANCH  18  19
HETATM   19  N   UNL     1     -10.741  18.083  66.864  1.00  0.00    -0.268 NA 
HETATM   20  H   UNL     1     -11.347  17.545  67.483  1.00  0.00     0.000 HD 
BRANCH  19  21
HETATM   21  C   UNL     1     -10.546  19.441  67.384  1.00  0.00    -0.488 C  
HETATM   22  C   UNL     1     -10.002  19.460  68.814  1.00  0.00    -0.522 C  
HETATM   23  C   UNL     1      -9.559  20.159  66.458  1.00  0.00    -0.529 C  
ENDBRANCH  19  21
ENDBRANCH  18  19
ENDBRANCH  15  18
ENDBRANCH  14  15
ENDBRANCH  13  14
ENDBRANCH  10  13
ENDBRANCH   6   7
ENDBRANCH   5   6
ENDBRANCH   3   5
ENDBRANCH   2   3
TORSDOF 10
ENDMDL
MODEL       34
REMARK 921   NORMALIZED FREE ENERGY PREDICTED BY IDOCK:   -5.06 KCAL/MOL
REMARK 922        TOTAL FREE ENERGY PREDICTED BY IDOCK:   -8.90 KCAL/MOL
REMARK 923 INTER-LIGAND FREE ENERGY PREDICTED BY IDOCK:   -7.65 KCAL/MOL
REMARK 924 INTRA-LIGAND FREE ENERGY PREDICTED BY IDOCK:   -1.25 KCAL/MOL
REMARK 927      BINDING AFFINITY PREDICTED BY RF-SCORE:    0.00 PKD
ROOT
HETATM    1  C   UNL     1     -10.369   5.244  72.388  1.00  0.00    -0.209 C  
HETATM    2  O   UNL     1     -11.703   5.731  72.276  1.00  0.00    -0.287 OA 
ENDROOT
BRANCH   2   3
HETATM    3  C   UNL     1     -11.896   6.591  71.236  1.00  0.00    -0.329 C  
HETATM    4  O   UNL     1     -11.634   6.352  70.064  1.00  0.00    -0.425 OA 
BRANCH   3   5
HETATM    5  C   UNL     1     -12.459   7.880  71.759  1.00  0.00    -0.352 C  
BRANCH   5   6
HETATM    6  C   UNL     1     -11.380   8.947  71.969  1.00  0.00    -0.427 C  
BRANCH   6   7
HETATM    7  C   UNL     1     -11.146   9.809  70.747  1.00  0.00    -0.415 A  
HETATM    8  C   UNL     1      -9.956   9.718  70.024  1.00  0.00    -0.299 A  
HETATM    9  C   UNL     1      -9.729  10.520  68.911  1.00  0.00    -0.206 A  
HETATM   10  C   UNL     1     -10.695  11.427  68.474  1.00  0.00    -0.201 A  
HETATM   11  C   UNL     1     -12.140  10.689  70.286  1.00  0.00    -0.423 A  
HETATM   12  C   UNL     1     -11.910  11.495  69.159  1.00  0.00    -0.406 A  
BRANCH  10  13
HETATM   13  O   UNL     1     -10.535  12.266  67.397  1.00  0.00    -0.208 OA 
BRANCH  13  14
HETATM   14  C   UNL     1     -11.700  12.376  66.560  1.00  0.00    -0.379 C  
BRANCH  14  15
HETATM   15  C   UNL     1     -11.805  13.767  65.928  1.00  0.00    -0.383 C  
HETATM   16  O   UNL     1     -13.106  13.937  65.353  1.00  0.00    -0.752 OA 
HETATM   17  H   UNL     1     -13.171  14.800  64.961  1.00  0.00     0.000 HD 
BRANCH  15  18
HETATM   18  C   UNL     1     -11.530  14.900  66.932  1.00  0.00    -0.313 C  
BRANCH  18  19
HETATM   19  N   UNL     1     -12.380  14.795  68.123  1.00  0.00    -0.572 NA 
HETATM   20  H   UNL     1     -12.559  13.817  68.352  1.00  0.00     0.000 HD 
BRANCH  19  21
HETATM   21  C   UNL     1     -11.852  15.510  69.291  1.00  0.00    -0.353 C  
HETATM   22  C   UNL     1     -12.603  15.180  70.582  1.00  0.00    -0.450 C  
HETATM   23  C   UNL     1     -10.379  15.122  69.450  1.00  0.00    -0.259 C  
ENDBRANCH  19  21
ENDBRANCH  18  19
ENDBRANCH  15  18
ENDBRANCH  14  15
ENDBRANCH  13  14
ENDBRANCH  10  13
ENDBRANCH   6   7
ENDBRANCH   5   6
ENDBRANCH   3   5
ENDBRANCH   2   3
TORSDOF 10
ENDMDL
MODEL       35
REMARK 921   NORMALIZED FREE ENERGY PREDICTED BY IDOCK:   -5.05 KCAL/MOL
REMARK 922        TOTAL FREE ENERGY PREDICTED BY IDOCK:   -8.88 KCAL/MOL
REMARK 923 INTER-LIGAND FREE ENERGY PREDICTED BY IDOCK:   -7.92 KCAL/MOL
REMARK 924 INTRA-LIGAND FREE ENERGY PREDICTED BY IDOCK:   -0.96 KCAL/MOL
REMARK 927      BINDING AFFINITY PREDICTED BY RF-SCORE:    0.00 PKD
ROOT
HETATM    1  C   UNL     1     -10.693   6.926  71.590  1.00  0.00    -0.222 C  
HETATM    2  O   UNL     1     -12.030   6.442  71.490  1.00  0.00    -0.327 OA 
ENDROOT
BRANCH   2   3
HETATM    3  C   UNL     1     -12.980   7.420  71.523  1.00  0.00    -0.375 C  
HETATM    4  O   UNL     1     -14.186   7.237  71.428  1.00  0.00    -0.422 OA 
BRANCH   3   5
HETATM    5  C   UNL     1     -12.308   8.754  71.675  1.00  0.00    -0.394 C  
BRANCH   5   6
HETATM    6  C   UNL     1     -13.285   9.857  72.098  1.00  0.00    -0.511 C  
BRANCH   6   7
HETATM    7  C   UNL     1     -12.954  11.209  71.505  1.00  0.00    -0.542 A  
HETATM    8  C   UNL     1     -13.373  12.385  72.128  1.00  0.00    -0.508 A  
HETATM    9  C   UNL     1     -13.086  13.629  71.580  1.00  0.00    -0.431 A  
HETATM   10  C   UNL     1     -12.354  13.738  70.398  1.00  0.00    -0.353 A  
HETATM   11  C   UNL     1     -12.178  11.314  70.339  1.00  0.00    -0.453 A  
HETATM   12  C   UNL     1     -11.886  12.573  69.788  1.00  0.00    -0.380 A  
BRANCH  10  13
HETATM   13  O   UNL     1     -12.049  14.931  69.784  1.00  0.00    -0.302 OA 
BRANCH  13  14
HETATM   14  C   UNL     1     -10.835  15.542  70.256  1.00  0.00    -0.339 C  
BRANCH  14  15
HETATM   15  C   UNL     1     -10.189  16.411  69.174  1.00  0.00    -0.280 C  
HETATM   16  O   UNL     1      -8.788  16.122  69.096  1.00  0.00    -0.246 OA 
HETATM   17  H   UNL     1      -8.388  16.661  68.425  1.00  0.00     0.000 HD 
BRANCH  15  18
HETATM   18  C   UNL     1     -10.835  16.218  67.790  1.00  0.00    -0.315 C  
BRANCH  18  19
HETATM   19  N   UNL     1     -10.686  14.843  67.303  1.00  0.00    -0.287 NA 
HETATM   20  H   UNL     1     -10.750  14.179  68.074  1.00  0.00     0.000 HD 
BRANCH  19  21
HETATM   21  C   UNL     1     -11.630  14.488  66.237  1.00  0.00    -0.360 C  
HETATM   22  C   UNL     1     -11.212  15.025  64.866  1.00  0.00    -0.423 C  
HETATM   23  C   UNL     1     -11.715  12.960  66.176  1.00  0.00    -0.451 C  
ENDBRANCH  19  21
ENDBRANCH  18  19
ENDBRANCH  15  18
ENDBRANCH  14  15
ENDBRANCH  13  14
ENDBRANCH  10  13
ENDBRANCH   6   7
ENDBRANCH   5   6
ENDBRANCH   3   5
ENDBRANCH   2   3
TORSDOF 10
ENDMDL
MODEL       36
REMARK 921   NORMALIZED FREE ENERGY PREDICTED BY IDOCK:   -5.04 KCAL/MOL
REMARK 922        TOTAL FREE ENERGY PREDICTED BY IDOCK:   -8.86 KCAL/MOL
REMARK 923 INTER-LIGAND FREE ENERGY PREDICTED BY IDOCK:   -8.17 KCAL/MOL
REMARK 924 INTRA-LIGAND FREE ENERGY PREDICTED BY IDOCK:   -0.69 KCAL/MOL
REMARK 927      BINDING AFFINITY PREDICTED BY RF-SCORE:    0.00 PKD
ROOT
HETATM    1  C   UNL     1     -10.917   6.981  70.641  1.00  0.00    -0.260 C  
HETATM    2  O   UNL     1     -12.106   6.487  71.250  1.00  0.00    -0.343 OA 
ENDROOT
BRANCH   2   3
HETATM    3  C   UNL     1     -13.059   7.439  71.463  1.00  0.00    -0.374 C  
HETATM    4  O   UNL     1     -14.255   7.304  71.237  1.00  0.00    -0.394 OA 
BRANCH   3   5
HETATM    5  C   UNL     1     -12.406   8.680  71.996  1.00  0.00    -0.435 C  
BRANCH   5   6
HETATM    6  C   UNL     1     -13.398   9.834  72.174  1.00  0.00    -0.527 C  
BRANCH   6   7
HETATM    7  C   UNL     1     -12.971  11.104  71.471  1.00  0.00    -0.542 A  
HETATM    8  C   UNL     1     -13.263  12.355  72.014  1.00  0.00    -0.514 A  
HETATM    9  C   UNL     1     -12.888  13.525  71.364  1.00  0.00    -0.440 A  
HETATM   10  C   UNL     1     -12.190  13.481  70.157  1.00  0.00    -0.330 A  
HETATM   11  C   UNL     1     -12.230  11.052  70.278  1.00  0.00    -0.447 A  
HETATM   12  C   UNL     1     -11.848  12.236  69.625  1.00  0.00    -0.393 A  
BRANCH  10  13
HETATM   13  O   UNL     1     -11.804  14.592  69.446  1.00  0.00    -0.296 OA 
BRANCH  13  14
HETATM   14  C   UNL     1     -10.523  14.464  68.804  1.00  0.00    -0.244 C  
BRANCH  14  15
HETATM   15  C   UNL     1      -9.484  15.395  69.437  1.00  0.00    -0.267 C  
HETATM   16  O   UNL     1      -8.218  14.729  69.501  1.00  0.00    -0.376 OA 
HETATM   17  H   UNL     1      -7.573  15.306  69.894  1.00  0.00     0.000 HD 
BRANCH  15  18
HETATM   18  C   UNL     1      -9.332  16.723  68.675  1.00  0.00    -0.252 C  
BRANCH  18  19
HETATM   19  N   UNL     1     -10.441  17.644  68.951  1.00  0.00    -0.370 NA 
HETATM   20  H   UNL     1     -10.737  17.569  69.924  1.00  0.00     0.000 HD 
BRANCH  19  21
HETATM   21  C   UNL     1     -10.151  19.040  68.605  1.00  0.00    -0.382 C  
HETATM   22  C   UNL     1      -8.652  19.350  68.583  1.00  0.00    -0.394 C  
HETATM   23  C   UNL     1     -10.743  19.311  67.219  1.00  0.00    -0.594 C  
ENDBRANCH  19  21
ENDBRANCH  18  19
ENDBRANCH  15  18
ENDBRANCH  14  15
ENDBRANCH  13  14
ENDBRANCH  10  13
ENDBRANCH   6   7
ENDBRANCH   5   6
ENDBRANCH   3   5
ENDBRANCH   2   3
TORSDOF 10
ENDMDL
MODEL       37
REMARK 921   NORMALIZED FREE ENERGY PREDICTED BY IDOCK:   -5.03 KCAL/MOL
REMARK 922        TOTAL FREE ENERGY PREDICTED BY IDOCK:   -8.85 KCAL/MOL
REMARK 923 INTER-LIGAND FREE ENERGY PREDICTED BY IDOCK:   -7.75 KCAL/MOL
REMARK 924 INTRA-LIGAND FREE ENERGY PREDICTED BY IDOCK:   -1.10 KCAL/MOL
REMARK 927      BINDING AFFINITY PREDICTED BY RF-SCORE:    0.00 PKD
ROOT
HETATM    1  C   UNL     1      -6.889  18.094  65.970  1.00  0.00    -0.282 C  
HETATM    2  O   UNL     1      -7.825  19.091  65.568  1.00  0.00    -0.406 OA 
ENDROOT
BRANCH   2   3
HETATM    3  C   UNL     1      -8.411  19.754  66.605  1.00  0.00    -0.333 C  
HETATM    4  O   UNL     1      -7.825  20.468  67.409  1.00  0.00    -0.322 OA 
BRANCH   3   5
HETATM    5  C   UNL     1      -9.882  19.453  66.615  1.00  0.00    -0.462 C  
BRANCH   5   6
HETATM    6  C   UNL     1     -10.289  18.564  67.796  1.00  0.00    -0.435 C  
BRANCH   6   7
HETATM    7  C   UNL     1     -10.652  17.154  67.386  1.00  0.00    -0.297 A  
HETATM    8  C   UNL     1     -11.200  16.260  68.306  1.00  0.00    -0.324 A  
HETATM    9  C   UNL     1     -11.519  14.958  67.939  1.00  0.00    -0.357 A  
HETATM   10  C   UNL     1     -11.317  14.513  66.633  1.00  0.00    -0.356 A  
HETATM   11  C   UNL     1     -10.487  16.725  66.058  1.00  0.00    -0.300 A  
HETATM   12  C   UNL     1     -10.814  15.410  65.689  1.00  0.00    -0.363 A  
BRANCH  10  13
HETATM   13  O   UNL     1     -11.588  13.236  66.201  1.00  0.00    -0.321 OA 
BRANCH  13  14
HETATM   14  C   UNL     1     -12.345  13.177  64.979  1.00  0.00    -0.459 C  
BRANCH  14  15
HETATM   15  C   UNL     1     -11.920  11.986  64.115  1.00  0.00    -0.369 C  
HETATM   16  O   UNL     1     -12.855  11.812  63.043  1.00  0.00    -0.844 OA 
HETATM   17  H   UNL     1     -12.591  11.074  62.507  1.00  0.00     0.000 HD 
BRANCH  15  18
HETATM   18  C   UNL     1     -10.500  12.142  63.543  1.00  0.00    -0.454 C  
BRANCH  18  19
HETATM   19  N   UNL     1      -9.473  12.018  64.583  1.00  0.00    -0.442 NA 
HETATM   20  H   UNL     1      -9.704  12.601  65.388  1.00  0.00     0.000 HD 
BRANCH  19  21
HETATM   21  C   UNL     1      -9.220  10.635  65.003  1.00  0.00    -0.211 C  
HETATM   22  C   UNL     1      -8.827   9.721  63.840  1.00  0.00    -0.259 C  
HETATM   23  C   UNL     1      -8.087  10.658  66.033  1.00  0.00    -0.159 C  
ENDBRANCH  19  21
ENDBRANCH  18  19
ENDBRANCH  15  18
ENDBRANCH  14  15
ENDBRANCH  13  14
ENDBRANCH  10  13
ENDBRANCH   6   7
ENDBRANCH   5   6
ENDBRANCH   3   5
ENDBRANCH   2   3
TORSDOF 10
ENDMDL
MODEL       38
REMARK 921   NORMALIZED FREE ENERGY PREDICTED BY IDOCK:   -5.00 KCAL/MOL
REMARK 922        TOTAL FREE ENERGY PREDICTED BY IDOCK:   -8.81 KCAL/MOL
REMARK 923 INTER-LIGAND FREE ENERGY PREDICTED BY IDOCK:   -7.87 KCAL/MOL
REMARK 924 INTRA-LIGAND FREE ENERGY PREDICTED BY IDOCK:   -0.94 KCAL/MOL
REMARK 927      BINDING AFFINITY PREDICTED BY RF-SCORE:    0.00 PKD
ROOT
HETATM    1  C   UNL     1      -9.669   4.262  71.357  1.00  0.00    -0.181 C  
HETATM    2  O   UNL     1     -10.450   5.440  71.177  1.00  0.00    -0.227 OA 
ENDROOT
BRANCH   2   3
HETATM    3  C   UNL     1     -11.334   5.681  72.187  1.00  0.00    -0.214 C  
HETATM    4  O   UNL     1     -11.503   4.963  73.165  1.00  0.00    -0.322 OA 
BRANCH   3   5
HETATM    5  C   UNL     1     -12.079   6.951  71.897  1.00  0.00    -0.370 C  
BRANCH   5   6
HETATM    6  C   UNL     1     -11.216   7.982  71.163  1.00  0.00    -0.287 C  
BRANCH   6   7
HETATM    7  C   UNL     1     -11.798   9.378  71.190  1.00  0.00    -0.413 A  
HETATM    8  C   UNL     1     -11.292  10.381  70.362  1.00  0.00    -0.417 A  
HETATM    9  C   UNL     1     -11.811  11.670  70.395  1.00  0.00    -0.385 A  
HETATM   10  C   UNL     1     -12.868  11.993  71.246  1.00  0.00    -0.265 A  
HETATM   11  C   UNL     1     -12.890   9.687  72.017  1.00  0.00    -0.497 A  
HETATM   12  C   UNL     1     -13.417  10.989  72.046  1.00  0.00    -0.286 A  
BRANCH  10  13
HETATM   13  O   UNL     1     -13.420  13.248  71.350  1.00  0.00    -0.230 OA 
BRANCH  13  14
HETATM   14  C   UNL     1     -13.256  13.858  72.643  1.00  0.00    -0.494 C  
BRANCH  14  15
HETATM   15  C   UNL     1     -13.305  15.385  72.551  1.00  0.00    -0.471 C  
HETATM   16  O   UNL     1     -13.105  15.952  73.851  1.00  0.00    -0.747 OA 
HETATM   17  H   UNL     1     -13.136  16.900  73.794  1.00  0.00     0.000 HD 
BRANCH  15  18
HETATM   18  C   UNL     1     -12.264  15.957  71.572  1.00  0.00    -0.465 C  
BRANCH  18  19
HETATM   19  N   UNL     1     -12.759  15.968  70.190  1.00  0.00    -0.593 NA 
HETATM   20  H   UNL     1     -13.304  16.811  70.011  1.00  0.00     0.000 HD 
BRANCH  19  21
HETATM   21  C   UNL     1     -11.703  15.811  69.183  1.00  0.00    -0.388 C  
HETATM   22  C   UNL     1     -10.304  15.715  69.796  1.00  0.00    -0.309 C  
HETATM   23  C   UNL     1     -11.997  14.533  68.393  1.00  0.00    -0.309 C  
ENDBRANCH  19  21
ENDBRANCH  18  19
ENDBRANCH  15  18
ENDBRANCH  14  15
ENDBRANCH  13  14
ENDBRANCH  10  13
ENDBRANCH   6   7
ENDBRANCH   5   6
ENDBRANCH   3   5
ENDBRANCH   2   3
TORSDOF 10
ENDMDL
MODEL       39
REMARK 921   NORMALIZED FREE ENERGY PREDICTED BY IDOCK:   -5.00 KCAL/MOL
REMARK 922        TOTAL FREE ENERGY PREDICTED BY IDOCK:   -8.80 KCAL/MOL
REMARK 923 INTER-LIGAND FREE ENERGY PREDICTED BY IDOCK:   -7.35 KCAL/MOL
REMARK 924 INTRA-LIGAND FREE ENERGY PREDICTED BY IDOCK:   -1.45 KCAL/MOL
REMARK 927      BINDING AFFINITY PREDICTED BY RF-SCORE:    0.00 PKD
ROOT
HETATM    1  C   UNL     1     -10.549  19.628  65.910  1.00  0.00    -0.466 C  
HETATM    2  O   UNL     1      -9.706  20.242  66.881  1.00  0.00    -0.407 OA 
ENDROOT
BRANCH   2   3
HETATM    3  C   UNL     1      -9.421  19.447  67.952  1.00  0.00    -0.330 C  
HETATM    4  O   UNL     1     -10.006  19.474  69.028  1.00  0.00    -0.442 OA 
BRANCH   3   5
HETATM    5  C   UNL     1      -8.266  18.552  67.608  1.00  0.00    -0.267 C  
BRANCH   5   6
HETATM    6  C   UNL     1      -8.452  17.127  68.139  1.00  0.00    -0.227 C  
BRANCH   6   7
HETATM    7  C   UNL     1      -9.511  16.344  67.394  1.00  0.00    -0.227 A  
HETATM    8  C   UNL     1      -9.413  16.140  66.017  1.00  0.00    -0.374 A  
HETATM    9  C   UNL     1     -10.392  15.436  65.324  1.00  0.00    -0.420 A  
HETATM   10  C   UNL     1     -11.492  14.898  65.990  1.00  0.00    -0.275 A  
HETATM   11  C   UNL     1     -10.594  15.768  68.077  1.00  0.00    -0.279 A  
HETATM   12  C   UNL     1     -11.581  15.054  67.375  1.00  0.00    -0.304 A  
BRANCH  10  13
HETATM   13  O   UNL     1     -12.510  14.210  65.372  1.00  0.00    -0.451 OA 
BRANCH  13  14
HETATM   14  C   UNL     1     -12.143  13.627  64.110  1.00  0.00    -0.435 C  
BRANCH  14  15
HETATM   15  C   UNL     1     -12.203  12.098  64.162  1.00  0.00    -0.413 C  
HETATM   16  O   UNL     1     -12.633  11.590  62.893  1.00  0.00    -0.946 OA 
HETATM   17  H   UNL     1     -12.670  10.641  62.925  1.00  0.00     0.000 HD 
BRANCH  15  18
HETATM   18  C   UNL     1     -10.855  11.461  64.544  1.00  0.00    -0.309 C  
BRANCH  18  19
HETATM   19  N   UNL     1     -10.572  11.595  65.977  1.00  0.00    -0.250 NA 
HETATM   20  H   UNL     1     -10.952  10.803  66.495  1.00  0.00     0.000 HD 
BRANCH  19  21
HETATM   21  C   UNL     1      -9.148  11.777  66.284  1.00  0.00    -0.206 C  
HETATM   22  C   UNL     1      -8.910  12.414  67.655  1.00  0.00    -0.177 C  
HETATM   23  C   UNL     1      -8.482  10.399  66.245  1.00  0.00    -0.145 C  
ENDBRANCH  19  21
ENDBRANCH  18  19
ENDBRANCH  15  18
ENDBRANCH  14  15
ENDBRANCH  13  14
ENDBRANCH  10  13
ENDBRANCH   6   7
ENDBRANCH   5   6
ENDBRANCH   3   5
ENDBRANCH   2   3
TORSDOF 10
ENDMDL
MODEL       40
REMARK 921   NORMALIZED FREE ENERGY PREDICTED BY IDOCK:   -5.00 KCAL/MOL
REMARK 922        TOTAL FREE ENERGY PREDICTED BY IDOCK:   -8.80 KCAL/MOL
REMARK 923 INTER-LIGAND FREE ENERGY PREDICTED BY IDOCK:   -8.05 KCAL/MOL
REMARK 924 INTRA-LIGAND FREE ENERGY PREDICTED BY IDOCK:   -0.75 KCAL/MOL
REMARK 927      BINDING AFFINITY PREDICTED BY RF-SCORE:    0.00 PKD
ROOT
HETATM    1  C   UNL     1     -10.857   6.546  68.453  1.00  0.00    -0.289 C  
HETATM    2  O   UNL     1     -10.893   6.654  67.032  1.00  0.00    -0.337 OA 
ENDROOT
BRANCH   2   3
HETATM    3  C   UNL     1      -9.707   7.028  66.473  1.00  0.00    -0.125 C  
HETATM    4  O   UNL     1      -8.966   6.295  65.832  1.00  0.00    -0.156 OA 
BRANCH   3   5
HETATM    5  C   UNL     1      -9.449   8.473  66.785  1.00  0.00    -0.253 C  
BRANCH   5   6
HETATM    6  C   UNL     1      -8.938   9.253  65.569  1.00  0.00    -0.251 C  
BRANCH   6   7
HETATM    7  C   UNL     1      -9.879  10.352  65.125  1.00  0.00    -0.378 A  
HETATM    8  C   UNL     1      -9.938  10.745  63.787  1.00  0.00    -0.411 A  
HETATM    9  C   UNL     1     -10.788  11.765  63.376  1.00  0.00    -0.460 A  
HETATM   10  C   UNL     1     -11.621  12.413  64.288  1.00  0.00    -0.368 A  
HETATM   11  C   UNL     1     -10.747  10.970  66.040  1.00  0.00    -0.242 A  
HETATM   12  C   UNL     1     -11.608  11.998  65.621  1.00  0.00    -0.356 A  
BRANCH  10  13
HETATM   13  O   UNL     1     -12.472  13.442  63.962  1.00  0.00    -0.632 OA 
BRANCH  13  14
HETATM   14  C   UNL     1     -12.470  14.529  64.905  1.00  0.00    -0.311 C  
BRANCH  14  15
HETATM   15  C   UNL     1     -11.241  15.423  64.724  1.00  0.00    -0.395 C  
HETATM   16  O   UNL     1     -11.545  16.479  63.804  1.00  0.00    -1.617 OA 
HETATM   17  H   UNL     1     -10.782  17.034  63.692  1.00  0.00     0.000 HD 
BRANCH  15  18
HETATM   18  C   UNL     1     -10.739  16.022  66.051  1.00  0.00    -0.267 C  
BRANCH  18  19
HETATM   19  N   UNL     1     -10.561  14.994  67.083  1.00  0.00    -0.289 NA 
HETATM   20  H   UNL     1      -9.586  14.698  67.131  1.00  0.00     0.000 HD 
BRANCH  19  21
HETATM   21  C   UNL     1     -11.045  15.398  68.408  1.00  0.00    -0.301 C  
HETATM   22  C   UNL     1     -12.026  14.394  69.017  1.00  0.00    -0.342 C  
HETATM   23  C   UNL     1      -9.828  15.536  69.328  1.00  0.00    -0.270 C  
ENDBRANCH  19  21
ENDBRANCH  18  19
ENDBRANCH  15  18
ENDBRANCH  14  15
ENDBRANCH  13  14
ENDBRANCH  10  13
ENDBRANCH   6   7
ENDBRANCH   5   6
ENDBRANCH   3   5
ENDBRANCH   2   3
TORSDOF 10
ENDMDL
MODEL       41
REMARK 921   NORMALIZED FREE ENERGY PREDICTED BY IDOCK:   -5.00 KCAL/MOL
REMARK 922        TOTAL FREE ENERGY PREDICTED BY IDOCK:   -8.80 KCAL/MOL
REMARK 923 INTER-LIGAND FREE ENERGY PREDICTED BY IDOCK:   -7.55 KCAL/MOL
REMARK 924 INTRA-LIGAND FREE ENERGY PREDICTED BY IDOCK:   -1.25 KCAL/MOL
REMARK 927      BINDING AFFINITY PREDICTED BY RF-SCORE:    0.00 PKD
ROOT
HETATM    1  C   UNL     1      -8.548  19.767  66.098  1.00  0.00    -0.338 C  
HETATM    2  O   UNL     1      -9.376  20.408  67.065  1.00  0.00    -0.381 OA 
ENDROOT
BRANCH   2   3
HETATM    3  C   UNL     1     -10.036  19.546  67.890  1.00  0.00    -0.417 C  
HETATM    4  O   UNL     1     -10.222  19.719  69.088  1.00  0.00    -0.412 OA 
BRANCH   3   5
HETATM    5  C   UNL     1     -10.478  18.348  67.101  1.00  0.00    -0.434 C  
BRANCH   5   6
HETATM    6  C   UNL     1     -10.472  17.063  67.936  1.00  0.00    -0.354 C  
BRANCH   6   7
HETATM    7  C   UNL     1     -10.852  15.833  67.142  1.00  0.00    -0.289 A  
HETATM    8  C   UNL     1     -11.666  14.845  67.699  1.00  0.00    -0.329 A  
HETATM    9  C   UNL     1     -12.005  13.705  66.980  1.00  0.00    -0.448 A  
HETATM   10  C   UNL     1     -11.554  13.523  65.672  1.00  0.00    -0.325 A  
HETATM   11  C   UNL     1     -10.432  15.676  65.811  1.00  0.00    -0.383 A  
HETATM   12  C   UNL     1     -10.778  14.525  65.085  1.00  0.00    -0.422 A  
BRANCH  10  13
HETATM   13  O   UNL     1     -11.829  12.415  64.907  1.00  0.00    -0.362 OA 
BRANCH  13  14
HETATM   14  C   UNL     1     -11.245  12.448  63.592  1.00  0.00    -0.474 C  
BRANCH  14  15
HETATM   15  C   UNL     1     -10.283  11.277  63.378  1.00  0.00    -0.403 C  
HETATM   16  O   UNL     1      -9.086  11.747  62.747  1.00  0.00    -0.606 OA 
HETATM   17  H   UNL     1      -8.489  11.020  62.614  1.00  0.00     0.000 HD 
BRANCH  15  18
HETATM   18  C   UNL     1      -9.927  10.550  64.687  1.00  0.00    -0.347 C  
BRANCH  18  19
HETATM   19  N   UNL     1      -8.845  11.225  65.412  1.00  0.00    -0.368 NA 
HETATM   20  H   UNL     1      -8.718  12.176  65.066  1.00  0.00     0.000 HD 
BRANCH  19  21
HETATM   21  C   UNL     1      -9.019  11.224  66.869  1.00  0.00    -0.162 C  
HETATM   22  C   UNL     1      -8.346  10.030  67.549  1.00  0.00    -0.118 C  
HETATM   23  C   UNL     1      -8.414  12.521  67.413  1.00  0.00    -0.181 C  
ENDBRANCH  19  21
ENDBRANCH  18  19
ENDBRANCH  15  18
ENDBRANCH  14  15
ENDBRANCH  13  14
ENDBRANCH  10  13
ENDBRANCH   6   7
ENDBRANCH   5   6
ENDBRANCH   3   5
ENDBRANCH   2   3
TORSDOF 10
ENDMDL
MODEL       42
REMARK 921   NORMALIZED FREE ENERGY PREDICTED BY IDOCK:   -4.99 KCAL/MOL
REMARK 922        TOTAL FREE ENERGY PREDICTED BY IDOCK:   -8.78 KCAL/MOL
REMARK 923 INTER-LIGAND FREE ENERGY PREDICTED BY IDOCK:   -7.40 KCAL/MOL
REMARK 924 INTRA-LIGAND FREE ENERGY PREDICTED BY IDOCK:   -1.38 KCAL/MOL
REMARK 927      BINDING AFFINITY PREDICTED BY RF-SCORE:    0.00 PKD
ROOT
HETATM    1  C   UNL     1     -12.087   6.951  71.813  1.00  0.00    -0.346 C  
HETATM    2  O   UNL     1     -11.957   8.120  71.008  1.00  0.00    -0.295 OA 
ENDROOT
BRANCH   2   3
HETATM    3  C   UNL     1     -12.456   9.250  71.584  1.00  0.00    -0.368 C  
HETATM    4  O   UNL     1     -13.330   9.280  72.441  1.00  0.00    -0.445 OA 
BRANCH   3   5
HETATM    5  C   UNL     1     -11.777  10.448  70.986  1.00  0.00    -0.430 C  
BRANCH   5   6
HETATM    6  C   UNL     1     -10.546  10.071  70.157  1.00  0.00    -0.350 C  
BRANCH   6   7
HETATM    7  C   UNL     1     -10.421  10.865  68.875  1.00  0.00    -0.228 A  
HETATM    8  C   UNL     1     -11.530  11.076  68.054  1.00  0.00    -0.365 A  
HETATM    9  C   UNL     1     -11.418  11.791  66.867  1.00  0.00    -0.364 A  
HETATM   10  C   UNL     1     -10.196  12.334  66.472  1.00  0.00    -0.214 A  
HETATM   11  C   UNL     1      -9.198  11.447  68.504  1.00  0.00    -0.174 A  
HETATM   12  C   UNL     1      -9.088  12.173  67.306  1.00  0.00    -0.181 A  
BRANCH  10  13
HETATM   13  O   UNL     1     -10.002  13.034  65.304  1.00  0.00    -0.255 OA 
BRANCH  13  14
HETATM   14  C   UNL     1     -11.036  13.991  65.013  1.00  0.00    -0.375 C  
BRANCH  14  15
HETATM   15  C   UNL     1     -10.522  15.427  65.146  1.00  0.00    -0.411 C  
HETATM   16  O   UNL     1     -11.127  16.249  64.141  1.00  0.00    -1.187 OA 
HETATM   17  H   UNL     1     -10.808  17.140  64.224  1.00  0.00     0.000 HD 
BRANCH  15  18
HETATM   18  C   UNL     1     -10.789  16.029  66.538  1.00  0.00    -0.167 C  
BRANCH  18  19
HETATM   19  N   UNL     1     -11.668  15.175  67.344  1.00  0.00    -0.274 NA 
HETATM   20  H   UNL     1     -11.620  14.207  67.027  1.00  0.00     0.000 HD 
BRANCH  19  21
HETATM   21  C   UNL     1     -11.413  15.259  68.787  1.00  0.00    -0.331 C  
HETATM   22  C   UNL     1     -12.157  14.189  69.588  1.00  0.00    -0.400 C  
HETATM   23  C   UNL     1      -9.906  15.096  69.005  1.00  0.00    -0.238 C  
ENDBRANCH  19  21
ENDBRANCH  18  19
ENDBRANCH  15  18
ENDBRANCH  14  15
ENDBRANCH  13  14
ENDBRANCH  10  13
ENDBRANCH   6   7
ENDBRANCH   5   6
ENDBRANCH   3   5
ENDBRANCH   2   3
TORSDOF 10
ENDMDL
MODEL       43
REMARK 921   NORMALIZED FREE ENERGY PREDICTED BY IDOCK:   -4.98 KCAL/MOL
REMARK 922        TOTAL FREE ENERGY PREDICTED BY IDOCK:   -8.77 KCAL/MOL
REMARK 923 INTER-LIGAND FREE ENERGY PREDICTED BY IDOCK:   -7.89 KCAL/MOL
REMARK 924 INTRA-LIGAND FREE ENERGY PREDICTED BY IDOCK:   -0.89 KCAL/MOL
REMARK 927      BINDING AFFINITY PREDICTED BY RF-SCORE:    0.00 PKD
ROOT
HETATM    1  C   UNL     1     -10.702   5.602  69.901  1.00  0.00    -0.329 C  
HETATM    2  O   UNL     1     -11.901   6.371  69.957  1.00  0.00    -0.404 OA 
ENDROOT
BRANCH   2   3
HETATM    3  C   UNL     1     -12.099   7.007  71.146  1.00  0.00    -0.369 C  
HETATM    4  O   UNL     1     -13.190   7.228  71.656  1.00  0.00    -0.367 OA 
BRANCH   3   5
HETATM    5  C   UNL     1     -10.771   7.408  71.718  1.00  0.00    -0.242 C  
BRANCH   5   6
HETATM    6  C   UNL     1     -10.657   8.922  71.928  1.00  0.00    -0.419 C  
BRANCH   6   7
HETATM    7  C   UNL     1     -10.956   9.723  70.681  1.00  0.00    -0.398 A  
HETATM    8  C   UNL     1     -10.198   9.552  69.521  1.00  0.00    -0.225 A  
HETATM    9  C   UNL     1     -10.458  10.298  68.378  1.00  0.00    -0.228 A  
HETATM   10  C   UNL     1     -11.498  11.227  68.350  1.00  0.00    -0.307 A  
HETATM   11  C   UNL     1     -12.032  10.625  70.645  1.00  0.00    -0.466 A  
HETATM   12  C   UNL     1     -12.295  11.375  69.487  1.00  0.00    -0.211 A  
BRANCH  10  13
HETATM   13  O   UNL     1     -11.802  12.015  67.265  1.00  0.00    -0.556 OA 
BRANCH  13  14
HETATM   14  C   UNL     1     -11.821  13.425  67.550  1.00  0.00    -0.366 C  
BRANCH  14  15
HETATM   15  C   UNL     1     -11.250  14.239  66.385  1.00  0.00    -0.337 C  
HETATM   16  O   UNL     1     -10.794  15.509  66.864  1.00  0.00    -0.314 OA 
HETATM   17  H   UNL     1     -10.439  16.014  66.142  1.00  0.00     0.000 HD 
BRANCH  15  18
HETATM   18  C   UNL     1     -10.101  13.516  65.660  1.00  0.00    -0.278 C  
BRANCH  18  19
HETATM   19  N   UNL     1     -10.267  13.546  64.203  1.00  0.00    -0.758 NA 
HETATM   20  H   UNL     1      -9.460  13.986  63.759  1.00  0.00     0.000 HD 
BRANCH  19  21
HETATM   21  C   UNL     1     -10.529  12.230  63.610  1.00  0.00    -0.450 C  
HETATM   22  C   UNL     1      -9.727  11.107  64.271  1.00  0.00    -0.315 C  
HETATM   23  C   UNL     1     -12.025  11.939  63.762  1.00  0.00    -0.547 C  
ENDBRANCH  19  21
ENDBRANCH  18  19
ENDBRANCH  15  18
ENDBRANCH  14  15
ENDBRANCH  13  14
ENDBRANCH  10  13
ENDBRANCH   6   7
ENDBRANCH   5   6
ENDBRANCH   3   5
ENDBRANCH   2   3
TORSDOF 10
ENDMDL
MODEL       44
REMARK 921   NORMALIZED FREE ENERGY PREDICTED BY IDOCK:   -4.98 KCAL/MOL
REMARK 922        TOTAL FREE ENERGY PREDICTED BY IDOCK:   -8.77 KCAL/MOL
REMARK 923 INTER-LIGAND FREE ENERGY PREDICTED BY IDOCK:   -8.31 KCAL/MOL
REMARK 924 INTRA-LIGAND FREE ENERGY PREDICTED BY IDOCK:   -0.46 KCAL/MOL
REMARK 927      BINDING AFFINITY PREDICTED BY RF-SCORE:    0.00 PKD
ROOT
HETATM    1  C   UNL     1      -9.485   4.935  66.746  1.00  0.00    -0.148 C  
HETATM    2  O   UNL     1     -10.770   5.526  66.919  1.00  0.00    -0.280 OA 
ENDROOT
BRANCH   2   3
HETATM    3  C   UNL     1     -10.768   6.642  67.703  1.00  0.00    -0.302 C  
HETATM    4  O   UNL     1     -11.099   6.679  68.881  1.00  0.00    -0.272 OA 
BRANCH   3   5
HETATM    5  C   UNL     1     -10.315   7.817  66.886  1.00  0.00    -0.396 C  
BRANCH   5   6
HETATM    6  C   UNL     1     -10.196   9.098  67.719  1.00  0.00    -0.278 C  
BRANCH   6   7
HETATM    7  C   UNL     1     -10.602  10.343  66.962  1.00  0.00    -0.305 A  
HETATM    8  C   UNL     1     -10.163  10.561  65.655  1.00  0.00    -0.315 A  
HETATM    9  C   UNL     1     -10.519  11.712  64.961  1.00  0.00    -0.336 A  
HETATM   10  C   UNL     1     -11.341  12.674  65.546  1.00  0.00    -0.321 A  
HETATM   11  C   UNL     1     -11.466  11.288  67.540  1.00  0.00    -0.324 A  
HETATM   12  C   UNL     1     -11.827  12.448  66.835  1.00  0.00    -0.377 A  
BRANCH  10  13
HETATM   13  O   UNL     1     -11.719  13.845  64.932  1.00  0.00    -0.337 OA 
BRANCH  13  14
HETATM   14  C   UNL     1     -11.627  15.008  65.774  1.00  0.00    -0.171 C  
BRANCH  14  15
HETATM   15  C   UNL     1     -10.674  16.052  65.186  1.00  0.00    -0.409 C  
HETATM   16  O   UNL     1     -11.209  16.550  63.954  1.00  0.00    -1.440 OA 
HETATM   17  H   UNL     1     -10.617  17.197  63.588  1.00  0.00     0.000 HD 
BRANCH  15  18
HETATM   18  C   UNL     1     -10.408  17.224  66.146  1.00  0.00    -0.317 C  
BRANCH  18  19
HETATM   19  N   UNL     1     -10.632  18.523  65.501  1.00  0.00    -0.560 NA 
HETATM   20  H   UNL     1     -11.616  18.638  65.257  1.00  0.00     0.000 HD 
BRANCH  19  21
HETATM   21  C   UNL     1     -10.159  19.665  66.292  1.00  0.00    -0.480 C  
HETATM   22  C   UNL     1     -10.503  19.546  67.778  1.00  0.00    -0.574 C  
HETATM   23  C   UNL     1      -8.638  19.748  66.131  1.00  0.00    -0.367 C  
ENDBRANCH  19  21
ENDBRANCH  18  19
ENDBRANCH  15  18
ENDBRANCH  14  15
ENDBRANCH  13  14
ENDBRANCH  10  13
ENDBRANCH   6   7
ENDBRANCH   5   6
ENDBRANCH   3   5
ENDBRANCH   2   3
TORSDOF 10
ENDMDL
MODEL       45
REMARK 921   NORMALIZED FREE ENERGY PREDICTED BY IDOCK:   -4.95 KCAL/MOL
REMARK 922        TOTAL FREE ENERGY PREDICTED BY IDOCK:   -8.73 KCAL/MOL
REMARK 923 INTER-LIGAND FREE ENERGY PREDICTED BY IDOCK:   -7.81 KCAL/MOL
REMARK 924 INTRA-LIGAND FREE ENERGY PREDICTED BY IDOCK:   -0.91 KCAL/MOL
REMARK 927      BINDING AFFINITY PREDICTED BY RF-SCORE:    0.00 PKD
ROOT
HETATM    1  C   UNL     1     -10.684  19.554  67.305  1.00  0.00    -0.484 C  
HETATM    2  O   UNL     1     -10.430  18.180  67.024  1.00  0.00    -0.372 OA 
ENDROOT
BRANCH   2   3
HETATM    3  C   UNL     1      -9.221  17.947  66.439  1.00  0.00    -0.242 C  
HETATM    4  O   UNL     1      -8.301  18.753  66.372  1.00  0.00    -0.284 OA 
BRANCH   3   5
HETATM    5  C   UNL     1      -9.207  16.557  65.873  1.00  0.00    -0.209 C  
BRANCH   5   6
HETATM    6  C   UNL     1     -10.605  16.074  65.473  1.00  0.00    -0.415 C  
BRANCH   6   7
HETATM    7  C   UNL     1     -11.034  14.818  66.200  1.00  0.00    -0.332 A  
HETATM    8  C   UNL     1     -11.488  14.874  67.519  1.00  0.00    -0.361 A  
HETATM    9  C   UNL     1     -11.867  13.721  68.196  1.00  0.00    -0.411 A  
HETATM   10  C   UNL     1     -11.822  12.475  67.571  1.00  0.00    -0.323 A  
HETATM   11  C   UNL     1     -11.028  13.572  65.551  1.00  0.00    -0.295 A  
HETATM   12  C   UNL     1     -11.415  12.409  66.237  1.00  0.00    -0.423 A  
BRANCH  10  13
HETATM   13  O   UNL     1     -12.160  11.291  68.181  1.00  0.00    -0.635 OA 
BRANCH  13  14
HETATM   14  C   UNL     1     -11.162  10.261  68.062  1.00  0.00    -0.235 C  
BRANCH  14  15
HETATM   15  C   UNL     1     -10.400  10.066  69.375  1.00  0.00    -0.227 C  
HETATM   16  O   UNL     1      -9.315  10.999  69.446  1.00  0.00    -0.405 OA 
HETATM   17  H   UNL     1      -8.843  10.877  70.261  1.00  0.00     0.000 HD 
BRANCH  15  18
HETATM   18  C   UNL     1     -11.299  10.223  70.615  1.00  0.00    -0.347 C  
BRANCH  18  19
HETATM   19  N   UNL     1     -12.531   9.433  70.503  1.00  0.00    -0.485 NA 
HETATM   20  H   UNL     1     -12.444   8.735  69.764  1.00  0.00     0.000 HD 
BRANCH  19  21
HETATM   21  C   UNL     1     -12.946   8.805  71.761  1.00  0.00    -0.361 C  
HETATM   22  C   UNL     1     -14.050   7.761  71.572  1.00  0.00    -0.509 C  
HETATM   23  C   UNL     1     -11.716   8.132  72.377  1.00  0.00    -0.461 C  
ENDBRANCH  19  21
ENDBRANCH  18  19
ENDBRANCH  15  18
ENDBRANCH  14  15
ENDBRANCH  13  14
ENDBRANCH  10  13
ENDBRANCH   6   7
ENDBRANCH   5   6
ENDBRANCH   3   5
ENDBRANCH   2   3
TORSDOF 10
ENDMDL
MODEL       46
REMARK 921   NORMALIZED FREE ENERGY PREDICTED BY IDOCK:   -4.95 KCAL/MOL
REMARK 922        TOTAL FREE ENERGY PREDICTED BY IDOCK:   -8.72 KCAL/MOL
REMARK 923 INTER-LIGAND FREE ENERGY PREDICTED BY IDOCK:   -7.68 KCAL/MOL
REMARK 924 INTRA-LIGAND FREE ENERGY PREDICTED BY IDOCK:   -1.04 KCAL/MOL
REMARK 927      BINDING AFFINITY PREDICTED BY RF-SCORE:    0.00 PKD
ROOT
HETATM    1  C   UNL     1     -13.084  11.092  71.650  1.00  0.00    -0.438 C  
HETATM    2  O   UNL     1     -13.417   9.823  72.207  1.00  0.00    -0.434 OA 
ENDROOT
BRANCH   2   3
HETATM    3  C   UNL     1     -12.645   8.796  71.752  1.00  0.00    -0.356 C  
HETATM    4  O   UNL     1     -12.968   7.615  71.752  1.00  0.00    -0.330 OA 
BRANCH   3   5
HETATM    5  C   UNL     1     -11.331   9.341  71.274  1.00  0.00    -0.423 C  
BRANCH   5   6
HETATM    6  C   UNL     1     -10.569   8.344  70.394  1.00  0.00    -0.236 C  
BRANCH   6   7
HETATM    7  C   UNL     1     -10.438   8.795  68.956  1.00  0.00    -0.220 A  
HETATM    8  C   UNL     1     -10.835  10.075  68.568  1.00  0.00    -0.270 A  
HETATM    9  C   UNL     1     -10.732  10.489  67.245  1.00  0.00    -0.333 A  
HETATM   10  C   UNL     1     -10.212   9.639  66.268  1.00  0.00    -0.216 A  
HETATM   11  C   UNL     1      -9.873   7.951  67.985  1.00  0.00    -0.195 A  
HETATM   12  C   UNL     1      -9.767   8.372  66.649  1.00  0.00    -0.320 A  
BRANCH  10  13
HETATM   13  O   UNL     1     -10.099   9.968  64.938  1.00  0.00    -0.316 OA 
BRANCH  13  14
HETATM   14  C   UNL     1      -9.761  11.346  64.699  1.00  0.00    -0.240 C  
BRANCH  14  15
HETATM   15  C   UNL     1     -10.226  11.804  63.314  1.00  0.00    -0.416 C  
HETATM   16  O   UNL     1     -10.341  10.671  62.446  1.00  0.00    -0.716 OA 
HETATM   17  H   UNL     1     -10.630  10.955  61.587  1.00  0.00     0.000 HD 
BRANCH  15  18
HETATM   18  C   UNL     1     -11.565  12.562  63.356  1.00  0.00    -0.473 C  
BRANCH  18  19
HETATM   19  N   UNL     1     -12.210  12.464  64.671  1.00  0.00    -0.431 NA 
HETATM   20  H   UNL     1     -11.646  11.899  65.307  1.00  0.00     0.000 HD 
BRANCH  19  21
HETATM   21  C   UNL     1     -12.521  13.765  65.274  1.00  0.00    -0.480 C  
HETATM   22  C   UNL     1     -12.167  13.833  66.761  1.00  0.00    -0.440 C  
HETATM   23  C   UNL     1     -11.729  14.834  64.517  1.00  0.00    -0.398 C  
ENDBRANCH  19  21
ENDBRANCH  18  19
ENDBRANCH  15  18
ENDBRANCH  14  15
ENDBRANCH  13  14
ENDBRANCH  10  13
ENDBRANCH   6   7
ENDBRANCH   5   6
ENDBRANCH   3   5
ENDBRANCH   2   3
TORSDOF 10
ENDMDL
MODEL       47
REMARK 921   NORMALIZED FREE ENERGY PREDICTED BY IDOCK:   -4.92 KCAL/MOL
REMARK 922        TOTAL FREE ENERGY PREDICTED BY IDOCK:   -8.67 KCAL/MOL
REMARK 923 INTER-LIGAND FREE ENERGY PREDICTED BY IDOCK:   -7.64 KCAL/MOL
REMARK 924 INTRA-LIGAND FREE ENERGY PREDICTED BY IDOCK:   -1.03 KCAL/MOL
REMARK 927      BINDING AFFINITY PREDICTED BY RF-SCORE:    0.00 PKD
ROOT
HETATM    1  C   UNL     1     -10.458   5.485  69.698  1.00  0.00    -0.309 C  
HETATM    2  O   UNL     1     -10.108   5.806  71.041  1.00  0.00    -0.189 OA 
ENDROOT
BRANCH   2   3
HETATM    3  C   UNL     1     -11.177   5.939  71.878  1.00  0.00    -0.264 C  
HETATM    4  O   UNL     1     -11.307   5.370  72.954  1.00  0.00    -0.294 OA 
BRANCH   3   5
HETATM    5  C   UNL     1     -12.173   6.877  71.260  1.00  0.00    -0.427 C  
BRANCH   5   6
HETATM    6  C   UNL     1     -12.371   8.150  72.089  1.00  0.00    -0.383 C  
BRANCH   6   7
HETATM    7  C   UNL     1     -12.161   9.420  71.293  1.00  0.00    -0.424 A  
HETATM    8  C   UNL     1     -12.884  10.577  71.588  1.00  0.00    -0.581 A  
HETATM    9  C   UNL     1     -12.707  11.741  70.850  1.00  0.00    -0.328 A  
HETATM   10  C   UNL     1     -11.787  11.792  69.803  1.00  0.00    -0.349 A  
HETATM   11  C   UNL     1     -11.201   9.478  70.269  1.00  0.00    -0.307 A  
HETATM   12  C   UNL     1     -11.021  10.657  69.527  1.00  0.00    -0.321 A  
BRANCH  10  13
HETATM   13  O   UNL     1     -11.571  12.898  69.016  1.00  0.00    -0.282 OA 
BRANCH  13  14
HETATM   14  C   UNL     1     -10.474  12.761  68.096  1.00  0.00    -0.236 C  
BRANCH  14  15
HETATM   15  C   UNL     1     -10.476  13.881  67.052  1.00  0.00    -0.278 C  
HETATM   16  O   UNL     1      -9.359  13.717  66.169  1.00  0.00    -0.456 OA 
HETATM   17  H   UNL     1      -9.360  14.413  65.521  1.00  0.00     0.000 HD 
BRANCH  15  18
HETATM   18  C   UNL     1     -11.779  13.932  66.234  1.00  0.00    -0.383 C  
BRANCH  18  19
HETATM   19  N   UNL     1     -12.288  12.589  65.930  1.00  0.00    -0.603 NA 
HETATM   20  H   UNL     1     -13.248  12.486  66.260  1.00  0.00     0.000 HD 
BRANCH  19  21
HETATM   21  C   UNL     1     -12.186  12.226  64.513  1.00  0.00    -0.388 C  
HETATM   22  C   UNL     1     -11.970  13.435  63.600  1.00  0.00    -0.504 C  
HETATM   23  C   UNL     1     -11.006  11.261  64.361  1.00  0.00    -0.331 C  
ENDBRANCH  19  21
ENDBRANCH  18  19
ENDBRANCH  15  18
ENDBRANCH  14  15
ENDBRANCH  13  14
ENDBRANCH  10  13
ENDBRANCH   6   7
ENDBRANCH   5   6
ENDBRANCH   3   5
ENDBRANCH   2   3
TORSDOF 10
ENDMDL
MODEL       48
REMARK 921   NORMALIZED FREE ENERGY PREDICTED BY IDOCK:   -4.89 KCAL/MOL
REMARK 922        TOTAL FREE ENERGY PREDICTED BY IDOCK:   -8.63 KCAL/MOL
REMARK 923 INTER-LIGAND FREE ENERGY PREDICTED BY IDOCK:   -7.60 KCAL/MOL
REMARK 924 INTRA-LIGAND FREE ENERGY PREDICTED BY IDOCK:   -1.03 KCAL/MOL
REMARK 927      BINDING AFFINITY PREDICTED BY RF-SCORE:    0.00 PKD
ROOT
HETATM    1  C   UNL     1     -12.325  14.056  66.339  1.00  0.00    -0.431 C  
HETATM    2  O   UNL     1     -12.963  13.742  65.104  1.00  0.00    -0.738 OA 
ENDROOT
BRANCH   2   3
HETATM    3  C   UNL     1     -12.311  12.801  64.364  1.00  0.00    -0.424 C  
HETATM    4  O   UNL     1     -12.748  12.271  63.351  1.00  0.00    -0.727 OA 
BRANCH   3   5
HETATM    5  C   UNL     1     -10.984  12.506  65.001  1.00  0.00    -0.329 C  
BRANCH   5   6
HETATM    6  C   UNL     1     -10.521  11.067  64.749  1.00  0.00    -0.384 C  
BRANCH   6   7
HETATM    7  C   UNL     1     -10.351  10.263  66.020  1.00  0.00    -0.248 A  
HETATM    8  C   UNL     1      -9.607   9.082  66.025  1.00  0.00    -0.342 A  
HETATM    9  C   UNL     1      -9.461   8.330  67.185  1.00  0.00    -0.206 A  
HETATM   10  C   UNL     1     -10.041   8.745  68.383  1.00  0.00    -0.190 A  
HETATM   11  C   UNL     1     -10.900  10.708  67.233  1.00  0.00    -0.345 A  
HETATM   12  C   UNL     1     -10.749   9.949  68.405  1.00  0.00    -0.271 A  
BRANCH  10  13
HETATM   13  O   UNL     1      -9.960   8.046  69.564  1.00  0.00    -0.179 OA 
BRANCH  13  14
HETATM   14  C   UNL     1     -10.979   7.044  69.727  1.00  0.00    -0.250 C  
BRANCH  14  15
HETATM   15  C   UNL     1     -10.852   6.330  71.075  1.00  0.00    -0.271 C  
HETATM   16  O   UNL     1      -9.477   6.299  71.475  1.00  0.00    -0.153 OA 
HETATM   17  H   UNL     1      -9.398   5.856  72.312  1.00  0.00     0.000 HD 
BRANCH  15  18
HETATM   18  C   UNL     1     -11.697   6.989  72.180  1.00  0.00    -0.283 C  
BRANCH  18  19
HETATM   19  N   UNL     1     -11.691   8.453  72.076  1.00  0.00    -0.326 NA 
HETATM   20  H   UNL     1     -11.312   8.748  71.176  1.00  0.00     0.000 HD 
BRANCH  19  21
HETATM   21  C   UNL     1     -13.002   9.068  72.312  1.00  0.00    -0.424 C  
HETATM   22  C   UNL     1     -13.111  10.480  71.733  1.00  0.00    -0.570 C  
HETATM   23  C   UNL     1     -14.062   8.173  71.663  1.00  0.00    -0.504 C  
ENDBRANCH  19  21
ENDBRANCH  18  19
ENDBRANCH  15  18
ENDBRANCH  14  15
ENDBRANCH  13  14
ENDBRANCH  10  13
ENDBRANCH   6   7
ENDBRANCH   5   6
ENDBRANCH   3   5
ENDBRANCH   2   3
TORSDOF 10
ENDMDL
MODEL       49
REMARK 921   NORMALIZED FREE ENERGY PREDICTED BY IDOCK:   -4.89 KCAL/MOL
REMARK 922        TOTAL FREE ENERGY PREDICTED BY IDOCK:   -8.62 KCAL/MOL
REMARK 923 INTER-LIGAND FREE ENERGY PREDICTED BY IDOCK:   -7.73 KCAL/MOL
REMARK 924 INTRA-LIGAND FREE ENERGY PREDICTED BY IDOCK:   -0.90 KCAL/MOL
REMARK 927      BINDING AFFINITY PREDICTED BY RF-SCORE:    0.00 PKD
ROOT
HETATM    1  C   UNL     1     -12.507  13.890  65.194  1.00  0.00    -0.453 C  
HETATM    2  O   UNL     1     -12.071  14.224  66.509  1.00  0.00    -0.431 OA 
ENDROOT
BRANCH   2   3
HETATM    3  C   UNL     1     -10.743  14.004  66.728  1.00  0.00    -0.285 C  
HETATM    4  O   UNL     1      -9.917  13.752  65.860  1.00  0.00    -0.297 OA 
BRANCH   3   5
HETATM    5  C   UNL     1     -10.463  14.101  68.199  1.00  0.00    -0.244 C  
BRANCH   5   6
HETATM    6  C   UNL     1     -11.744  14.168  69.036  1.00  0.00    -0.361 C  
BRANCH   6   7
HETATM    7  C   UNL     1     -12.029  12.892  69.797  1.00  0.00    -0.365 A  
HETATM    8  C   UNL     1     -11.592  11.658  69.313  1.00  0.00    -0.385 A  
HETATM    9  C   UNL     1     -11.866  10.481  69.999  1.00  0.00    -0.388 A  
HETATM   10  C   UNL     1     -12.572  10.501  71.202  1.00  0.00    -0.417 A  
HETATM   11  C   UNL     1     -12.702  12.923  71.029  1.00  0.00    -0.338 A  
HETATM   12  C   UNL     1     -12.975  11.732  71.723  1.00  0.00    -0.466 A  
BRANCH  10  13
HETATM   13  O   UNL     1     -12.898   9.379  71.926  1.00  0.00    -0.352 OA 
BRANCH  13  14
HETATM   14  C   UNL     1     -11.814   8.448  72.091  1.00  0.00    -0.375 C  
BRANCH  14  15
HETATM   15  C   UNL     1     -12.184   7.059  71.564  1.00  0.00    -0.368 C  
HETATM   16  O   UNL     1     -13.472   7.109  70.939  1.00  0.00    -0.550 OA 
HETATM   17  H   UNL     1     -13.701   6.247  70.613  1.00  0.00     0.000 HD 
BRANCH  15  18
HETATM   18  C   UNL     1     -11.148   6.502  70.572  1.00  0.00    -0.319 C  
BRANCH  18  19
HETATM   19  N   UNL     1     -11.605   6.612  69.182  1.00  0.00    -0.628 NA 
HETATM   20  H   UNL     1     -12.493   7.112  69.135  1.00  0.00     0.000 HD 
BRANCH  19  21
HETATM   21  C   UNL     1     -10.620   7.220  68.282  1.00  0.00    -0.172 C  
HETATM   22  C   UNL     1      -9.201   7.208  68.855  1.00  0.00    -0.137 C  
HETATM   23  C   UNL     1     -10.640   6.435  66.967  1.00  0.00    -0.396 C  
ENDBRANCH  19  21
ENDBRANCH  18  19
ENDBRANCH  15  18
ENDBRANCH  14  15
ENDBRANCH  13  14
ENDBRANCH  10  13
ENDBRANCH   6   7
ENDBRANCH   5   6
ENDBRANCH   3   5
ENDBRANCH   2   3
TORSDOF 10
ENDMDL
MODEL       50
REMARK 921   NORMALIZED FREE ENERGY PREDICTED BY IDOCK:   -4.87 KCAL/MOL
REMARK 922        TOTAL FREE ENERGY PREDICTED BY IDOCK:   -8.60 KCAL/MOL
REMARK 923 INTER-LIGAND FREE ENERGY PREDICTED BY IDOCK:   -7.38 KCAL/MOL
REMARK 924 INTRA-LIGAND FREE ENERGY PREDICTED BY IDOCK:   -1.22 KCAL/MOL
REMARK 927      BINDING AFFINITY PREDICTED BY RF-SCORE:    0.00 PKD
ROOT
HETATM    1  C   UNL     1     -13.880  13.289  72.449  1.00  0.00    -0.529 C  
HETATM    2  O   UNL     1     -13.017  13.383  71.319  1.00  0.00    -0.334 OA 
ENDROOT
BRANCH   2   3
HETATM    3  C   UNL     1     -12.910  14.641  70.804  1.00  0.00    -0.358 C  
HETATM    4  O   UNL     1     -13.759  15.518  70.899  1.00  0.00    -0.524 OA 
BRANCH   3   5
HETATM    5  C   UNL     1     -11.597  14.770  70.087  1.00  0.00    -0.338 C  
BRANCH   5   6
HETATM    6  C   UNL     1     -11.670  15.742  68.904  1.00  0.00    -0.404 C  
BRANCH   6   7
HETATM    7  C   UNL     1     -11.388  15.084  67.571  1.00  0.00    -0.340 A  
HETATM    8  C   UNL     1     -12.259  14.126  67.048  1.00  0.00    -0.374 A  
HETATM    9  C   UNL     1     -11.996  13.506  65.832  1.00  0.00    -0.444 A  
HETATM   10  C   UNL     1     -10.862  13.836  65.091  1.00  0.00    -0.345 A  
HETATM   11  C   UNL     1     -10.268  15.452  66.808  1.00  0.00    -0.273 A  
HETATM   12  C   UNL     1     -10.007  14.826  65.578  1.00  0.00    -0.390 A  
BRANCH  10  13
HETATM   13  O   UNL     1     -10.525  13.252  63.893  1.00  0.00    -0.291 OA 
BRANCH  13  14
HETATM   14  C   UNL     1     -11.071  11.935  63.705  1.00  0.00    -0.436 C  
BRANCH  14  15
HETATM   15  C   UNL     1      -9.983  10.927  63.327  1.00  0.00    -0.349 C  
HETATM   16  O   UNL     1      -8.890  11.611  62.703  1.00  0.00    -0.611 OA 
HETATM   17  H   UNL     1      -8.215  10.985  62.467  1.00  0.00     0.000 HD 
BRANCH  15  18
HETATM   18  C   UNL     1      -9.469  10.123  64.534  1.00  0.00    -0.303 C  
BRANCH  18  19
HETATM   19  N   UNL     1     -10.163  10.491  65.774  1.00  0.00    -0.257 NA 
HETATM   20  H   UNL     1     -10.879   9.802  66.002  1.00  0.00     0.000 HD 
BRANCH  19  21
HETATM   21  C   UNL     1      -9.264  10.700  66.914  1.00  0.00    -0.155 C  
HETATM   22  C   UNL     1      -7.899  11.257  66.504  1.00  0.00    -0.133 C  
HETATM   23  C   UNL     1      -9.944  11.684  67.871  1.00  0.00    -0.190 C  
ENDBRANCH  19  21
ENDBRANCH  18  19
ENDBRANCH  15  18
ENDBRANCH  14  15
ENDBRANCH  13  14
ENDBRANCH  10  13
ENDBRANCH   6   7
ENDBRANCH   5   6
ENDBRANCH   3   5
ENDBRANCH   2   3
TORSDOF 10
ENDMDL
MODEL       51
REMARK 921   NORMALIZED FREE ENERGY PREDICTED BY IDOCK:   -4.86 KCAL/MOL
REMARK 922        TOTAL FREE ENERGY PREDICTED BY IDOCK:   -8.58 KCAL/MOL
REMARK 923 INTER-LIGAND FREE ENERGY PREDICTED BY IDOCK:   -7.38 KCAL/MOL
REMARK 924 INTRA-LIGAND FREE ENERGY PREDICTED BY IDOCK:   -1.21 KCAL/MOL
REMARK 927      BINDING AFFINITY PREDICTED BY RF-SCORE:    0.00 PKD
ROOT
HETATM    1  C   UNL     1     -13.370   8.737  71.498  1.00  0.00    -0.313 C  
HETATM    2  O   UNL     1     -12.365   7.962  72.146  1.00  0.00    -0.308 OA 
ENDROOT
BRANCH   2   3
HETATM    3  C   UNL     1     -11.090   8.346  71.852  1.00  0.00    -0.308 C  
HETATM    4  O   UNL     1     -10.218   8.589  72.676  1.00  0.00    -0.284 OA 
BRANCH   3   5
HETATM    5  C   UNL     1     -10.936   8.442  70.362  1.00  0.00    -0.249 C  
BRANCH   5   6
HETATM    6  C   UNL     1      -9.938   9.527  69.946  1.00  0.00    -0.259 C  
BRANCH   6   7
HETATM    7  C   UNL     1     -10.547  10.593  69.062  1.00  0.00    -0.249 A  
HETATM    8  C   UNL     1     -10.399  10.544  67.675  1.00  0.00    -0.257 A  
HETATM    9  C   UNL     1     -10.942  11.529  66.860  1.00  0.00    -0.350 A  
HETATM   10  C   UNL     1     -11.668  12.588  67.404  1.00  0.00    -0.366 A  
HETATM   11  C   UNL     1     -11.314  11.633  69.612  1.00  0.00    -0.308 A  
HETATM   12  C   UNL     1     -11.866  12.626  68.786  1.00  0.00    -0.341 A  
BRANCH  10  13
HETATM   13  O   UNL     1     -12.217  13.610  66.666  1.00  0.00    -0.415 OA 
BRANCH  13  14
HETATM   14  C   UNL     1     -12.426  13.288  65.280  1.00  0.00    -0.489 C  
BRANCH  14  15
HETATM   15  C   UNL     1     -11.734  14.298  64.360  1.00  0.00    -0.389 C  
HETATM   16  O   UNL     1     -12.721  15.085  63.682  1.00  0.00    -0.846 OA 
HETATM   17  H   UNL     1     -12.292  15.712  63.111  1.00  0.00     0.000 HD 
BRANCH  15  18
HETATM   18  C   UNL     1     -10.764  15.224  65.115  1.00  0.00    -0.436 C  
BRANCH  18  19
HETATM   19  N   UNL     1      -9.535  14.527  65.509  1.00  0.00    -0.507 NA 
HETATM   20  H   UNL     1      -8.966  14.310  64.691  1.00  0.00     0.000 HD 
BRANCH  19  21
HETATM   21  C   UNL     1      -8.743  15.246  66.513  1.00  0.00    -0.279 C  
HETATM   22  C   UNL     1      -9.414  16.536  66.990  1.00  0.00    -0.249 C  
HETATM   23  C   UNL     1      -8.541  14.310  67.709  1.00  0.00    -0.177 C  
ENDBRANCH  19  21
ENDBRANCH  18  19
ENDBRANCH  15  18
ENDBRANCH  14  15
ENDBRANCH  13  14
ENDBRANCH  10  13
ENDBRANCH   6   7
ENDBRANCH   5   6
ENDBRANCH   3   5
ENDBRANCH   2   3
TORSDOF 10
ENDMDL
MODEL       52
REMARK 921   NORMALIZED FREE ENERGY PREDICTED BY IDOCK:   -4.86 KCAL/MOL
REMARK 922        TOTAL FREE ENERGY PREDICTED BY IDOCK:   -8.57 KCAL/MOL
REMARK 923 INTER-LIGAND FREE ENERGY PREDICTED BY IDOCK:   -7.43 KCAL/MOL
REMARK 924 INTRA-LIGAND FREE ENERGY PREDICTED BY IDOCK:   -1.14 KCAL/MOL
REMARK 927      BINDING AFFINITY PREDICTED BY RF-SCORE:    0.00 PKD
ROOT
HETATM    1  C   UNL     1      -7.284  19.504  65.641  1.00  0.00    -0.262 C  
HETATM    2  O   UNL     1      -8.043  20.337  66.513  1.00  0.00    -0.286 OA 
ENDROOT
BRANCH   2   3
HETATM    3  C   UNL     1      -9.300  19.874  66.770  1.00  0.00    -0.384 C  
HETATM    4  O   UNL     1     -10.202  19.784  65.947  1.00  0.00    -0.468 OA 
BRANCH   3   5
HETATM    5  C   UNL     1      -9.404  19.513  68.223  1.00  0.00    -0.420 C  
BRANCH   5   6
HETATM    6  C   UNL     1      -8.475  18.357  68.608  1.00  0.00    -0.318 C  
BRANCH   6   7
HETATM    7  C   UNL     1      -9.173  17.015  68.646  1.00  0.00    -0.266 A  
HETATM    8  C   UNL     1      -8.449  15.828  68.526  1.00  0.00    -0.181 A  
HETATM    9  C   UNL     1      -9.087  14.593  68.543  1.00  0.00    -0.188 A  
HETATM   10  C   UNL     1     -10.470  14.505  68.699  1.00  0.00    -0.247 A  
HETATM   11  C   UNL     1     -10.561  16.931  68.847  1.00  0.00    -0.353 A  
HETATM   12  C   UNL     1     -11.203  15.682  68.868  1.00  0.00    -0.311 A  
BRANCH  10  13
HETATM   13  O   UNL     1     -11.174  13.324  68.705  1.00  0.00    -0.244 OA 
BRANCH  13  14
HETATM   14  C   UNL     1     -10.347  12.146  68.710  1.00  0.00    -0.147 C  
BRANCH  14  15
HETATM   15  C   UNL     1     -10.919  11.058  67.798  1.00  0.00    -0.269 C  
HETATM   16  O   UNL     1     -12.228  10.690  68.250  1.00  0.00    -0.799 OA 
HETATM   17  H   UNL     1     -12.582  10.014  67.684  1.00  0.00     0.000 HD 
BRANCH  15  18
HETATM   18  C   UNL     1     -10.983  11.490  66.322  1.00  0.00    -0.275 C  
BRANCH  18  19
HETATM   19  N   UNL     1     -12.138  12.354  66.054  1.00  0.00    -0.638 NA 
HETATM   20  H   UNL     1     -12.481  12.774  66.917  1.00  0.00     0.000 HD 
BRANCH  19  21
HETATM   21  C   UNL     1     -11.883  13.385  65.042  1.00  0.00    -0.352 C  
HETATM   22  C   UNL     1     -10.440  13.895  65.061  1.00  0.00    -0.428 C  
HETATM   23  C   UNL     1     -12.186  12.779  63.669  1.00  0.00    -0.597 C  
ENDBRANCH  19  21
ENDBRANCH  18  19
ENDBRANCH  15  18
ENDBRANCH  14  15
ENDBRANCH  13  14
ENDBRANCH  10  13
ENDBRANCH   6   7
ENDBRANCH   5   6
ENDBRANCH   3   5
ENDBRANCH   2   3
TORSDOF 10
ENDMDL
MODEL       53
REMARK 921   NORMALIZED FREE ENERGY PREDICTED BY IDOCK:   -4.85 KCAL/MOL
REMARK 922        TOTAL FREE ENERGY PREDICTED BY IDOCK:   -8.57 KCAL/MOL
REMARK 923 INTER-LIGAND FREE ENERGY PREDICTED BY IDOCK:   -7.76 KCAL/MOL
REMARK 924 INTRA-LIGAND FREE ENERGY PREDICTED BY IDOCK:   -0.80 KCAL/MOL
REMARK 927      BINDING AFFINITY PREDICTED BY RF-SCORE:    0.00 PKD
ROOT
HETATM    1  C   UNL     1     -10.629   5.701  69.452  1.00  0.00    -0.304 C  
HETATM    2  O   UNL     1     -11.695   6.505  69.950  1.00  0.00    -0.406 OA 
ENDROOT
BRANCH   2   3
HETATM    3  C   UNL     1     -11.442   7.076  71.161  1.00  0.00    -0.294 C  
HETATM    4  O   UNL     1     -12.256   7.200  72.068  1.00  0.00    -0.302 OA 
BRANCH   3   5
HETATM    5  C   UNL     1     -10.017   7.546  71.197  1.00  0.00    -0.187 C  
BRANCH   5   6
HETATM    6  C   UNL     1      -9.904   9.074  71.209  1.00  0.00    -0.376 C  
BRANCH   6   7
HETATM    7  C   UNL     1     -10.212   9.707  69.870  1.00  0.00    -0.279 A  
HETATM    8  C   UNL     1     -11.178  10.708  69.757  1.00  0.00    -0.363 A  
HETATM    9  C   UNL     1     -11.477  11.281  68.526  1.00  0.00    -0.372 A  
HETATM   10  C   UNL     1     -10.806  10.883  67.370  1.00  0.00    -0.279 A  
HETATM   11  C   UNL     1      -9.503   9.333  68.716  1.00  0.00    -0.150 A  
HETATM   12  C   UNL     1      -9.804   9.917  67.474  1.00  0.00    -0.209 A  
BRANCH  10  13
HETATM   13  O   UNL     1     -11.061  11.387  66.116  1.00  0.00    -0.278 OA 
BRANCH  13  14
HETATM   14  C   UNL     1     -10.259  10.805  65.074  1.00  0.00    -0.306 C  
BRANCH  14  15
HETATM   15  C   UNL     1     -10.550  11.450  63.717  1.00  0.00    -0.403 C  
HETATM   16  O   UNL     1     -10.387  10.479  62.677  1.00  0.00    -0.715 OA 
HETATM   17  H   UNL     1     -10.567  10.879  61.834  1.00  0.00     0.000 HD 
BRANCH  15  18
HETATM   18  C   UNL     1     -11.961  12.060  63.637  1.00  0.00    -0.515 C  
BRANCH  18  19
HETATM   19  N   UNL     1     -11.928  13.467  63.221  1.00  0.00    -0.791 NA 
HETATM   20  H   UNL     1     -12.609  13.639  62.482  1.00  0.00     0.000 HD 
BRANCH  19  21
HETATM   21  C   UNL     1     -12.113  14.415  64.326  1.00  0.00    -0.436 C  
HETATM   22  C   UNL     1     -12.948  13.839  65.472  1.00  0.00    -0.363 C  
HETATM   23  C   UNL     1     -10.727  14.796  64.853  1.00  0.00    -0.438 C  
ENDBRANCH  19  21
ENDBRANCH  18  19
ENDBRANCH  15  18
ENDBRANCH  14  15
ENDBRANCH  13  14
ENDBRANCH  10  13
ENDBRANCH   6   7
ENDBRANCH   5   6
ENDBRANCH   3   5
ENDBRANCH   2   3
TORSDOF 10
ENDMDL
MODEL       54
REMARK 921   NORMALIZED FREE ENERGY PREDICTED BY IDOCK:   -4.84 KCAL/MOL
REMARK 922        TOTAL FREE ENERGY PREDICTED BY IDOCK:   -8.55 KCAL/MOL
REMARK 923 INTER-LIGAND FREE ENERGY PREDICTED BY IDOCK:   -7.89 KCAL/MOL
REMARK 924 INTRA-LIGAND FREE ENERGY PREDICTED BY IDOCK:   -0.66 KCAL/MOL
REMARK 927      BINDING AFFINITY PREDICTED BY RF-SCORE:    0.00 PKD
ROOT
HETATM    1  C   UNL     1     -10.694  19.287  67.324  1.00  0.00    -0.488 C  
HETATM    2  O   UNL     1     -10.204  17.950  67.372  1.00  0.00    -0.329 OA 
ENDROOT
BRANCH   2   3
HETATM    3  C   UNL     1      -9.262  17.669  66.427  1.00  0.00    -0.244 C  
HETATM    4  O   UNL     1      -8.533  18.493  65.890  1.00  0.00    -0.497 OA 
BRANCH   3   5
HETATM    5  C   UNL     1      -9.278  16.196  66.138  1.00  0.00    -0.382 C  
BRANCH   5   6
HETATM    6  C   UNL     1     -10.673  15.689  65.757  1.00  0.00    -0.350 C  
BRANCH   6   7
HETATM    7  C   UNL     1     -11.093  14.458  66.530  1.00  0.00    -0.331 A  
HETATM    8  C   UNL     1     -11.084  13.199  65.929  1.00  0.00    -0.298 A  
HETATM    9  C   UNL     1     -11.485  12.067  66.629  1.00  0.00    -0.411 A  
HETATM   10  C   UNL     1     -11.891  12.155  67.961  1.00  0.00    -0.285 A  
HETATM   11  C   UNL     1     -11.458  14.547  67.883  1.00  0.00    -0.348 A  
HETATM   12  C   UNL     1     -11.860  13.401  68.590  1.00  0.00    -0.397 A  
BRANCH  10  13
HETATM   13  O   UNL     1     -12.320  11.086  68.711  1.00  0.00    -0.533 OA 
BRANCH  13  14
HETATM   14  C   UNL     1     -11.490  10.795  69.850  1.00  0.00    -0.321 C  
BRANCH  14  15
HETATM   15  C   UNL     1     -12.311  10.223  71.008  1.00  0.00    -0.381 C  
HETATM   16  O   UNL     1     -13.633   9.910  70.552  1.00  0.00    -0.570 OA 
HETATM   17  H   UNL     1     -14.143   9.555  71.271  1.00  0.00     0.000 HD 
BRANCH  15  18
HETATM   18  C   UNL     1     -11.670   8.970  71.632  1.00  0.00    -0.361 C  
BRANCH  18  19
HETATM   19  N   UNL     1     -11.054   8.107  70.617  1.00  0.00    -0.253 NA 
HETATM   20  H   UNL     1     -10.053   8.006  70.791  1.00  0.00     0.000 HD 
BRANCH  19  21
HETATM   21  C   UNL     1     -11.692   6.792  70.494  1.00  0.00    -0.375 C  
HETATM   22  C   UNL     1     -10.894   5.821  69.620  1.00  0.00    -0.418 C  
HETATM   23  C   UNL     1     -11.831   6.205  71.902  1.00  0.00    -0.316 C  
ENDBRANCH  19  21
ENDBRANCH  18  19
ENDBRANCH  15  18
ENDBRANCH  14  15
ENDBRANCH  13  14
ENDBRANCH  10  13
ENDBRANCH   6   7
ENDBRANCH   5   6
ENDBRANCH   3   5
ENDBRANCH   2   3
TORSDOF 10
ENDMDL
MODEL       55
REMARK 921   NORMALIZED FREE ENERGY PREDICTED BY IDOCK:   -4.83 KCAL/MOL
REMARK 922        TOTAL FREE ENERGY PREDICTED BY IDOCK:   -8.53 KCAL/MOL
REMARK 923 INTER-LIGAND FREE ENERGY PREDICTED BY IDOCK:   -7.26 KCAL/MOL
REMARK 924 INTRA-LIGAND FREE ENERGY PREDICTED BY IDOCK:   -1.27 KCAL/MOL
REMARK 927      BINDING AFFINITY PREDICTED BY RF-SCORE:    0.00 PKD
ROOT
HETATM    1  C   UNL     1      -9.679   5.051  70.184  1.00  0.00    -0.210 C  
HETATM    2  O   UNL     1      -9.745   6.110  71.135  1.00  0.00    -0.174 OA 
ENDROOT
BRANCH   2   3
HETATM    3  C   UNL     1     -10.991   6.642  71.291  1.00  0.00    -0.253 C  
HETATM    4  O   UNL     1     -11.987   6.303  70.664  1.00  0.00    -0.261 OA 
BRANCH   3   5
HETATM    5  C   UNL     1     -10.941   7.719  72.335  1.00  0.00    -0.368 C  
BRANCH   5   6
HETATM    6  C   UNL     1     -10.023   8.879  71.936  1.00  0.00    -0.384 C  
BRANCH   6   7
HETATM    7  C   UNL     1     -10.517   9.644  70.728  1.00  0.00    -0.375 A  
HETATM    8  C   UNL     1     -11.758  10.283  70.745  1.00  0.00    -0.453 A  
HETATM    9  C   UNL     1     -12.224  10.973  69.632  1.00  0.00    -0.370 A  
HETATM   10  C   UNL     1     -11.456  11.063  68.472  1.00  0.00    -0.309 A  
HETATM   11  C   UNL     1      -9.720   9.769  69.579  1.00  0.00    -0.228 A  
HETATM   12  C   UNL     1     -10.191  10.470  68.457  1.00  0.00    -0.190 A  
BRANCH  10  13
HETATM   13  O   UNL     1     -11.857  11.709  67.326  1.00  0.00    -0.609 OA 
BRANCH  13  14
HETATM   14  C   UNL     1     -10.830  11.824  66.325  1.00  0.00    -0.281 C  
BRANCH  14  15
HETATM   15  C   UNL     1     -10.470  13.288  66.060  1.00  0.00    -0.286 C  
HETATM   16  O   UNL     1      -9.721  13.386  64.842  1.00  0.00    -0.563 OA 
HETATM   17  H   UNL     1      -9.497  14.294  64.678  1.00  0.00     0.000 HD 
BRANCH  15  18
HETATM   18  C   UNL     1     -11.706  14.202  65.981  1.00  0.00    -0.382 C  
BRANCH  18  19
HETATM   19  N   UNL     1     -12.198  14.575  67.312  1.00  0.00    -0.581 NA 
HETATM   20  H   UNL     1     -12.755  13.821  67.714  1.00  0.00     0.000 HD 
BRANCH  19  21
HETATM   21  C   UNL     1     -11.138  14.985  68.240  1.00  0.00    -0.286 C  
HETATM   22  C   UNL     1     -10.821  16.480  68.161  1.00  0.00    -0.345 C  
HETATM   23  C   UNL     1     -11.599  14.641  69.660  1.00  0.00    -0.349 C  
ENDBRANCH  19  21
ENDBRANCH  18  19
ENDBRANCH  15  18
ENDBRANCH  14  15
ENDBRANCH  13  14
ENDBRANCH  10  13
ENDBRANCH   6   7
ENDBRANCH   5   6
ENDBRANCH   3   5
ENDBRANCH   2   3
TORSDOF 10
ENDMDL
MODEL       56
REMARK 921   NORMALIZED FREE ENERGY PREDICTED BY IDOCK:   -4.83 KCAL/MOL
REMARK 922        TOTAL FREE ENERGY PREDICTED BY IDOCK:   -8.52 KCAL/MOL
REMARK 923 INTER-LIGAND FREE ENERGY PREDICTED BY IDOCK:   -7.46 KCAL/MOL
REMARK 924 INTRA-LIGAND FREE ENERGY PREDICTED BY IDOCK:   -1.07 KCAL/MOL
REMARK 927      BINDING AFFINITY PREDICTED BY RF-SCORE:    0.00 PKD
ROOT
HETATM    1  C   UNL     1     -10.915   5.891  69.510  1.00  0.00    -0.368 C  
HETATM    2  O   UNL     1     -10.488   5.217  70.691  1.00  0.00    -0.250 OA 
ENDROOT
BRANCH   2   3
HETATM    3  C   UNL     1     -10.729   5.905  71.842  1.00  0.00    -0.239 C  
HETATM    4  O   UNL     1     -10.047   5.845  72.857  1.00  0.00    -0.175 OA 
BRANCH   3   5
HETATM    5  C   UNL     1     -11.971   6.730  71.673  1.00  0.00    -0.391 C  
BRANCH   5   6
HETATM    6  C   UNL     1     -11.958   7.994  72.539  1.00  0.00    -0.384 C  
BRANCH   6   7
HETATM    7  C   UNL     1     -11.986   9.273  71.732  1.00  0.00    -0.455 A  
HETATM    8  C   UNL     1     -12.916  10.276  72.012  1.00  0.00    -0.503 A  
HETATM    9  C   UNL     1     -12.957  11.445  71.262  1.00  0.00    -0.415 A  
HETATM   10  C   UNL     1     -12.057  11.658  70.218  1.00  0.00    -0.358 A  
HETATM   11  C   UNL     1     -11.049   9.501  70.711  1.00  0.00    -0.390 A  
HETATM   12  C   UNL     1     -11.091  10.685  69.957  1.00  0.00    -0.359 A  
BRANCH  10  13
HETATM   13  O   UNL     1     -12.050  12.778  69.420  1.00  0.00    -0.273 OA 
BRANCH  13  14
HETATM   14  C   UNL     1     -12.225  14.013  70.137  1.00  0.00    -0.359 C  
BRANCH  14  15
HETATM   15  C   UNL     1     -11.201  15.064  69.701  1.00  0.00    -0.275 C  
HETATM   16  O   UNL     1      -9.911  14.453  69.574  1.00  0.00    -0.412 OA 
HETATM   17  H   UNL     1      -9.275  15.105  69.304  1.00  0.00     0.000 HD 
BRANCH  15  18
HETATM   18  C   UNL     1     -11.580  15.752  68.377  1.00  0.00    -0.338 C  
BRANCH  18  19
HETATM   19  N   UNL     1     -12.126  14.802  67.402  1.00  0.00    -0.501 NA 
HETATM   20  H   UNL     1     -13.095  15.032  67.180  1.00  0.00     0.000 HD 
BRANCH  19  21
HETATM   21  C   UNL     1     -11.328  14.688  66.176  1.00  0.00    -0.350 C  
HETATM   22  C   UNL     1     -10.416  15.895  65.944  1.00  0.00    -0.373 C  
HETATM   23  C   UNL     1     -10.472  13.423  66.291  1.00  0.00    -0.289 C  
ENDBRANCH  19  21
ENDBRANCH  18  19
ENDBRANCH  15  18
ENDBRANCH  14  15
ENDBRANCH  13  14
ENDBRANCH  10  13
ENDBRANCH   6   7
ENDBRANCH   5   6
ENDBRANCH   3   5
ENDBRANCH   2   3
TORSDOF 10
ENDMDL
MODEL       57
REMARK 921   NORMALIZED FREE ENERGY PREDICTED BY IDOCK:   -4.82 KCAL/MOL
REMARK 922        TOTAL FREE ENERGY PREDICTED BY IDOCK:   -8.51 KCAL/MOL
REMARK 923 INTER-LIGAND FREE ENERGY PREDICTED BY IDOCK:   -7.56 KCAL/MOL
REMARK 924 INTRA-LIGAND FREE ENERGY PREDICTED BY IDOCK:   -0.95 KCAL/MOL
REMARK 927      BINDING AFFINITY PREDICTED BY RF-SCORE:    0.00 PKD
ROOT
HETATM    1  C   UNL     1     -12.304  15.076  64.437  1.00  0.00    -0.266 C  
HETATM    2  O   UNL     1     -13.038  14.090  65.157  1.00  0.00    -0.776 OA 
ENDROOT
BRANCH   2   3
HETATM    3  C   UNL     1     -12.646  12.809  64.902  1.00  0.00    -0.470 C  
HETATM    4  O   UNL     1     -13.071  12.108  63.992  1.00  0.00    -0.723 OA 
BRANCH   3   5
HETATM    5  C   UNL     1     -11.631  12.391  65.925  1.00  0.00    -0.449 C  
BRANCH   5   6
HETATM    6  C   UNL     1     -11.830  13.096  67.270  1.00  0.00    -0.420 C  
BRANCH   6   7
HETATM    7  C   UNL     1     -11.781  12.153  68.452  1.00  0.00    -0.388 A  
HETATM    8  C   UNL     1     -11.196  10.891  68.337  1.00  0.00    -0.347 A  
HETATM    9  C   UNL     1     -11.163  10.014  69.415  1.00  0.00    -0.235 A  
HETATM   10  C   UNL     1     -11.700  10.378  70.650  1.00  0.00    -0.351 A  
HETATM   11  C   UNL     1     -12.284  12.541  69.705  1.00  0.00    -0.199 A  
HETATM   12  C   UNL     1     -12.247  11.655  70.794  1.00  0.00    -0.443 A  
BRANCH  10  13
HETATM   13  O   UNL     1     -11.724   9.559  71.754  1.00  0.00    -0.383 OA 
BRANCH  13  14
HETATM   14  C   UNL     1     -12.768   8.569  71.731  1.00  0.00    -0.349 C  
BRANCH  14  15
HETATM   15  C   UNL     1     -12.222   7.172  72.036  1.00  0.00    -0.278 C  
HETATM   16  O   UNL     1     -13.309   6.278  72.299  1.00  0.00    -0.447 OA 
HETATM   17  H   UNL     1     -12.970   5.411  72.489  1.00  0.00     0.000 HD 
BRANCH  15  18
HETATM   18  C   UNL     1     -11.352   6.610  70.898  1.00  0.00    -0.325 C  
BRANCH  18  19
HETATM   19  N   UNL     1      -9.948   7.015  71.028  1.00  0.00    -0.189 NA 
HETATM   20  H   UNL     1      -9.800   7.935  70.611  1.00  0.00     0.000 HD 
BRANCH  19  21
HETATM   21  C   UNL     1      -9.450   6.987  72.407  1.00  0.00    -0.142 C  
HETATM   22  C   UNL     1      -8.599   5.751  72.709  1.00  0.00    -0.119 C  
HETATM   23  C   UNL     1      -8.607   8.247  72.627  1.00  0.00    -0.264 C  
ENDBRANCH  19  21
ENDBRANCH  18  19
ENDBRANCH  15  18
ENDBRANCH  14  15
ENDBRANCH  13  14
ENDBRANCH  10  13
ENDBRANCH   6   7
ENDBRANCH   5   6
ENDBRANCH   3   5
ENDBRANCH   2   3
TORSDOF 10
ENDMDL
MODEL       58
REMARK 921   NORMALIZED FREE ENERGY PREDICTED BY IDOCK:   -4.80 KCAL/MOL
REMARK 922        TOTAL FREE ENERGY PREDICTED BY IDOCK:   -8.49 KCAL/MOL
REMARK 923 INTER-LIGAND FREE ENERGY PREDICTED BY IDOCK:   -7.61 KCAL/MOL
REMARK 924 INTRA-LIGAND FREE ENERGY PREDICTED BY IDOCK:   -0.88 KCAL/MOL
REMARK 927      BINDING AFFINITY PREDICTED BY RF-SCORE:    0.00 PKD
ROOT
HETATM    1  C   UNL     1     -10.863   3.801  73.243  1.00  0.00    -0.198 C  
HETATM    2  O   UNL     1     -11.096   4.967  74.028  1.00  0.00    -0.287 OA 
ENDROOT
BRANCH   2   3
HETATM    3  C   UNL     1     -10.775   6.134  73.401  1.00  0.00    -0.259 C  
HETATM    4  O   UNL     1     -10.207   7.084  73.923  1.00  0.00    -0.335 OA 
BRANCH   3   5
HETATM    5  C   UNL     1     -11.248   6.074  71.977  1.00  0.00    -0.341 C  
BRANCH   5   6
HETATM    6  C   UNL     1     -12.620   6.729  71.788  1.00  0.00    -0.370 C  
BRANCH   6   7
HETATM    7  C   UNL     1     -12.542   8.218  71.529  1.00  0.00    -0.333 A  
HETATM    8  C   UNL     1     -13.446   9.097  72.128  1.00  0.00    -0.530 A  
HETATM    9  C   UNL     1     -13.389  10.463  71.880  1.00  0.00    -0.469 A  
HETATM   10  C   UNL     1     -12.414  10.998  71.038  1.00  0.00    -0.409 A  
HETATM   11  C   UNL     1     -11.531   8.755  70.716  1.00  0.00    -0.309 A  
HETATM   12  C   UNL     1     -11.473  10.137  70.469  1.00  0.00    -0.417 A  
BRANCH  10  13
HETATM   13  O   UNL     1     -12.307  12.333  70.728  1.00  0.00    -0.377 OA 
BRANCH  13  14
HETATM   14  C   UNL     1     -12.912  13.211  71.694  1.00  0.00    -0.335 C  
BRANCH  14  15
HETATM   15  C   UNL     1     -13.280  14.560  71.070  1.00  0.00    -0.354 C  
HETATM   16  O   UNL     1     -14.219  15.239  71.913  1.00  0.00    -0.501 OA 
HETATM   17  H   UNL     1     -14.448  16.076  71.525  1.00  0.00     0.000 HD 
BRANCH  15  18
HETATM   18  C   UNL     1     -12.055  15.460  70.829  1.00  0.00    -0.366 C  
BRANCH  18  19
HETATM   19  N   UNL     1     -10.952  14.727  70.197  1.00  0.00    -0.432 NA 
HETATM   20  H   UNL     1     -11.045  13.725  70.363  1.00  0.00     0.000 HD 
BRANCH  19  21
HETATM   21  C   UNL     1     -10.805  15.003  68.763  1.00  0.00    -0.249 C  
HETATM   22  C   UNL     1     -11.682  14.104  67.890  1.00  0.00    -0.402 C  
HETATM   23  C   UNL     1     -11.188  16.467  68.526  1.00  0.00    -0.334 C  
ENDBRANCH  19  21
ENDBRANCH  18  19
ENDBRANCH  15  18
ENDBRANCH  14  15
ENDBRANCH  13  14
ENDBRANCH  10  13
ENDBRANCH   6   7
ENDBRANCH   5   6
ENDBRANCH   3   5
ENDBRANCH   2   3
TORSDOF 10
ENDMDL
MODEL       59
REMARK 921   NORMALIZED FREE ENERGY PREDICTED BY IDOCK:   -4.80 KCAL/MOL
REMARK 922        TOTAL FREE ENERGY PREDICTED BY IDOCK:   -8.49 KCAL/MOL
REMARK 923 INTER-LIGAND FREE ENERGY PREDICTED BY IDOCK:   -7.31 KCAL/MOL
REMARK 924 INTRA-LIGAND FREE ENERGY PREDICTED BY IDOCK:   -1.18 KCAL/MOL
REMARK 927      BINDING AFFINITY PREDICTED BY RF-SCORE:    0.00 PKD
ROOT
HETATM    1  C   UNL     1      -9.280  16.071  66.027  1.00  0.00    -0.340 C  
HETATM    2  O   UNL     1     -10.646  16.387  65.771  1.00  0.00    -0.350 OA 
ENDROOT
BRANCH   2   3
HETATM    3  C   UNL     1     -11.122  15.884  64.596  1.00  0.00    -0.354 C  
HETATM    4  O   UNL     1     -11.742  16.523  63.755  1.00  0.00    -1.086 OA 
BRANCH   3   5
HETATM    5  C   UNL     1     -10.784  14.425  64.511  1.00  0.00    -0.236 C  
BRANCH   5   6
HETATM    6  C   UNL     1     -11.948  13.527  64.946  1.00  0.00    -0.410 C  
BRANCH   6   7
HETATM    7  C   UNL     1     -11.852  13.081  66.388  1.00  0.00    -0.465 A  
HETATM    8  C   UNL     1     -12.217  13.938  67.428  1.00  0.00    -0.291 A  
HETATM    9  C   UNL     1     -12.115  13.539  68.755  1.00  0.00    -0.305 A  
HETATM   10  C   UNL     1     -11.662  12.263  69.086  1.00  0.00    -0.323 A  
HETATM   11  C   UNL     1     -11.437  11.780  66.713  1.00  0.00    -0.352 A  
HETATM   12  C   UNL     1     -11.338  11.377  68.056  1.00  0.00    -0.372 A  
BRANCH  10  13
HETATM   13  O   UNL     1     -11.514  11.804  70.374  1.00  0.00    -0.145 OA 
BRANCH  13  14
HETATM   14  C   UNL     1     -12.132  10.528  70.619  1.00  0.00    -0.356 C  
BRANCH  14  15
HETATM   15  C   UNL     1     -13.339  10.661  71.550  1.00  0.00    -0.262 C  
HETATM   16  O   UNL     1     -13.439   9.495  72.377  1.00  0.00    -0.548 OA 
HETATM   17  H   UNL     1     -14.188   9.577  72.955  1.00  0.00     0.000 HD 
BRANCH  15  18
HETATM   18  C   UNL     1     -13.275  11.918  72.434  1.00  0.00     0.187 C  
BRANCH  18  19
HETATM   19  N   UNL     1     -14.145  12.987  71.932  1.00  0.00     0.044 NA 
HETATM   20  H   UNL     1     -15.115  12.818  72.201  1.00  0.00     0.000 HD 
BRANCH  19  21
HETATM   21  C   UNL     1     -13.724  14.333  72.338  1.00  0.00    -0.516 C  
HETATM   22  C   UNL     1     -12.203  14.499  72.365  1.00  0.00    -0.249 C  
HETATM   23  C   UNL     1     -14.323  15.331  71.342  1.00  0.00    -0.578 C  
ENDBRANCH  19  21
ENDBRANCH  18  19
ENDBRANCH  15  18
ENDBRANCH  14  15
ENDBRANCH  13  14
ENDBRANCH  10  13
ENDBRANCH   6   7
ENDBRANCH   5   6
ENDBRANCH   3   5
ENDBRANCH   2   3
TORSDOF 10
ENDMDL
MODEL       60
REMARK 921   NORMALIZED FREE ENERGY PREDICTED BY IDOCK:   -4.79 KCAL/MOL
REMARK 922        TOTAL FREE ENERGY PREDICTED BY IDOCK:   -8.46 KCAL/MOL
REMARK 923 INTER-LIGAND FREE ENERGY PREDICTED BY IDOCK:   -7.57 KCAL/MOL
REMARK 924 INTRA-LIGAND FREE ENERGY PREDICTED BY IDOCK:   -0.90 KCAL/MOL
REMARK 927      BINDING AFFINITY PREDICTED BY RF-SCORE:    0.00 PKD
ROOT
HETATM    1  C   UNL     1     -10.025   4.722  69.707  1.00  0.00    -0.238 C  
HETATM    2  O   UNL     1     -10.353   6.095  69.514  1.00  0.00    -0.183 OA 
ENDROOT
BRANCH   2   3
HETATM    3  C   UNL     1      -9.410   6.963  69.981  1.00  0.00    -0.158 C  
HETATM    4  O   UNL     1      -8.231   6.969  69.651  1.00  0.00    -0.127 OA 
BRANCH   3   5
HETATM    5  C   UNL     1     -10.043   7.891  70.976  1.00  0.00    -0.212 C  
BRANCH   5   6
HETATM    6  C   UNL     1     -11.538   8.100  70.713  1.00  0.00    -0.249 C  
BRANCH   6   7
HETATM    7  C   UNL     1     -11.984   9.532  70.906  1.00  0.00    -0.372 A  
HETATM    8  C   UNL     1     -12.909   9.866  71.897  1.00  0.00    -0.524 A  
HETATM    9  C   UNL     1     -13.336  11.178  72.068  1.00  0.00    -0.384 A  
HETATM   10  C   UNL     1     -12.837  12.203  71.265  1.00  0.00    -0.250 A  
HETATM   11  C   UNL     1     -11.445  10.567  70.124  1.00  0.00    -0.405 A  
HETATM   12  C   UNL     1     -11.875  11.893  70.301  1.00  0.00    -0.368 A  
BRANCH  10  13
HETATM   13  O   UNL     1     -13.225  13.518  71.359  1.00  0.00    -0.331 OA 
BRANCH  13  14
HETATM   14  C   UNL     1     -13.512  13.952  72.701  1.00  0.00    -0.546 C  
BRANCH  14  15
HETATM   15  C   UNL     1     -13.288  15.458  72.862  1.00  0.00    -0.535 C  
HETATM   16  O   UNL     1     -13.083  15.768  74.245  1.00  0.00    -0.787 OA 
HETATM   17  H   UNL     1     -12.944  16.703  74.345  1.00  0.00     0.000 HD 
BRANCH  15  18
HETATM   18  C   UNL     1     -12.099  15.976  72.033  1.00  0.00    -0.525 C  
BRANCH  18  19
HETATM   19  N   UNL     1     -12.446  16.136  70.616  1.00  0.00    -0.465 NA 
HETATM   20  H   UNL     1     -12.739  17.094  70.424  1.00  0.00     0.000 HD 
BRANCH  19  21
HETATM   21  C   UNL     1     -11.379  15.726  69.697  1.00  0.00    -0.334 C  
HETATM   22  C   UNL     1     -11.910  15.074  68.419  1.00  0.00    -0.298 C  
HETATM   23  C   UNL     1     -10.574  16.976  69.328  1.00  0.00    -0.276 C  
ENDBRANCH  19  21
ENDBRANCH  18  19
ENDBRANCH  15  18
ENDBRANCH  14  15
ENDBRANCH  13  14
ENDBRANCH  10  13
ENDBRANCH   6   7
ENDBRANCH   5   6
ENDBRANCH   3   5
ENDBRANCH   2   3
TORSDOF 10
ENDMDL
MODEL       61
REMARK 921   NORMALIZED FREE ENERGY PREDICTED BY IDOCK:   -4.79 KCAL/MOL
REMARK 922        TOTAL FREE ENERGY PREDICTED BY IDOCK:   -8.46 KCAL/MOL
REMARK 923 INTER-LIGAND FREE ENERGY PREDICTED BY IDOCK:   -7.40 KCAL/MOL
REMARK 924 INTRA-LIGAND FREE ENERGY PREDICTED BY IDOCK:   -1.06 KCAL/MOL
REMARK 927      BINDING AFFINITY PREDICTED BY RF-SCORE:    0.00 PKD
ROOT
HETATM    1  C   UNL     1      -9.673  16.444  66.073  1.00  0.00    -0.326 C  
HETATM    2  O   UNL     1     -10.552  16.837  65.023  1.00  0.00    -0.695 OA 
ENDROOT
BRANCH   2   3
HETATM    3  C   UNL     1     -11.363  15.837  64.572  1.00  0.00    -0.316 C  
HETATM    4  O   UNL     1     -12.307  15.985  63.807  1.00  0.00    -0.858 OA 
BRANCH   3   5
HETATM    5  C   UNL     1     -10.925  14.536  65.179  1.00  0.00    -0.387 C  
BRANCH   5   6
HETATM    6  C   UNL     1     -12.088  13.763  65.809  1.00  0.00    -0.458 C  
BRANCH   6   7
HETATM    7  C   UNL     1     -11.649  12.512  66.538  1.00  0.00    -0.447 A  
HETATM    8  C   UNL     1     -10.908  11.526  65.885  1.00  0.00    -0.316 A  
HETATM    9  C   UNL     1     -10.517  10.367  66.545  1.00  0.00    -0.262 A  
HETATM   10  C   UNL     1     -10.838  10.165  67.886  1.00  0.00    -0.284 A  
HETATM   11  C   UNL     1     -11.937  12.334  67.901  1.00  0.00    -0.240 A  
HETATM   12  C   UNL     1     -11.538  11.163  68.567  1.00  0.00    -0.385 A  
BRANCH  10  13
HETATM   13  O   UNL     1     -10.505   9.037  68.600  1.00  0.00    -0.213 OA 
BRANCH  13  14
HETATM   14  C   UNL     1      -9.091   8.786  68.676  1.00  0.00    -0.141 C  
BRANCH  14  15
HETATM   15  C   UNL     1      -8.512   9.246  70.017  1.00  0.00    -0.176 C  
HETATM   16  O   UNL     1      -8.132  10.624  69.928  1.00  0.00    -0.365 OA 
HETATM   17  H   UNL     1      -7.772  10.910  70.760  1.00  0.00     0.000 HD 
BRANCH  15  18
HETATM   18  C   UNL     1      -9.493   9.055  71.187  1.00  0.00    -0.278 C  
BRANCH  18  19
HETATM   19  N   UNL     1     -10.049   7.697  71.220  1.00  0.00    -0.187 NA 
HETATM   20  H   UNL     1      -9.435   7.070  71.741  1.00  0.00     0.000 HD 
BRANCH  19  21
HETATM   21  C   UNL     1     -11.419   7.631  71.742  1.00  0.00    -0.264 C  
HETATM   22  C   UNL     1     -12.045   9.012  71.948  1.00  0.00    -0.448 C  
HETATM   23  C   UNL     1     -12.263   6.838  70.741  1.00  0.00    -0.353 C  
ENDBRANCH  19  21
ENDBRANCH  18  19
ENDBRANCH  15  18
ENDBRANCH  14  15
ENDBRANCH  13  14
ENDBRANCH  10  13
ENDBRANCH   6   7
ENDBRANCH   5   6
ENDBRANCH   3   5
ENDBRANCH   2   3
TORSDOF 10
ENDMDL
MODEL       62
REMARK 921   NORMALIZED FREE ENERGY PREDICTED BY IDOCK:   -4.78 KCAL/MOL
REMARK 922        TOTAL FREE ENERGY PREDICTED BY IDOCK:   -8.46 KCAL/MOL
REMARK 923 INTER-LIGAND FREE ENERGY PREDICTED BY IDOCK:   -7.78 KCAL/MOL
REMARK 924 INTRA-LIGAND FREE ENERGY PREDICTED BY IDOCK:   -0.68 KCAL/MOL
REMARK 927      BINDING AFFINITY PREDICTED BY RF-SCORE:    0.00 PKD
ROOT
HETATM    1  C   UNL     1     -14.279   7.480  71.463  1.00  0.00    -0.445 C  
HETATM    2  O   UNL     1     -13.284   8.222  72.164  1.00  0.00    -0.318 OA 
ENDROOT
BRANCH   2   3
HETATM    3  C   UNL     1     -12.049   7.644  72.154  1.00  0.00    -0.286 C  
HETATM    4  O   UNL     1     -11.276   7.612  73.103  1.00  0.00    -0.391 OA 
BRANCH   3   5
HETATM    5  C   UNL     1     -11.782   7.076  70.791  1.00  0.00    -0.394 C  
BRANCH   5   6
HETATM    6  C   UNL     1     -10.470   7.589  70.188  1.00  0.00    -0.226 C  
BRANCH   6   7
HETATM    7  C   UNL     1     -10.632   8.878  69.412  1.00  0.00    -0.226 A  
HETATM    8  C   UNL     1     -10.564   8.887  68.018  1.00  0.00    -0.226 A  
HETATM    9  C   UNL     1     -10.695  10.070  67.301  1.00  0.00    -0.309 A  
HETATM   10  C   UNL     1     -10.918  11.282  67.954  1.00  0.00    -0.248 A  
HETATM   11  C   UNL     1     -10.900  10.088  70.073  1.00  0.00    -0.352 A  
HETATM   12  C   UNL     1     -11.036  11.282  69.346  1.00  0.00    -0.316 A  
BRANCH  10  13
HETATM   13  O   UNL     1     -11.037  12.494  67.316  1.00  0.00    -0.251 OA 
BRANCH  13  14
HETATM   14  C   UNL     1     -10.445  13.595  68.029  1.00  0.00    -0.248 C  
BRANCH  14  15
HETATM   15  C   UNL     1     -11.315  14.852  67.939  1.00  0.00    -0.327 C  
HETATM   16  O   UNL     1     -12.533  14.545  67.251  1.00  0.00    -0.578 OA 
HETATM   17  H   UNL     1     -13.073  15.325  67.195  1.00  0.00     0.000 HD 
BRANCH  15  18
HETATM   18  C   UNL     1     -11.637  15.453  69.319  1.00  0.00    -0.339 C  
BRANCH  18  19
HETATM   19  N   UNL     1     -12.800  14.810  69.939  1.00  0.00    -0.591 NA 
HETATM   20  H   UNL     1     -12.626  13.816  70.087  1.00  0.00     0.000 HD 
BRANCH  19  21
HETATM   21  C   UNL     1     -13.234  15.450  71.186  1.00  0.00    -0.513 C  
HETATM   22  C   UNL     1     -14.076  14.526  72.069  1.00  0.00    -0.606 C  
HETATM   23  C   UNL     1     -11.979  15.876  71.954  1.00  0.00    -0.588 C  
ENDBRANCH  19  21
ENDBRANCH  18  19
ENDBRANCH  15  18
ENDBRANCH  14  15
ENDBRANCH  13  14
ENDBRANCH  10  13
ENDBRANCH   6   7
ENDBRANCH   5   6
ENDBRANCH   3   5
ENDBRANCH   2   3
TORSDOF 10
ENDMDL
MODEL       63
REMARK 921   NORMALIZED FREE ENERGY PREDICTED BY IDOCK:   -4.78 KCAL/MOL
REMARK 922        TOTAL FREE ENERGY PREDICTED BY IDOCK:   -8.45 KCAL/MOL
REMARK 923 INTER-LIGAND FREE ENERGY PREDICTED BY IDOCK:   -7.35 KCAL/MOL
REMARK 924 INTRA-LIGAND FREE ENERGY PREDICTED BY IDOCK:   -1.10 KCAL/MOL
REMARK 927      BINDING AFFINITY PREDICTED BY RF-SCORE:    0.00 PKD
ROOT
HETATM    1  C   UNL     1     -11.332   9.613  71.185  1.00  0.00    -0.386 C  
HETATM    2  O   UNL     1     -11.699  10.656  70.286  1.00  0.00    -0.287 OA 
ENDROOT
BRANCH   2   3
HETATM    3  C   UNL     1     -12.374  11.684  70.874  1.00  0.00    -0.336 C  
HETATM    4  O   UNL     1     -13.145  11.575  71.818  1.00  0.00    -0.472 OA 
BRANCH   3   5
HETATM    5  C   UNL     1     -12.037  12.964  70.165  1.00  0.00    -0.373 C  
BRANCH   5   6
HETATM    6  C   UNL     1     -11.979  12.793  68.644  1.00  0.00    -0.272 C  
BRANCH   6   7
HETATM    7  C   UNL     1     -11.214  13.896  67.947  1.00  0.00    -0.302 A  
HETATM    8  C   UNL     1     -11.294  14.058  66.563  1.00  0.00    -0.343 A  
HETATM    9  C   UNL     1     -10.579  15.060  65.915  1.00  0.00    -0.338 A  
HETATM   10  C   UNL     1      -9.776  15.944  66.634  1.00  0.00    -0.253 A  
HETATM   11  C   UNL     1     -10.441  14.811  68.680  1.00  0.00    -0.250 A  
HETATM   12  C   UNL     1      -9.723  15.825  68.024  1.00  0.00    -0.212 A  
BRANCH  10  13
HETATM   13  O   UNL     1      -9.025  16.945  66.063  1.00  0.00    -0.458 OA 
BRANCH  13  14
HETATM   14  C   UNL     1      -7.615  16.851  66.337  1.00  0.00    -0.304 C  
BRANCH  14  15
HETATM   15  C   UNL     1      -6.969  18.237  66.423  1.00  0.00    -0.235 C  
HETATM   16  O   UNL     1      -6.757  18.752  65.103  1.00  0.00    -0.496 OA 
HETATM   17  H   UNL     1      -6.356  19.611  65.157  1.00  0.00     0.000 HD 
BRANCH  15  18
HETATM   18  C   UNL     1      -7.809  19.236  67.239  1.00  0.00    -0.254 C  
BRANCH  18  19
HETATM   19  N   UNL     1      -8.607  20.115  66.377  1.00  0.00    -0.505 NA 
HETATM   20  H   UNL     1      -8.542  19.818  65.403  1.00  0.00     0.000 HD 
BRANCH  19  21
HETATM   21  C   UNL     1     -10.010  20.232  66.789  1.00  0.00    -0.450 C  
HETATM   22  C   UNL     1     -10.981  19.609  65.784  1.00  0.00    -0.270 C  
HETATM   23  C   UNL     1     -10.161  19.527  68.140  1.00  0.00    -0.556 C  
ENDBRANCH  19  21
ENDBRANCH  18  19
ENDBRANCH  15  18
ENDBRANCH  14  15
ENDBRANCH  13  14
ENDBRANCH  10  13
ENDBRANCH   6   7
ENDBRANCH   5   6
ENDBRANCH   3   5
ENDBRANCH   2   3
TORSDOF 10
ENDMDL
MODEL       64
REMARK 921   NORMALIZED FREE ENERGY PREDICTED BY IDOCK:   -4.77 KCAL/MOL
REMARK 922        TOTAL FREE ENERGY PREDICTED BY IDOCK:   -8.43 KCAL/MOL
REMARK 923 INTER-LIGAND FREE ENERGY PREDICTED BY IDOCK:   -7.48 KCAL/MOL
REMARK 924 INTRA-LIGAND FREE ENERGY PREDICTED BY IDOCK:   -0.95 KCAL/MOL
REMARK 927      BINDING AFFINITY PREDICTED BY RF-SCORE:    0.00 PKD
ROOT
HETATM    1  C   UNL     1     -12.294  16.045  74.245  1.00  0.00    -0.587 C  
HETATM    2  O   UNL     1     -13.483  16.187  73.473  1.00  0.00    -0.638 OA 
ENDROOT
BRANCH   2   3
HETATM    3  C   UNL     1     -13.544  15.363  72.388  1.00  0.00    -0.515 C  
HETATM    4  O   UNL     1     -13.999  15.668  71.293  1.00  0.00    -0.570 OA 
BRANCH   3   5
HETATM    5  C   UNL     1     -12.984  14.020  72.757  1.00  0.00    -0.473 C  
BRANCH   5   6
HETATM    6  C   UNL     1     -13.880  12.865  72.298  1.00  0.00    -0.464 C  
BRANCH   6   7
HETATM    7  C   UNL     1     -13.102  11.656  71.827  1.00  0.00    -0.487 A  
HETATM    8  C   UNL     1     -13.319  10.400  72.396  1.00  0.00    -0.070 A  
HETATM    9  C   UNL     1     -12.595   9.289  71.979  1.00  0.00    -0.465 A  
HETATM   10  C   UNL     1     -11.644   9.394  70.965  1.00  0.00    -0.330 A  
HETATM   11  C   UNL     1     -12.177  11.759  70.775  1.00  0.00    -0.424 A  
HETATM   12  C   UNL     1     -11.450  10.634  70.353  1.00  0.00    -0.422 A  
BRANCH  10  13
HETATM   13  O   UNL     1     -10.875   8.347  70.514  1.00  0.00    -0.224 OA 
BRANCH  13  14
HETATM   14  C   UNL     1     -11.635   7.221  70.041  1.00  0.00    -0.053 C  
BRANCH  14  15
HETATM   15  C   UNL     1     -10.720   6.078  69.593  1.00  0.00    -0.335 C  
HETATM   16  O   UNL     1      -9.659   6.600  68.785  1.00  0.00    -0.132 OA 
HETATM   17  H   UNL     1      -9.091   5.891  68.506  1.00  0.00     0.000 HD 
BRANCH  15  18
HETATM   18  C   UNL     1     -10.131   5.287  70.774  1.00  0.00    -0.224 C  
BRANCH  18  19
HETATM   19  N   UNL     1     -10.855   5.547  72.023  1.00  0.00    -0.235 NA 
HETATM   20  H   UNL     1     -11.545   4.816  72.198  1.00  0.00     0.000 HD 
BRANCH  19  21
HETATM   21  C   UNL     1      -9.980   5.719  73.189  1.00  0.00    -0.176 C  
HETATM   22  C   UNL     1     -10.228   7.034  73.931  1.00  0.00    -0.388 C  
HETATM   23  C   UNL     1     -10.232   4.546  74.141  1.00  0.00    -0.264 C  
ENDBRANCH  19  21
ENDBRANCH  18  19
ENDBRANCH  15  18
ENDBRANCH  14  15
ENDBRANCH  13  14
ENDBRANCH  10  13
ENDBRANCH   6   7
ENDBRANCH   5   6
ENDBRANCH   3   5
ENDBRANCH   2   3
TORSDOF 10
ENDMDL
MODEL       65
REMARK 921   NORMALIZED FREE ENERGY PREDICTED BY IDOCK:   -4.75 KCAL/MOL
REMARK 922        TOTAL FREE ENERGY PREDICTED BY IDOCK:   -8.40 KCAL/MOL
REMARK 923 INTER-LIGAND FREE ENERGY PREDICTED BY IDOCK:   -7.54 KCAL/MOL
REMARK 924 INTRA-LIGAND FREE ENERGY PREDICTED BY IDOCK:   -0.86 KCAL/MOL
REMARK 927      BINDING AFFINITY PREDICTED BY RF-SCORE:    0.00 PKD
ROOT
HETATM    1  C   UNL     1     -10.235   5.424  70.448  1.00  0.00    -0.262 C  
HETATM    2  O   UNL     1     -11.353   6.193  70.883  1.00  0.00    -0.313 OA 
ENDROOT
BRANCH   2   3
HETATM    3  C   UNL     1     -11.401   6.390  72.232  1.00  0.00    -0.290 C  
HETATM    4  O   UNL     1     -11.587   5.515  73.067  1.00  0.00    -0.274 OA 
BRANCH   3   5
HETATM    5  C   UNL     1     -11.211   7.850  72.524  1.00  0.00    -0.436 C  
BRANCH   5   6
HETATM    6  C   UNL     1     -12.463   8.677  72.213  1.00  0.00    -0.460 C  
BRANCH   6   7
HETATM    7  C   UNL     1     -12.203   9.818  71.253  1.00  0.00    -0.465 A  
HETATM    8  C   UNL     1     -11.441   9.623  70.100  1.00  0.00    -0.238 A  
HETATM    9  C   UNL     1     -11.185  10.671  69.224  1.00  0.00    -0.332 A  
HETATM   10  C   UNL     1     -11.699  11.945  69.463  1.00  0.00    -0.345 A  
HETATM   11  C   UNL     1     -12.760  11.088  71.476  1.00  0.00    -0.521 A  
HETATM   12  C   UNL     1     -12.503  12.145  70.586  1.00  0.00    -0.330 A  
BRANCH  10  13
HETATM   13  O   UNL     1     -11.472  13.034  68.655  1.00  0.00    -0.262 OA 
BRANCH  13  14
HETATM   14  C   UNL     1     -10.083  13.285  68.381  1.00  0.00    -0.237 C  
BRANCH  14  15
HETATM   15  C   UNL     1      -9.882  13.848  66.972  1.00  0.00    -0.257 C  
HETATM   16  O   UNL     1      -8.860  13.104  66.297  1.00  0.00    -0.443 OA 
HETATM   17  H   UNL     1      -8.736  13.453  65.423  1.00  0.00     0.000 HD 
BRANCH  15  18
HETATM   18  C   UNL     1     -11.173  13.830  66.134  1.00  0.00    -0.300 C  
BRANCH  18  19
HETATM   19  N   UNL     1     -11.404  12.523  65.510  1.00  0.00    -0.317 NA 
HETATM   20  H   UNL     1     -12.265  12.103  65.863  1.00  0.00     0.000 HD 
BRANCH  19  21
HETATM   21  C   UNL     1     -11.411  12.561  64.043  1.00  0.00    -0.409 C  
HETATM   22  C   UNL     1     -10.264  11.762  63.420  1.00  0.00    -0.482 C  
HETATM   23  C   UNL     1     -12.747  11.982  63.567  1.00  0.00    -0.567 C  
ENDBRANCH  19  21
ENDBRANCH  18  19
ENDBRANCH  15  18
ENDBRANCH  14  15
ENDBRANCH  13  14
ENDBRANCH  10  13
ENDBRANCH   6   7
ENDBRANCH   5   6
ENDBRANCH   3   5
ENDBRANCH   2   3
TORSDOF 10
ENDMDL
MODEL       66
REMARK 921   NORMALIZED FREE ENERGY PREDICTED BY IDOCK:   -4.71 KCAL/MOL
REMARK 922        TOTAL FREE ENERGY PREDICTED BY IDOCK:   -8.35 KCAL/MOL
REMARK 923 INTER-LIGAND FREE ENERGY PREDICTED BY IDOCK:   -7.33 KCAL/MOL
REMARK 924 INTRA-LIGAND FREE ENERGY PREDICTED BY IDOCK:   -1.01 KCAL/MOL
REMARK 927      BINDING AFFINITY PREDICTED BY RF-SCORE:    0.00 PKD
ROOT
HETATM    1  C   UNL     1      -6.343  18.102  65.599  1.00  0.00    -0.253 C  
HETATM    2  O   UNL     1      -7.112  19.271  65.326  1.00  0.00    -0.446 OA 
ENDROOT
BRANCH   2   3
HETATM    3  C   UNL     1      -7.792  19.754  66.405  1.00  0.00    -0.312 C  
HETATM    4  O   UNL     1      -7.284  20.086  67.469  1.00  0.00    -0.256 OA 
BRANCH   3   5
HETATM    5  C   UNL     1      -9.258  19.794  66.087  1.00  0.00    -0.418 C  
BRANCH   5   6
HETATM    6  C   UNL     1     -10.127  19.367  67.275  1.00  0.00    -0.497 C  
BRANCH   6   7
HETATM    7  C   UNL     1     -10.373  17.875  67.330  1.00  0.00    -0.374 A  
HETATM    8  C   UNL     1     -10.655  17.241  68.541  1.00  0.00    -0.350 A  
HETATM    9  C   UNL     1     -10.865  15.868  68.599  1.00  0.00    -0.291 A  
HETATM   10  C   UNL     1     -10.819  15.087  67.445  1.00  0.00    -0.305 A  
HETATM   11  C   UNL     1     -10.368  17.101  66.158  1.00  0.00    -0.327 A  
HETATM   12  C   UNL     1     -10.585  15.714  66.219  1.00  0.00    -0.310 A  
BRANCH  10  13
HETATM   13  O   UNL     1     -10.995  13.724  67.426  1.00  0.00    -0.276 OA 
BRANCH  13  14
HETATM   14  C   UNL     1     -11.319  13.190  66.130  1.00  0.00    -0.312 C  
BRANCH  14  15
HETATM   15  C   UNL     1     -10.755  11.778  65.950  1.00  0.00    -0.282 C  
HETATM   16  O   UNL     1      -9.495  11.847  65.270  1.00  0.00    -0.379 OA 
HETATM   17  H   UNL     1      -9.146  10.970  65.158  1.00  0.00     0.000 HD 
BRANCH  15  18
HETATM   18  C   UNL     1     -10.584  11.030  67.283  1.00  0.00    -0.245 C  
BRANCH  18  19
HETATM   19  N   UNL     1     -11.834  10.980  68.049  1.00  0.00    -0.709 NA 
HETATM   20  H   UNL     1     -12.492  10.329  67.621  1.00  0.00     0.000 HD 
BRANCH  19  21
HETATM   21  C   UNL     1     -11.645  10.665  69.469  1.00  0.00    -0.288 C  
HETATM   22  C   UNL     1     -10.227  10.189  69.792  1.00  0.00    -0.286 C  
HETATM   23  C   UNL     1     -11.948  11.932  70.275  1.00  0.00    -0.416 C  
ENDBRANCH  19  21
ENDBRANCH  18  19
ENDBRANCH  15  18
ENDBRANCH  14  15
ENDBRANCH  13  14
ENDBRANCH  10  13
ENDBRANCH   6   7
ENDBRANCH   5   6
ENDBRANCH   3   5
ENDBRANCH   2   3
TORSDOF 10
ENDMDL
MODEL       67
REMARK 921   NORMALIZED FREE ENERGY PREDICTED BY IDOCK:   -4.71 KCAL/MOL
REMARK 922        TOTAL FREE ENERGY PREDICTED BY IDOCK:   -8.34 KCAL/MOL
REMARK 923 INTER-LIGAND FREE ENERGY PREDICTED BY IDOCK:   -7.52 KCAL/MOL
REMARK 924 INTRA-LIGAND FREE ENERGY PREDICTED BY IDOCK:   -0.82 KCAL/MOL
REMARK 927      BINDING AFFINITY PREDICTED BY RF-SCORE:    0.00 PKD
ROOT
HETATM    1  C   UNL     1     -11.279   6.128  69.625  1.00  0.00    -0.418 C  
HETATM    2  O   UNL     1     -12.029   6.841  70.605  1.00  0.00    -0.386 OA 
ENDROOT
BRANCH   2   3
HETATM    3  C   UNL     1     -11.266   7.588  71.453  1.00  0.00    -0.242 C  
HETATM    4  O   UNL     1     -10.043   7.571  71.504  1.00  0.00    -0.182 OA 
BRANCH   3   5
HETATM    5  C   UNL     1     -12.165   8.416  72.325  1.00  0.00    -0.449 C  
BRANCH   5   6
HETATM    6  C   UNL     1     -13.261   9.129  71.525  1.00  0.00    -0.413 C  
BRANCH   6   7
HETATM    7  C   UNL     1     -12.926  10.570  71.208  1.00  0.00    -0.532 A  
HETATM    8  C   UNL     1     -12.208  10.902  70.058  1.00  0.00    -0.422 A  
HETATM    9  C   UNL     1     -11.883  12.222  69.770  1.00  0.00    -0.388 A  
HETATM   10  C   UNL     1     -12.283  13.257  70.615  1.00  0.00    -0.338 A  
HETATM   11  C   UNL     1     -13.370  11.613  72.039  1.00  0.00    -0.405 A  
HETATM   12  C   UNL     1     -13.044  12.947  71.744  1.00  0.00    -0.458 A  
BRANCH  10  13
HETATM   13  O   UNL     1     -11.983  14.583  70.408  1.00  0.00    -0.280 OA 
BRANCH  13  14
HETATM   14  C   UNL     1     -11.663  14.909  69.044  1.00  0.00    -0.319 C  
BRANCH  14  15
HETATM   15  C   UNL     1     -10.337  15.668  68.947  1.00  0.00    -0.218 C  
HETATM   16  O   UNL     1      -9.362  15.043  69.790  1.00  0.00    -0.448 OA 
HETATM   17  H   UNL     1      -8.539  15.515  69.730  1.00  0.00     0.000 HD 
BRANCH  15  18
HETATM   18  C   UNL     1      -9.800  15.748  67.507  1.00  0.00    -0.229 C  
BRANCH  18  19
HETATM   19  N   UNL     1      -9.608  14.418  66.918  1.00  0.00    -0.246 NA 
HETATM   20  H   UNL     1      -9.896  13.690  67.573  1.00  0.00     0.000 HD 
BRANCH  19  21
HETATM   21  C   UNL     1     -10.276  14.242  65.624  1.00  0.00    -0.347 C  
HETATM   22  C   UNL     1     -11.460  13.275  65.690  1.00  0.00    -0.342 C  
HETATM   23  C   UNL     1     -10.772  15.616  65.163  1.00  0.00    -0.463 C  
ENDBRANCH  19  21
ENDBRANCH  18  19
ENDBRANCH  15  18
ENDBRANCH  14  15
ENDBRANCH  13  14
ENDBRANCH  10  13
ENDBRANCH   6   7
ENDBRANCH   5   6
ENDBRANCH   3   5
ENDBRANCH   2   3
TORSDOF 10
ENDMDL
MODEL       68
REMARK 921   NORMALIZED FREE ENERGY PREDICTED BY IDOCK:   -4.71 KCAL/MOL
REMARK 922        TOTAL FREE ENERGY PREDICTED BY IDOCK:   -8.34 KCAL/MOL
REMARK 923 INTER-LIGAND FREE ENERGY PREDICTED BY IDOCK:   -7.67 KCAL/MOL
REMARK 924 INTRA-LIGAND FREE ENERGY PREDICTED BY IDOCK:   -0.68 KCAL/MOL
REMARK 927      BINDING AFFINITY PREDICTED BY RF-SCORE:    0.00 PKD
ROOT
HETATM    1  C   UNL     1      -9.679  16.810  67.209  1.00  0.00    -0.250 C  
HETATM    2  O   UNL     1     -10.923  16.318  66.715  1.00  0.00    -0.194 OA 
ENDROOT
BRANCH   2   3
HETATM    3  C   UNL     1     -10.874  15.876  65.427  1.00  0.00    -0.349 C  
HETATM    4  O   UNL     1     -11.074  16.565  64.435  1.00  0.00    -0.894 OA 
BRANCH   3   5
HETATM    5  C   UNL     1     -10.558  14.408  65.421  1.00  0.00    -0.380 C  
BRANCH   5   6
HETATM    6  C   UNL     1     -11.783  13.544  65.735  1.00  0.00    -0.371 C  
BRANCH   6   7
HETATM    7  C   UNL     1     -11.660  12.783  67.037  1.00  0.00    -0.422 A  
HETATM    8  C   UNL     1     -11.271  11.443  67.049  1.00  0.00    -0.350 A  
HETATM    9  C   UNL     1     -11.173  10.734  68.240  1.00  0.00    -0.358 A  
HETATM   10  C   UNL     1     -11.444  11.349  69.463  1.00  0.00    -0.312 A  
HETATM   11  C   UNL     1     -11.892  13.419  68.268  1.00  0.00    -0.393 A  
HETATM   12  C   UNL     1     -11.788  12.702  69.472  1.00  0.00    -0.376 A  
BRANCH  10  13
HETATM   13  O   UNL     1     -11.390  10.709  70.679  1.00  0.00    -0.316 OA 
BRANCH  13  14
HETATM   14  C   UNL     1     -10.930   9.348  70.608  1.00  0.00    -0.290 C  
BRANCH  14  15
HETATM   15  C   UNL     1     -12.057   8.360  70.921  1.00  0.00    -0.138 C  
HETATM   16  O   UNL     1     -11.939   7.212  70.072  1.00  0.00    -0.565 OA 
HETATM   17  H   UNL     1     -12.639   6.599  70.266  1.00  0.00     0.000 HD 
BRANCH  15  18
HETATM   18  C   UNL     1     -12.068   7.916  72.394  1.00  0.00    -0.286 C  
BRANCH  18  19
HETATM   19  N   UNL     1     -12.094   6.455  72.526  1.00  0.00    -0.531 NA 
HETATM   20  H   UNL     1     -12.275   6.015  71.623  1.00  0.00     0.000 HD 
BRANCH  19  21
HETATM   21  C   UNL     1     -10.884   5.895  73.139  1.00  0.00    -0.266 C  
HETATM   22  C   UNL     1     -10.021   5.111  72.149  1.00  0.00    -0.238 C  
HETATM   23  C   UNL     1     -10.068   7.059  73.710  1.00  0.00    -0.390 C  
ENDBRANCH  19  21
ENDBRANCH  18  19
ENDBRANCH  15  18
ENDBRANCH  14  15
ENDBRANCH  13  14
ENDBRANCH  10  13
ENDBRANCH   6   7
ENDBRANCH   5   6
ENDBRANCH   3   5
ENDBRANCH   2   3
TORSDOF 10
ENDMDL
MODEL       69
REMARK 921   NORMALIZED FREE ENERGY PREDICTED BY IDOCK:   -4.71 KCAL/MOL
REMARK 922        TOTAL FREE ENERGY PREDICTED BY IDOCK:   -8.34 KCAL/MOL
REMARK 923 INTER-LIGAND FREE ENERGY PREDICTED BY IDOCK:   -7.84 KCAL/MOL
REMARK 924 INTRA-LIGAND FREE ENERGY PREDICTED BY IDOCK:   -0.50 KCAL/MOL
REMARK 927      BINDING AFFINITY PREDICTED BY RF-SCORE:    0.00 PKD
ROOT
HETATM    1  C   UNL     1     -10.403  19.734  65.846  1.00  0.00    -0.483 C  
HETATM    2  O   UNL     1     -10.332  20.210  67.187  1.00  0.00    -0.419 OA 
ENDROOT
BRANCH   2   3
HETATM    3  C   UNL     1      -9.881  19.286  68.082  1.00  0.00    -0.379 C  
HETATM    4  O   UNL     1      -9.574  19.519  69.245  1.00  0.00    -0.361 OA 
BRANCH   3   5
HETATM    5  C   UNL     1      -9.800  17.947  67.410  1.00  0.00    -0.305 C  
BRANCH   5   6
HETATM    6  C   UNL     1     -10.752  16.920  68.034  1.00  0.00    -0.364 C  
BRANCH   6   7
HETATM    7  C   UNL     1     -11.031  15.738  67.133  1.00  0.00    -0.244 A  
HETATM    8  C   UNL     1     -10.680  15.769  65.782  1.00  0.00    -0.337 A  
HETATM    9  C   UNL     1     -10.949  14.692  64.946  1.00  0.00    -0.419 A  
HETATM   10  C   UNL     1     -11.563  13.541  65.437  1.00  0.00    -0.316 A  
HETATM   11  C   UNL     1     -11.609  14.564  67.643  1.00  0.00    -0.402 A  
HETATM   12  C   UNL     1     -11.877  13.475  66.796  1.00  0.00    -0.450 A  
BRANCH  10  13
HETATM   13  O   UNL     1     -11.880  12.445  64.669  1.00  0.00    -0.351 OA 
BRANCH  13  14
HETATM   14  C   UNL     1     -11.114  12.336  63.455  1.00  0.00    -0.464 C  
BRANCH  14  15
HETATM   15  C   UNL     1     -10.066  11.225  63.553  1.00  0.00    -0.396 C  
HETATM   16  O   UNL     1      -8.868  11.634  62.882  1.00  0.00    -0.604 OA 
HETATM   17  H   UNL     1      -8.218  10.944  62.942  1.00  0.00     0.000 HD 
BRANCH  15  18
HETATM   18  C   UNL     1      -9.739  10.840  65.007  1.00  0.00    -0.269 C  
BRANCH  18  19
HETATM   19  N   UNL     1      -9.620   9.388  65.176  1.00  0.00    -0.453 NA 
HETATM   20  H   UNL     1      -8.804   9.033  64.678  1.00  0.00     0.000 HD 
BRANCH  19  21
HETATM   21  C   UNL     1      -9.598   8.956  66.578  1.00  0.00    -0.232 C  
HETATM   22  C   UNL     1     -10.619   9.695  67.446  1.00  0.00    -0.333 C  
HETATM   23  C   UNL     1      -9.900   7.455  66.611  1.00  0.00    -0.263 C  
ENDBRANCH  19  21
ENDBRANCH  18  19
ENDBRANCH  15  18
ENDBRANCH  14  15
ENDBRANCH  13  14
ENDBRANCH  10  13
ENDBRANCH   6   7
ENDBRANCH   5   6
ENDBRANCH   3   5
ENDBRANCH   2   3
TORSDOF 10
ENDMDL
MODEL       70
REMARK 921   NORMALIZED FREE ENERGY PREDICTED BY IDOCK:   -4.71 KCAL/MOL
REMARK 922        TOTAL FREE ENERGY PREDICTED BY IDOCK:   -8.34 KCAL/MOL
REMARK 923 INTER-LIGAND FREE ENERGY PREDICTED BY IDOCK:   -7.75 KCAL/MOL
REMARK 924 INTRA-LIGAND FREE ENERGY PREDICTED BY IDOCK:   -0.59 KCAL/MOL
REMARK 927      BINDING AFFINITY PREDICTED BY RF-SCORE:    0.00 PKD
ROOT
HETATM    1  C   UNL     1     -11.718   9.346  71.598  1.00  0.00    -0.398 C  
HETATM    2  O   UNL     1     -10.302   9.200  71.679  1.00  0.00    -0.334 OA 
ENDROOT
BRANCH   2   3
HETATM    3  C   UNL     1      -9.662   9.307  70.480  1.00  0.00    -0.260 C  
HETATM    4  O   UNL     1      -8.449   9.376  70.330  1.00  0.00    -0.184 OA 
BRANCH   3   5
HETATM    5  C   UNL     1     -10.681   9.346  69.379  1.00  0.00    -0.234 C  
BRANCH   5   6
HETATM    6  C   UNL     1     -10.040   9.444  67.991  1.00  0.00    -0.230 C  
BRANCH   6   7
HETATM    7  C   UNL     1     -10.581  10.588  67.162  1.00  0.00    -0.319 A  
HETATM    8  C   UNL     1     -10.348  10.649  65.787  1.00  0.00    -0.287 A  
HETATM    9  C   UNL     1     -10.828  11.706  65.023  1.00  0.00    -0.346 A  
HETATM   10  C   UNL     1     -11.573  12.730  65.608  1.00  0.00    -0.370 A  
HETATM   11  C   UNL     1     -11.368  11.593  67.748  1.00  0.00    -0.356 A  
HETATM   12  C   UNL     1     -11.856  12.659  66.973  1.00  0.00    -0.415 A  
BRANCH  10  13
HETATM   13  O   UNL     1     -12.063  13.817  64.923  1.00  0.00    -0.366 OA 
BRANCH  13  14
HETATM   14  C   UNL     1     -11.910  15.068  65.618  1.00  0.00    -0.050 C  
BRANCH  14  15
HETATM   15  C   UNL     1     -10.881  15.968  64.928  1.00  0.00    -0.372 C  
HETATM   16  O   UNL     1     -11.453  16.528  63.740  1.00  0.00    -1.615 OA 
HETATM   17  H   UNL     1     -10.814  17.087  63.311  1.00  0.00     0.000 HD 
BRANCH  15  18
HETATM   18  C   UNL     1     -10.372  17.099  65.840  1.00  0.00    -0.284 C  
BRANCH  18  19
HETATM   19  N   UNL     1      -8.919  17.037  66.031  1.00  0.00    -0.515 NA 
HETATM   20  H   UNL     1      -8.432  17.274  65.167  1.00  0.00     0.000 HD 
BRANCH  19  21
HETATM   21  C   UNL     1      -8.433  17.864  67.141  1.00  0.00    -0.233 C  
HETATM   22  C   UNL     1      -9.284  19.116  67.370  1.00  0.00    -0.344 C  
HETATM   23  C   UNL     1      -8.450  17.004  68.408  1.00  0.00    -0.239 C  
ENDBRANCH  19  21
ENDBRANCH  18  19
ENDBRANCH  15  18
ENDBRANCH  14  15
ENDBRANCH  13  14
ENDBRANCH  10  13
ENDBRANCH   6   7
ENDBRANCH   5   6
ENDBRANCH   3   5
ENDBRANCH   2   3
TORSDOF 10
ENDMDL
MODEL       71
REMARK 921   NORMALIZED FREE ENERGY PREDICTED BY IDOCK:   -4.70 KCAL/MOL
REMARK 922        TOTAL FREE ENERGY PREDICTED BY IDOCK:   -8.32 KCAL/MOL
REMARK 923 INTER-LIGAND FREE ENERGY PREDICTED BY IDOCK:   -7.56 KCAL/MOL
REMARK 924 INTRA-LIGAND FREE ENERGY PREDICTED BY IDOCK:   -0.77 KCAL/MOL
REMARK 927      BINDING AFFINITY PREDICTED BY RF-SCORE:    0.00 PKD
ROOT
HETATM    1  C   UNL     1     -10.701  18.294  66.072  1.00  0.00    -0.168 C  
HETATM    2  O   UNL     1     -10.485  16.887  66.118  1.00  0.00    -0.320 OA 
ENDROOT
BRANCH   2   3
HETATM    3  C   UNL     1     -10.962  16.215  65.032  1.00  0.00    -0.344 C  
HETATM    4  O   UNL     1     -11.404  16.737  64.016  1.00  0.00    -1.153 OA 
BRANCH   3   5
HETATM    5  C   UNL     1     -10.877  14.739  65.288  1.00  0.00    -0.395 C  
BRANCH   5   6
HETATM    6  C   UNL     1     -11.566  14.331  66.595  1.00  0.00    -0.397 C  
BRANCH   6   7
HETATM    7  C   UNL     1     -11.317  12.889  66.978  1.00  0.00    -0.355 A  
HETATM    8  C   UNL     1     -10.698  12.009  66.088  1.00  0.00    -0.312 A  
HETATM    9  C   UNL     1     -10.482  10.679  66.428  1.00  0.00    -0.276 A  
HETATM   10  C   UNL     1     -10.863  10.188  67.677  1.00  0.00    -0.290 A  
HETATM   11  C   UNL     1     -11.663  12.411  68.253  1.00  0.00    -0.398 A  
HETATM   12  C   UNL     1     -11.441  11.067  68.595  1.00  0.00    -0.375 A  
BRANCH  10  13
HETATM   13  O   UNL     1     -10.702   8.883  68.077  1.00  0.00    -0.200 OA 
BRANCH  13  14
HETATM   14  C   UNL     1     -10.652   7.937  66.994  1.00  0.00    -0.311 C  
BRANCH  14  15
HETATM   15  C   UNL     1     -10.565   6.499  67.510  1.00  0.00    -0.280 C  
HETATM   16  O   UNL     1      -9.390   5.870  66.986  1.00  0.00    -0.117 OA 
HETATM   17  H   UNL     1      -9.336   4.977  67.306  1.00  0.00     0.000 HD 
BRANCH  15  18
HETATM   18  C   UNL     1     -10.553   6.417  69.047  1.00  0.00    -0.257 C  
BRANCH  18  19
HETATM   19  N   UNL     1     -11.903   6.529  69.613  1.00  0.00    -0.610 NA 
HETATM   20  H   UNL     1     -12.408   5.648  69.514  1.00  0.00     0.000 HD 
BRANCH  19  21
HETATM   21  C   UNL     1     -11.923   6.982  71.008  1.00  0.00    -0.361 C  
HETATM   22  C   UNL     1     -13.302   7.469  71.457  1.00  0.00    -0.409 C  
HETATM   23  C   UNL     1     -11.492   5.805  71.889  1.00  0.00    -0.231 C  
ENDBRANCH  19  21
ENDBRANCH  18  19
ENDBRANCH  15  18
ENDBRANCH  14  15
ENDBRANCH  13  14
ENDBRANCH  10  13
ENDBRANCH   6   7
ENDBRANCH   5   6
ENDBRANCH   3   5
ENDBRANCH   2   3
TORSDOF 10
ENDMDL
MODEL       72
REMARK 921   NORMALIZED FREE ENERGY PREDICTED BY IDOCK:   -4.66 KCAL/MOL
REMARK 922        TOTAL FREE ENERGY PREDICTED BY IDOCK:   -8.27 KCAL/MOL
REMARK 923 INTER-LIGAND FREE ENERGY PREDICTED BY IDOCK:   -7.06 KCAL/MOL
REMARK 924 INTRA-LIGAND FREE ENERGY PREDICTED BY IDOCK:   -1.21 KCAL/MOL
REMARK 927      BINDING AFFINITY PREDICTED BY RF-SCORE:    0.00 PKD
ROOT
HETATM    1  C   UNL     1      -5.397  20.521  66.137  1.00  0.00    -0.177 C  
HETATM    2  O   UNL     1      -5.952  20.887  67.398  1.00  0.00    -0.218 OA 
ENDROOT
BRANCH   2   3
HETATM    3  C   UNL     1      -7.158  20.310  67.665  1.00  0.00    -0.290 C  
HETATM    4  O   UNL     1      -8.178  20.471  67.008  1.00  0.00    -0.313 OA 
BRANCH   3   5
HETATM    5  C   UNL     1      -7.038  19.464  68.899  1.00  0.00    -0.393 C  
BRANCH   5   6
HETATM    6  C   UNL     1      -6.724  17.999  68.577  1.00  0.00    -0.225 C  
BRANCH   6   7
HETATM    7  C   UNL     1      -7.909  17.244  68.016  1.00  0.00    -0.205 A  
HETATM    8  C   UNL     1      -7.915  16.805  66.691  1.00  0.00    -0.306 A  
HETATM    9  C   UNL     1      -9.007  16.126  66.165  1.00  0.00    -0.372 A  
HETATM   10  C   UNL     1     -10.123  15.846  66.953  1.00  0.00    -0.266 A  
HETATM   11  C   UNL     1      -9.011  16.927  68.826  1.00  0.00    -0.256 A  
HETATM   12  C   UNL     1     -10.113  16.236  68.294  1.00  0.00    -0.243 A  
BRANCH  10  13
HETATM   13  O   UNL     1     -11.248  15.198  66.499  1.00  0.00    -0.341 OA 
BRANCH  13  14
HETATM   14  C   UNL     1     -11.343  15.119  65.066  1.00  0.00    -0.380 C  
BRANCH  14  15
HETATM   15  C   UNL     1     -12.371  14.071  64.631  1.00  0.00    -0.397 C  
HETATM   16  O   UNL     1     -12.396  13.986  63.201  1.00  0.00    -1.133 OA 
HETATM   17  H   UNL     1     -13.034  13.336  62.931  1.00  0.00     0.000 HD 
BRANCH  15  18
HETATM   18  C   UNL     1     -12.093  12.680  65.227  1.00  0.00    -0.467 C  
BRANCH  18  19
HETATM   19  N   UNL     1     -10.680  12.305  65.108  1.00  0.00    -0.283 NA 
HETATM   20  H   UNL     1     -10.110  13.119  64.879  1.00  0.00     0.000 HD 
BRANCH  19  21
HETATM   21  C   UNL     1     -10.149  11.618  66.291  1.00  0.00    -0.221 C  
HETATM   22  C   UNL     1      -8.938  12.328  66.900  1.00  0.00    -0.207 C  
HETATM   23  C   UNL     1     -11.269  11.547  67.333  1.00  0.00    -0.367 C  
ENDBRANCH  19  21
ENDBRANCH  18  19
ENDBRANCH  15  18
ENDBRANCH  14  15
ENDBRANCH  13  14
ENDBRANCH  10  13
ENDBRANCH   6   7
ENDBRANCH   5   6
ENDBRANCH   3   5
ENDBRANCH   2   3
TORSDOF 10
ENDMDL
MODEL       73
REMARK 921   NORMALIZED FREE ENERGY PREDICTED BY IDOCK:   -4.65 KCAL/MOL
REMARK 922        TOTAL FREE ENERGY PREDICTED BY IDOCK:   -8.25 KCAL/MOL
REMARK 923 INTER-LIGAND FREE ENERGY PREDICTED BY IDOCK:   -7.64 KCAL/MOL
REMARK 924 INTRA-LIGAND FREE ENERGY PREDICTED BY IDOCK:   -0.61 KCAL/MOL
REMARK 927      BINDING AFFINITY PREDICTED BY RF-SCORE:    0.00 PKD
ROOT
HETATM    1  C   UNL     1     -13.440   7.584  71.562  1.00  0.00    -0.359 C  
HETATM    2  O   UNL     1     -12.468   8.354  72.263  1.00  0.00    -0.346 OA 
ENDROOT
BRANCH   2   3
HETATM    3  C   UNL     1     -11.859   9.307  71.502  1.00  0.00    -0.374 C  
HETATM    4  O   UNL     1     -10.659   9.359  71.261  1.00  0.00    -0.313 OA 
BRANCH   3   5
HETATM    5  C   UNL     1     -12.889  10.290  71.026  1.00  0.00    -0.490 C  
BRANCH   5   6
HETATM    6  C   UNL     1     -12.914  11.567  71.872  1.00  0.00    -0.453 C  
BRANCH   6   7
HETATM    7  C   UNL     1     -12.577  12.814  71.082  1.00  0.00    -0.365 A  
HETATM    8  C   UNL     1     -12.867  14.081  71.589  1.00  0.00    -0.433 A  
HETATM    9  C   UNL     1     -12.576  15.229  70.861  1.00  0.00    -0.471 A  
HETATM   10  C   UNL     1     -11.968  15.146  69.608  1.00  0.00    -0.329 A  
HETATM   11  C   UNL     1     -11.926  12.726  69.841  1.00  0.00    -0.368 A  
HETATM   12  C   UNL     1     -11.629  13.888  69.108  1.00  0.00    -0.359 A  
BRANCH  10  13
HETATM   13  O   UNL     1     -11.669  16.233  68.821  1.00  0.00    -0.317 OA 
BRANCH  13  14
HETATM   14  C   UNL     1     -10.787  15.940  67.723  1.00  0.00    -0.324 C  
BRANCH  14  15
HETATM   15  C   UNL     1     -10.404  17.209  66.958  1.00  0.00    -0.308 C  
HETATM   16  O   UNL     1     -10.696  18.360  67.760  1.00  0.00    -0.414 OA 
HETATM   17  H   UNL     1     -10.459  19.148  67.284  1.00  0.00     0.000 HD 
BRANCH  15  18
HETATM   18  C   UNL     1      -8.923  17.231  66.541  1.00  0.00    -0.268 C  
BRANCH  18  19
HETATM   19  N   UNL     1      -8.527  18.532  65.992  1.00  0.00    -0.501 NA 
HETATM   20  H   UNL     1      -9.257  19.227  66.150  1.00  0.00     0.000 HD 
BRANCH  19  21
HETATM   21  C   UNL     1      -7.236  19.017  66.493  1.00  0.00    -0.228 C  
HETATM   22  C   UNL     1      -6.277  19.427  65.372  1.00  0.00    -0.278 C  
HETATM   23  C   UNL     1      -7.507  20.225  67.394  1.00  0.00    -0.343 C  
ENDBRANCH  19  21
ENDBRANCH  18  19
ENDBRANCH  15  18
ENDBRANCH  14  15
ENDBRANCH  13  14
ENDBRANCH  10  13
ENDBRANCH   6   7
ENDBRANCH   5   6
ENDBRANCH   3   5
ENDBRANCH   2   3
TORSDOF 10
ENDMDL
MODEL       74
REMARK 921   NORMALIZED FREE ENERGY PREDICTED BY IDOCK:   -4.64 KCAL/MOL
REMARK 922        TOTAL FREE ENERGY PREDICTED BY IDOCK:   -8.23 KCAL/MOL
REMARK 923 INTER-LIGAND FREE ENERGY PREDICTED BY IDOCK:   -7.20 KCAL/MOL
REMARK 924 INTRA-LIGAND FREE ENERGY PREDICTED BY IDOCK:   -1.03 KCAL/MOL
REMARK 927      BINDING AFFINITY PREDICTED BY RF-SCORE:    0.00 PKD
ROOT
HETATM    1  C   UNL     1     -12.255  15.077  64.551  1.00  0.00    -0.331 C  
HETATM    2  O   UNL     1     -12.591  14.205  63.474  1.00  0.00    -0.834 OA 
ENDROOT
BRANCH   2   3
HETATM    3  C   UNL     1     -12.278  12.897  63.699  1.00  0.00    -0.499 C  
HETATM    4  O   UNL     1     -13.064  11.961  63.632  1.00  0.00    -0.696 OA 
BRANCH   3   5
HETATM    5  C   UNL     1     -10.825  12.794  64.060  1.00  0.00    -0.458 C  
BRANCH   5   6
HETATM    6  C   UNL     1     -10.224  11.434  63.686  1.00  0.00    -0.448 C  
BRANCH   6   7
HETATM    7  C   UNL     1      -9.962  10.547  64.883  1.00  0.00    -0.401 A  
HETATM    8  C   UNL     1     -10.475  10.871  66.140  1.00  0.00    -0.290 A  
HETATM    9  C   UNL     1     -10.223  10.068  67.246  1.00  0.00    -0.275 A  
HETATM   10  C   UNL     1      -9.465   8.904  67.128  1.00  0.00    -0.157 A  
HETATM   11  C   UNL     1      -9.235   9.353  64.749  1.00  0.00    -0.220 A  
HETATM   12  C   UNL     1      -8.985   8.541  65.868  1.00  0.00    -0.235 A  
BRANCH  10  13
HETATM   13  O   UNL     1      -9.156   8.072  68.178  1.00  0.00    -0.135 OA 
BRANCH  13  14
HETATM   14  C   UNL     1      -9.585   6.711  67.996  1.00  0.00    -0.123 C  
BRANCH  14  15
HETATM   15  C   UNL     1     -10.751   6.362  68.925  1.00  0.00    -0.288 C  
HETATM   16  O   UNL     1     -10.643   4.995  69.339  1.00  0.00    -0.161 OA 
HETATM   17  H   UNL     1     -11.367   4.779  69.916  1.00  0.00     0.000 HD 
BRANCH  15  18
HETATM   18  C   UNL     1     -10.819   7.274  70.163  1.00  0.00    -0.256 C  
BRANCH  18  19
HETATM   19  N   UNL     1     -11.774   8.373  69.982  1.00  0.00    -0.402 NA 
HETATM   20  H   UNL     1     -12.702   8.011  69.762  1.00  0.00     0.000 HD 
BRANCH  19  21
HETATM   21  C   UNL     1     -11.837   9.295  71.122  1.00  0.00    -0.325 C  
HETATM   22  C   UNL     1     -10.756   9.022  72.170  1.00  0.00    -0.226 C  
HETATM   23  C   UNL     1     -11.668  10.719  70.582  1.00  0.00    -0.442 C  
ENDBRANCH  19  21
ENDBRANCH  18  19
ENDBRANCH  15  18
ENDBRANCH  14  15
ENDBRANCH  13  14
ENDBRANCH  10  13
ENDBRANCH   6   7
ENDBRANCH   5   6
ENDBRANCH   3   5
ENDBRANCH   2   3
TORSDOF 10
ENDMDL
MODEL       75
REMARK 921   NORMALIZED FREE ENERGY PREDICTED BY IDOCK:   -4.64 KCAL/MOL
REMARK 922        TOTAL FREE ENERGY PREDICTED BY IDOCK:   -8.22 KCAL/MOL
REMARK 923 INTER-LIGAND FREE ENERGY PREDICTED BY IDOCK:   -7.64 KCAL/MOL
REMARK 924 INTRA-LIGAND FREE ENERGY PREDICTED BY IDOCK:   -0.58 KCAL/MOL
REMARK 927      BINDING AFFINITY PREDICTED BY RF-SCORE:    0.00 PKD
ROOT
HETATM    1  C   UNL     1     -12.403  15.423  74.077  1.00  0.00    -0.659 C  
HETATM    2  O   UNL     1     -12.324  16.385  73.028  1.00  0.00    -0.476 OA 
ENDROOT
BRANCH   2   3
HETATM    3  C   UNL     1     -12.079  15.849  71.799  1.00  0.00    -0.492 C  
HETATM    4  O   UNL     1     -11.377  16.357  70.933  1.00  0.00    -0.373 OA 
BRANCH   3   5
HETATM    5  C   UNL     1     -12.822  14.551  71.670  1.00  0.00    -0.409 C  
BRANCH   5   6
HETATM    6  C   UNL     1     -12.370  13.736  70.454  1.00  0.00    -0.423 C  
BRANCH   6   7
HETATM    7  C   UNL     1     -12.363  12.243  70.704  1.00  0.00    -0.375 A  
HETATM    8  C   UNL     1     -11.553  11.395  69.948  1.00  0.00    -0.402 A  
HETATM    9  C   UNL     1     -11.556  10.021  70.162  1.00  0.00    -0.320 A  
HETATM   10  C   UNL     1     -12.355   9.453  71.154  1.00  0.00    -0.308 A  
HETATM   11  C   UNL     1     -13.137  11.682  71.733  1.00  0.00    -0.487 A  
HETATM   12  C   UNL     1     -13.134  10.294  71.951  1.00  0.00    -0.568 A  
BRANCH  10  13
HETATM   13  O   UNL     1     -12.427   8.105  71.411  1.00  0.00    -0.306 OA 
BRANCH  13  14
HETATM   14  C   UNL     1     -11.156   7.432  71.382  1.00  0.00    -0.239 C  
BRANCH  14  15
HETATM   15  C   UNL     1     -11.198   6.193  70.483  1.00  0.00    -0.334 C  
HETATM   16  O   UNL     1     -11.776   6.538  69.218  1.00  0.00    -0.644 OA 
HETATM   17  H   UNL     1     -11.803   5.770  68.660  1.00  0.00     0.000 HD 
BRANCH  15  18
HETATM   18  C   UNL     1      -9.809   5.568  70.264  1.00  0.00    -0.198 C  
BRANCH  18  19
HETATM   19  N   UNL     1      -9.820   4.117  70.486  1.00  0.00    -0.206 NA 
HETATM   20  H   UNL     1     -10.750   3.803  70.763  1.00  0.00     0.000 HD 
BRANCH  19  21
HETATM   21  C   UNL     1      -9.332   3.341  69.340  1.00  0.00    -0.161 C  
HETATM   22  C   UNL     1      -9.438   4.100  68.016  1.00  0.00    -0.215 C  
HETATM   23  C   UNL     1      -7.866   2.988  69.605  1.00  0.00    -0.048 C  
ENDBRANCH  19  21
ENDBRANCH  18  19
ENDBRANCH  15  18
ENDBRANCH  14  15
ENDBRANCH  13  14
ENDBRANCH  10  13
ENDBRANCH   6   7
ENDBRANCH   5   6
ENDBRANCH   3   5
ENDBRANCH   2   3
TORSDOF 10
ENDMDL
MODEL       76
REMARK 921   NORMALIZED FREE ENERGY PREDICTED BY IDOCK:   -4.63 KCAL/MOL
REMARK 922        TOTAL FREE ENERGY PREDICTED BY IDOCK:   -8.21 KCAL/MOL
REMARK 923 INTER-LIGAND FREE ENERGY PREDICTED BY IDOCK:   -7.32 KCAL/MOL
REMARK 924 INTRA-LIGAND FREE ENERGY PREDICTED BY IDOCK:   -0.89 KCAL/MOL
REMARK 927      BINDING AFFINITY PREDICTED BY RF-SCORE:    0.00 PKD
ROOT
HETATM    1  C   UNL     1      -6.569  18.385  66.134  1.00  0.00    -0.237 C  
HETATM    2  O   UNL     1      -7.671  19.126  65.616  1.00  0.00    -0.460 OA 
ENDROOT
BRANCH   2   3
HETATM    3  C   UNL     1      -8.360  19.831  66.559  1.00  0.00    -0.342 C  
HETATM    4  O   UNL     1      -7.876  20.308  67.577  1.00  0.00    -0.295 OA 
BRANCH   3   5
HETATM    5  C   UNL     1      -9.804  19.910  66.157  1.00  0.00    -0.562 C  
BRANCH   5   6
HETATM    6  C   UNL     1     -10.715  19.105  67.089  1.00  0.00    -0.567 C  
BRANCH   6   7
HETATM    7  C   UNL     1     -10.429  17.620  67.069  1.00  0.00    -0.305 A  
HETATM    8  C   UNL     1     -10.383  16.916  65.865  1.00  0.00    -0.327 A  
HETATM    9  C   UNL     1     -10.136  15.548  65.842  1.00  0.00    -0.374 A  
HETATM   10  C   UNL     1      -9.910  14.842  67.023  1.00  0.00    -0.237 A  
HETATM   11  C   UNL     1     -10.158  16.922  68.258  1.00  0.00    -0.302 A  
HETATM   12  C   UNL     1      -9.905  15.541  68.232  1.00  0.00    -0.213 A  
BRANCH  10  13
HETATM   13  O   UNL     1      -9.680  13.488  67.083  1.00  0.00    -0.232 OA 
BRANCH  13  14
HETATM   14  C   UNL     1     -10.171  12.860  68.280  1.00  0.00    -0.245 C  
BRANCH  14  15
HETATM   15  C   UNL     1     -11.641  12.454  68.137  1.00  0.00    -0.341 C  
HETATM   16  O   UNL     1     -11.725  11.063  67.807  1.00  0.00    -0.573 OA 
HETATM   17  H   UNL     1     -12.637  10.811  67.718  1.00  0.00     0.000 HD 
BRANCH  15  18
HETATM   18  C   UNL     1     -12.463  12.736  69.407  1.00  0.00     0.269 C  
BRANCH  18  19
HETATM   19  N   UNL     1     -11.659  13.386  70.448  1.00  0.00    -0.525 NA 
HETATM   20  H   UNL     1     -10.846  13.847  70.040  1.00  0.00     0.000 HD 
BRANCH  19  21
HETATM   21  C   UNL     1     -12.419  14.323  71.283  1.00  0.00    -0.365 C  
HETATM   22  C   UNL     1     -13.247  13.623  72.363  1.00  0.00    -0.584 C  
HETATM   23  C   UNL     1     -11.419  15.273  71.950  1.00  0.00    -0.504 C  
ENDBRANCH  19  21
ENDBRANCH  18  19
ENDBRANCH  15  18
ENDBRANCH  14  15
ENDBRANCH  13  14
ENDBRANCH  10  13
ENDBRANCH   6   7
ENDBRANCH   5   6
ENDBRANCH   3   5
ENDBRANCH   2   3
TORSDOF 10
ENDMDL
MODEL       77
REMARK 921   NORMALIZED FREE ENERGY PREDICTED BY IDOCK:   -4.63 KCAL/MOL
REMARK 922        TOTAL FREE ENERGY PREDICTED BY IDOCK:   -8.21 KCAL/MOL
REMARK 923 INTER-LIGAND FREE ENERGY PREDICTED BY IDOCK:   -7.36 KCAL/MOL
REMARK 924 INTRA-LIGAND FREE ENERGY PREDICTED BY IDOCK:   -0.85 KCAL/MOL
REMARK 927      BINDING AFFINITY PREDICTED BY RF-SCORE:    0.00 PKD
ROOT
HETATM    1  C   UNL     1      -9.415   6.089  70.831  1.00  0.00    -0.168 C  
HETATM    2  O   UNL     1     -10.801   6.250  71.120  1.00  0.00    -0.243 OA 
ENDROOT
BRANCH   2   3
HETATM    3  C   UNL     1     -11.090   7.357  71.862  1.00  0.00    -0.242 C  
HETATM    4  O   UNL     1     -10.712   7.558  73.009  1.00  0.00    -0.317 OA 
BRANCH   3   5
HETATM    5  C   UNL     1     -11.959   8.277  71.055  1.00  0.00    -0.260 C  
BRANCH   5   6
HETATM    6  C   UNL     1     -11.500   9.737  71.137  1.00  0.00    -0.472 C  
BRANCH   6   7
HETATM    7  C   UNL     1     -11.296  10.376  69.780  1.00  0.00    -0.353 A  
HETATM    8  C   UNL     1     -11.808  11.644  69.502  1.00  0.00    -0.414 A  
HETATM    9  C   UNL     1     -11.638  12.229  68.253  1.00  0.00    -0.385 A  
HETATM   10  C   UNL     1     -10.933  11.571  67.245  1.00  0.00    -0.271 A  
HETATM   11  C   UNL     1     -10.548   9.728  68.784  1.00  0.00    -0.244 A  
HETATM   12  C   UNL     1     -10.373  10.322  67.523  1.00  0.00    -0.276 A  
BRANCH  10  13
HETATM   13  O   UNL     1     -10.741  12.074  65.980  1.00  0.00    -0.260 OA 
BRANCH  13  14
HETATM   14  C   UNL     1     -11.928  12.618  65.377  1.00  0.00    -0.446 C  
BRANCH  14  15
HETATM   15  C   UNL     1     -11.862  12.548  63.849  1.00  0.00    -0.463 C  
HETATM   16  O   UNL     1     -12.228  13.816  63.293  1.00  0.00    -1.021 OA 
HETATM   17  H   UNL     1     -12.187  13.772  62.345  1.00  0.00     0.000 HD 
BRANCH  15  18
HETATM   18  C   UNL     1     -10.472  12.137  63.331  1.00  0.00    -0.412 C  
BRANCH  18  19
HETATM   19  N   UNL     1     -10.342  10.681  63.205  1.00  0.00    -0.554 NA 
HETATM   20  H   UNL     1     -10.827  10.347  62.372  1.00  0.00     0.000 HD 
BRANCH  19  21
HETATM   21  C   UNL     1      -8.953  10.209  63.219  1.00  0.00    -0.247 C  
HETATM   22  C   UNL     1      -8.434   9.923  64.630  1.00  0.00    -0.178 C  
HETATM   23  C   UNL     1      -8.887   8.924  62.387  1.00  0.00    -0.134 C  
ENDBRANCH  19  21
ENDBRANCH  18  19
ENDBRANCH  15  18
ENDBRANCH  14  15
ENDBRANCH  13  14
ENDBRANCH  10  13
ENDBRANCH   6   7
ENDBRANCH   5   6
ENDBRANCH   3   5
ENDBRANCH   2   3
TORSDOF 10
ENDMDL
MODEL       78
REMARK 921   NORMALIZED FREE ENERGY PREDICTED BY IDOCK:   -4.62 KCAL/MOL
REMARK 922        TOTAL FREE ENERGY PREDICTED BY IDOCK:   -8.20 KCAL/MOL
REMARK 923 INTER-LIGAND FREE ENERGY PREDICTED BY IDOCK:   -7.36 KCAL/MOL
REMARK 924 INTRA-LIGAND FREE ENERGY PREDICTED BY IDOCK:   -0.84 KCAL/MOL
REMARK 927      BINDING AFFINITY PREDICTED BY RF-SCORE:    0.00 PKD
ROOT
HETATM    1  C   UNL     1      -9.684   4.895  71.505  1.00  0.00    -0.172 C  
HETATM    2  O   UNL     1     -10.102   5.989  72.317  1.00  0.00    -0.178 OA 
ENDROOT
BRANCH   2   3
HETATM    3  C   UNL     1     -11.175   6.670  71.824  1.00  0.00    -0.260 C  
HETATM    4  O   UNL     1     -11.849   6.325  70.861  1.00  0.00    -0.308 OA 
BRANCH   3   5
HETATM    5  C   UNL     1     -11.384   7.915  72.635  1.00  0.00    -0.468 C  
BRANCH   5   6
HETATM    6  C   UNL     1     -12.721   8.598  72.325  1.00  0.00    -0.450 C  
BRANCH   6   7
HETATM    7  C   UNL     1     -12.563   9.927  71.620  1.00  0.00    -0.519 A  
HETATM    8  C   UNL     1     -11.771  10.041  70.476  1.00  0.00    -0.400 A  
HETATM    9  C   UNL     1     -11.609  11.263  69.834  1.00  0.00    -0.413 A  
HETATM   10  C   UNL     1     -12.249  12.409  70.305  1.00  0.00    -0.267 A  
HETATM   11  C   UNL     1     -13.245  11.069  72.073  1.00  0.00    -0.447 A  
HETATM   12  C   UNL     1     -13.083  12.302  71.420  1.00  0.00    -0.285 A  
BRANCH  10  13
HETATM   13  O   UNL     1     -12.122  13.655  69.737  1.00  0.00    -0.320 OA 
BRANCH  13  14
HETATM   14  C   UNL     1     -12.755  14.709  70.483  1.00  0.00    -0.337 C  
BRANCH  14  15
HETATM   15  C   UNL     1     -11.734  15.736  70.978  1.00  0.00    -0.422 C  
HETATM   16  O   UNL     1     -10.876  15.129  71.952  1.00  0.00    -0.455 OA 
HETATM   17  H   UNL     1     -10.242  15.767  72.260  1.00  0.00     0.000 HD 
BRANCH  15  18
HETATM   18  C   UNL     1     -10.886  16.330  69.840  1.00  0.00    -0.352 C  
BRANCH  18  19
HETATM   19  N   UNL     1     -11.468  16.056  68.521  1.00  0.00    -0.377 NA 
HETATM   20  H   UNL     1     -12.120  16.794  68.256  1.00  0.00     0.000 HD 
BRANCH  19  21
HETATM   21  C   UNL     1     -10.470  15.844  67.467  1.00  0.00    -0.298 C  
HETATM   22  C   UNL     1     -10.879  14.760  66.468  1.00  0.00    -0.319 C  
HETATM   23  C   UNL     1     -10.285  17.171  66.724  1.00  0.00    -0.311 C  
ENDBRANCH  19  21
ENDBRANCH  18  19
ENDBRANCH  15  18
ENDBRANCH  14  15
ENDBRANCH  13  14
ENDBRANCH  10  13
ENDBRANCH   6   7
ENDBRANCH   5   6
ENDBRANCH   3   5
ENDBRANCH   2   3
TORSDOF 10
ENDMDL
MODEL       79
REMARK 921   NORMALIZED FREE ENERGY PREDICTED BY IDOCK:   -4.59 KCAL/MOL
REMARK 922        TOTAL FREE ENERGY PREDICTED BY IDOCK:   -8.15 KCAL/MOL
REMARK 923 INTER-LIGAND FREE ENERGY PREDICTED BY IDOCK:   -7.20 KCAL/MOL
REMARK 924 INTRA-LIGAND FREE ENERGY PREDICTED BY IDOCK:   -0.95 KCAL/MOL
REMARK 927      BINDING AFFINITY PREDICTED BY RF-SCORE:    0.00 PKD
ROOT
HETATM    1  C   UNL     1     -11.543  15.377  64.479  1.00  0.00    -0.296 C  
HETATM    2  O   UNL     1     -12.698  14.561  64.302  1.00  0.00    -0.659 OA 
ENDROOT
BRANCH   2   3
HETATM    3  C   UNL     1     -12.505  13.248  64.615  1.00  0.00    -0.349 C  
HETATM    4  O   UNL     1     -13.152  12.311  64.164  1.00  0.00    -0.749 OA 
BRANCH   3   5
HETATM    5  C   UNL     1     -11.390  13.138  65.614  1.00  0.00    -0.328 C  
BRANCH   5   6
HETATM    6  C   UNL     1     -11.897  12.823  67.026  1.00  0.00    -0.428 C  
BRANCH   6   7
HETATM    7  C   UNL     1     -11.218  11.624  67.651  1.00  0.00    -0.345 A  
HETATM    8  C   UNL     1     -10.500  10.720  66.868  1.00  0.00    -0.304 A  
HETATM    9  C   UNL     1      -9.888   9.607  67.434  1.00  0.00    -0.218 A  
HETATM   10  C   UNL     1      -9.960   9.373  68.807  1.00  0.00    -0.179 A  
HETATM   11  C   UNL     1     -11.257  11.418  69.040  1.00  0.00    -0.319 A  
HETATM   12  C   UNL     1     -10.635  10.295  69.611  1.00  0.00    -0.288 A  
BRANCH  10  13
HETATM   13  O   UNL     1      -9.400   8.287  69.437  1.00  0.00    -0.154 OA 
BRANCH  13  14
HETATM   14  C   UNL     1      -9.309   7.111  68.613  1.00  0.00    -0.134 C  
BRANCH  14  15
HETATM   15  C   UNL     1     -10.603   6.293  68.660  1.00  0.00    -0.264 C  
HETATM   16  O   UNL     1     -10.374   4.999  68.090  1.00  0.00    -0.116 OA 
HETATM   17  H   UNL     1     -11.176   4.491  68.119  1.00  0.00     0.000 HD 
BRANCH  15  18
HETATM   18  C   UNL     1     -11.159   6.140  70.087  1.00  0.00    -0.378 C  
BRANCH  18  19
HETATM   19  N   UNL     1     -12.332   6.992  70.312  1.00  0.00    -0.610 NA 
HETATM   20  H   UNL     1     -13.174   6.548  69.945  1.00  0.00     0.000 HD 
BRANCH  19  21
HETATM   21  C   UNL     1     -12.521   7.378  71.715  1.00  0.00    -0.336 C  
HETATM   22  C   UNL     1     -11.267   7.168  72.566  1.00  0.00    -0.327 C  
HETATM   23  C   UNL     1     -12.908   8.860  71.744  1.00  0.00    -0.419 C  
ENDBRANCH  19  21
ENDBRANCH  18  19
ENDBRANCH  15  18
ENDBRANCH  14  15
ENDBRANCH  13  14
ENDBRANCH  10  13
ENDBRANCH   6   7
ENDBRANCH   5   6
ENDBRANCH   3   5
ENDBRANCH   2   3
TORSDOF 10
ENDMDL
MODEL       80
REMARK 921   NORMALIZED FREE ENERGY PREDICTED BY IDOCK:   -4.59 KCAL/MOL
REMARK 922        TOTAL FREE ENERGY PREDICTED BY IDOCK:   -8.15 KCAL/MOL
REMARK 923 INTER-LIGAND FREE ENERGY PREDICTED BY IDOCK:   -6.88 KCAL/MOL
REMARK 924 INTRA-LIGAND FREE ENERGY PREDICTED BY IDOCK:   -1.27 KCAL/MOL
REMARK 927      BINDING AFFINITY PREDICTED BY RF-SCORE:    0.00 PKD
ROOT
HETATM    1  C   UNL     1     -10.834  19.582  67.203  1.00  0.00    -0.437 C  
HETATM    2  O   UNL     1     -10.768  18.188  67.494  1.00  0.00    -0.412 OA 
ENDROOT
BRANCH   2   3
HETATM    3  C   UNL     1      -9.818  17.856  68.413  1.00  0.00    -0.355 C  
HETATM    4  O   UNL     1      -8.845  18.541  68.702  1.00  0.00    -0.326 OA 
BRANCH   3   5
HETATM    5  C   UNL     1     -10.144  16.512  68.996  1.00  0.00    -0.279 C  
BRANCH   5   6
HETATM    6  C   UNL     1     -11.432  15.919  68.416  1.00  0.00    -0.348 C  
BRANCH   6   7
HETATM    7  C   UNL     1     -11.186  14.763  67.472  1.00  0.00    -0.339 A  
HETATM    8  C   UNL     1     -12.247  14.136  66.817  1.00  0.00    -0.429 A  
HETATM    9  C   UNL     1     -12.028  13.062  65.962  1.00  0.00    -0.498 A  
HETATM   10  C   UNL     1     -10.738  12.592  65.719  1.00  0.00    -0.269 A  
HETATM   11  C   UNL     1      -9.881  14.323  67.197  1.00  0.00    -0.252 A  
HETATM   12  C   UNL     1      -9.662  13.240  66.329  1.00  0.00    -0.274 A  
BRANCH  10  13
HETATM   13  O   UNL     1     -10.444  11.524  64.904  1.00  0.00    -0.264 OA 
BRANCH  13  14
HETATM   14  C   UNL     1      -9.412  10.661  65.414  1.00  0.00    -0.215 C  
BRANCH  14  15
HETATM   15  C   UNL     1      -9.949   9.258  65.706  1.00  0.00    -0.145 C  
HETATM   16  O   UNL     1      -9.043   8.278  65.185  1.00  0.00    -0.401 OA 
HETATM   17  H   UNL     1      -9.377   7.407  65.366  1.00  0.00     0.000 HD 
BRANCH  15  18
HETATM   18  C   UNL     1     -10.175   9.007  67.208  1.00  0.00    -0.256 C  
BRANCH  18  19
HETATM   19  N   UNL     1     -11.228   9.870  67.756  1.00  0.00    -0.479 NA 
HETATM   20  H   UNL     1     -12.002   9.310  68.113  1.00  0.00     0.000 HD 
BRANCH  19  21
HETATM   21  C   UNL     1     -10.751  10.805  68.780  1.00  0.00    -0.208 C  
HETATM   22  C   UNL     1     -11.889  11.505  69.526  1.00  0.00    -0.419 C  
HETATM   23  C   UNL     1      -9.904  10.013  69.781  1.00  0.00    -0.270 C  
ENDBRANCH  19  21
ENDBRANCH  18  19
ENDBRANCH  15  18
ENDBRANCH  14  15
ENDBRANCH  13  14
ENDBRANCH  10  13
ENDBRANCH   6   7
ENDBRANCH   5   6
ENDBRANCH   3   5
ENDBRANCH   2   3
TORSDOF 10
ENDMDL
MODEL       81
REMARK 921   NORMALIZED FREE ENERGY PREDICTED BY IDOCK:   -4.57 KCAL/MOL
REMARK 922        TOTAL FREE ENERGY PREDICTED BY IDOCK:   -8.12 KCAL/MOL
REMARK 923 INTER-LIGAND FREE ENERGY PREDICTED BY IDOCK:   -7.02 KCAL/MOL
REMARK 924 INTRA-LIGAND FREE ENERGY PREDICTED BY IDOCK:   -1.10 KCAL/MOL
REMARK 927      BINDING AFFINITY PREDICTED BY RF-SCORE:    0.00 PKD
ROOT
HETATM    1  C   UNL     1     -10.298  18.330  67.097  1.00  0.00    -0.384 C  
HETATM    2  O   UNL     1     -10.726  18.412  65.740  1.00  0.00    -0.482 OA 
ENDROOT
BRANCH   2   3
HETATM    3  C   UNL     1     -10.787  17.209  65.102  1.00  0.00     0.001 C  
HETATM    4  O   UNL     1     -11.527  16.944  64.164  1.00  0.00    -1.174 OA 
BRANCH   3   5
HETATM    5  C   UNL     1      -9.819  16.260  65.747  1.00  0.00    -0.332 C  
BRANCH   5   6
HETATM    6  C   UNL     1      -9.911  14.845  65.165  1.00  0.00    -0.165 C  
BRANCH   6   7
HETATM    7  C   UNL     1     -10.532  13.846  66.116  1.00  0.00    -0.297 A  
HETATM    8  C   UNL     1      -9.922  12.614  66.357  1.00  0.00    -0.262 A  
HETATM    9  C   UNL     1     -10.497  11.685  67.218  1.00  0.00    -0.247 A  
HETATM   10  C   UNL     1     -11.692  11.967  67.879  1.00  0.00    -0.323 A  
HETATM   11  C   UNL     1     -11.712  14.153  66.813  1.00  0.00    -0.432 A  
HETATM   12  C   UNL     1     -12.289  13.214  67.685  1.00  0.00     0.047 A  
BRANCH  10  13
HETATM   13  O   UNL     1     -12.331  11.093  68.727  1.00  0.00    -0.539 OA 
BRANCH  13  14
HETATM   14  C   UNL     1     -11.460  10.127  69.342  1.00  0.00    -0.142 C  
BRANCH  14  15
HETATM   15  C   UNL     1     -11.942   9.755  70.747  1.00  0.00    -0.299 C  
HETATM   16  O   UNL     1     -10.812   9.561  71.607  1.00  0.00    -0.343 OA 
HETATM   17  H   UNL     1     -11.111   9.329  72.479  1.00  0.00     0.000 HD 
BRANCH  15  18
HETATM   18  C   UNL     1     -12.880  10.812  71.356  1.00  0.00    -0.452 C  
BRANCH  18  19
HETATM   19  N   UNL     1     -12.207  12.104  71.536  1.00  0.00    -0.003 NA 
HETATM   20  H   UNL     1     -11.364  12.153  70.963  1.00  0.00     0.000 HD 
BRANCH  19  21
HETATM   21  C   UNL     1     -13.072  13.261  71.283  1.00  0.00    -0.218 C  
HETATM   22  C   UNL     1     -14.082  13.508  72.406  1.00  0.00    -0.563 C  
HETATM   23  C   UNL     1     -12.174  14.493  71.132  1.00  0.00    -0.411 C  
ENDBRANCH  19  21
ENDBRANCH  18  19
ENDBRANCH  15  18
ENDBRANCH  14  15
ENDBRANCH  13  14
ENDBRANCH  10  13
ENDBRANCH   6   7
ENDBRANCH   5   6
ENDBRANCH   3   5
ENDBRANCH   2   3
TORSDOF 10
ENDMDL
MODEL       82
REMARK 921   NORMALIZED FREE ENERGY PREDICTED BY IDOCK:   -4.57 KCAL/MOL
REMARK 922        TOTAL FREE ENERGY PREDICTED BY IDOCK:   -8.11 KCAL/MOL
REMARK 923 INTER-LIGAND FREE ENERGY PREDICTED BY IDOCK:   -7.31 KCAL/MOL
REMARK 924 INTRA-LIGAND FREE ENERGY PREDICTED BY IDOCK:   -0.80 KCAL/MOL
REMARK 927      BINDING AFFINITY PREDICTED BY RF-SCORE:    0.00 PKD
ROOT
HETATM    1  C   UNL     1      -9.256  16.337  66.133  1.00  0.00    -0.341 C  
HETATM    2  O   UNL     1     -10.642  16.590  65.922  1.00  0.00    -0.325 OA 
ENDROOT
BRANCH   2   3
HETATM    3  C   UNL     1     -11.145  16.024  64.788  1.00  0.00    -0.365 C  
HETATM    4  O   UNL     1     -11.620  16.639  63.842  1.00  0.00    -1.204 OA 
BRANCH   3   5
HETATM    5  C   UNL     1     -11.043  14.530  64.896  1.00  0.00    -0.401 C  
BRANCH   5   6
HETATM    6  C   UNL     1     -12.265  13.908  65.581  1.00  0.00    -0.477 C  
BRANCH   6   7
HETATM    7  C   UNL     1     -11.903  12.909  66.658  1.00  0.00    -0.461 A  
HETATM    8  C   UNL     1     -11.397  11.651  66.326  1.00  0.00    -0.293 A  
HETATM    9  C   UNL     1     -11.079  10.723  67.310  1.00  0.00    -0.339 A  
HETATM   10  C   UNL     1     -11.238  11.030  68.661  1.00  0.00    -0.263 A  
HETATM   11  C   UNL     1     -12.024  13.239  68.018  1.00  0.00    -0.351 A  
HETATM   12  C   UNL     1     -11.698  12.301  69.011  1.00  0.00    -0.376 A  
BRANCH  10  13
HETATM   13  O   UNL     1     -10.965  10.159  69.690  1.00  0.00    -0.232 OA 
BRANCH  13  14
HETATM   14  C   UNL     1     -12.049   9.989  70.620  1.00  0.00    -0.292 C  
BRANCH  14  15
HETATM   15  C   UNL     1     -11.568   9.359  71.930  1.00  0.00    -0.278 C  
HETATM   16  O   UNL     1     -12.650   8.655  72.551  1.00  0.00    -0.449 OA 
HETATM   17  H   UNL     1     -12.352   8.265  73.364  1.00  0.00     0.000 HD 
BRANCH  15  18
HETATM   18  C   UNL     1     -10.377   8.405  71.731  1.00  0.00    -0.262 C  
BRANCH  18  19
HETATM   19  N   UNL     1      -9.100   9.126  71.674  1.00  0.00    -0.334 NA 
HETATM   20  H   UNL     1      -8.902   9.577  72.567  1.00  0.00     0.000 HD 
BRANCH  19  21
HETATM   21  C   UNL     1      -7.969   8.293  71.253  1.00  0.00    -0.111 C  
HETATM   22  C   UNL     1      -7.276   8.819  69.994  1.00  0.00    -0.052 C  
HETATM   23  C   UNL     1      -6.961   8.255  72.405  1.00  0.00    -0.104 C  
ENDBRANCH  19  21
ENDBRANCH  18  19
ENDBRANCH  15  18
ENDBRANCH  14  15
ENDBRANCH  13  14
ENDBRANCH  10  13
ENDBRANCH   6   7
ENDBRANCH   5   6
ENDBRANCH   3   5
ENDBRANCH   2   3
TORSDOF 10
ENDMDL
MODEL       83
REMARK 921   NORMALIZED FREE ENERGY PREDICTED BY IDOCK:   -4.55 KCAL/MOL
REMARK 922        TOTAL FREE ENERGY PREDICTED BY IDOCK:   -8.08 KCAL/MOL
REMARK 923 INTER-LIGAND FREE ENERGY PREDICTED BY IDOCK:   -7.33 KCAL/MOL
REMARK 924 INTRA-LIGAND FREE ENERGY PREDICTED BY IDOCK:   -0.75 KCAL/MOL
REMARK 927      BINDING AFFINITY PREDICTED BY RF-SCORE:    0.00 PKD
ROOT
HETATM    1  C   UNL     1      -7.220   5.868  67.935  1.00  0.00    -0.072 C  
HETATM    2  O   UNL     1      -8.306   6.789  67.866  1.00  0.00    -0.119 OA 
ENDROOT
BRANCH   2   3
HETATM    3  C   UNL     1      -7.942   8.092  68.035  1.00  0.00    -0.127 C  
HETATM    4  O   UNL     1      -6.880   8.473  68.511  1.00  0.00    -0.062 OA 
BRANCH   3   5
HETATM    5  C   UNL     1      -9.056   8.980  67.562  1.00  0.00    -0.145 C  
BRANCH   5   6
HETATM    6  C   UNL     1      -9.061   9.154  66.040  1.00  0.00    -0.245 C  
BRANCH   6   7
HETATM    7  C   UNL     1      -9.985  10.255  65.567  1.00  0.00    -0.364 A  
HETATM    8  C   UNL     1     -10.125  10.536  64.207  1.00  0.00    -0.380 A  
HETATM    9  C   UNL     1     -10.959  11.558  63.768  1.00  0.00    -0.485 A  
HETATM   10  C   UNL     1     -11.695  12.320  64.675  1.00  0.00    -0.356 A  
HETATM   11  C   UNL     1     -10.757  10.990  66.482  1.00  0.00    -0.298 A  
HETATM   12  C   UNL     1     -11.602  12.019  66.035  1.00  0.00    -0.371 A  
BRANCH  10  13
HETATM   13  O   UNL     1     -12.523  13.359  64.319  1.00  0.00    -0.587 OA 
BRANCH  13  14
HETATM   14  C   UNL     1     -12.360  14.542  65.121  1.00  0.00    -0.323 C  
BRANCH  14  15
HETATM   15  C   UNL     1     -11.211  15.413  64.607  1.00  0.00    -0.364 C  
HETATM   16  O   UNL     1     -11.734  16.463  63.784  1.00  0.00    -1.553 OA 
HETATM   17  H   UNL     1     -11.021  17.003  63.465  1.00  0.00     0.000 HD 
BRANCH  15  18
HETATM   18  C   UNL     1     -10.366  16.017  65.742  1.00  0.00    -0.378 C  
BRANCH  18  19
HETATM   19  N   UNL     1      -9.994  15.011  66.744  1.00  0.00    -0.242 NA 
HETATM   20  H   UNL     1      -9.040  14.686  66.590  1.00  0.00     0.000 HD 
BRANCH  19  21
HETATM   21  C   UNL     1     -10.169  15.463  68.129  1.00  0.00    -0.230 C  
HETATM   22  C   UNL     1      -9.744  16.918  68.340  1.00  0.00    -0.263 C  
HETATM   23  C   UNL     1     -11.651  15.314  68.486  1.00  0.00    -0.368 C  
ENDBRANCH  19  21
ENDBRANCH  18  19
ENDBRANCH  15  18
ENDBRANCH  14  15
ENDBRANCH  13  14
ENDBRANCH  10  13
ENDBRANCH   6   7
ENDBRANCH   5   6
ENDBRANCH   3   5
ENDBRANCH   2   3
TORSDOF 10
ENDMDL
MODEL       84
REMARK 921   NORMALIZED FREE ENERGY PREDICTED BY IDOCK:   -4.54 KCAL/MOL
REMARK 922        TOTAL FREE ENERGY PREDICTED BY IDOCK:   -8.07 KCAL/MOL
REMARK 923 INTER-LIGAND FREE ENERGY PREDICTED BY IDOCK:   -6.88 KCAL/MOL
REMARK 924 INTRA-LIGAND FREE ENERGY PREDICTED BY IDOCK:   -1.19 KCAL/MOL
REMARK 927      BINDING AFFINITY PREDICTED BY RF-SCORE:    0.00 PKD
ROOT
HETATM    1  C   UNL     1     -10.646   7.258  67.282  1.00  0.00    -0.325 C  
HETATM    2  O   UNL     1      -9.499   6.637  67.857  1.00  0.00    -0.120 OA 
ENDROOT
BRANCH   2   3
HETATM    3  C   UNL     1      -8.946   7.337  68.889  1.00  0.00    -0.133 C  
HETATM    4  O   UNL     1      -7.750   7.393  69.143  1.00  0.00    -0.106 OA 
BRANCH   3   5
HETATM    5  C   UNL     1     -10.038   8.006  69.671  1.00  0.00    -0.198 C  
BRANCH   5   6
HETATM    6  C   UNL     1      -9.669   9.434  70.087  1.00  0.00    -0.274 C  
BRANCH   6   7
HETATM    7  C   UNL     1     -10.297  10.493  69.208  1.00  0.00    -0.248 A  
HETATM    8  C   UNL     1     -11.426  11.197  69.631  1.00  0.00    -0.383 A  
HETATM    9  C   UNL     1     -12.017  12.159  68.820  1.00  0.00    -0.292 A  
HETATM   10  C   UNL     1     -11.488  12.462  67.566  1.00  0.00    -0.346 A  
HETATM   11  C   UNL     1      -9.734  10.825  67.964  1.00  0.00    -0.174 A  
HETATM   12  C   UNL     1     -10.331  11.800  67.148  1.00  0.00    -0.242 A  
BRANCH  10  13
HETATM   13  O   UNL     1     -12.028  13.384  66.701  1.00  0.00    -0.381 OA 
BRANCH  13  14
HETATM   14  C   UNL     1     -12.247  12.884  65.370  1.00  0.00    -0.478 C  
BRANCH  14  15
HETATM   15  C   UNL     1     -11.543  13.753  64.323  1.00  0.00    -0.369 C  
HETATM   16  O   UNL     1     -12.435  14.006  63.231  1.00  0.00    -1.139 OA 
HETATM   17  H   UNL     1     -11.998  14.545  62.581  1.00  0.00     0.000 HD 
BRANCH  15  18
HETATM   18  C   UNL     1     -11.037  15.087  64.899  1.00  0.00    -0.415 C  
BRANCH  18  19
HETATM   19  N   UNL     1      -9.738  14.940  65.565  1.00  0.00    -0.453 NA 
HETATM   20  H   UNL     1      -8.982  14.925  64.880  1.00  0.00     0.000 HD 
BRANCH  19  21
HETATM   21  C   UNL     1      -9.483  15.954  66.594  1.00  0.00    -0.241 C  
HETATM   22  C   UNL     1      -9.376  15.363  68.001  1.00  0.00    -0.196 C  
HETATM   23  C   UNL     1      -8.169  16.659  66.241  1.00  0.00    -0.365 C  
ENDBRANCH  19  21
ENDBRANCH  18  19
ENDBRANCH  15  18
ENDBRANCH  14  15
ENDBRANCH  13  14
ENDBRANCH  10  13
ENDBRANCH   6   7
ENDBRANCH   5   6
ENDBRANCH   3   5
ENDBRANCH   2   3
TORSDOF 10
ENDMDL
MODEL       85
REMARK 921   NORMALIZED FREE ENERGY PREDICTED BY IDOCK:   -4.54 KCAL/MOL
REMARK 922        TOTAL FREE ENERGY PREDICTED BY IDOCK:   -8.06 KCAL/MOL
REMARK 923 INTER-LIGAND FREE ENERGY PREDICTED BY IDOCK:   -7.15 KCAL/MOL
REMARK 924 INTRA-LIGAND FREE ENERGY PREDICTED BY IDOCK:   -0.91 KCAL/MOL
REMARK 927      BINDING AFFINITY PREDICTED BY RF-SCORE:    0.00 PKD
ROOT
HETATM    1  C   UNL     1     -10.901   4.696  72.878  1.00  0.00    -0.221 C  
HETATM    2  O   UNL     1     -11.160   5.853  73.668  1.00  0.00    -0.159 OA 
ENDROOT
BRANCH   2   3
HETATM    3  C   UNL     1     -10.761   7.022  73.091  1.00  0.00    -0.326 C  
HETATM    4  O   UNL     1      -9.735   7.631  73.364  1.00  0.00    -0.262 OA 
BRANCH   3   5
HETATM    5  C   UNL     1     -11.789   7.451  72.085  1.00  0.00    -0.323 C  
BRANCH   5   6
HETATM    6  C   UNL     1     -12.173   8.928  72.233  1.00  0.00    -0.413 C  
BRANCH   6   7
HETATM    7  C   UNL     1     -11.877   9.749  70.997  1.00  0.00    -0.442 A  
HETATM    8  C   UNL     1     -11.143   9.211  69.939  1.00  0.00    -0.175 A  
HETATM    9  C   UNL     1     -10.854   9.966  68.809  1.00  0.00    -0.240 A  
HETATM   10  C   UNL     1     -11.306  11.280  68.692  1.00  0.00    -0.273 A  
HETATM   11  C   UNL     1     -12.372  11.057  70.866  1.00  0.00    -0.503 A  
HETATM   12  C   UNL     1     -12.082  11.817  69.721  1.00  0.00    -0.338 A  
BRANCH  10  13
HETATM   13  O   UNL     1     -11.043  12.095  67.616  1.00  0.00    -0.238 OA 
BRANCH  13  14
HETATM   14  C   UNL     1     -10.749  11.387  66.399  1.00  0.00    -0.275 C  
BRANCH  14  15
HETATM   15  C   UNL     1     -11.365  12.084  65.183  1.00  0.00    -0.304 C  
HETATM   16  O   UNL     1     -12.638  12.637  65.540  1.00  0.00    -0.634 OA 
HETATM   17  H   UNL     1     -13.021  13.069  64.785  1.00  0.00     0.000 HD 
BRANCH  15  18
HETATM   18  C   UNL     1     -10.463  13.191  64.610  1.00  0.00    -0.392 C  
BRANCH  18  19
HETATM   19  N   UNL     1      -9.634  13.815  65.647  1.00  0.00    -0.513 NA 
HETATM   20  H   UNL     1      -8.648  13.780  65.390  1.00  0.00     0.000 HD 
BRANCH  19  21
HETATM   21  C   UNL     1     -10.034  15.189  65.975  1.00  0.00    -0.311 C  
HETATM   22  C   UNL     1      -8.841  16.133  66.143  1.00  0.00    -0.367 C  
HETATM   23  C   UNL     1     -10.927  15.700  64.841  1.00  0.00    -0.447 C  
ENDBRANCH  19  21
ENDBRANCH  18  19
ENDBRANCH  15  18
ENDBRANCH  14  15
ENDBRANCH  13  14
ENDBRANCH  10  13
ENDBRANCH   6   7
ENDBRANCH   5   6
ENDBRANCH   3   5
ENDBRANCH   2   3
TORSDOF 10
ENDMDL
MODEL       86
REMARK 921   NORMALIZED FREE ENERGY PREDICTED BY IDOCK:   -4.52 KCAL/MOL
REMARK 922        TOTAL FREE ENERGY PREDICTED BY IDOCK:   -8.03 KCAL/MOL
REMARK 923 INTER-LIGAND FREE ENERGY PREDICTED BY IDOCK:   -7.48 KCAL/MOL
REMARK 924 INTRA-LIGAND FREE ENERGY PREDICTED BY IDOCK:   -0.55 KCAL/MOL
REMARK 927      BINDING AFFINITY PREDICTED BY RF-SCORE:    0.00 PKD
ROOT
HETATM    1  C   UNL     1      -6.742  19.431  69.027  1.00  0.00    -0.324 C  
HETATM    2  O   UNL     1      -7.528  20.281  68.195  1.00  0.00    -0.270 OA 
ENDROOT
BRANCH   2   3
HETATM    3  C   UNL     1      -8.595  19.660  67.616  1.00  0.00    -0.320 C  
HETATM    4  O   UNL     1      -9.250  20.105  66.682  1.00  0.00    -0.358 OA 
BRANCH   3   5
HETATM    5  C   UNL     1      -8.850  18.359  68.320  1.00  0.00    -0.323 C  
BRANCH   5   6
HETATM    6  C   UNL     1     -10.331  17.966  68.306  1.00  0.00    -0.389 C  
BRANCH   6   7
HETATM    7  C   UNL     1     -10.613  16.724  67.489  1.00  0.00    -0.309 A  
HETATM    8  C   UNL     1     -10.269  16.663  66.138  1.00  0.00    -0.360 A  
HETATM    9  C   UNL     1     -10.541  15.530  65.379  1.00  0.00    -0.428 A  
HETATM   10  C   UNL     1     -11.149  14.414  65.952  1.00  0.00    -0.319 A  
HETATM   11  C   UNL     1     -11.185  15.587  68.082  1.00  0.00    -0.343 A  
HETATM   12  C   UNL     1     -11.455  14.442  67.314  1.00  0.00    -0.377 A  
BRANCH  10  13
HETATM   13  O   UNL     1     -11.468  13.268  65.263  1.00  0.00    -0.290 OA 
BRANCH  13  14
HETATM   14  C   UNL     1     -10.610  12.999  64.140  1.00  0.00    -0.397 C  
BRANCH  14  15
HETATM   15  C   UNL     1     -10.696  11.532  63.709  1.00  0.00    -0.408 C  
HETATM   16  O   UNL     1     -11.921  11.311  63.000  1.00  0.00    -0.863 OA 
HETATM   17  H   UNL     1     -11.975  10.401  62.732  1.00  0.00     0.000 HD 
BRANCH  15  18
HETATM   18  C   UNL     1      -9.507  11.097  62.835  1.00  0.00    -0.359 C  
BRANCH  18  19
HETATM   19  N   UNL     1      -9.482   9.645  62.626  1.00  0.00    -0.568 NA 
HETATM   20  H   UNL     1      -9.655   9.420  61.646  1.00  0.00     0.000 HD 
BRANCH  19  21
HETATM   21  C   UNL     1      -8.250   9.001  63.094  1.00  0.00    -0.181 C  
HETATM   22  C   UNL     1      -6.990   9.793  62.736  1.00  0.00    -0.113 C  
HETATM   23  C   UNL     1      -8.344   8.863  64.617  1.00  0.00    -0.179 C  
ENDBRANCH  19  21
ENDBRANCH  18  19
ENDBRANCH  15  18
ENDBRANCH  14  15
ENDBRANCH  13  14
ENDBRANCH  10  13
ENDBRANCH   6   7
ENDBRANCH   5   6
ENDBRANCH   3   5
ENDBRANCH   2   3
TORSDOF 10
ENDMDL
MODEL       87
REMARK 921   NORMALIZED FREE ENERGY PREDICTED BY IDOCK:   -4.50 KCAL/MOL
REMARK 922        TOTAL FREE ENERGY PREDICTED BY IDOCK:   -8.01 KCAL/MOL
REMARK 923 INTER-LIGAND FREE ENERGY PREDICTED BY IDOCK:   -7.55 KCAL/MOL
REMARK 924 INTRA-LIGAND FREE ENERGY PREDICTED BY IDOCK:   -0.47 KCAL/MOL
REMARK 927      BINDING AFFINITY PREDICTED BY RF-SCORE:    0.00 PKD
ROOT
HETATM    1  C   UNL     1     -10.561  19.224  66.042  1.00  0.00    -0.461 C  
HETATM    2  O   UNL     1     -10.187  17.850  66.058  1.00  0.00    -0.471 OA 
ENDROOT
BRANCH   2   3
HETATM    3  C   UNL     1      -9.750  17.406  67.271  1.00  0.00    -0.267 C  
HETATM    4  O   UNL     1      -8.649  17.639  67.754  1.00  0.00    -0.222 OA 
BRANCH   3   5
HETATM    5  C   UNL     1     -10.824  16.572  67.906  1.00  0.00    -0.326 C  
BRANCH   5   6
HETATM    6  C   UNL     1     -11.233  15.380  67.034  1.00  0.00    -0.229 C  
BRANCH   6   7
HETATM    7  C   UNL     1     -11.414  14.099  67.819  1.00  0.00    -0.352 A  
HETATM    8  C   UNL     1     -11.121  12.861  67.244  1.00  0.00    -0.309 A  
HETATM    9  C   UNL     1     -11.301  11.680  67.955  1.00  0.00    -0.369 A  
HETATM   10  C   UNL     1     -11.763  11.700  69.270  1.00  0.00    -0.331 A  
HETATM   11  C   UNL     1     -11.837  14.128  69.157  1.00  0.00    -0.380 A  
HETATM   12  C   UNL     1     -12.015  12.933  69.875  1.00  0.00    -0.377 A  
BRANCH  10  13
HETATM   13  O   UNL     1     -11.986  10.575  70.029  1.00  0.00    -0.275 OA 
BRANCH  13  14
HETATM   14  C   UNL     1     -12.770  10.809  71.213  1.00  0.00    -0.441 C  
BRANCH  14  15
HETATM   15  C   UNL     1     -12.916   9.534  72.047  1.00  0.00    -0.426 C  
HETATM   16  O   UNL     1     -13.939   8.704  71.482  1.00  0.00    -0.441 OA 
HETATM   17  H   UNL     1     -14.031   7.913  72.000  1.00  0.00     0.000 HD 
BRANCH  15  18
HETATM   18  C   UNL     1     -11.604   8.737  72.154  1.00  0.00    -0.364 C  
BRANCH  18  19
HETATM   19  N   UNL     1     -11.759   7.534  72.980  1.00  0.00    -0.601 NA 
HETATM   20  H   UNL     1     -12.561   6.986  72.671  1.00  0.00     0.000 HD 
BRANCH  19  21
HETATM   21  C   UNL     1     -10.554   6.699  73.039  1.00  0.00    -0.256 C  
HETATM   22  C   UNL     1      -9.830   6.789  74.385  1.00  0.00    -0.318 C  
HETATM   23  C   UNL     1     -10.978   5.248  72.790  1.00  0.00    -0.331 C  
ENDBRANCH  19  21
ENDBRANCH  18  19
ENDBRANCH  15  18
ENDBRANCH  14  15
ENDBRANCH  13  14
ENDBRANCH  10  13
ENDBRANCH   6   7
ENDBRANCH   5   6
ENDBRANCH   3   5
ENDBRANCH   2   3
TORSDOF 10
ENDMDL
MODEL       88
REMARK 921   NORMALIZED FREE ENERGY PREDICTED BY IDOCK:   -4.50 KCAL/MOL
REMARK 922        TOTAL FREE ENERGY PREDICTED BY IDOCK:   -8.01 KCAL/MOL
REMARK 923 INTER-LIGAND FREE ENERGY PREDICTED BY IDOCK:   -7.18 KCAL/MOL
REMARK 924 INTRA-LIGAND FREE ENERGY PREDICTED BY IDOCK:   -0.83 KCAL/MOL
REMARK 927      BINDING AFFINITY PREDICTED BY RF-SCORE:    0.00 PKD
ROOT
HETATM    1  C   UNL     1      -7.761   8.198  74.493  1.00  0.00    -0.235 C  
HETATM    2  O   UNL     1      -8.340   8.617  73.260  1.00  0.00    -0.408 OA 
ENDROOT
BRANCH   2   3
HETATM    3  C   UNL     1      -8.246   7.694  72.260  1.00  0.00    -0.108 C  
HETATM    4  O   UNL     1      -7.222   7.108  71.933  1.00  0.00    -0.077 OA 
BRANCH   3   5
HETATM    5  C   UNL     1      -9.591   7.529  71.614  1.00  0.00    -0.171 C  
BRANCH   5   6
HETATM    6  C   UNL     1     -10.562   8.655  71.987  1.00  0.00    -0.421 C  
BRANCH   6   7
HETATM    7  C   UNL     1     -10.965   9.512  70.808  1.00  0.00    -0.389 A  
HETATM    8  C   UNL     1     -10.455   9.260  69.533  1.00  0.00    -0.229 A  
HETATM    9  C   UNL     1     -10.809  10.055  68.449  1.00  0.00    -0.277 A  
HETATM   10  C   UNL     1     -11.701  11.117  68.601  1.00  0.00    -0.320 A  
HETATM   11  C   UNL     1     -11.897  10.552  70.958  1.00  0.00    -0.438 A  
HETATM   12  C   UNL     1     -12.257  11.351  69.860  1.00  0.00    -0.346 A  
BRANCH  10  13
HETATM   13  O   UNL     1     -12.082  11.958  67.583  1.00  0.00    -0.568 OA 
BRANCH  13  14
HETATM   14  C   UNL     1     -11.203  11.940  66.444  1.00  0.00    -0.331 C  
BRANCH  14  15
HETATM   15  C   UNL     1     -11.673  12.912  65.359  1.00  0.00    -0.375 C  
HETATM   16  O   UNL     1     -12.966  12.515  64.885  1.00  0.00    -0.821 OA 
HETATM   17  H   UNL     1     -13.258  13.118  64.211  1.00  0.00     0.000 HD 
BRANCH  15  18
HETATM   18  C   UNL     1     -11.727  14.370  65.847  1.00  0.00    -0.369 C  
BRANCH  18  19
HETATM   19  N   UNL     1     -11.084  14.534  67.156  1.00  0.00    -0.311 NA 
HETATM   20  H   UNL     1     -10.623  13.670  67.440  1.00  0.00     0.000 HD 
BRANCH  19  21
HETATM   21  C   UNL     1     -10.151  15.664  67.219  1.00  0.00    -0.255 C  
HETATM   22  C   UNL     1      -9.875  16.287  65.849  1.00  0.00    -0.365 C  
HETATM   23  C   UNL     1     -10.760  16.724  68.141  1.00  0.00    -0.361 C  
ENDBRANCH  19  21
ENDBRANCH  18  19
ENDBRANCH  15  18
ENDBRANCH  14  15
ENDBRANCH  13  14
ENDBRANCH  10  13
ENDBRANCH   6   7
ENDBRANCH   5   6
ENDBRANCH   3   5
ENDBRANCH   2   3
TORSDOF 10
ENDMDL
MODEL       89
REMARK 921   NORMALIZED FREE ENERGY PREDICTED BY IDOCK:   -4.49 KCAL/MOL
REMARK 922        TOTAL FREE ENERGY PREDICTED BY IDOCK:   -7.99 KCAL/MOL
REMARK 923 INTER-LIGAND FREE ENERGY PREDICTED BY IDOCK:   -6.65 KCAL/MOL
REMARK 924 INTRA-LIGAND FREE ENERGY PREDICTED BY IDOCK:   -1.34 KCAL/MOL
REMARK 927      BINDING AFFINITY PREDICTED BY RF-SCORE:    0.00 PKD
ROOT
HETATM    1  C   UNL     1     -13.782  13.487  72.295  1.00  0.00    -0.602 C  
HETATM    2  O   UNL     1     -12.549  13.796  71.650  1.00  0.00    -0.332 OA 
ENDROOT
BRANCH   2   3
HETATM    3  C   UNL     1     -12.684  14.569  70.535  1.00  0.00    -0.345 C  
HETATM    4  O   UNL     1     -13.225  15.666  70.497  1.00  0.00    -0.434 OA 
BRANCH   3   5
HETATM    5  C   UNL     1     -12.082  13.851  69.363  1.00  0.00    -0.384 C  
BRANCH   5   6
HETATM    6  C   UNL     1     -11.608  12.439  69.722  1.00  0.00    -0.302 C  
BRANCH   6   7
HETATM    7  C   UNL     1     -10.908  11.735  68.580  1.00  0.00    -0.261 A  
HETATM    8  C   UNL     1     -11.599  10.843  67.758  1.00  0.00    -0.231 A  
HETATM    9  C   UNL     1     -10.957  10.181  66.718  1.00  0.00    -0.049 A  
HETATM   10  C   UNL     1      -9.606  10.402  66.455  1.00  0.00    -0.179 A  
HETATM   11  C   UNL     1      -9.558  11.995  68.292  1.00  0.00    -0.204 A  
HETATM   12  C   UNL     1      -8.912  11.327  67.238  1.00  0.00    -0.149 A  
BRANCH  10  13
HETATM   13  O   UNL     1      -8.898   9.770  65.459  1.00  0.00    -0.146 OA 
BRANCH  13  14
HETATM   14  C   UNL     1      -9.414   9.997  64.136  1.00  0.00    -0.252 C  
BRANCH  14  15
HETATM   15  C   UNL     1      -9.128  11.425  63.661  1.00  0.00     0.030 C  
HETATM   16  O   UNL     1      -8.398  11.384  62.429  1.00  0.00    -0.537 OA 
HETATM   17  H   UNL     1      -8.220  12.270  62.134  1.00  0.00     0.000 HD 
BRANCH  15  18
HETATM   18  C   UNL     1     -10.407  12.260  63.478  1.00  0.00    -0.410 C  
BRANCH  18  19
HETATM   19  N   UNL     1     -10.298  13.578  64.113  1.00  0.00    -0.708 NA 
HETATM   20  H   UNL     1     -10.608  14.311  63.475  1.00  0.00     0.000 HD 
BRANCH  19  21
HETATM   21  C   UNL     1     -11.003  13.676  65.396  1.00  0.00    -0.298 C  
HETATM   22  C   UNL     1     -10.996  15.093  65.973  1.00  0.00    -0.332 C  
HETATM   23  C   UNL     1     -12.451  13.230  65.169  1.00  0.00    -0.525 C  
ENDBRANCH  19  21
ENDBRANCH  18  19
ENDBRANCH  15  18
ENDBRANCH  14  15
ENDBRANCH  13  14
ENDBRANCH  10  13
ENDBRANCH   6   7
ENDBRANCH   5   6
ENDBRANCH   3   5
ENDBRANCH   2   3
TORSDOF 10
ENDMDL
MODEL       90
REMARK 921   NORMALIZED FREE ENERGY PREDICTED BY IDOCK:   -4.49 KCAL/MOL
REMARK 922        TOTAL FREE ENERGY PREDICTED BY IDOCK:   -7.99 KCAL/MOL
REMARK 923 INTER-LIGAND FREE ENERGY PREDICTED BY IDOCK:   -7.27 KCAL/MOL
REMARK 924 INTRA-LIGAND FREE ENERGY PREDICTED BY IDOCK:   -0.72 KCAL/MOL
REMARK 927      BINDING AFFINITY PREDICTED BY RF-SCORE:    0.00 PKD
ROOT
HETATM    1  C   UNL     1     -13.377   8.672  72.093  1.00  0.00    -0.396 C  
HETATM    2  O   UNL     1     -12.794   7.402  71.811  1.00  0.00    -0.332 OA 
ENDROOT
BRANCH   2   3
HETATM    3  C   UNL     1     -11.915   7.413  70.768  1.00  0.00    -0.230 C  
HETATM    4  O   UNL     1     -11.688   6.465  70.027  1.00  0.00    -0.429 OA 
BRANCH   3   5
HETATM    5  C   UNL     1     -11.261   8.761  70.689  1.00  0.00    -0.294 C  
BRANCH   5   6
HETATM    6  C   UNL     1     -10.939   9.171  69.248  1.00  0.00    -0.081 C  
BRANCH   6   7
HETATM    7  C   UNL     1     -11.230  10.628  68.962  1.00  0.00    -0.324 A  
HETATM    8  C   UNL     1     -11.013  11.165  67.693  1.00  0.00    -0.323 A  
HETATM    9  C   UNL     1     -11.263  12.507  67.429  1.00  0.00    -0.344 A  
HETATM   10  C   UNL     1     -11.756  13.352  68.423  1.00  0.00    -0.355 A  
HETATM   11  C   UNL     1     -11.768  11.463  69.955  1.00  0.00    -0.416 A  
HETATM   12  C   UNL     1     -12.023  12.818  69.685  1.00  0.00    -0.354 A  
BRANCH  10  13
HETATM   13  O   UNL     1     -12.008  14.692  68.244  1.00  0.00    -0.310 OA 
BRANCH  13  14
HETATM   14  C   UNL     1     -11.909  15.474  69.447  1.00  0.00    -0.374 C  
BRANCH  14  15
HETATM   15  C   UNL     1     -10.537  16.144  69.568  1.00  0.00    -0.306 C  
HETATM   16  O   UNL     1      -9.588  15.206  70.089  1.00  0.00    -0.466 OA 
HETATM   17  H   UNL     1      -8.737  15.621  70.164  1.00  0.00     0.000 HD 
BRANCH  15  18
HETATM   18  C   UNL     1     -10.027  16.704  68.228  1.00  0.00    -0.261 C  
BRANCH  18  19
HETATM   19  N   UNL     1     -10.877  17.792  67.730  1.00  0.00    -0.318 NA 
HETATM   20  H   UNL     1     -11.719  17.879  68.298  1.00  0.00     0.000 HD 
BRANCH  19  21
HETATM   21  C   UNL     1     -10.186  19.082  67.628  1.00  0.00    -0.400 C  
HETATM   22  C   UNL     1      -8.677  18.970  67.854  1.00  0.00    -0.333 C  
HETATM   23  C   UNL     1     -10.447  19.644  66.227  1.00  0.00    -0.621 C  
ENDBRANCH  19  21
ENDBRANCH  18  19
ENDBRANCH  15  18
ENDBRANCH  14  15
ENDBRANCH  13  14
ENDBRANCH  10  13
ENDBRANCH   6   7
ENDBRANCH   5   6
ENDBRANCH   3   5
ENDBRANCH   2   3
TORSDOF 10
ENDMDL
MODEL       91
REMARK 921   NORMALIZED FREE ENERGY PREDICTED BY IDOCK:   -4.49 KCAL/MOL
REMARK 922        TOTAL FREE ENERGY PREDICTED BY IDOCK:   -7.99 KCAL/MOL
REMARK 923 INTER-LIGAND FREE ENERGY PREDICTED BY IDOCK:   -7.00 KCAL/MOL
REMARK 924 INTRA-LIGAND FREE ENERGY PREDICTED BY IDOCK:   -0.99 KCAL/MOL
REMARK 927      BINDING AFFINITY PREDICTED BY RF-SCORE:    0.00 PKD
ROOT
HETATM    1  C   UNL     1     -10.548   4.618  72.388  1.00  0.00    -0.157 C  
HETATM    2  O   UNL     1     -10.942   5.454  73.473  1.00  0.00    -0.285 OA 
ENDROOT
BRANCH   2   3
HETATM    3  C   UNL     1     -10.791   6.787  73.231  1.00  0.00    -0.272 C  
HETATM    4  O   UNL     1      -9.990   7.521  73.796  1.00  0.00    -0.305 OA 
BRANCH   3   5
HETATM    5  C   UNL     1     -11.775   7.212  72.180  1.00  0.00    -0.322 C  
BRANCH   5   6
HETATM    6  C   UNL     1     -12.549   8.473  72.579  1.00  0.00    -0.346 C  
BRANCH   6   7
HETATM    7  C   UNL     1     -12.293   9.647  71.661  1.00  0.00    -0.489 A  
HETATM    8  C   UNL     1     -11.381   9.548  70.609  1.00  0.00    -0.364 A  
HETATM    9  C   UNL     1     -11.129  10.629  69.773  1.00  0.00    -0.358 A  
HETATM   10  C   UNL     1     -11.795  11.841  69.951  1.00  0.00    -0.348 A  
HETATM   11  C   UNL     1     -12.998  10.852  71.818  1.00  0.00    -0.557 A  
HETATM   12  C   UNL     1     -12.745  11.942  70.969  1.00  0.00    -0.354 A  
BRANCH  10  13
HETATM   13  O   UNL     1     -11.584  12.960  69.179  1.00  0.00    -0.285 OA 
BRANCH  13  14
HETATM   14  C   UNL     1     -10.808  12.719  67.992  1.00  0.00    -0.233 C  
BRANCH  14  15
HETATM   15  C   UNL     1     -11.134  13.735  66.895  1.00  0.00    -0.302 C  
HETATM   16  O   UNL     1     -12.500  14.150  67.014  1.00  0.00    -0.571 OA 
HETATM   17  H   UNL     1     -12.702  14.781  66.333  1.00  0.00     0.000 HD 
BRANCH  15  18
HETATM   18  C   UNL     1     -10.213  14.968  66.932  1.00  0.00    -0.258 C  
BRANCH  18  19
HETATM   19  N   UNL     1      -9.666  15.203  68.273  1.00  0.00    -0.215 NA 
HETATM   20  H   UNL     1      -8.666  15.003  68.293  1.00  0.00     0.000 HD 
BRANCH  19  21
HETATM   21  C   UNL     1      -9.934  16.549  68.793  1.00  0.00    -0.255 C  
HETATM   22  C   UNL     1     -10.445  17.512  67.719  1.00  0.00    -0.381 C  
HETATM   23  C   UNL     1     -10.985  16.422  69.899  1.00  0.00    -0.339 C  
ENDBRANCH  19  21
ENDBRANCH  18  19
ENDBRANCH  15  18
ENDBRANCH  14  15
ENDBRANCH  13  14
ENDBRANCH  10  13
ENDBRANCH   6   7
ENDBRANCH   5   6
ENDBRANCH   3   5
ENDBRANCH   2   3
TORSDOF 10
ENDMDL
MODEL       92
REMARK 921   NORMALIZED FREE ENERGY PREDICTED BY IDOCK:   -4.48 KCAL/MOL
REMARK 922        TOTAL FREE ENERGY PREDICTED BY IDOCK:   -7.97 KCAL/MOL
REMARK 923 INTER-LIGAND FREE ENERGY PREDICTED BY IDOCK:   -7.37 KCAL/MOL
REMARK 924 INTRA-LIGAND FREE ENERGY PREDICTED BY IDOCK:   -0.60 KCAL/MOL
REMARK 927      BINDING AFFINITY PREDICTED BY RF-SCORE:    0.00 PKD
ROOT
HETATM    1  C   UNL     1     -12.887  13.841  65.765  1.00  0.00    -0.379 C  
HETATM    2  O   UNL     1     -12.924  12.659  64.970  1.00  0.00    -0.812 OA 
ENDROOT
BRANCH   2   3
HETATM    3  C   UNL     1     -12.273  12.770  63.777  1.00  0.00    -0.489 C  
HETATM    4  O   UNL     1     -12.433  13.674  62.967  1.00  0.00    -0.719 OA 
BRANCH   3   5
HETATM    5  C   UNL     1     -11.347  11.601  63.609  1.00  0.00    -0.485 C  
BRANCH   5   6
HETATM    6  C   UNL     1      -9.988  11.829  64.280  1.00  0.00    -0.287 C  
BRANCH   6   7
HETATM    7  C   UNL     1      -9.951  11.379  65.724  1.00  0.00    -0.271 A  
HETATM    8  C   UNL     1      -9.888  12.309  66.762  1.00  0.00    -0.218 A  
HETATM    9  C   UNL     1      -9.836  11.900  68.090  1.00  0.00    -0.192 A  
HETATM   10  C   UNL     1      -9.865  10.547  68.423  1.00  0.00    -0.161 A  
HETATM   11  C   UNL     1     -10.024  10.016  66.055  1.00  0.00    -0.334 A  
HETATM   12  C   UNL     1      -9.976   9.605  67.398  1.00  0.00    -0.237 A  
BRANCH  10  13
HETATM   13  O   UNL     1      -9.797  10.065  69.709  1.00  0.00    -0.227 OA 
BRANCH  13  14
HETATM   14  C   UNL     1     -10.639   8.925  69.957  1.00  0.00    -0.220 C  
BRANCH  14  15
HETATM   15  C   UNL     1     -11.515   9.135  71.195  1.00  0.00    -0.318 C  
HETATM   16  O   UNL     1     -12.794   8.523  70.987  1.00  0.00    -0.495 OA 
HETATM   17  H   UNL     1     -13.338   8.654  71.755  1.00  0.00     0.000 HD 
BRANCH  15  18
HETATM   18  C   UNL     1     -10.876   8.576  72.478  1.00  0.00    -0.234 C  
BRANCH  18  19
HETATM   19  N   UNL     1     -11.759   7.622  73.160  1.00  0.00    -0.636 NA 
HETATM   20  H   UNL     1     -12.683   7.617  72.729  1.00  0.00     0.000 HD 
BRANCH  19  21
HETATM   21  C   UNL     1     -11.215   6.261  73.232  1.00  0.00    -0.014 C  
HETATM   22  C   UNL     1     -10.708   5.749  71.882  1.00  0.00    -0.297 C  
HETATM   23  C   UNL     1     -10.057   6.273  74.235  1.00  0.00    -0.349 C  
ENDBRANCH  19  21
ENDBRANCH  18  19
ENDBRANCH  15  18
ENDBRANCH  14  15
ENDBRANCH  13  14
ENDBRANCH  10  13
ENDBRANCH   6   7
ENDBRANCH   5   6
ENDBRANCH   3   5
ENDBRANCH   2   3
TORSDOF 10
ENDMDL
MODEL       93
REMARK 921   NORMALIZED FREE ENERGY PREDICTED BY IDOCK:   -4.46 KCAL/MOL
REMARK 922        TOTAL FREE ENERGY PREDICTED BY IDOCK:   -7.95 KCAL/MOL
REMARK 923 INTER-LIGAND FREE ENERGY PREDICTED BY IDOCK:   -7.28 KCAL/MOL
REMARK 924 INTRA-LIGAND FREE ENERGY PREDICTED BY IDOCK:   -0.67 KCAL/MOL
REMARK 927      BINDING AFFINITY PREDICTED BY RF-SCORE:    0.00 PKD
ROOT
HETATM    1  C   UNL     1     -12.461  12.157  63.473  1.00  0.00    -0.555 C  
HETATM    2  O   UNL     1     -12.966  12.626  64.721  1.00  0.00    -0.816 OA 
ENDROOT
BRANCH   2   3
HETATM    3  C   UNL     1     -12.625  13.914  65.010  1.00  0.00    -0.390 C  
HETATM    4  O   UNL     1     -12.597  14.835  64.204  1.00  0.00    -0.784 OA 
BRANCH   3   5
HETATM    5  C   UNL     1     -12.272  14.015  66.465  1.00  0.00    -0.485 C  
BRANCH   5   6
HETATM    6  C   UNL     1     -10.898  13.411  66.778  1.00  0.00    -0.286 C  
BRANCH   6   7
HETATM    7  C   UNL     1     -10.976  12.143  67.599  1.00  0.00    -0.289 A  
HETATM    8  C   UNL     1     -11.628  12.128  68.833  1.00  0.00    -0.377 A  
HETATM    9  C   UNL     1     -11.688  10.970  69.599  1.00  0.00    -0.401 A  
HETATM   10  C   UNL     1     -11.112   9.783  69.148  1.00  0.00    -0.123 A  
HETATM   11  C   UNL     1     -10.433  10.940  67.119  1.00  0.00    -0.281 A  
HETATM   12  C   UNL     1     -10.497   9.770  67.894  1.00  0.00    -0.288 A  
BRANCH  10  13
HETATM   13  O   UNL     1     -11.112   8.605  69.857  1.00  0.00    -0.218 OA 
BRANCH  13  14
HETATM   14  C   UNL     1      -9.800   8.068  70.105  1.00  0.00    -0.184 C  
BRANCH  14  15
HETATM   15  C   UNL     1      -9.472   8.063  71.601  1.00  0.00    -0.164 C  
HETATM   16  O   UNL     1      -8.772   9.265  71.944  1.00  0.00    -0.271 OA 
HETATM   17  H   UNL     1      -8.568   9.261  72.871  1.00  0.00     0.000 HD 
BRANCH  15  18
HETATM   18  C   UNL     1     -10.724   7.923  72.485  1.00  0.00    -0.328 C  
BRANCH  18  19
HETATM   19  N   UNL     1     -10.393   7.452  73.834  1.00  0.00    -0.394 NA 
HETATM   20  H   UNL     1     -10.893   7.995  74.538  1.00  0.00     0.000 HD 
BRANCH  19  21
HETATM   21  C   UNL     1     -10.622   6.016  74.031  1.00  0.00    -0.182 C  
HETATM   22  C   UNL     1     -11.502   5.397  72.943  1.00  0.00    -0.340 C  
HETATM   23  C   UNL     1      -9.257   5.320  74.033  1.00  0.00    -0.121 C  
ENDBRANCH  19  21
ENDBRANCH  18  19
ENDBRANCH  15  18
ENDBRANCH  14  15
ENDBRANCH  13  14
ENDBRANCH  10  13
ENDBRANCH   6   7
ENDBRANCH   5   6
ENDBRANCH   3   5
ENDBRANCH   2   3
TORSDOF 10
ENDMDL
MODEL       94
REMARK 921   NORMALIZED FREE ENERGY PREDICTED BY IDOCK:   -4.46 KCAL/MOL
REMARK 922        TOTAL FREE ENERGY PREDICTED BY IDOCK:   -7.95 KCAL/MOL
REMARK 923 INTER-LIGAND FREE ENERGY PREDICTED BY IDOCK:   -6.87 KCAL/MOL
REMARK 924 INTRA-LIGAND FREE ENERGY PREDICTED BY IDOCK:   -1.08 KCAL/MOL
REMARK 927      BINDING AFFINITY PREDICTED BY RF-SCORE:    0.00 PKD
ROOT
HETATM    1  C   UNL     1     -12.530  11.864  63.435  1.00  0.00    -0.463 C  
HETATM    2  O   UNL     1     -13.262  12.402  64.533  1.00  0.00    -0.834 OA 
ENDROOT
BRANCH   2   3
HETATM    3  C   UNL     1     -12.799  13.606  64.974  1.00  0.00    -0.272 C  
HETATM    4  O   UNL     1     -12.678  14.611  64.286  1.00  0.00    -0.679 OA 
BRANCH   3   5
HETATM    5  C   UNL     1     -12.443  13.495  66.428  1.00  0.00    -0.349 C  
BRANCH   5   6
HETATM    6  C   UNL     1     -10.969  13.137  66.645  1.00  0.00    -0.301 C  
BRANCH   6   7
HETATM    7  C   UNL     1     -10.733  11.653  66.820  1.00  0.00    -0.299 A  
HETATM    8  C   UNL     1     -10.201  10.886  65.783  1.00  0.00    -0.318 A  
HETATM    9  C   UNL     1      -9.998   9.519  65.932  1.00  0.00    -0.342 A  
HETATM   10  C   UNL     1     -10.304   8.877  67.131  1.00  0.00    -0.281 A  
HETATM   11  C   UNL     1     -11.003  11.020  68.044  1.00  0.00    -0.312 A  
HETATM   12  C   UNL     1     -10.793   9.639  68.194  1.00  0.00    -0.241 A  
BRANCH  10  13
HETATM   13  O   UNL     1     -10.151   7.528  67.347  1.00  0.00    -0.176 OA 
BRANCH  13  14
HETATM   14  C   UNL     1     -11.151   6.713  66.711  1.00  0.00    -0.123 C  
BRANCH  14  15
HETATM   15  C   UNL     1     -10.616   5.312  66.399  1.00  0.00    -0.276 C  
HETATM   16  O   UNL     1     -11.355   4.747  65.310  1.00  0.00    -0.928 OA 
HETATM   17  H   UNL     1     -11.024   3.878  65.117  1.00  0.00     0.000 HD 
BRANCH  15  18
HETATM   18  C   UNL     1      -9.115   5.309  66.063  1.00  0.00    -0.152 C  
BRANCH  18  19
HETATM   19  N   UNL     1      -8.784   6.287  65.020  1.00  0.00    -0.354 NA 
HETATM   20  H   UNL     1      -9.330   7.140  65.141  1.00  0.00     0.000 HD 
BRANCH  19  21
HETATM   21  C   UNL     1      -7.353   6.598  64.934  1.00  0.00    -0.080 C  
HETATM   22  C   UNL     1      -6.755   7.034  66.273  1.00  0.00    -0.053 C  
HETATM   23  C   UNL     1      -6.630   5.340  64.443  1.00  0.00    -0.042 C  
ENDBRANCH  19  21
ENDBRANCH  18  19
ENDBRANCH  15  18
ENDBRANCH  14  15
ENDBRANCH  13  14
ENDBRANCH  10  13
ENDBRANCH   6   7
ENDBRANCH   5   6
ENDBRANCH   3   5
ENDBRANCH   2   3
TORSDOF 10
ENDMDL
MODEL       95
REMARK 921   NORMALIZED FREE ENERGY PREDICTED BY IDOCK:   -4.45 KCAL/MOL
REMARK 922        TOTAL FREE ENERGY PREDICTED BY IDOCK:   -7.93 KCAL/MOL
REMARK 923 INTER-LIGAND FREE ENERGY PREDICTED BY IDOCK:   -7.06 KCAL/MOL
REMARK 924 INTRA-LIGAND FREE ENERGY PREDICTED BY IDOCK:   -0.87 KCAL/MOL
REMARK 927      BINDING AFFINITY PREDICTED BY RF-SCORE:    0.00 PKD
ROOT
HETATM    1  C   UNL     1     -10.481  15.746  66.942  1.00  0.00    -0.315 C  
HETATM    2  O   UNL     1     -10.126  15.554  68.309  1.00  0.00    -0.215 OA 
ENDROOT
BRANCH   2   3
HETATM    3  C   UNL     1     -10.541  16.555  69.137  1.00  0.00    -0.319 C  
HETATM    4  O   UNL     1     -10.548  17.747  68.856  1.00  0.00    -0.278 OA 
BRANCH   3   5
HETATM    5  C   UNL     1     -10.968  15.965  70.449  1.00  0.00    -0.361 C  
BRANCH   5   6
HETATM    6  C   UNL     1     -12.428  15.501  70.436  1.00  0.00    -0.443 C  
BRANCH   6   7
HETATM    7  C   UNL     1     -12.588  14.023  70.721  1.00  0.00    -0.431 A  
HETATM    8  C   UNL     1     -13.361  13.582  71.796  1.00  0.00    -0.480 A  
HETATM    9  C   UNL     1     -13.498  12.227  72.073  1.00  0.00    -0.418 A  
HETATM   10  C   UNL     1     -12.880  11.267  71.271  1.00  0.00    -0.389 A  
HETATM   11  C   UNL     1     -11.999  13.061  69.885  1.00  0.00    -0.381 A  
HETATM   12  C   UNL     1     -12.142  11.691  70.164  1.00  0.00    -0.414 A  
BRANCH  10  13
HETATM   13  O   UNL     1     -12.952   9.912  71.493  1.00  0.00    -0.359 OA 
BRANCH  13  14
HETATM   14  C   UNL     1     -11.724   9.327  71.962  1.00  0.00    -0.266 C  
BRANCH  14  15
HETATM   15  C   UNL     1     -11.356   8.079  71.155  1.00  0.00    -0.266 C  
HETATM   16  O   UNL     1     -12.522   7.572  70.494  1.00  0.00    -0.529 OA 
HETATM   17  H   UNL     1     -12.293   6.798  69.993  1.00  0.00     0.000 HD 
BRANCH  15  18
HETATM   18  C   UNL     1     -10.248   8.344  70.119  1.00  0.00    -0.195 C  
BRANCH  18  19
HETATM   19  N   UNL     1     -10.747   8.239  68.743  1.00  0.00    -0.407 NA 
HETATM   20  H   UNL     1     -11.757   8.383  68.715  1.00  0.00     0.000 HD 
BRANCH  19  21
HETATM   21  C   UNL     1     -10.071   9.137  67.800  1.00  0.00    -0.203 C  
HETATM   22  C   UNL     1      -8.605   9.387  68.160  1.00  0.00    -0.120 C  
HETATM   23  C   UNL     1     -10.147   8.498  66.410  1.00  0.00    -0.271 C  
ENDBRANCH  19  21
ENDBRANCH  18  19
ENDBRANCH  15  18
ENDBRANCH  14  15
ENDBRANCH  13  14
ENDBRANCH  10  13
ENDBRANCH   6   7
ENDBRANCH   5   6
ENDBRANCH   3   5
ENDBRANCH   2   3
TORSDOF 10
ENDMDL
MODEL       96
REMARK 921   NORMALIZED FREE ENERGY PREDICTED BY IDOCK:   -4.45 KCAL/MOL
REMARK 922        TOTAL FREE ENERGY PREDICTED BY IDOCK:   -7.92 KCAL/MOL
REMARK 923 INTER-LIGAND FREE ENERGY PREDICTED BY IDOCK:   -7.32 KCAL/MOL
REMARK 924 INTRA-LIGAND FREE ENERGY PREDICTED BY IDOCK:   -0.60 KCAL/MOL
REMARK 927      BINDING AFFINITY PREDICTED BY RF-SCORE:    0.00 PKD
ROOT
HETATM    1  C   UNL     1     -10.872   6.276  73.329  1.00  0.00    -0.244 C  
HETATM    2  O   UNL     1     -11.221   5.792  72.035  1.00  0.00    -0.265 OA 
ENDROOT
BRANCH   2   3
HETATM    3  C   UNL     1     -11.923   6.683  71.279  1.00  0.00    -0.355 C  
HETATM    4  O   UNL     1     -12.765   7.463  71.706  1.00  0.00    -0.327 OA 
BRANCH   3   5
HETATM    5  C   UNL     1     -11.515   6.540  69.842  1.00  0.00    -0.467 C  
BRANCH   5   6
HETATM    6  C   UNL     1     -10.136   7.148  69.562  1.00  0.00    -0.182 C  
BRANCH   6   7
HETATM    7  C   UNL     1     -10.168   8.251  68.526  1.00  0.00    -0.234 A  
HETATM    8  C   UNL     1      -9.896   7.981  67.185  1.00  0.00    -0.274 A  
HETATM    9  C   UNL     1      -9.907   8.993  66.232  1.00  0.00    -0.361 A  
HETATM   10  C   UNL     1     -10.210  10.307  66.588  1.00  0.00    -0.233 A  
HETATM   11  C   UNL     1     -10.517   9.564  68.883  1.00  0.00    -0.235 A  
HETATM   12  C   UNL     1     -10.531  10.585  67.918  1.00  0.00    -0.247 A  
BRANCH  10  13
HETATM   13  O   UNL     1     -10.220  11.364  65.708  1.00  0.00    -0.231 OA 
BRANCH  13  14
HETATM   14  C   UNL     1     -10.616  11.012  64.371  1.00  0.00    -0.325 C  
BRANCH  14  15
HETATM   15  C   UNL     1     -11.610  12.025  63.797  1.00  0.00    -0.476 C  
HETATM   16  O   UNL     1     -12.537  11.354  62.936  1.00  0.00    -0.970 OA 
HETATM   17  H   UNL     1     -13.154  11.983  62.579  1.00  0.00     0.000 HD 
BRANCH  15  18
HETATM   18  C   UNL     1     -12.378  12.791  64.888  1.00  0.00    -0.490 C  
BRANCH  18  19
HETATM   19  N   UNL     1     -11.806  14.120  65.132  1.00  0.00    -0.355 NA 
HETATM   20  H   UNL     1     -12.544  14.820  65.211  1.00  0.00     0.000 HD 
BRANCH  19  21
HETATM   21  C   UNL     1     -10.914  14.176  66.295  1.00  0.00    -0.303 C  
HETATM   22  C   UNL     1      -9.774  15.182  66.125  1.00  0.00    -0.338 C  
HETATM   23  C   UNL     1     -11.757  14.569  67.512  1.00  0.00    -0.413 C  
ENDBRANCH  19  21
ENDBRANCH  18  19
ENDBRANCH  15  18
ENDBRANCH  14  15
ENDBRANCH  13  14
ENDBRANCH  10  13
ENDBRANCH   6   7
ENDBRANCH   5   6
ENDBRANCH   3   5
ENDBRANCH   2   3
TORSDOF 10
ENDMDL
MODEL       97
REMARK 921   NORMALIZED FREE ENERGY PREDICTED BY IDOCK:   -4.45 KCAL/MOL
REMARK 922        TOTAL FREE ENERGY PREDICTED BY IDOCK:   -7.92 KCAL/MOL
REMARK 923 INTER-LIGAND FREE ENERGY PREDICTED BY IDOCK:   -6.98 KCAL/MOL
REMARK 924 INTRA-LIGAND FREE ENERGY PREDICTED BY IDOCK:   -0.95 KCAL/MOL
REMARK 927      BINDING AFFINITY PREDICTED BY RF-SCORE:    0.00 PKD
ROOT
HETATM    1  C   UNL     1      -7.815   9.371  64.289  1.00  0.00    -0.124 C  
HETATM    2  O   UNL     1      -8.557  10.518  64.693  1.00  0.00    -0.177 OA 
ENDROOT
BRANCH   2   3
HETATM    3  C   UNL     1      -9.426  10.979  63.749  1.00  0.00    -0.258 C  
HETATM    4  O   UNL     1      -9.149  11.184  62.574  1.00  0.00    -0.330 OA 
BRANCH   3   5
HETATM    5  C   UNL     1     -10.766  11.214  64.384  1.00  0.00    -0.388 C  
BRANCH   5   6
HETATM    6  C   UNL     1     -10.747  12.383  65.375  1.00  0.00    -0.317 C  
BRANCH   6   7
HETATM    7  C   UNL     1     -11.073  11.970  66.793  1.00  0.00    -0.353 A  
HETATM    8  C   UNL     1     -10.970  10.637  67.192  1.00  0.00    -0.312 A  
HETATM    9  C   UNL     1     -11.285  10.249  68.489  1.00  0.00    -0.271 A  
HETATM   10  C   UNL     1     -11.695  11.187  69.436  1.00  0.00    -0.332 A  
HETATM   11  C   UNL     1     -11.444  12.925  67.754  1.00  0.00    -0.369 A  
HETATM   12  C   UNL     1     -11.757  12.532  69.066  1.00  0.00    -0.368 A  
BRANCH  10  13
HETATM   13  O   UNL     1     -12.043  10.878  70.730  1.00  0.00    -0.322 OA 
BRANCH  13  14
HETATM   14  C   UNL     1     -11.597   9.581  71.165  1.00  0.00    -0.367 C  
BRANCH  14  15
HETATM   15  C   UNL     1     -12.776   8.690  71.566  1.00  0.00    -0.316 C  
HETATM   16  O   UNL     1     -13.938   9.064  70.816  1.00  0.00    -0.537 OA 
HETATM   17  H   UNL     1     -14.670   8.512  71.065  1.00  0.00     0.000 HD 
BRANCH  15  18
HETATM   18  C   UNL     1     -12.488   7.192  71.360  1.00  0.00    -0.388 C  
BRANCH  18  19
HETATM   19  N   UNL     1     -12.167   6.882  69.962  1.00  0.00    -0.591 NA 
HETATM   20  H   UNL     1     -12.091   7.738  69.413  1.00  0.00     0.000 HD 
BRANCH  19  21
HETATM   21  C   UNL     1     -10.966   6.056  69.801  1.00  0.00    -0.401 C  
HETATM   22  C   UNL     1      -9.867   6.751  68.993  1.00  0.00    -0.152 C  
HETATM   23  C   UNL     1     -10.433   5.727  71.199  1.00  0.00    -0.301 C  
ENDBRANCH  19  21
ENDBRANCH  18  19
ENDBRANCH  15  18
ENDBRANCH  14  15
ENDBRANCH  13  14
ENDBRANCH  10  13
ENDBRANCH   6   7
ENDBRANCH   5   6
ENDBRANCH   3   5
ENDBRANCH   2   3
TORSDOF 10
ENDMDL
MODEL       98
REMARK 921   NORMALIZED FREE ENERGY PREDICTED BY IDOCK:   -4.44 KCAL/MOL
REMARK 922        TOTAL FREE ENERGY PREDICTED BY IDOCK:   -7.91 KCAL/MOL
REMARK 923 INTER-LIGAND FREE ENERGY PREDICTED BY IDOCK:   -7.06 KCAL/MOL
REMARK 924 INTRA-LIGAND FREE ENERGY PREDICTED BY IDOCK:   -0.85 KCAL/MOL
REMARK 927      BINDING AFFINITY PREDICTED BY RF-SCORE:    0.00 PKD
ROOT
HETATM    1  C   UNL     1      -6.742  18.226  66.283  1.00  0.00    -0.234 C  
HETATM    2  O   UNL     1      -7.696  19.009  65.570  1.00  0.00    -0.436 OA 
ENDROOT
BRANCH   2   3
HETATM    3  C   UNL     1      -8.318  19.955  66.329  1.00  0.00    -0.340 C  
HETATM    4  O   UNL     1      -7.777  20.640  67.188  1.00  0.00    -0.325 OA 
BRANCH   3   5
HETATM    5  C   UNL     1      -9.771  20.007  65.959  1.00  0.00    -0.464 C  
BRANCH   5   6
HETATM    6  C   UNL     1     -10.677  19.450  67.062  1.00  0.00    -0.582 C  
BRANCH   6   7
HETATM    7  C   UNL     1     -10.363  18.015  67.426  1.00  0.00    -0.391 A  
HETATM    8  C   UNL     1     -10.058  17.661  68.741  1.00  0.00    -0.377 A  
HETATM    9  C   UNL     1      -9.752  16.348  69.078  1.00  0.00    -0.262 A  
HETATM   10  C   UNL     1      -9.759  15.341  68.113  1.00  0.00    -0.212 A  
HETATM   11  C   UNL     1     -10.415  16.999  66.458  1.00  0.00    -0.250 A  
HETATM   12  C   UNL     1     -10.109  15.671  66.802  1.00  0.00    -0.277 A  
BRANCH  10  13
HETATM   13  O   UNL     1      -9.448  14.026  68.365  1.00  0.00    -0.209 OA 
BRANCH  13  14
HETATM   14  C   UNL     1     -10.592  13.163  68.483  1.00  0.00    -0.259 C  
BRANCH  14  15
HETATM   15  C   UNL     1     -10.203  11.692  68.308  1.00  0.00    -0.199 C  
HETATM   16  O   UNL     1     -10.151  11.053  69.589  1.00  0.00    -0.440 OA 
HETATM   17  H   UNL     1      -9.910  10.140  69.481  1.00  0.00     0.000 HD 
BRANCH  15  18
HETATM   18  C   UNL     1     -11.169  10.926  67.387  1.00  0.00    -0.273 C  
BRANCH  18  19
HETATM   19  N   UNL     1     -11.555  11.720  66.215  1.00  0.00    -0.460 NA 
HETATM   20  H   UNL     1     -11.896  12.638  66.500  1.00  0.00     0.000 HD 
BRANCH  19  21
HETATM   21  C   UNL     1     -10.491  11.852  65.214  1.00  0.00    -0.275 C  
HETATM   22  C   UNL     1     -10.192  10.540  64.484  1.00  0.00    -0.355 C  
HETATM   23  C   UNL     1     -10.934  12.906  64.195  1.00  0.00    -0.442 C  
ENDBRANCH  19  21
ENDBRANCH  18  19
ENDBRANCH  15  18
ENDBRANCH  14  15
ENDBRANCH  13  14
ENDBRANCH  10  13
ENDBRANCH   6   7
ENDBRANCH   5   6
ENDBRANCH   3   5
ENDBRANCH   2   3
TORSDOF 10
ENDMDL
MODEL       99
REMARK 921   NORMALIZED FREE ENERGY PREDICTED BY IDOCK:   -4.44 KCAL/MOL
REMARK 922        TOTAL FREE ENERGY PREDICTED BY IDOCK:   -7.91 KCAL/MOL
REMARK 923 INTER-LIGAND FREE ENERGY PREDICTED BY IDOCK:   -7.34 KCAL/MOL
REMARK 924 INTRA-LIGAND FREE ENERGY PREDICTED BY IDOCK:   -0.57 KCAL/MOL
REMARK 927      BINDING AFFINITY PREDICTED BY RF-SCORE:    0.00 PKD
ROOT
HETATM    1  C   UNL     1      -9.953   4.795  65.833  1.00  0.00    -0.228 C  
HETATM    2  O   UNL     1      -9.426   6.078  66.163  1.00  0.00    -0.154 OA 
ENDROOT
BRANCH   2   3
HETATM    3  C   UNL     1     -10.313   6.898  66.795  1.00  0.00    -0.217 C  
HETATM    4  O   UNL     1     -11.445   6.582  67.140  1.00  0.00    -0.221 OA 
BRANCH   3   5
HETATM    5  C   UNL     1      -9.689   8.250  66.980  1.00  0.00    -0.274 C  
BRANCH   5   6
HETATM    6  C   UNL     1      -9.092   8.802  65.681  1.00  0.00    -0.247 C  
BRANCH   6   7
HETATM    7  C   UNL     1      -9.855   9.985  65.128  1.00  0.00    -0.388 A  
HETATM    8  C   UNL     1     -10.599  10.813  65.969  1.00  0.00    -0.224 A  
HETATM    9  C   UNL     1     -11.316  11.892  65.464  1.00  0.00    -0.334 A  
HETATM   10  C   UNL     1     -11.297  12.189  64.101  1.00  0.00    -0.380 A  
HETATM   11  C   UNL     1      -9.796  10.305  63.761  1.00  0.00    -0.219 A  
HETATM   12  C   UNL     1     -10.518  11.398  63.253  1.00  0.00    -0.397 A  
BRANCH  10  13
HETATM   13  O   UNL     1     -11.995  13.224  63.525  1.00  0.00    -0.512 OA 
BRANCH  13  14
HETATM   14  C   UNL     1     -12.269  14.317  64.418  1.00  0.00    -0.447 C  
BRANCH  14  15
HETATM   15  C   UNL     1     -11.039  15.209  64.605  1.00  0.00    -0.324 C  
HETATM   16  O   UNL     1     -11.234  16.448  63.912  1.00  0.00    -1.383 OA 
HETATM   17  H   UNL     1     -10.470  17.002  64.028  1.00  0.00     0.000 HD 
BRANCH  15  18
HETATM   18  C   UNL     1     -10.724  15.488  66.085  1.00  0.00    -0.313 C  
BRANCH  18  19
HETATM   19  N   UNL     1     -10.361  16.892  66.314  1.00  0.00    -0.320 NA 
HETATM   20  H   UNL     1     -11.075  17.361  66.871  1.00  0.00     0.000 HD 
BRANCH  19  21
HETATM   21  C   UNL     1      -9.036  17.069  66.917  1.00  0.00    -0.229 C  
HETATM   22  C   UNL     1      -8.155  15.823  66.800  1.00  0.00    -0.297 C  
HETATM   23  C   UNL     1      -8.351  18.240  66.206  1.00  0.00    -0.230 C  
ENDBRANCH  19  21
ENDBRANCH  18  19
ENDBRANCH  15  18
ENDBRANCH  14  15
ENDBRANCH  13  14
ENDBRANCH  10  13
ENDBRANCH   6   7
ENDBRANCH   5   6
ENDBRANCH   3   5
ENDBRANCH   2   3
TORSDOF 10
ENDMDL
MODEL      100
REMARK 921   NORMALIZED FREE ENERGY PREDICTED BY IDOCK:   -4.43 KCAL/MOL
REMARK 922        TOTAL FREE ENERGY PREDICTED BY IDOCK:   -7.90 KCAL/MOL
REMARK 923 INTER-LIGAND FREE ENERGY PREDICTED BY IDOCK:   -7.40 KCAL/MOL
REMARK 924 INTRA-LIGAND FREE ENERGY PREDICTED BY IDOCK:   -0.49 KCAL/MOL
REMARK 927      BINDING AFFINITY PREDICTED BY RF-SCORE:    0.00 PKD
ROOT
HETATM    1  C   UNL     1     -10.866   6.393  68.967  1.00  0.00    -0.327 C  
HETATM    2  O   UNL     1     -11.674   6.288  70.136  1.00  0.00    -0.398 OA 
ENDROOT
BRANCH   2   3
HETATM    3  C   UNL     1     -10.969   6.052  71.280  1.00  0.00    -0.278 C  
HETATM    4  O   UNL     1     -10.769   4.948  71.771  1.00  0.00    -0.144 OA 
BRANCH   3   5
HETATM    5  C   UNL     1     -10.498   7.359  71.847  1.00  0.00    -0.229 C  
BRANCH   5   6
HETATM    6  C   UNL     1     -11.658   8.260  72.283  1.00  0.00    -0.449 C  
BRANCH   6   7
HETATM    7  C   UNL     1     -11.772   9.527  71.463  1.00  0.00    -0.472 A  
HETATM    8  C   UNL     1     -12.731  10.493  71.770  1.00  0.00    -0.508 A  
HETATM    9  C   UNL     1     -12.852  11.651  71.010  1.00  0.00    -0.339 A  
HETATM   10  C   UNL     1     -12.003  11.888  69.929  1.00  0.00    -0.325 A  
HETATM   11  C   UNL     1     -10.886   9.781  70.403  1.00  0.00    -0.370 A  
HETATM   12  C   UNL     1     -11.007  10.954  69.639  1.00  0.00    -0.311 A  
BRANCH  10  13
HETATM   13  O   UNL     1     -12.074  12.997  69.119  1.00  0.00    -0.276 OA 
BRANCH  13  14
HETATM   14  C   UNL     1     -12.097  14.246  69.833  1.00  0.00    -0.347 C  
BRANCH  14  15
HETATM   15  C   UNL     1     -10.790  15.021  69.646  1.00  0.00    -0.271 C  
HETATM   16  O   UNL     1      -9.734  14.110  69.318  1.00  0.00    -0.418 OA 
HETATM   17  H   UNL     1      -8.922  14.591  69.203  1.00  0.00     0.000 HD 
BRANCH  15  18
HETATM   18  C   UNL     1     -10.891  16.109  68.562  1.00  0.00    -0.313 C  
BRANCH  18  19
HETATM   19  N   UNL     1     -10.769  17.458  69.126  1.00  0.00    -0.350 NA 
HETATM   20  H   UNL     1     -10.411  17.418  70.081  1.00  0.00     0.000 HD 
BRANCH  19  21
HETATM   21  C   UNL     1      -9.961  18.370  68.309  1.00  0.00    -0.369 C  
HETATM   22  C   UNL     1     -10.569  18.632  66.929  1.00  0.00    -0.437 C  
HETATM   23  C   UNL     1      -9.840  19.695  69.067  1.00  0.00    -0.471 C  
ENDBRANCH  19  21
ENDBRANCH  18  19
ENDBRANCH  15  18
ENDBRANCH  14  15
ENDBRANCH  13  14
ENDBRANCH  10  13
ENDBRANCH   6   7
ENDBRANCH   5   6
ENDBRANCH   3   5
ENDBRANCH   2   3
TORSDOF 10
ENDMDL
MODEL      101
REMARK 921   NORMALIZED FREE ENERGY PREDICTED BY IDOCK:   -4.43 KCAL/MOL
REMARK 922        TOTAL FREE ENERGY PREDICTED BY IDOCK:   -7.89 KCAL/MOL
REMARK 923 INTER-LIGAND FREE ENERGY PREDICTED BY IDOCK:   -6.92 KCAL/MOL
REMARK 924 INTRA-LIGAND FREE ENERGY PREDICTED BY IDOCK:   -0.97 KCAL/MOL
REMARK 927      BINDING AFFINITY PREDICTED BY RF-SCORE:    0.00 PKD
ROOT
HETATM    1  C   UNL     1     -10.897  15.831  64.928  1.00  0.00    -0.413 C  
HETATM    2  O   UNL     1     -11.599  14.704  64.408  1.00  0.00    -0.367 OA 
ENDROOT
BRANCH   2   3
HETATM    3  C   UNL     1     -12.278  13.989  65.350  1.00  0.00    -0.439 C  
HETATM    4  O   UNL     1     -13.489  14.022  65.524  1.00  0.00    -0.677 OA 
BRANCH   3   5
HETATM    5  C   UNL     1     -11.303  13.174  66.148  1.00  0.00    -0.343 C  
BRANCH   5   6
HETATM    6  C   UNL     1     -10.797  11.949  65.379  1.00  0.00    -0.343 C  
BRANCH   6   7
HETATM    7  C   UNL     1     -10.498  10.764  66.272  1.00  0.00    -0.287 A  
HETATM    8  C   UNL     1     -10.773  10.811  67.639  1.00  0.00    -0.305 A  
HETATM    9  C   UNL     1     -10.485   9.732  68.466  1.00  0.00    -0.239 A  
HETATM   10  C   UNL     1      -9.929   8.562  67.949  1.00  0.00    -0.181 A  
HETATM   11  C   UNL     1      -9.979   9.573  65.738  1.00  0.00    -0.316 A  
HETATM   12  C   UNL     1      -9.692   8.482  66.576  1.00  0.00    -0.330 A  
BRANCH  10  13
HETATM   13  O   UNL     1      -9.598   7.463  68.706  1.00  0.00    -0.147 OA 
BRANCH  13  14
HETATM   14  C   UNL     1     -10.278   6.256  68.320  1.00  0.00    -0.169 C  
BRANCH  14  15
HETATM   15  C   UNL     1     -10.631   5.399  69.538  1.00  0.00    -0.246 C  
HETATM   16  O   UNL     1      -9.571   4.470  69.797  1.00  0.00    -0.162 OA 
HETATM   17  H   UNL     1      -9.790   3.938  70.552  1.00  0.00     0.000 HD 
BRANCH  15  18
HETATM   18  C   UNL     1     -10.903   6.238  70.799  1.00  0.00    -0.281 C  
BRANCH  18  19
HETATM   19  N   UNL     1     -12.163   6.983  70.700  1.00  0.00    -0.578 NA 
HETATM   20  H   UNL     1     -12.952   6.344  70.598  1.00  0.00     0.000 HD 
BRANCH  19  21
HETATM   21  C   UNL     1     -12.390   7.911  71.814  1.00  0.00    -0.320 C  
HETATM   22  C   UNL     1     -11.191   8.822  72.085  1.00  0.00    -0.408 C  
HETATM   23  C   UNL     1     -13.609   8.770  71.467  1.00  0.00    -0.374 C  
ENDBRANCH  19  21
ENDBRANCH  18  19
ENDBRANCH  15  18
ENDBRANCH  14  15
ENDBRANCH  13  14
ENDBRANCH  10  13
ENDBRANCH   6   7
ENDBRANCH   5   6
ENDBRANCH   3   5
ENDBRANCH   2   3
TORSDOF 10
ENDMDL
MODEL      102
REMARK 921   NORMALIZED FREE ENERGY PREDICTED BY IDOCK:   -4.43 KCAL/MOL
REMARK 922        TOTAL FREE ENERGY PREDICTED BY IDOCK:   -7.89 KCAL/MOL
REMARK 923 INTER-LIGAND FREE ENERGY PREDICTED BY IDOCK:   -6.95 KCAL/MOL
REMARK 924 INTRA-LIGAND FREE ENERGY PREDICTED BY IDOCK:   -0.94 KCAL/MOL
REMARK 927      BINDING AFFINITY PREDICTED BY RF-SCORE:    0.00 PKD
ROOT
HETATM    1  C   UNL     1      -8.039   5.455  65.518  1.00  0.00    -0.118 C  
HETATM    2  O   UNL     1      -8.063   4.498  66.574  1.00  0.00    -0.102 OA 
ENDROOT
BRANCH   2   3
HETATM    3  C   UNL     1      -9.090   3.604  66.492  1.00  0.00    -0.159 C  
HETATM    4  O   UNL     1      -9.655   3.270  65.459  1.00  0.00    -0.139 OA 
BRANCH   3   5
HETATM    5  C   UNL     1      -9.427   3.115  67.870  1.00  0.00    -0.215 C  
BRANCH   5   6
HETATM    6  C   UNL     1      -8.728   3.924  68.967  1.00  0.00    -0.133 C  
BRANCH   6   7
HETATM    7  C   UNL     1      -9.675   4.796  69.763  1.00  0.00    -0.272 A  
HETATM    8  C   UNL     1     -10.514   5.709  69.124  1.00  0.00    -0.339 A  
HETATM    9  C   UNL     1     -11.374   6.524  69.851  1.00  0.00    -0.469 A  
HETATM   10  C   UNL     1     -11.435   6.439  71.241  1.00  0.00    -0.314 A  
HETATM   11  C   UNL     1      -9.763   4.675  71.159  1.00  0.00    -0.252 A  
HETATM   12  C   UNL     1     -10.636   5.497  71.892  1.00  0.00    -0.293 A  
BRANCH  10  13
HETATM   13  O   UNL     1     -12.243   7.225  72.029  1.00  0.00    -0.299 OA 
BRANCH  13  14
HETATM   14  C   UNL     1     -13.486   7.599  71.409  1.00  0.00    -0.290 C  
BRANCH  14  15
HETATM   15  C   UNL     1     -14.014   8.922  71.969  1.00  0.00    -0.437 C  
HETATM   16  O   UNL     1     -14.052   8.858  73.400  1.00  0.00    -1.256 OA 
HETATM   17  H   UNL     1     -14.380   9.679  73.747  1.00  0.00     0.000 HD 
BRANCH  15  18
HETATM   18  C   UNL     1     -13.174  10.134  71.528  1.00  0.00    -0.399 C  
BRANCH  18  19
HETATM   19  N   UNL     1     -12.361   9.836  70.344  1.00  0.00    -0.484 NA 
HETATM   20  H   UNL     1     -12.837   9.165  69.740  1.00  0.00     0.000 HD 
BRANCH  19  21
HETATM   21  C   UNL     1     -11.966  11.026  69.582  1.00  0.00    -0.353 C  
HETATM   22  C   UNL     1     -12.076  12.318  70.395  1.00  0.00    -0.385 C  
HETATM   23  C   UNL     1     -10.514  10.834  69.133  1.00  0.00    -0.243 C  
ENDBRANCH  19  21
ENDBRANCH  18  19
ENDBRANCH  15  18
ENDBRANCH  14  15
ENDBRANCH  13  14
ENDBRANCH  10  13
ENDBRANCH   6   7
ENDBRANCH   5   6
ENDBRANCH   3   5
ENDBRANCH   2   3
TORSDOF 10
ENDMDL
MODEL      103
REMARK 921   NORMALIZED FREE ENERGY PREDICTED BY IDOCK:   -4.40 KCAL/MOL
REMARK 922        TOTAL FREE ENERGY PREDICTED BY IDOCK:   -7.86 KCAL/MOL
REMARK 923 INTER-LIGAND FREE ENERGY PREDICTED BY IDOCK:   -7.23 KCAL/MOL
REMARK 924 INTRA-LIGAND FREE ENERGY PREDICTED BY IDOCK:   -0.63 KCAL/MOL
REMARK 927      BINDING AFFINITY PREDICTED BY RF-SCORE:    0.00 PKD
ROOT
HETATM    1  C   UNL     1      -8.005   6.502  67.579  1.00  0.00    -0.114 C  
HETATM    2  O   UNL     1      -8.963   6.471  66.524  1.00  0.00    -0.134 OA 
ENDROOT
BRANCH   2   3
HETATM    3  C   UNL     1     -10.124   7.128  66.807  1.00  0.00    -0.208 C  
HETATM    4  O   UNL     1     -11.209   6.594  66.999  1.00  0.00    -0.404 OA 
BRANCH   3   5
HETATM    5  C   UNL     1      -9.863   8.605  66.824  1.00  0.00    -0.322 C  
BRANCH   5   6
HETATM    6  C   UNL     1     -10.646   9.326  67.926  1.00  0.00    -0.288 C  
BRANCH   6   7
HETATM    7  C   UNL     1     -10.535  10.833  67.852  1.00  0.00    -0.233 A  
HETATM    8  C   UNL     1      -9.335  11.478  68.157  1.00  0.00    -0.185 A  
HETATM    9  C   UNL     1      -9.232  12.863  68.106  1.00  0.00    -0.212 A  
HETATM   10  C   UNL     1     -10.322  13.648  67.731  1.00  0.00    -0.241 A  
HETATM   11  C   UNL     1     -11.623  11.616  67.431  1.00  0.00    -0.330 A  
HETATM   12  C   UNL     1     -11.515  13.015  67.377  1.00  0.00    -0.380 A  
BRANCH  10  13
HETATM   13  O   UNL     1     -10.303  15.022  67.677  1.00  0.00    -0.240 OA 
BRANCH  13  14
HETATM   14  C   UNL     1     -11.427  15.651  68.319  1.00  0.00    -0.350 C  
BRANCH  14  15
HETATM   15  C   UNL     1     -11.285  15.628  69.843  1.00  0.00    -0.331 C  
HETATM   16  O   UNL     1     -10.932  16.934  70.313  1.00  0.00    -0.385 OA 
HETATM   17  H   UNL     1     -10.843  16.920  71.259  1.00  0.00     0.000 HD 
BRANCH  15  18
HETATM   18  C   UNL     1     -12.565  15.152  70.554  1.00  0.00    -0.380 C  
BRANCH  18  19
HETATM   19  N   UNL     1     -12.906  16.003  71.699  1.00  0.00    -0.507 NA 
HETATM   20  H   UNL     1     -13.567  16.729  71.423  1.00  0.00     0.000 HD 
BRANCH  19  21
HETATM   21  C   UNL     1     -13.410  15.260  72.859  1.00  0.00    -0.514 C  
HETATM   22  C   UNL     1     -13.635  13.775  72.564  1.00  0.00    -0.680 C  
HETATM   23  C   UNL     1     -12.383  15.400  73.987  1.00  0.00    -0.792 C  
ENDBRANCH  19  21
ENDBRANCH  18  19
ENDBRANCH  15  18
ENDBRANCH  14  15
ENDBRANCH  13  14
ENDBRANCH  10  13
ENDBRANCH   6   7
ENDBRANCH   5   6
ENDBRANCH   3   5
ENDBRANCH   2   3
TORSDOF 10
ENDMDL
MODEL      104
REMARK 921   NORMALIZED FREE ENERGY PREDICTED BY IDOCK:   -4.38 KCAL/MOL
REMARK 922        TOTAL FREE ENERGY PREDICTED BY IDOCK:   -7.82 KCAL/MOL
REMARK 923 INTER-LIGAND FREE ENERGY PREDICTED BY IDOCK:   -6.68 KCAL/MOL
REMARK 924 INTRA-LIGAND FREE ENERGY PREDICTED BY IDOCK:   -1.15 KCAL/MOL
REMARK 927      BINDING AFFINITY PREDICTED BY RF-SCORE:    0.00 PKD
ROOT
HETATM    1  C   UNL     1      -6.131  19.604  70.154  1.00  0.00    -0.281 C  
HETATM    2  O   UNL     1      -6.694  19.969  68.897  1.00  0.00    -0.307 OA 
ENDROOT
BRANCH   2   3
HETATM    3  C   UNL     1      -7.794  19.243  68.548  1.00  0.00    -0.348 C  
HETATM    4  O   UNL     1      -8.925  19.693  68.417  1.00  0.00    -0.342 OA 
BRANCH   3   5
HETATM    5  C   UNL     1      -7.400  17.806  68.371  1.00  0.00    -0.257 C  
BRANCH   5   6
HETATM    6  C   UNL     1      -8.474  16.838  68.881  1.00  0.00    -0.217 C  
BRANCH   6   7
HETATM    7  C   UNL     1      -9.342  16.273  67.777  1.00  0.00    -0.216 A  
HETATM    8  C   UNL     1     -10.708  16.069  67.976  1.00  0.00    -0.309 A  
HETATM    9  C   UNL     1     -11.507  15.535  66.972  1.00  0.00    -0.036 A  
HETATM   10  C   UNL     1     -10.968  15.205  65.729  1.00  0.00    -0.349 A  
HETATM   11  C   UNL     1      -8.802  15.984  66.513  1.00  0.00    -0.340 A  
HETATM   12  C   UNL     1      -9.613  15.448  65.498  1.00  0.00    -0.253 A  
BRANCH  10  13
HETATM   13  O   UNL     1     -11.689  14.654  64.695  1.00  0.00    -0.404 OA 
BRANCH  13  14
HETATM   14  C   UNL     1     -12.643  13.659  65.107  1.00  0.00    -0.430 C  
BRANCH  14  15
HETATM   15  C   UNL     1     -12.131  12.244  64.829  1.00  0.00    -0.365 C  
HETATM   16  O   UNL     1     -11.459  12.216  63.564  1.00  0.00    -0.460 OA 
HETATM   17  H   UNL     1     -11.141  11.337  63.391  1.00  0.00     0.000 HD 
BRANCH  15  18
HETATM   18  C   UNL     1     -11.187  11.724  65.928  1.00  0.00    -0.290 C  
BRANCH  18  19
HETATM   19  N   UNL     1     -11.875  11.571  67.215  1.00  0.00    -0.604 NA 
HETATM   20  H   UNL     1     -11.985  10.584  67.448  1.00  0.00     0.000 HD 
BRANCH  19  21
HETATM   21  C   UNL     1     -11.234  12.295  68.318  1.00  0.00    -0.267 C  
HETATM   22  C   UNL     1     -11.634  11.761  69.695  1.00  0.00    -0.393 C  
HETATM   23  C   UNL     1      -9.718  12.163  68.146  1.00  0.00    -0.208 C  
ENDBRANCH  19  21
ENDBRANCH  18  19
ENDBRANCH  15  18
ENDBRANCH  14  15
ENDBRANCH  13  14
ENDBRANCH  10  13
ENDBRANCH   6   7
ENDBRANCH   5   6
ENDBRANCH   3   5
ENDBRANCH   2   3
TORSDOF 10
ENDMDL
MODEL      105
REMARK 921   NORMALIZED FREE ENERGY PREDICTED BY IDOCK:   -4.36 KCAL/MOL
REMARK 922        TOTAL FREE ENERGY PREDICTED BY IDOCK:   -7.79 KCAL/MOL
REMARK 923 INTER-LIGAND FREE ENERGY PREDICTED BY IDOCK:   -7.26 KCAL/MOL
REMARK 924 INTRA-LIGAND FREE ENERGY PREDICTED BY IDOCK:   -0.53 KCAL/MOL
REMARK 927      BINDING AFFINITY PREDICTED BY RF-SCORE:    0.00 PKD
ROOT
HETATM    1  C   UNL     1     -10.107  15.302  66.507  1.00  0.00    -0.270 C  
HETATM    2  O   UNL     1      -9.717  15.506  67.863  1.00  0.00    -0.210 OA 
ENDROOT
BRANCH   2   3
HETATM    3  C   UNL     1     -10.533  16.352  68.555  1.00  0.00    -0.291 C  
HETATM    4  O   UNL     1     -11.015  17.387  68.113  1.00  0.00    -0.334 OA 
BRANCH   3   5
HETATM    5  C   UNL     1     -10.726  15.823  69.946  1.00  0.00    -0.332 C  
BRANCH   5   6
HETATM    6  C   UNL     1     -12.202  15.587  70.283  1.00  0.00    -0.432 C  
BRANCH   6   7
HETATM    7  C   UNL     1     -12.493  14.174  70.737  1.00  0.00    -0.436 A  
HETATM    8  C   UNL     1     -13.345  13.930  71.815  1.00  0.00    -0.461 A  
HETATM    9  C   UNL     1     -13.603  12.634  72.247  1.00  0.00    -0.508 A  
HETATM   10  C   UNL     1     -13.030  11.538  71.603  1.00  0.00    -0.394 A  
HETATM   11  C   UNL     1     -11.948  13.072  70.057  1.00  0.00    -0.383 A  
HETATM   12  C   UNL     1     -12.213  11.763  70.493  1.00  0.00    -0.438 A  
BRANCH  10  13
HETATM   13  O   UNL     1     -13.220  10.231  71.984  1.00  0.00    -0.450 OA 
BRANCH  13  14
HETATM   14  C   UNL     1     -12.049   9.404  71.857  1.00  0.00    -0.357 C  
BRANCH  14  15
HETATM   15  C   UNL     1     -12.390   8.042  71.246  1.00  0.00    -0.271 C  
HETATM   16  O   UNL     1     -11.717   7.896  69.990  1.00  0.00    -0.471 OA 
HETATM   17  H   UNL     1     -11.929   7.051  69.611  1.00  0.00     0.000 HD 
BRANCH  15  18
HETATM   18  C   UNL     1     -12.022   6.867  72.169  1.00  0.00    -0.267 C  
BRANCH  18  19
HETATM   19  N   UNL     1     -10.678   6.349  71.889  1.00  0.00    -0.218 NA 
HETATM   20  H   UNL     1      -9.966   6.963  72.285  1.00  0.00     0.000 HD 
BRANCH  19  21
HETATM   21  C   UNL     1     -10.473   4.966  72.334  1.00  0.00    -0.209 C  
HETATM   22  C   UNL     1      -9.043   4.472  72.106  1.00  0.00    -0.153 C  
HETATM   23  C   UNL     1     -10.797   4.902  73.829  1.00  0.00    -0.376 C  
ENDBRANCH  19  21
ENDBRANCH  18  19
ENDBRANCH  15  18
ENDBRANCH  14  15
ENDBRANCH  13  14
ENDBRANCH  10  13
ENDBRANCH   6   7
ENDBRANCH   5   6
ENDBRANCH   3   5
ENDBRANCH   2   3
TORSDOF 10
ENDMDL
MODEL      106
REMARK 921   NORMALIZED FREE ENERGY PREDICTED BY IDOCK:   -4.36 KCAL/MOL
REMARK 922        TOTAL FREE ENERGY PREDICTED BY IDOCK:   -7.79 KCAL/MOL
REMARK 923 INTER-LIGAND FREE ENERGY PREDICTED BY IDOCK:   -6.79 KCAL/MOL
REMARK 924 INTRA-LIGAND FREE ENERGY PREDICTED BY IDOCK:   -1.00 KCAL/MOL
REMARK 927      BINDING AFFINITY PREDICTED BY RF-SCORE:    0.00 PKD
ROOT
HETATM    1  C   UNL     1      -6.510  18.426  65.446  1.00  0.00    -0.214 C  
HETATM    2  O   UNL     1      -7.445  19.500  65.397  1.00  0.00    -0.416 OA 
ENDROOT
BRANCH   2   3
HETATM    3  C   UNL     1      -7.455  20.281  66.515  1.00  0.00    -0.259 C  
HETATM    4  O   UNL     1      -6.561  21.047  66.849  1.00  0.00    -0.288 OA 
BRANCH   3   5
HETATM    5  C   UNL     1      -8.725  20.035  67.277  1.00  0.00    -0.417 C  
BRANCH   5   6
HETATM    6  C   UNL     1      -8.545  19.005  68.398  1.00  0.00    -0.383 C  
BRANCH   6   7
HETATM    7  C   UNL     1      -9.134  17.652  68.066  1.00  0.00    -0.267 A  
HETATM    8  C   UNL     1      -8.418  16.480  68.315  1.00  0.00    -0.199 A  
HETATM    9  C   UNL     1      -8.947  15.234  67.996  1.00  0.00    -0.171 A  
HETATM   10  C   UNL     1     -10.219  15.120  67.435  1.00  0.00    -0.235 A  
HETATM   11  C   UNL     1     -10.432  17.540  67.541  1.00  0.00    -0.355 A  
HETATM   12  C   UNL     1     -10.967  16.280  67.224  1.00  0.00    -0.144 A  
BRANCH  10  13
HETATM   13  O   UNL     1     -10.800  13.927  67.074  1.00  0.00    -0.282 OA 
BRANCH  13  14
HETATM   14  C   UNL     1     -12.105  14.063  66.484  1.00  0.00    -0.459 C  
BRANCH  14  15
HETATM   15  C   UNL     1     -12.151  13.450  65.081  1.00  0.00    -0.409 C  
HETATM   16  O   UNL     1     -11.602  14.374  64.134  1.00  0.00    -0.616 OA 
HETATM   17  H   UNL     1     -11.631  13.993  63.264  1.00  0.00     0.000 HD 
BRANCH  15  18
HETATM   18  C   UNL     1     -11.399  12.110  64.992  1.00  0.00    -0.328 C  
BRANCH  18  19
HETATM   19  N   UNL     1      -9.984  12.296  64.650  1.00  0.00    -0.438 NA 
HETATM   20  H   UNL     1      -9.502  12.813  65.385  1.00  0.00     0.000 HD 
BRANCH  19  21
HETATM   21  C   UNL     1      -9.279  11.045  64.351  1.00  0.00    -0.158 C  
HETATM   22  C   UNL     1      -9.744   9.875  65.221  1.00  0.00    -0.383 C  
HETATM   23  C   UNL     1      -9.526  10.709  62.878  1.00  0.00    -0.367 C  
ENDBRANCH  19  21
ENDBRANCH  18  19
ENDBRANCH  15  18
ENDBRANCH  14  15
ENDBRANCH  13  14
ENDBRANCH  10  13
ENDBRANCH   6   7
ENDBRANCH   5   6
ENDBRANCH   3   5
ENDBRANCH   2   3
TORSDOF 10
ENDMDL
MODEL      107
REMARK 921   NORMALIZED FREE ENERGY PREDICTED BY IDOCK:   -4.35 KCAL/MOL
REMARK 922        TOTAL FREE ENERGY PREDICTED BY IDOCK:   -7.76 KCAL/MOL
REMARK 923 INTER-LIGAND FREE ENERGY PREDICTED BY IDOCK:   -7.01 KCAL/MOL
REMARK 924 INTRA-LIGAND FREE ENERGY PREDICTED BY IDOCK:   -0.76 KCAL/MOL
REMARK 927      BINDING AFFINITY PREDICTED BY RF-SCORE:    0.00 PKD
ROOT
HETATM    1  C   UNL     1     -11.692  15.847  71.449  1.00  0.00    -0.467 C  
HETATM    2  O   UNL     1     -12.473  15.901  70.258  1.00  0.00    -0.339 OA 
ENDROOT
BRANCH   2   3
HETATM    3  C   UNL     1     -11.766  15.661  69.117  1.00  0.00    -0.390 C  
HETATM    4  O   UNL     1     -10.958  16.430  68.612  1.00  0.00    -0.313 OA 
BRANCH   3   5
HETATM    5  C   UNL     1     -12.151  14.317  68.572  1.00  0.00    -0.295 C  
BRANCH   5   6
HETATM    6  C   UNL     1     -11.049  13.270  68.764  1.00  0.00    -0.303 C  
BRANCH   6   7
HETATM    7  C   UNL     1     -11.451  12.141  69.688  1.00  0.00    -0.308 A  
HETATM    8  C   UNL     1     -10.742  10.939  69.699  1.00  0.00    -0.232 A  
HETATM    9  C   UNL     1     -11.118   9.892  70.533  1.00  0.00    -0.398 A  
HETATM   10  C   UNL     1     -12.205  10.020  71.397  1.00  0.00    -0.416 A  
HETATM   11  C   UNL     1     -12.519  12.292  70.587  1.00  0.00    -0.323 A  
HETATM   12  C   UNL     1     -12.895  11.234  71.432  1.00  0.00    -0.515 A  
BRANCH  10  13
HETATM   13  O   UNL     1     -12.649   9.024  72.235  1.00  0.00    -0.380 OA 
BRANCH  13  14
HETATM   14  C   UNL     1     -11.680   7.991  72.486  1.00  0.00    -0.387 C  
BRANCH  14  15
HETATM   15  C   UNL     1     -12.108   6.660  71.862  1.00  0.00    -0.340 C  
HETATM   16  O   UNL     1     -13.058   6.902  70.817  1.00  0.00    -0.479 OA 
HETATM   17  H   UNL     1     -13.324   6.075  70.431  1.00  0.00     0.000 HD 
BRANCH  15  18
HETATM   18  C   UNL     1     -10.921   5.853  71.306  1.00  0.00    -0.259 C  
BRANCH  18  19
HETATM   19  N   UNL     1     -10.267   6.541  70.188  1.00  0.00    -0.188 NA 
HETATM   20  H   UNL     1      -9.264   6.627  70.356  1.00  0.00     0.000 HD 
BRANCH  19  21
HETATM   21  C   UNL     1     -10.520   5.920  68.883  1.00  0.00    -0.259 C  
HETATM   22  C   UNL     1     -10.994   6.922  67.827  1.00  0.00    -0.280 C  
HETATM   23  C   UNL     1      -9.214   5.271  68.412  1.00  0.00    -0.135 C  
ENDBRANCH  19  21
ENDBRANCH  18  19
ENDBRANCH  15  18
ENDBRANCH  14  15
ENDBRANCH  13  14
ENDBRANCH  10  13
ENDBRANCH   6   7
ENDBRANCH   5   6
ENDBRANCH   3   5
ENDBRANCH   2   3
TORSDOF 10
ENDMDL
MODEL      108
REMARK 921   NORMALIZED FREE ENERGY PREDICTED BY IDOCK:   -4.35 KCAL/MOL
REMARK 922        TOTAL FREE ENERGY PREDICTED BY IDOCK:   -7.76 KCAL/MOL
REMARK 923 INTER-LIGAND FREE ENERGY PREDICTED BY IDOCK:   -7.13 KCAL/MOL
REMARK 924 INTRA-LIGAND FREE ENERGY PREDICTED BY IDOCK:   -0.64 KCAL/MOL
REMARK 927      BINDING AFFINITY PREDICTED BY RF-SCORE:    0.00 PKD
ROOT
HETATM    1  C   UNL     1     -10.249  19.883  66.001  1.00  0.00    -0.487 C  
HETATM    2  O   UNL     1     -10.391  18.882  67.005  1.00  0.00    -0.358 OA 
ENDROOT
BRANCH   2   3
HETATM    3  C   UNL     1      -9.209  18.452  67.533  1.00  0.00    -0.272 C  
HETATM    4  O   UNL     1      -8.144  19.050  67.459  1.00  0.00    -0.263 OA 
BRANCH   3   5
HETATM    5  C   UNL     1      -9.421  17.123  68.197  1.00  0.00    -0.269 C  
BRANCH   5   6
HETATM    6  C   UNL     1     -10.898  16.850  68.503  1.00  0.00    -0.335 C  
BRANCH   6   7
HETATM    7  C   UNL     1     -11.245  15.378  68.507  1.00  0.00    -0.321 A  
HETATM    8  C   UNL     1     -11.184  14.625  67.334  1.00  0.00    -0.351 A  
HETATM    9  C   UNL     1     -11.518  13.276  67.328  1.00  0.00    -0.378 A  
HETATM   10  C   UNL     1     -11.908  12.631  68.501  1.00  0.00    -0.300 A  
HETATM   11  C   UNL     1     -11.595  14.723  69.700  1.00  0.00    -0.342 A  
HETATM   12  C   UNL     1     -11.929  13.359  69.693  1.00  0.00    -0.386 A  
BRANCH  10  13
HETATM   13  O   UNL     1     -12.274  11.307  68.571  1.00  0.00    -0.588 OA 
BRANCH  13  14
HETATM   14  C   UNL     1     -11.227  10.388  68.212  1.00  0.00    -0.267 C  
BRANCH  14  15
HETATM   15  C   UNL     1     -10.538   9.813  69.453  1.00  0.00    -0.228 C  
HETATM   16  O   UNL     1      -9.361  10.576  69.746  1.00  0.00    -0.418 OA 
HETATM   17  H   UNL     1      -8.933  10.220  70.515  1.00  0.00     0.000 HD 
BRANCH  15  18
HETATM   18  C   UNL     1     -11.457   9.786  70.686  1.00  0.00    -0.324 C  
BRANCH  18  19
HETATM   19  N   UNL     1     -11.007   8.809  71.684  1.00  0.00    -0.295 NA 
HETATM   20  H   UNL     1     -11.260   9.112  72.625  1.00  0.00     0.000 HD 
BRANCH  19  21
HETATM   21  C   UNL     1     -11.486   7.445  71.435  1.00  0.00    -0.263 C  
HETATM   22  C   UNL     1     -10.951   6.430  72.447  1.00  0.00    -0.284 C  
HETATM   23  C   UNL     1     -13.016   7.467  71.503  1.00  0.00    -0.400 C  
ENDBRANCH  19  21
ENDBRANCH  18  19
ENDBRANCH  15  18
ENDBRANCH  14  15
ENDBRANCH  13  14
ENDBRANCH  10  13
ENDBRANCH   6   7
ENDBRANCH   5   6
ENDBRANCH   3   5
ENDBRANCH   2   3
TORSDOF 10
ENDMDL
MODEL      109
REMARK 921   NORMALIZED FREE ENERGY PREDICTED BY IDOCK:   -4.32 KCAL/MOL
REMARK 922        TOTAL FREE ENERGY PREDICTED BY IDOCK:   -7.73 KCAL/MOL
REMARK 923 INTER-LIGAND FREE ENERGY PREDICTED BY IDOCK:   -6.70 KCAL/MOL
REMARK 924 INTRA-LIGAND FREE ENERGY PREDICTED BY IDOCK:   -1.03 KCAL/MOL
REMARK 927      BINDING AFFINITY PREDICTED BY RF-SCORE:    0.00 PKD
ROOT
HETATM    1  C   UNL     1     -10.442  12.199  63.493  1.00  0.00    -0.454 C  
HETATM    2  O   UNL     1     -10.523  11.284  64.583  1.00  0.00    -0.289 OA 
ENDROOT
BRANCH   2   3
HETATM    3  C   UNL     1     -11.495  11.585  65.491  1.00  0.00    -0.004 C  
HETATM    4  O   UNL     1     -12.568  12.112  65.227  1.00  0.00    -0.494 OA 
BRANCH   3   5
HETATM    5  C   UNL     1     -11.031  11.185  66.861  1.00  0.00    -0.333 C  
BRANCH   5   6
HETATM    6  C   UNL     1     -11.159  12.325  67.878  1.00  0.00    -0.290 C  
BRANCH   6   7
HETATM    7  C   UNL     1     -10.510  13.612  67.418  1.00  0.00    -0.251 A  
HETATM    8  C   UNL     1      -9.147  13.659  67.122  1.00  0.00    -0.241 A  
HETATM    9  C   UNL     1      -8.542  14.843  66.716  1.00  0.00    -0.256 A  
HETATM   10  C   UNL     1      -9.285  16.015  66.574  1.00  0.00    -0.276 A  
HETATM   11  C   UNL     1     -11.272  14.777  67.235  1.00  0.00    -0.351 A  
HETATM   12  C   UNL     1     -10.659  15.972  66.821  1.00  0.00    -0.297 A  
BRANCH  10  13
HETATM   13  O   UNL     1      -8.755  17.226  66.198  1.00  0.00    -0.425 OA 
BRANCH  13  14
HETATM   14  C   UNL     1      -9.630  18.346  66.421  1.00  0.00    -0.310 C  
BRANCH  14  15
HETATM   15  C   UNL     1      -8.934  19.672  66.100  1.00  0.00    -0.334 C  
HETATM   16  O   UNL     1      -9.893  20.607  65.590  1.00  0.00    -0.549 OA 
HETATM   17  H   UNL     1      -9.461  21.429  65.391  1.00  0.00     0.000 HD 
BRANCH  15  18
HETATM   18  C   UNL     1      -8.218  20.279  67.319  1.00  0.00    -0.343 C  
BRANCH  18  19
HETATM   19  N   UNL     1      -8.277  19.394  68.488  1.00  0.00    -0.351 NA 
HETATM   20  H   UNL     1      -8.733  18.513  68.249  1.00  0.00     0.000 HD 
BRANCH  19  21
HETATM   21  C   UNL     1      -6.972  19.148  69.110  1.00  0.00    -0.326 C  
HETATM   22  C   UNL     1      -6.584  17.667  69.120  1.00  0.00    -0.251 C  
HETATM   23  C   UNL     1      -5.922  19.939  68.325  1.00  0.00    -0.274 C  
ENDBRANCH  19  21
ENDBRANCH  18  19
ENDBRANCH  15  18
ENDBRANCH  14  15
ENDBRANCH  13  14
ENDBRANCH  10  13
ENDBRANCH   6   7
ENDBRANCH   5   6
ENDBRANCH   3   5
ENDBRANCH   2   3
TORSDOF 10
ENDMDL
MODEL      110
REMARK 921   NORMALIZED FREE ENERGY PREDICTED BY IDOCK:   -4.32 KCAL/MOL
REMARK 922        TOTAL FREE ENERGY PREDICTED BY IDOCK:   -7.72 KCAL/MOL
REMARK 923 INTER-LIGAND FREE ENERGY PREDICTED BY IDOCK:   -6.78 KCAL/MOL
REMARK 924 INTRA-LIGAND FREE ENERGY PREDICTED BY IDOCK:   -0.95 KCAL/MOL
REMARK 927      BINDING AFFINITY PREDICTED BY RF-SCORE:    0.00 PKD
ROOT
HETATM    1  C   UNL     1      -8.402   8.832  62.446  1.00  0.00    -0.203 C  
HETATM    2  O   UNL     1      -8.965   9.515  63.563  1.00  0.00    -0.233 OA 
ENDROOT
BRANCH   2   3
HETATM    3  C   UNL     1      -9.457  10.752  63.268  1.00  0.00    -0.326 C  
HETATM    4  O   UNL     1      -8.893  11.591  62.577  1.00  0.00    -0.319 OA 
BRANCH   3   5
HETATM    5  C   UNL     1     -10.786  10.928  63.942  1.00  0.00    -0.052 C  
BRANCH   5   6
HETATM    6  C   UNL     1     -11.425  12.286  63.632  1.00  0.00    -0.572 C  
BRANCH   6   7
HETATM    7  C   UNL     1     -11.321  13.270  64.776  1.00  0.00    -0.350 A  
HETATM    8  C   UNL     1     -10.325  14.247  64.790  1.00  0.00    -0.373 A  
HETATM    9  C   UNL     1     -10.213  15.144  65.847  1.00  0.00    -0.345 A  
HETATM   10  C   UNL     1     -11.107  15.103  66.916  1.00  0.00    -0.314 A  
HETATM   11  C   UNL     1     -12.250  13.253  65.829  1.00  0.00    -0.510 A  
HETATM   12  C   UNL     1     -12.138  14.162  66.894  1.00  0.00    -0.466 A  
BRANCH  10  13
HETATM   13  O   UNL     1     -11.049  15.941  68.005  1.00  0.00    -0.328 OA 
BRANCH  13  14
HETATM   14  C   UNL     1     -10.164  15.491  69.047  1.00  0.00    -0.229 C  
BRANCH  14  15
HETATM   15  C   UNL     1      -8.851  16.280  69.044  1.00  0.00    -0.243 C  
HETATM   16  O   UNL     1      -7.911  15.646  68.169  1.00  0.00    -0.124 OA 
HETATM   17  H   UNL     1      -7.096  16.135  68.168  1.00  0.00     0.000 HD 
BRANCH  15  18
HETATM   18  C   UNL     1      -9.039  17.749  68.625  1.00  0.00    -0.260 C  
BRANCH  18  19
HETATM   19  N   UNL     1      -8.738  17.957  67.205  1.00  0.00    -0.238 NA 
HETATM   20  H   UNL     1      -9.068  17.168  66.648  1.00  0.00     0.000 HD 
BRANCH  19  21
HETATM   21  C   UNL     1      -9.257  19.220  66.669  1.00  0.00    -0.338 C  
HETATM   22  C   UNL     1     -10.777  19.346  66.803  1.00  0.00    -0.550 C  
HETATM   23  C   UNL     1      -8.587  20.364  67.436  1.00  0.00    -0.403 C  
ENDBRANCH  19  21
ENDBRANCH  18  19
ENDBRANCH  15  18
ENDBRANCH  14  15
ENDBRANCH  13  14
ENDBRANCH  10  13
ENDBRANCH   6   7
ENDBRANCH   5   6
ENDBRANCH   3   5
ENDBRANCH   2   3
TORSDOF 10
ENDMDL
MODEL      111
REMARK 921   NORMALIZED FREE ENERGY PREDICTED BY IDOCK:   -4.32 KCAL/MOL
REMARK 922        TOTAL FREE ENERGY PREDICTED BY IDOCK:   -7.72 KCAL/MOL
REMARK 923 INTER-LIGAND FREE ENERGY PREDICTED BY IDOCK:   -6.77 KCAL/MOL
REMARK 924 INTRA-LIGAND FREE ENERGY PREDICTED BY IDOCK:   -0.95 KCAL/MOL
REMARK 927      BINDING AFFINITY PREDICTED BY RF-SCORE:    0.00 PKD
ROOT
HETATM    1  C   UNL     1     -10.420   5.257  66.568  1.00  0.00    -0.298 C  
HETATM    2  O   UNL     1     -11.288   6.139  67.274  1.00  0.00    -0.193 OA 
ENDROOT
BRANCH   2   3
HETATM    3  C   UNL     1     -10.883   6.419  68.545  1.00  0.00    -0.314 C  
HETATM    4  O   UNL     1     -11.614   6.462  69.526  1.00  0.00    -0.404 OA 
BRANCH   3   5
HETATM    5  C   UNL     1      -9.406   6.685  68.545  1.00  0.00    -0.125 C  
BRANCH   5   6
HETATM    6  C   UNL     1      -9.080   8.182  68.607  1.00  0.00    -0.143 C  
BRANCH   6   7
HETATM    7  C   UNL     1      -9.393   8.916  67.322  1.00  0.00    -0.173 A  
HETATM    8  C   UNL     1     -10.348   9.932  67.292  1.00  0.00    -0.303 A  
HETATM    9  C   UNL     1     -10.651  10.598  66.110  1.00  0.00    -0.211 A  
HETATM   10  C   UNL     1      -9.995  10.281  64.922  1.00  0.00    -0.323 A  
HETATM   11  C   UNL     1      -8.697   8.622  66.137  1.00  0.00    -0.180 A  
HETATM   12  C   UNL     1      -9.002   9.299  64.945  1.00  0.00    -0.229 A  
BRANCH  10  13
HETATM   13  O   UNL     1     -10.254  10.880  63.711  1.00  0.00    -0.331 OA 
BRANCH  13  14
HETATM   14  C   UNL     1     -10.282  12.317  63.760  1.00  0.00    -0.402 C  
BRANCH  14  15
HETATM   15  C   UNL     1     -11.682  12.860  63.463  1.00  0.00    -0.512 C  
HETATM   16  O   UNL     1     -12.571  11.771  63.184  1.00  0.00    -0.881 OA 
HETATM   17  H   UNL     1     -13.440  12.108  62.999  1.00  0.00     0.000 HD 
BRANCH  15  18
HETATM   18  C   UNL     1     -12.250  13.708  64.615  1.00  0.00    -0.409 C  
BRANCH  18  19
HETATM   19  N   UNL     1     -11.265  13.911  65.683  1.00  0.00    -0.303 NA 
HETATM   20  H   UNL     1     -10.466  14.445  65.339  1.00  0.00     0.000 HD 
BRANCH  19  21
HETATM   21  C   UNL     1     -11.821  14.534  66.890  1.00  0.00    -0.377 C  
HETATM   22  C   UNL     1     -11.883  13.575  68.081  1.00  0.00    -0.400 C  
HETATM   23  C   UNL     1     -10.935  15.730  67.250  1.00  0.00    -0.259 C  
ENDBRANCH  19  21
ENDBRANCH  18  19
ENDBRANCH  15  18
ENDBRANCH  14  15
ENDBRANCH  13  14
ENDBRANCH  10  13
ENDBRANCH   6   7
ENDBRANCH   5   6
ENDBRANCH   3   5
ENDBRANCH   2   3
TORSDOF 10
ENDMDL
MODEL      112
REMARK 921   NORMALIZED FREE ENERGY PREDICTED BY IDOCK:   -4.31 KCAL/MOL
REMARK 922        TOTAL FREE ENERGY PREDICTED BY IDOCK:   -7.71 KCAL/MOL
REMARK 923 INTER-LIGAND FREE ENERGY PREDICTED BY IDOCK:   -7.01 KCAL/MOL
REMARK 924 INTRA-LIGAND FREE ENERGY PREDICTED BY IDOCK:   -0.70 KCAL/MOL
REMARK 927      BINDING AFFINITY PREDICTED BY RF-SCORE:    0.00 PKD
ROOT
HETATM    1  C   UNL     1     -10.372  19.955  67.710  1.00  0.00    -0.407 C  
HETATM    2  O   UNL     1      -9.309  20.778  67.238  1.00  0.00    -0.397 OA 
ENDROOT
BRANCH   2   3
HETATM    3  C   UNL     1      -8.299  20.090  66.633  1.00  0.00    -0.317 C  
HETATM    4  O   UNL     1      -8.167  19.948  65.424  1.00  0.00    -0.246 OA 
BRANCH   3   5
HETATM    5  C   UNL     1      -7.392  19.519  67.683  1.00  0.00    -0.277 C  
BRANCH   5   6
HETATM    6  C   UNL     1      -6.634  18.281  67.193  1.00  0.00    -0.203 C  
BRANCH   6   7
HETATM    7  C   UNL     1      -7.338  16.982  67.516  1.00  0.00    -0.175 A  
HETATM    8  C   UNL     1      -7.980  16.249  66.517  1.00  0.00    -0.326 A  
HETATM    9  C   UNL     1      -8.643  15.063  66.811  1.00  0.00    -0.279 A  
HETATM   10  C   UNL     1      -8.669  14.561  68.112  1.00  0.00    -0.171 A  
HETATM   11  C   UNL     1      -7.323  16.459  68.819  1.00  0.00    -0.203 A  
HETATM   12  C   UNL     1      -7.990  15.259  69.114  1.00  0.00    -0.214 A  
BRANCH  10  13
HETATM   13  O   UNL     1      -9.320  13.409  68.484  1.00  0.00    -0.181 OA 
BRANCH  13  14
HETATM   14  C   UNL     1     -10.745  13.451  68.296  1.00  0.00    -0.258 C  
BRANCH  14  15
HETATM   15  C   UNL     1     -11.382  14.586  69.102  1.00  0.00    -0.277 C  
HETATM   16  O   UNL     1     -12.309  15.301  68.276  1.00  0.00    -0.507 OA 
HETATM   17  H   UNL     1     -12.704  16.006  68.777  1.00  0.00     0.000 HD 
BRANCH  15  18
HETATM   18  C   UNL     1     -12.097  14.087  70.371  1.00  0.00    -0.356 C  
BRANCH  18  19
HETATM   19  N   UNL     1     -11.544  14.694  71.587  1.00  0.00    -0.466 NA 
HETATM   20  H   UNL     1     -10.718  15.251  71.366  1.00  0.00     0.000 HD 
BRANCH  19  21
HETATM   21  C   UNL     1     -12.516  15.487  72.347  1.00  0.00    -0.401 C  
HETATM   22  C   UNL     1     -13.964  15.072  72.080  1.00  0.00    -0.610 C  
HETATM   23  C   UNL     1     -12.205  15.307  73.836  1.00  0.00    -0.735 C  
ENDBRANCH  19  21
ENDBRANCH  18  19
ENDBRANCH  15  18
ENDBRANCH  14  15
ENDBRANCH  13  14
ENDBRANCH  10  13
ENDBRANCH   6   7
ENDBRANCH   5   6
ENDBRANCH   3   5
ENDBRANCH   2   3
TORSDOF 10
ENDMDL
MODEL      113
REMARK 921   NORMALIZED FREE ENERGY PREDICTED BY IDOCK:   -4.30 KCAL/MOL
REMARK 922        TOTAL FREE ENERGY PREDICTED BY IDOCK:   -7.70 KCAL/MOL
REMARK 923 INTER-LIGAND FREE ENERGY PREDICTED BY IDOCK:   -6.15 KCAL/MOL
REMARK 924 INTRA-LIGAND FREE ENERGY PREDICTED BY IDOCK:   -1.55 KCAL/MOL
REMARK 927      BINDING AFFINITY PREDICTED BY RF-SCORE:    0.00 PKD
ROOT
HETATM    1  C   UNL     1     -12.607  12.126  63.346  1.00  0.00    -0.463 C  
HETATM    2  O   UNL     1     -13.042  12.624  64.608  1.00  0.00    -0.821 OA 
ENDROOT
BRANCH   2   3
HETATM    3  C   UNL     1     -12.618  13.891  64.882  1.00  0.00    -0.347 C  
HETATM    4  O   UNL     1     -12.740  14.854  64.136  1.00  0.00    -0.750 OA 
BRANCH   3   5
HETATM    5  C   UNL     1     -11.963  13.910  66.232  1.00  0.00    -0.462 C  
BRANCH   5   6
HETATM    6  C   UNL     1     -10.523  13.387  66.192  1.00  0.00    -0.295 C  
BRANCH   6   7
HETATM    7  C   UNL     1     -10.268  12.261  67.170  1.00  0.00    -0.224 A  
HETATM    8  C   UNL     1      -9.076  12.197  67.892  1.00  0.00    -0.185 A  
HETATM    9  C   UNL     1      -8.829  11.156  68.780  1.00  0.00    -0.128 A  
HETATM   10  C   UNL     1      -9.776  10.154  68.988  1.00  0.00    -0.206 A  
HETATM   11  C   UNL     1     -11.244  11.279  67.408  1.00  0.00    -0.370 A  
HETATM   12  C   UNL     1     -10.994  10.230  68.309  1.00  0.00    -0.315 A  
BRANCH  10  13
HETATM   13  O   UNL     1      -9.596   9.083  69.832  1.00  0.00    -0.169 OA 
BRANCH  13  14
HETATM   14  C   UNL     1     -10.450   7.960  69.548  1.00  0.00    -0.226 C  
BRANCH  14  15
HETATM   15  C   UNL     1      -9.648   6.660  69.449  1.00  0.00    -0.145 C  
HETATM   16  O   UNL     1     -10.499   5.546  69.746  1.00  0.00    -0.270 OA 
HETATM   17  H   UNL     1     -10.002   4.739  69.685  1.00  0.00     0.000 HD 
BRANCH  15  18
HETATM   18  C   UNL     1      -9.001   6.462  68.067  1.00  0.00    -0.115 C  
BRANCH  18  19
HETATM   19  N   UNL     1      -9.619   7.315  67.045  1.00  0.00    -0.156 NA 
HETATM   20  H   UNL     1     -10.174   8.052  67.479  1.00  0.00     0.000 HD 
BRANCH  19  21
HETATM   21  C   UNL     1      -8.660   7.884  66.091  1.00  0.00    -0.150 C  
HETATM   22  C   UNL     1      -9.183   9.145  65.400  1.00  0.00    -0.266 C  
HETATM   23  C   UNL     1      -7.380   8.225  66.861  1.00  0.00    -0.084 C  
ENDBRANCH  19  21
ENDBRANCH  18  19
ENDBRANCH  15  18
ENDBRANCH  14  15
ENDBRANCH  13  14
ENDBRANCH  10  13
ENDBRANCH   6   7
ENDBRANCH   5   6
ENDBRANCH   3   5
ENDBRANCH   2   3
TORSDOF 10
ENDMDL
MODEL      114
REMARK 921   NORMALIZED FREE ENERGY PREDICTED BY IDOCK:   -4.30 KCAL/MOL
REMARK 922        TOTAL FREE ENERGY PREDICTED BY IDOCK:   -7.70 KCAL/MOL
REMARK 923 INTER-LIGAND FREE ENERGY PREDICTED BY IDOCK:   -6.89 KCAL/MOL
REMARK 924 INTRA-LIGAND FREE ENERGY PREDICTED BY IDOCK:   -0.80 KCAL/MOL
REMARK 927      BINDING AFFINITY PREDICTED BY RF-SCORE:    0.00 PKD
ROOT
HETATM    1  C   UNL     1     -11.223   4.838  73.110  1.00  0.00    -0.308 C  
HETATM    2  O   UNL     1     -11.338   6.220  72.784  1.00  0.00    -0.254 OA 
ENDROOT
BRANCH   2   3
HETATM    3  C   UNL     1     -12.107   6.470  71.686  1.00  0.00    -0.328 C  
HETATM    4  O   UNL     1     -13.271   6.852  71.710  1.00  0.00    -0.348 OA 
BRANCH   3   5
HETATM    5  C   UNL     1     -11.308   6.183  70.449  1.00  0.00    -0.399 C  
BRANCH   5   6
HETATM    6  C   UNL     1     -10.180   7.198  70.232  1.00  0.00    -0.207 C  
BRANCH   6   7
HETATM    7  C   UNL     1     -10.668   8.534  69.716  1.00  0.00    -0.213 A  
HETATM    8  C   UNL     1     -11.125   9.516  70.596  1.00  0.00    -0.364 A  
HETATM    9  C   UNL     1     -11.590  10.739  70.126  1.00  0.00    -0.424 A  
HETATM   10  C   UNL     1     -11.596  11.026  68.761  1.00  0.00    -0.318 A  
HETATM   11  C   UNL     1     -10.630   8.834  68.345  1.00  0.00    -0.185 A  
HETATM   12  C   UNL     1     -11.097  10.072  67.873  1.00  0.00    -0.260 A  
BRANCH  10  13
HETATM   13  O   UNL     1     -12.059  12.202  68.221  1.00  0.00    -0.407 OA 
BRANCH  13  14
HETATM   14  C   UNL     1     -11.763  13.369  69.009  1.00  0.00    -0.323 C  
BRANCH  14  15
HETATM   15  C   UNL     1     -12.114  14.656  68.256  1.00  0.00    -0.179 C  
HETATM   16  O   UNL     1     -12.142  15.756  69.173  1.00  0.00    -0.518 OA 
HETATM   17  H   UNL     1     -12.360  16.555  68.707  1.00  0.00     0.000 HD 
BRANCH  15  18
HETATM   18  C   UNL     1     -11.133  14.962  67.110  1.00  0.00    -0.332 C  
BRANCH  18  19
HETATM   19  N   UNL     1     -11.048  13.855  66.151  1.00  0.00    -0.297 NA 
HETATM   20  H   UNL     1     -10.877  12.973  66.633  1.00  0.00     0.000 HD 
BRANCH  19  21
HETATM   21  C   UNL     1     -12.217  13.745  65.271  1.00  0.00    -0.439 C  
HETATM   22  C   UNL     1     -12.308  14.884  64.253  1.00  0.00    -0.300 C  
HETATM   23  C   UNL     1     -12.119  12.409  64.528  1.00  0.00    -0.492 C  
ENDBRANCH  19  21
ENDBRANCH  18  19
ENDBRANCH  15  18
ENDBRANCH  14  15
ENDBRANCH  13  14
ENDBRANCH  10  13
ENDBRANCH   6   7
ENDBRANCH   5   6
ENDBRANCH   3   5
ENDBRANCH   2   3
TORSDOF 10
ENDMDL
MODEL      115
REMARK 921   NORMALIZED FREE ENERGY PREDICTED BY IDOCK:   -4.30 KCAL/MOL
REMARK 922        TOTAL FREE ENERGY PREDICTED BY IDOCK:   -7.69 KCAL/MOL
REMARK 923 INTER-LIGAND FREE ENERGY PREDICTED BY IDOCK:   -7.10 KCAL/MOL
REMARK 924 INTRA-LIGAND FREE ENERGY PREDICTED BY IDOCK:   -0.59 KCAL/MOL
REMARK 927      BINDING AFFINITY PREDICTED BY RF-SCORE:    0.00 PKD
ROOT
HETATM    1  C   UNL     1      -9.669   4.435  68.199  1.00  0.00    -0.119 C  
HETATM    2  O   UNL     1     -10.345   5.465  68.916  1.00  0.00    -0.204 OA 
ENDROOT
BRANCH   2   3
HETATM    3  C   UNL     1     -10.298   5.324  70.271  1.00  0.00    -0.280 C  
HETATM    4  O   UNL     1      -9.419   4.737  70.889  1.00  0.00    -0.145 OA 
BRANCH   3   5
HETATM    5  C   UNL     1     -11.502   5.982  70.878  1.00  0.00    -0.230 C  
BRANCH   5   6
HETATM    6  C   UNL     1     -11.127   7.043  71.918  1.00  0.00    -0.274 C  
BRANCH   6   7
HETATM    7  C   UNL     1     -11.410   8.457  71.459  1.00  0.00    -0.334 A  
HETATM    8  C   UNL     1     -10.628   9.058  70.471  1.00  0.00    -0.274 A  
HETATM    9  C   UNL     1     -10.872  10.362  70.058  1.00  0.00    -0.348 A  
HETATM   10  C   UNL     1     -11.919  11.103  70.607  1.00  0.00    -0.360 A  
HETATM   11  C   UNL     1     -12.492   9.182  71.984  1.00  0.00    -0.452 A  
HETATM   12  C   UNL     1     -12.739  10.499  71.562  1.00  0.00    -0.558 A  
BRANCH  10  13
HETATM   13  O   UNL     1     -12.209  12.402  70.265  1.00  0.00    -0.327 OA 
BRANCH  13  14
HETATM   14  C   UNL     1     -11.611  12.834  69.030  1.00  0.00    -0.316 C  
BRANCH  14  15
HETATM   15  C   UNL     1     -11.389  14.349  69.016  1.00  0.00    -0.269 C  
HETATM   16  O   UNL     1     -10.135  14.656  69.637  1.00  0.00    -0.422 OA 
HETATM   17  H   UNL     1      -9.997  15.596  69.628  1.00  0.00     0.000 HD 
BRANCH  15  18
HETATM   18  C   UNL     1     -11.422  14.942  67.596  1.00  0.00    -0.352 C  
BRANCH  18  19
HETATM   19  N   UNL     1     -12.536  14.408  66.805  1.00  0.00    -0.448 NA 
HETATM   20  H   UNL     1     -13.389  14.940  66.979  1.00  0.00     0.000 HD 
BRANCH  19  21
HETATM   21  C   UNL     1     -12.258  14.336  65.366  1.00  0.00    -0.405 C  
HETATM   22  C   UNL     1     -10.840  14.788  65.009  1.00  0.00    -0.440 C  
HETATM   23  C   UNL     1     -12.450  12.882  64.924  1.00  0.00    -0.540 C  
ENDBRANCH  19  21
ENDBRANCH  18  19
ENDBRANCH  15  18
ENDBRANCH  14  15
ENDBRANCH  13  14
ENDBRANCH  10  13
ENDBRANCH   6   7
ENDBRANCH   5   6
ENDBRANCH   3   5
ENDBRANCH   2   3
TORSDOF 10
ENDMDL
MODEL      116
REMARK 921   NORMALIZED FREE ENERGY PREDICTED BY IDOCK:   -4.29 KCAL/MOL
REMARK 922        TOTAL FREE ENERGY PREDICTED BY IDOCK:   -7.68 KCAL/MOL
REMARK 923 INTER-LIGAND FREE ENERGY PREDICTED BY IDOCK:   -7.17 KCAL/MOL
REMARK 924 INTRA-LIGAND FREE ENERGY PREDICTED BY IDOCK:   -0.50 KCAL/MOL
REMARK 927      BINDING AFFINITY PREDICTED BY RF-SCORE:    0.00 PKD
ROOT
HETATM    1  C   UNL     1      -6.616  20.284  67.694  1.00  0.00    -0.250 C  
HETATM    2  O   UNL     1      -7.860  20.929  67.434  1.00  0.00    -0.319 OA 
ENDROOT
BRANCH   2   3
HETATM    3  C   UNL     1      -8.940  20.099  67.492  1.00  0.00    -0.343 C  
HETATM    4  O   UNL     1      -9.626  19.900  68.487  1.00  0.00    -0.337 OA 
BRANCH   3   5
HETATM    5  C   UNL     1      -9.139  19.454  66.152  1.00  0.00    -0.314 C  
BRANCH   5   6
HETATM    6  C   UNL     1     -10.547  18.875  65.984  1.00  0.00    -0.470 C  
BRANCH   6   7
HETATM    7  C   UNL     1     -10.605  17.376  66.185  1.00  0.00    -0.208 A  
HETATM    8  C   UNL     1     -10.546  16.823  67.465  1.00  0.00    -0.309 A  
HETATM    9  C   UNL     1     -10.582  15.447  67.654  1.00  0.00    -0.280 A  
HETATM   10  C   UNL     1     -10.696  14.578  66.569  1.00  0.00    -0.312 A  
HETATM   11  C   UNL     1     -10.764  16.509  65.092  1.00  0.00    -0.261 A  
HETATM   12  C   UNL     1     -10.804  15.118  65.286  1.00  0.00    -0.414 A  
BRANCH  10  13
HETATM   13  O   UNL     1     -10.717  13.207  66.674  1.00  0.00    -0.275 OA 
BRANCH  13  14
HETATM   14  C   UNL     1     -11.686  12.704  67.610  1.00  0.00    -0.361 C  
BRANCH  14  15
HETATM   15  C   UNL     1     -11.120  11.543  68.432  1.00  0.00    -0.235 C  
HETATM   16  O   UNL     1      -9.959  11.982  69.148  1.00  0.00    -0.412 OA 
HETATM   17  H   UNL     1      -9.608  11.261  69.658  1.00  0.00     0.000 HD 
BRANCH  15  18
HETATM   18  C   UNL     1     -12.145  10.955  69.418  1.00  0.00    -0.290 C  
BRANCH  18  19
HETATM   19  N   UNL     1     -11.670   9.705  70.022  1.00  0.00    -0.443 NA 
HETATM   20  H   UNL     1     -10.739   9.470  69.678  1.00  0.00     0.000 HD 
BRANCH  19  21
HETATM   21  C   UNL     1     -11.693   9.711  71.489  1.00  0.00    -0.400 C  
HETATM   22  C   UNL     1     -13.107   9.609  72.065  1.00  0.00    -0.537 C  
HETATM   23  C   UNL     1     -10.863   8.520  71.975  1.00  0.00    -0.405 C  
ENDBRANCH  19  21
ENDBRANCH  18  19
ENDBRANCH  15  18
ENDBRANCH  14  15
ENDBRANCH  13  14
ENDBRANCH  10  13
ENDBRANCH   6   7
ENDBRANCH   5   6
ENDBRANCH   3   5
ENDBRANCH   2   3
TORSDOF 10
ENDMDL
MODEL      117
REMARK 921   NORMALIZED FREE ENERGY PREDICTED BY IDOCK:   -4.27 KCAL/MOL
REMARK 922        TOTAL FREE ENERGY PREDICTED BY IDOCK:   -7.65 KCAL/MOL
REMARK 923 INTER-LIGAND FREE ENERGY PREDICTED BY IDOCK:   -6.69 KCAL/MOL
REMARK 924 INTRA-LIGAND FREE ENERGY PREDICTED BY IDOCK:   -0.96 KCAL/MOL
REMARK 927      BINDING AFFINITY PREDICTED BY RF-SCORE:    0.00 PKD
ROOT
HETATM    1  C   UNL     1     -10.962  19.405  67.170  1.00  0.00    -0.344 C  
HETATM    2  O   UNL     1     -10.024  20.401  66.771  1.00  0.00    -0.450 OA 
ENDROOT
BRANCH   2   3
HETATM    3  C   UNL     1      -8.744  19.946  66.656  1.00  0.00    -0.349 C  
HETATM    4  O   UNL     1      -8.140  19.797  65.601  1.00  0.00    -0.384 OA 
BRANCH   3   5
HETATM    5  C   UNL     1      -8.205  19.640  68.023  1.00  0.00    -0.347 C  
BRANCH   5   6
HETATM    6  C   UNL     1      -7.429  18.319  68.063  1.00  0.00    -0.247 C  
BRANCH   6   7
HETATM    7  C   UNL     1      -8.300  17.106  67.821  1.00  0.00    -0.204 A  
HETATM    8  C   UNL     1      -8.252  16.422  66.605  1.00  0.00    -0.314 A  
HETATM    9  C   UNL     1      -9.062  15.318  66.370  1.00  0.00    -0.347 A  
HETATM   10  C   UNL     1      -9.935  14.850  67.352  1.00  0.00    -0.223 A  
HETATM   11  C   UNL     1      -9.145  16.613  68.828  1.00  0.00    -0.256 A  
HETATM   12  C   UNL     1      -9.961  15.494  68.590  1.00  0.00    -0.208 A  
BRANCH  10  13
HETATM   13  O   UNL     1     -10.781  13.778  67.187  1.00  0.00    -0.278 OA 
BRANCH  13  14
HETATM   14  C   UNL     1     -11.847  14.009  66.249  1.00  0.00    -0.411 C  
BRANCH  14  15
HETATM   15  C   UNL     1     -12.212  12.731  65.491  1.00  0.00    -0.463 C  
HETATM   16  O   UNL     1     -12.900  13.069  64.280  1.00  0.00    -0.671 OA 
HETATM   17  H   UNL     1     -13.127  12.275  63.810  1.00  0.00     0.000 HD 
BRANCH  15  18
HETATM   18  C   UNL     1     -10.985  11.862  65.162  1.00  0.00    -0.312 C  
BRANCH  18  19
HETATM   19  N   UNL     1     -10.629  10.973  66.274  1.00  0.00    -0.254 NA 
HETATM   20  H   UNL     1     -11.381  10.310  66.460  1.00  0.00     0.000 HD 
BRANCH  19  21
HETATM   21  C   UNL     1      -9.355  10.270  66.084  1.00  0.00    -0.170 C  
HETATM   22  C   UNL     1      -8.270  10.725  67.062  1.00  0.00    -0.126 C  
HETATM   23  C   UNL     1      -9.614   8.773  66.278  1.00  0.00    -0.328 C  
ENDBRANCH  19  21
ENDBRANCH  18  19
ENDBRANCH  15  18
ENDBRANCH  14  15
ENDBRANCH  13  14
ENDBRANCH  10  13
ENDBRANCH   6   7
ENDBRANCH   5   6
ENDBRANCH   3   5
ENDBRANCH   2   3
TORSDOF 10
ENDMDL
MODEL      118
REMARK 921   NORMALIZED FREE ENERGY PREDICTED BY IDOCK:   -4.26 KCAL/MOL
REMARK 922        TOTAL FREE ENERGY PREDICTED BY IDOCK:   -7.63 KCAL/MOL
REMARK 923 INTER-LIGAND FREE ENERGY PREDICTED BY IDOCK:   -6.95 KCAL/MOL
REMARK 924 INTRA-LIGAND FREE ENERGY PREDICTED BY IDOCK:   -0.69 KCAL/MOL
REMARK 927      BINDING AFFINITY PREDICTED BY RF-SCORE:    0.00 PKD
ROOT
HETATM    1  C   UNL     1     -11.111   6.310  72.452  1.00  0.00    -0.270 C  
HETATM    2  O   UNL     1     -12.102   7.213  71.970  1.00  0.00    -0.299 OA 
ENDROOT
BRANCH   2   3
HETATM    3  C   UNL     1     -11.636   8.469  71.716  1.00  0.00    -0.312 C  
HETATM    4  O   UNL     1     -10.488   8.848  71.910  1.00  0.00    -0.326 OA 
BRANCH   3   5
HETATM    5  C   UNL     1     -12.756   9.313  71.183  1.00  0.00    -0.306 C  
BRANCH   5   6
HETATM    6  C   UNL     1     -13.227  10.366  72.192  1.00  0.00    -0.418 C  
BRANCH   6   7
HETATM    7  C   UNL     1     -13.020  11.786  71.714  1.00  0.00    -0.466 A  
HETATM    8  C   UNL     1     -12.213  12.059  70.608  1.00  0.00    -0.409 A  
HETATM    9  C   UNL     1     -12.006  13.363  70.175  1.00  0.00    -0.396 A  
HETATM   10  C   UNL     1     -12.614  14.437  70.824  1.00  0.00    -0.357 A  
HETATM   11  C   UNL     1     -13.671  12.860  72.344  1.00  0.00    -0.530 A  
HETATM   12  C   UNL     1     -13.462  14.178  71.902  1.00  0.00    -0.489 A  
BRANCH  10  13
HETATM   13  O   UNL     1     -12.441  15.754  70.468  1.00  0.00    -0.414 OA 
BRANCH  13  14
HETATM   14  C   UNL     1     -12.028  15.946  69.103  1.00  0.00    -0.255 C  
BRANCH  14  15
HETATM   15  C   UNL     1     -10.715  16.729  69.020  1.00  0.00    -0.331 C  
HETATM   16  O   UNL     1      -9.743  16.131  69.887  1.00  0.00    -0.102 OA 
HETATM   17  H   UNL     1      -8.928  16.617  69.835  1.00  0.00     0.000 HD 
BRANCH  15  18
HETATM   18  C   UNL     1     -10.155  16.805  67.589  1.00  0.00    -0.275 C  
BRANCH  18  19
HETATM   19  N   UNL     1      -9.393  18.038  67.363  1.00  0.00    -0.252 NA 
HETATM   20  H   UNL     1      -9.455  18.652  68.174  1.00  0.00     0.000 HD 
BRANCH  19  21
HETATM   21  C   UNL     1      -7.992  17.807  66.994  1.00  0.00    -0.218 C  
HETATM   22  C   UNL     1      -7.009  18.254  68.078  1.00  0.00    -0.222 C  
HETATM   23  C   UNL     1      -7.816  16.307  66.739  1.00  0.00    -0.300 C  
ENDBRANCH  19  21
ENDBRANCH  18  19
ENDBRANCH  15  18
ENDBRANCH  14  15
ENDBRANCH  13  14
ENDBRANCH  10  13
ENDBRANCH   6   7
ENDBRANCH   5   6
ENDBRANCH   3   5
ENDBRANCH   2   3
TORSDOF 10
ENDMDL
MODEL      119
REMARK 921   NORMALIZED FREE ENERGY PREDICTED BY IDOCK:   -4.26 KCAL/MOL
REMARK 922        TOTAL FREE ENERGY PREDICTED BY IDOCK:   -7.62 KCAL/MOL
REMARK 923 INTER-LIGAND FREE ENERGY PREDICTED BY IDOCK:   -7.00 KCAL/MOL
REMARK 924 INTRA-LIGAND FREE ENERGY PREDICTED BY IDOCK:   -0.62 KCAL/MOL
REMARK 927      BINDING AFFINITY PREDICTED BY RF-SCORE:    0.00 PKD
ROOT
HETATM    1  C   UNL     1     -10.454  19.808  66.561  1.00  0.00    -0.500 C  
HETATM    2  O   UNL     1      -9.068  19.476  66.592  1.00  0.00    -0.316 OA 
ENDROOT
BRANCH   2   3
HETATM    3  C   UNL     1      -8.687  18.787  67.705  1.00  0.00    -0.287 C  
HETATM    4  O   UNL     1      -9.179  18.915  68.819  1.00  0.00    -0.340 OA 
BRANCH   3   5
HETATM    5  C   UNL     1      -7.557  17.865  67.351  1.00  0.00    -0.217 C  
BRANCH   5   6
HETATM    6  C   UNL     1      -7.845  17.043  66.090  1.00  0.00    -0.295 C  
BRANCH   6   7
HETATM    7  C   UNL     1      -8.873  15.954  66.308  1.00  0.00    -0.386 A  
HETATM    8  C   UNL     1     -10.055  15.927  65.567  1.00  0.00    -0.353 A  
HETATM    9  C   UNL     1     -11.010  14.938  65.775  1.00  0.00    -0.345 A  
HETATM   10  C   UNL     1     -10.805  13.934  66.720  1.00  0.00    -0.286 A  
HETATM   11  C   UNL     1      -8.642  14.920  67.230  1.00  0.00    -0.232 A  
HETATM   12  C   UNL     1      -9.607  13.920  67.436  1.00  0.00    -0.235 A  
BRANCH  10  13
HETATM   13  O   UNL     1     -11.711  12.936  66.997  1.00  0.00    -0.350 OA 
BRANCH  13  14
HETATM   14  C   UNL     1     -11.972  12.751  68.399  1.00  0.00    -0.231 C  
BRANCH  14  15
HETATM   15  C   UNL     1     -11.512  11.371  68.876  1.00  0.00    -0.298 C  
HETATM   16  O   UNL     1     -12.601  10.698  69.521  1.00  0.00    -0.619 OA 
HETATM   17  H   UNL     1     -12.315   9.842  69.817  1.00  0.00     0.000 HD 
BRANCH  15  18
HETATM   18  C   UNL     1     -10.968  10.496  67.733  1.00  0.00    -0.313 C  
BRANCH  18  19
HETATM   19  N   UNL     1     -11.051   9.066  68.050  1.00  0.00    -0.477 NA 
HETATM   20  H   UNL     1     -12.022   8.784  68.187  1.00  0.00     0.000 HD 
BRANCH  19  21
HETATM   21  C   UNL     1     -10.398   8.202  67.060  1.00  0.00    -0.333 C  
HETATM   22  C   UNL     1      -8.871   8.245  67.146  1.00  0.00    -0.145 C  
HETATM   23  C   UNL     1     -10.877   6.767  67.302  1.00  0.00    -0.443 C  
ENDBRANCH  19  21
ENDBRANCH  18  19
ENDBRANCH  15  18
ENDBRANCH  14  15
ENDBRANCH  13  14
ENDBRANCH  10  13
ENDBRANCH   6   7
ENDBRANCH   5   6
ENDBRANCH   3   5
ENDBRANCH   2   3
TORSDOF 10
ENDMDL
MODEL      120
REMARK 921   NORMALIZED FREE ENERGY PREDICTED BY IDOCK:   -4.25 KCAL/MOL
REMARK 922        TOTAL FREE ENERGY PREDICTED BY IDOCK:   -7.61 KCAL/MOL
REMARK 923 INTER-LIGAND FREE ENERGY PREDICTED BY IDOCK:   -6.97 KCAL/MOL
REMARK 924 INTRA-LIGAND FREE ENERGY PREDICTED BY IDOCK:   -0.64 KCAL/MOL
REMARK 927      BINDING AFFINITY PREDICTED BY RF-SCORE:    0.00 PKD
ROOT
HETATM    1  C   UNL     1      -7.045  19.062  68.853  1.00  0.00    -0.328 C  
HETATM    2  O   UNL     1      -7.845  19.818  67.948  1.00  0.00    -0.283 OA 
ENDROOT
BRANCH   2   3
HETATM    3  C   UNL     1      -8.831  19.097  67.341  1.00  0.00    -0.293 C  
HETATM    4  O   UNL     1      -9.414  19.422  66.315  1.00  0.00    -0.353 OA 
BRANCH   3   5
HETATM    5  C   UNL     1      -9.099  17.857  68.143  1.00  0.00    -0.278 C  
BRANCH   5   6
HETATM    6  C   UNL     1     -10.597  17.580  68.310  1.00  0.00    -0.354 C  
BRANCH   6   7
HETATM    7  C   UNL     1     -10.980  16.151  67.990  1.00  0.00    -0.338 A  
HETATM    8  C   UNL     1     -10.538  15.537  66.818  1.00  0.00    -0.307 A  
HETATM    9  C   UNL     1     -10.901  14.231  66.511  1.00  0.00    -0.304 A  
HETATM   10  C   UNL     1     -11.703  13.489  67.378  1.00  0.00    -0.380 A  
HETATM   11  C   UNL     1     -11.752  15.395  68.888  1.00  0.00    -0.377 A  
HETATM   12  C   UNL     1     -12.114  14.073  68.578  1.00  0.00    -0.329 A  
BRANCH  10  13
HETATM   13  O   UNL     1     -12.121  12.202  67.134  1.00  0.00    -0.575 OA 
BRANCH  13  14
HETATM   14  C   UNL     1     -11.054  11.238  67.078  1.00  0.00    -0.293 C  
BRANCH  14  15
HETATM   15  C   UNL     1     -11.323  10.051  68.006  1.00  0.00     0.004 C  
HETATM   16  O   UNL     1     -10.314   9.052  67.813  1.00  0.00    -0.219 OA 
HETATM   17  H   UNL     1     -10.482   8.314  68.389  1.00  0.00     0.000 HD 
BRANCH  15  18
HETATM   18  C   UNL     1     -11.376  10.454  69.490  1.00  0.00    -0.265 C  
BRANCH  18  19
HETATM   19  N   UNL     1     -11.480   9.286  70.372  1.00  0.00    -0.367 NA 
HETATM   20  H   UNL     1     -10.554   8.928  70.606  1.00  0.00     0.000 HD 
BRANCH  19  21
HETATM   21  C   UNL     1     -12.262   9.532  71.589  1.00  0.00    -0.398 C  
HETATM   22  C   UNL     1     -13.032  10.854  71.546  1.00  0.00    -0.556 C  
HETATM   23  C   UNL     1     -13.253   8.376  71.751  1.00  0.00    -0.376 C  
ENDBRANCH  19  21
ENDBRANCH  18  19
ENDBRANCH  15  18
ENDBRANCH  14  15
ENDBRANCH  13  14
ENDBRANCH  10  13
ENDBRANCH   6   7
ENDBRANCH   5   6
ENDBRANCH   3   5
ENDBRANCH   2   3
TORSDOF 10
ENDMDL
MODEL      121
REMARK 921   NORMALIZED FREE ENERGY PREDICTED BY IDOCK:   -4.25 KCAL/MOL
REMARK 922        TOTAL FREE ENERGY PREDICTED BY IDOCK:   -7.61 KCAL/MOL
REMARK 923 INTER-LIGAND FREE ENERGY PREDICTED BY IDOCK:   -7.07 KCAL/MOL
REMARK 924 INTRA-LIGAND FREE ENERGY PREDICTED BY IDOCK:   -0.54 KCAL/MOL
REMARK 927      BINDING AFFINITY PREDICTED BY RF-SCORE:    0.00 PKD
ROOT
HETATM    1  C   UNL     1     -12.255  14.891  64.249  1.00  0.00    -0.344 C  
HETATM    2  O   UNL     1     -12.913  14.009  65.154  1.00  0.00    -0.744 OA 
ENDROOT
BRANCH   2   3
HETATM    3  C   UNL     1     -12.703  12.687  64.893  1.00  0.00    -0.370 C  
HETATM    4  O   UNL     1     -13.305  12.029  64.054  1.00  0.00    -0.703 OA 
BRANCH   3   5
HETATM    5  C   UNL     1     -11.636  12.166  65.810  1.00  0.00    -0.414 C  
BRANCH   5   6
HETATM    6  C   UNL     1     -11.789  12.688  67.242  1.00  0.00    -0.395 C  
BRANCH   6   7
HETATM    7  C   UNL     1     -11.232  11.743  68.285  1.00  0.00    -0.313 A  
HETATM    8  C   UNL     1      -9.901  11.328  68.236  1.00  0.00    -0.201 A  
HETATM    9  C   UNL     1      -9.389  10.447  69.182  1.00  0.00    -0.211 A  
HETATM   10  C   UNL     1     -10.188   9.967  70.219  1.00  0.00    -0.264 A  
HETATM   11  C   UNL     1     -12.030  11.297  69.352  1.00  0.00    -0.410 A  
HETATM   12  C   UNL     1     -11.509  10.410  70.309  1.00  0.00    -0.406 A  
BRANCH  10  13
HETATM   13  O   UNL     1      -9.760   9.079  71.178  1.00  0.00    -0.251 OA 
BRANCH  13  14
HETATM   14  C   UNL     1     -10.781   8.681  72.109  1.00  0.00    -0.347 C  
BRANCH  14  15
HETATM   15  C   UNL     1     -10.445   7.340  72.768  1.00  0.00    -0.260 C  
HETATM   16  O   UNL     1     -10.980   7.310  74.097  1.00  0.00    -0.457 OA 
HETATM   17  H   UNL     1     -10.771   6.478  74.505  1.00  0.00     0.000 HD 
BRANCH  15  18
HETATM   18  C   UNL     1     -10.974   6.135  71.970  1.00  0.00    -0.258 C  
BRANCH  18  19
HETATM   19  N   UNL     1     -11.072   4.928  72.799  1.00  0.00    -0.230 NA 
HETATM   20  H   UNL     1     -11.833   4.330  72.476  1.00  0.00     0.000 HD 
BRANCH  19  21
HETATM   21  C   UNL     1      -9.819   4.169  72.887  1.00  0.00    -0.137 C  
HETATM   22  C   UNL     1      -9.415   3.849  74.328  1.00  0.00    -0.123 C  
HETATM   23  C   UNL     1     -10.011   2.860  72.114  1.00  0.00    -0.235 C  
ENDBRANCH  19  21
ENDBRANCH  18  19
ENDBRANCH  15  18
ENDBRANCH  14  15
ENDBRANCH  13  14
ENDBRANCH  10  13
ENDBRANCH   6   7
ENDBRANCH   5   6
ENDBRANCH   3   5
ENDBRANCH   2   3
TORSDOF 10
ENDMDL
MODEL      122
REMARK 921   NORMALIZED FREE ENERGY PREDICTED BY IDOCK:   -4.24 KCAL/MOL
REMARK 922        TOTAL FREE ENERGY PREDICTED BY IDOCK:   -7.59 KCAL/MOL
REMARK 923 INTER-LIGAND FREE ENERGY PREDICTED BY IDOCK:   -6.43 KCAL/MOL
REMARK 924 INTRA-LIGAND FREE ENERGY PREDICTED BY IDOCK:   -1.16 KCAL/MOL
REMARK 927      BINDING AFFINITY PREDICTED BY RF-SCORE:    0.00 PKD
ROOT
HETATM    1  C   UNL     1     -11.141   6.403  67.071  1.00  0.00    -0.329 C  
HETATM    2  O   UNL     1     -10.185   5.369  66.853  1.00  0.00    -0.188 OA 
ENDROOT
BRANCH   2   3
HETATM    3  C   UNL     1      -9.208   5.694  65.960  1.00  0.00    -0.152 C  
HETATM    4  O   UNL     1      -8.962   5.082  64.928  1.00  0.00    -0.154 OA 
BRANCH   3   5
HETATM    5  C   UNL     1      -8.473   6.906  66.453  1.00  0.00    -0.130 C  
BRANCH   5   6
HETATM    6  C   UNL     1      -7.828   7.703  65.314  1.00  0.00    -0.122 C  
BRANCH   6   7
HETATM    7  C   UNL     1      -8.669   8.872  64.851  1.00  0.00    -0.184 A  
HETATM    8  C   UNL     1      -9.553   9.508  65.725  1.00  0.00    -0.337 A  
HETATM    9  C   UNL     1     -10.340  10.572  65.300  1.00  0.00    -0.300 A  
HETATM   10  C   UNL     1     -10.256  11.047  63.992  1.00  0.00    -0.358 A  
HETATM   11  C   UNL     1      -8.548   9.374  63.545  1.00  0.00    -0.215 A  
HETATM   12  C   UNL     1      -9.342  10.452  63.119  1.00  0.00    -0.340 A  
BRANCH  10  13
HETATM   13  O   UNL     1     -11.016  12.078  63.493  1.00  0.00    -0.403 OA 
BRANCH  13  14
HETATM   14  C   UNL     1     -10.941  13.290  64.265  1.00  0.00    -0.395 C  
BRANCH  14  15
HETATM   15  C   UNL     1     -12.291  13.632  64.902  1.00  0.00    -0.406 C  
HETATM   16  O   UNL     1     -13.215  12.561  64.674  1.00  0.00    -0.848 OA 
HETATM   17  H   UNL     1     -14.052  12.773  65.070  1.00  0.00     0.000 HD 
BRANCH  15  18
HETATM   18  C   UNL     1     -12.183  13.910  66.412  1.00  0.00    -0.449 C  
BRANCH  18  19
HETATM   19  N   UNL     1     -10.790  13.916  66.871  1.00  0.00    -0.284 NA 
HETATM   20  H   UNL     1     -10.422  14.867  66.892  1.00  0.00     0.000 HD 
BRANCH  19  21
HETATM   21  C   UNL     1     -10.591  13.256  68.166  1.00  0.00    -0.249 C  
HETATM   22  C   UNL     1     -11.688  12.240  68.492  1.00  0.00    -0.381 C  
HETATM   23  C   UNL     1      -9.237  12.540  68.124  1.00  0.00    -0.209 C  
ENDBRANCH  19  21
ENDBRANCH  18  19
ENDBRANCH  15  18
ENDBRANCH  14  15
ENDBRANCH  13  14
ENDBRANCH  10  13
ENDBRANCH   6   7
ENDBRANCH   5   6
ENDBRANCH   3   5
ENDBRANCH   2   3
TORSDOF 10
ENDMDL
MODEL      123
REMARK 921   NORMALIZED FREE ENERGY PREDICTED BY IDOCK:   -4.23 KCAL/MOL
REMARK 922        TOTAL FREE ENERGY PREDICTED BY IDOCK:   -7.59 KCAL/MOL
REMARK 923 INTER-LIGAND FREE ENERGY PREDICTED BY IDOCK:   -6.79 KCAL/MOL
REMARK 924 INTRA-LIGAND FREE ENERGY PREDICTED BY IDOCK:   -0.80 KCAL/MOL
REMARK 927      BINDING AFFINITY PREDICTED BY RF-SCORE:    0.00 PKD
ROOT
HETATM    1  C   UNL     1      -9.374   4.019  67.645  1.00  0.00    -0.181 C  
HETATM    2  O   UNL     1      -9.701   4.154  69.025  1.00  0.00    -0.173 OA 
ENDROOT
BRANCH   2   3
HETATM    3  C   UNL     1      -8.914   5.041  69.699  1.00  0.00    -0.099 C  
HETATM    4  O   UNL     1      -8.283   5.956  69.186  1.00  0.00    -0.104 OA 
BRANCH   3   5
HETATM    5  C   UNL     1      -8.931   4.703  71.161  1.00  0.00    -0.162 C  
BRANCH   5   6
HETATM    6  C   UNL     1     -10.307   4.921  71.797  1.00  0.00    -0.249 C  
BRANCH   6   7
HETATM    7  C   UNL     1     -10.752   6.367  71.778  1.00  0.00    -0.273 A  
HETATM    8  C   UNL     1     -12.071   6.706  71.474  1.00  0.00    -0.406 A  
HETATM    9  C   UNL     1     -12.481   8.034  71.438  1.00  0.00    -0.320 A  
HETATM   10  C   UNL     1     -11.588   9.066  71.724  1.00  0.00    -0.374 A  
HETATM   11  C   UNL     1      -9.860   7.400  72.109  1.00  0.00    -0.205 A  
HETATM   12  C   UNL     1     -10.277   8.741  72.076  1.00  0.00    -0.401 A  
BRANCH  10  13
HETATM   13  O   UNL     1     -11.913  10.402  71.688  1.00  0.00    -0.291 OA 
BRANCH  13  14
HETATM   14  C   UNL     1     -12.640  10.800  70.513  1.00  0.00    -0.336 C  
BRANCH  14  15
HETATM   15  C   UNL     1     -11.784  11.679  69.597  1.00  0.00    -0.350 C  
HETATM   16  O   UNL     1     -12.102  11.399  68.228  1.00  0.00    -0.606 OA 
HETATM   17  H   UNL     1     -11.571  11.944  67.659  1.00  0.00     0.000 HD 
BRANCH  15  18
HETATM   18  C   UNL     1     -11.965  13.182  69.874  1.00  0.00    -0.317 C  
BRANCH  18  19
HETATM   19  N   UNL     1     -12.588  13.428  71.179  1.00  0.00    -0.367 NA 
HETATM   20  H   UNL     1     -12.026  13.022  71.928  1.00  0.00     0.000 HD 
BRANCH  19  21
HETATM   21  C   UNL     1     -12.860  14.844  71.446  1.00  0.00    -0.341 C  
HETATM   22  C   UNL     1     -14.328  15.117  71.782  1.00  0.00    -0.696 C  
HETATM   23  C   UNL     1     -11.984  15.274  72.627  1.00  0.00    -0.535 C  
ENDBRANCH  19  21
ENDBRANCH  18  19
ENDBRANCH  15  18
ENDBRANCH  14  15
ENDBRANCH  13  14
ENDBRANCH  10  13
ENDBRANCH   6   7
ENDBRANCH   5   6
ENDBRANCH   3   5
ENDBRANCH   2   3
TORSDOF 10
ENDMDL
MODEL      124
REMARK 921   NORMALIZED FREE ENERGY PREDICTED BY IDOCK:   -4.21 KCAL/MOL
REMARK 922        TOTAL FREE ENERGY PREDICTED BY IDOCK:   -7.55 KCAL/MOL
REMARK 923 INTER-LIGAND FREE ENERGY PREDICTED BY IDOCK:   -7.06 KCAL/MOL
REMARK 924 INTRA-LIGAND FREE ENERGY PREDICTED BY IDOCK:   -0.49 KCAL/MOL
REMARK 927      BINDING AFFINITY PREDICTED BY RF-SCORE:    0.00 PKD
ROOT
HETATM    1  C   UNL     1      -8.938   2.739  72.101  1.00  0.00    -0.086 C  
HETATM    2  O   UNL     1      -9.775   3.877  71.912  1.00  0.00    -0.150 OA 
ENDROOT
BRANCH   2   3
HETATM    3  C   UNL     1     -10.636   4.112  72.943  1.00  0.00    -0.167 C  
HETATM    4  O   UNL     1     -11.130   3.251  73.660  1.00  0.00    -0.219 OA 
BRANCH   3   5
HETATM    5  C   UNL     1     -10.894   5.587  73.043  1.00  0.00    -0.316 C  
BRANCH   5   6
HETATM    6  C   UNL     1     -12.022   6.048  72.115  1.00  0.00    -0.261 C  
BRANCH   6   7
HETATM    7  C   UNL     1     -11.926   7.510  71.738  1.00  0.00    -0.334 A  
HETATM    8  C   UNL     1     -10.696   8.087  71.416  1.00  0.00    -0.270 A  
HETATM    9  C   UNL     1     -10.600   9.434  71.086  1.00  0.00    -0.403 A  
HETATM   10  C   UNL     1     -11.734  10.244  71.048  1.00  0.00    -0.370 A  
HETATM   11  C   UNL     1     -13.077   8.311  71.659  1.00  0.00    -0.354 A  
HETATM   12  C   UNL     1     -12.978   9.671  71.321  1.00  0.00    -0.446 A  
BRANCH  10  13
HETATM   13  O   UNL     1     -11.716  11.587  70.751  1.00  0.00    -0.204 OA 
BRANCH  13  14
HETATM   14  C   UNL     1     -12.410  11.931  69.539  1.00  0.00    -0.022 C  
BRANCH  14  15
HETATM   15  C   UNL     1     -11.507  11.769  68.313  1.00  0.00    -0.307 C  
HETATM   16  O   UNL     1     -11.678  10.459  67.759  1.00  0.00    -0.677 OA 
HETATM   17  H   UNL     1     -11.118  10.359  66.998  1.00  0.00     0.000 HD 
BRANCH  15  18
HETATM   18  C   UNL     1     -11.777  12.829  67.230  1.00  0.00    -0.378 C  
BRANCH  18  19
HETATM   19  N   UNL     1     -12.099  12.220  65.935  1.00  0.00    -0.620 NA 
HETATM   20  H   UNL     1     -13.057  11.867  65.932  1.00  0.00     0.000 HD 
BRANCH  19  21
HETATM   21  C   UNL     1     -11.872  13.109  64.790  1.00  0.00    -0.369 C  
HETATM   22  C   UNL     1     -10.429  13.612  64.703  1.00  0.00    -0.442 C  
HETATM   23  C   UNL     1     -12.212  12.329  63.517  1.00  0.00    -0.669 C  
ENDBRANCH  19  21
ENDBRANCH  18  19
ENDBRANCH  15  18
ENDBRANCH  14  15
ENDBRANCH  13  14
ENDBRANCH  10  13
ENDBRANCH   6   7
ENDBRANCH   5   6
ENDBRANCH   3   5
ENDBRANCH   2   3
TORSDOF 10
ENDMDL
MODEL      125
REMARK 921   NORMALIZED FREE ENERGY PREDICTED BY IDOCK:   -4.21 KCAL/MOL
REMARK 922        TOTAL FREE ENERGY PREDICTED BY IDOCK:   -7.54 KCAL/MOL
REMARK 923 INTER-LIGAND FREE ENERGY PREDICTED BY IDOCK:   -6.72 KCAL/MOL
REMARK 924 INTRA-LIGAND FREE ENERGY PREDICTED BY IDOCK:   -0.82 KCAL/MOL
REMARK 927      BINDING AFFINITY PREDICTED BY RF-SCORE:    0.00 PKD
ROOT
HETATM    1  C   UNL     1      -9.183   3.269  66.377  1.00  0.00    -0.149 C  
HETATM    2  O   UNL     1     -10.003   4.435  66.406  1.00  0.00    -0.214 OA 
ENDROOT
BRANCH   2   3
HETATM    3  C   UNL     1      -9.382   5.539  66.909  1.00  0.00    -0.127 C  
HETATM    4  O   UNL     1      -8.267   5.554  67.414  1.00  0.00    -0.102 OA 
BRANCH   3   5
HETATM    5  C   UNL     1     -10.292   6.725  66.765  1.00  0.00    -0.286 C  
BRANCH   5   6
HETATM    6  C   UNL     1     -10.175   7.699  67.942  1.00  0.00    -0.250 C  
BRANCH   6   7
HETATM    7  C   UNL     1     -10.565   9.117  67.585  1.00  0.00    -0.307 A  
HETATM    8  C   UNL     1     -10.314   9.629  66.311  1.00  0.00    -0.230 A  
HETATM    9  C   UNL     1     -10.655  10.936  65.983  1.00  0.00    -0.254 A  
HETATM   10  C   UNL     1     -11.275  11.769  66.914  1.00  0.00    -0.327 A  
HETATM   11  C   UNL     1     -11.229   9.936  68.512  1.00  0.00    -0.129 A  
HETATM   12  C   UNL     1     -11.576  11.256  68.178  1.00  0.00    -0.359 A  
BRANCH  10  13
HETATM   13  O   UNL     1     -11.623  13.077  66.672  1.00  0.00    -0.322 OA 
BRANCH  13  14
HETATM   14  C   UNL     1     -12.372  13.271  65.459  1.00  0.00    -0.480 C  
BRANCH  14  15
HETATM   15  C   UNL     1     -11.587  14.107  64.445  1.00  0.00    -0.362 C  
HETATM   16  O   UNL     1     -12.454  14.505  63.375  1.00  0.00    -1.080 OA 
HETATM   17  H   UNL     1     -11.966  15.023  62.746  1.00  0.00     0.000 HD 
BRANCH  15  18
HETATM   18  C   UNL     1     -10.938  15.353  65.074  1.00  0.00    -0.436 C  
BRANCH  18  19
HETATM   19  N   UNL     1      -9.545  15.107  65.464  1.00  0.00    -0.410 NA 
HETATM   20  H   UNL     1      -8.911  15.337  64.699  1.00  0.00     0.000 HD 
BRANCH  19  21
HETATM   21  C   UNL     1      -9.144  15.802  66.693  1.00  0.00    -0.268 C  
HETATM   22  C   UNL     1      -7.976  16.768  66.478  1.00  0.00    -0.334 C  
HETATM   23  C   UNL     1     -10.357  16.583  67.206  1.00  0.00    -0.296 C  
ENDBRANCH  19  21
ENDBRANCH  18  19
ENDBRANCH  15  18
ENDBRANCH  14  15
ENDBRANCH  13  14
ENDBRANCH  10  13
ENDBRANCH   6   7
ENDBRANCH   5   6
ENDBRANCH   3   5
ENDBRANCH   2   3
TORSDOF 10
ENDMDL
MODEL      126
REMARK 921   NORMALIZED FREE ENERGY PREDICTED BY IDOCK:   -4.20 KCAL/MOL
REMARK 922        TOTAL FREE ENERGY PREDICTED BY IDOCK:   -7.54 KCAL/MOL
REMARK 923 INTER-LIGAND FREE ENERGY PREDICTED BY IDOCK:   -6.51 KCAL/MOL
REMARK 924 INTRA-LIGAND FREE ENERGY PREDICTED BY IDOCK:   -1.03 KCAL/MOL
REMARK 927      BINDING AFFINITY PREDICTED BY RF-SCORE:    0.00 PKD
ROOT
HETATM    1  C   UNL     1     -11.772  15.795  70.955  1.00  0.00    -0.422 C  
HETATM    2  O   UNL     1     -10.581  15.862  70.177  1.00  0.00    -0.308 OA 
ENDROOT
BRANCH   2   3
HETATM    3  C   UNL     1     -10.680  16.659  69.074  1.00  0.00    -0.343 C  
HETATM    4  O   UNL     1     -10.258  17.805  68.991  1.00  0.00    -0.367 OA 
BRANCH   3   5
HETATM    5  C   UNL     1     -11.406  15.915  67.992  1.00  0.00    -0.284 C  
BRANCH   5   6
HETATM    6  C   UNL     1     -10.462  15.080  67.120  1.00  0.00    -0.277 C  
BRANCH   6   7
HETATM    7  C   UNL     1     -10.624  13.590  67.319  1.00  0.00    -0.263 A  
HETATM    8  C   UNL     1      -9.751  12.687  66.711  1.00  0.00    -0.240 A  
HETATM    9  C   UNL     1      -9.905  11.316  66.877  1.00  0.00    -0.220 A  
HETATM   10  C   UNL     1     -10.929  10.802  67.673  1.00  0.00    -0.306 A  
HETATM   11  C   UNL     1     -11.630  13.080  68.157  1.00  0.00    -0.379 A  
HETATM   12  C   UNL     1     -11.783  11.694  68.326  1.00  0.00    -0.374 A  
BRANCH  10  13
HETATM   13  O   UNL     1     -11.159   9.461  67.867  1.00  0.00    -0.136 OA 
BRANCH  13  14
HETATM   14  C   UNL     1      -9.962   8.668  67.970  1.00  0.00    -0.182 C  
BRANCH  14  15
HETATM   15  C   UNL     1     -10.144   7.506  68.950  1.00  0.00    -0.192 C  
HETATM   16  O   UNL     1      -8.894   6.830  69.130  1.00  0.00    -0.133 OA 
HETATM   17  H   UNL     1      -9.006   6.108  69.738  1.00  0.00     0.000 HD 
BRANCH  15  18
HETATM   18  C   UNL     1     -10.690   7.958  70.316  1.00  0.00    -0.236 C  
BRANCH  18  19
HETATM   19  N   UNL     1     -12.154   7.889  70.372  1.00  0.00    -0.465 NA 
HETATM   20  H   UNL     1     -12.471   6.921  70.307  1.00  0.00     0.000 HD 
BRANCH  19  21
HETATM   21  C   UNL     1     -12.732   8.545  71.550  1.00  0.00    -0.313 C  
HETATM   22  C   UNL     1     -12.733  10.071  71.442  1.00  0.00    -0.518 C  
HETATM   23  C   UNL     1     -14.173   8.048  71.702  1.00  0.00    -0.549 C  
ENDBRANCH  19  21
ENDBRANCH  18  19
ENDBRANCH  15  18
ENDBRANCH  14  15
ENDBRANCH  13  14
ENDBRANCH  10  13
ENDBRANCH   6   7
ENDBRANCH   5   6
ENDBRANCH   3   5
ENDBRANCH   2   3
TORSDOF 10
ENDMDL
MODEL      127
REMARK 921   NORMALIZED FREE ENERGY PREDICTED BY IDOCK:   -4.17 KCAL/MOL
REMARK 922        TOTAL FREE ENERGY PREDICTED BY IDOCK:   -7.49 KCAL/MOL
REMARK 923 INTER-LIGAND FREE ENERGY PREDICTED BY IDOCK:   -6.69 KCAL/MOL
REMARK 924 INTRA-LIGAND FREE ENERGY PREDICTED BY IDOCK:   -0.80 KCAL/MOL
REMARK 927      BINDING AFFINITY PREDICTED BY RF-SCORE:    0.00 PKD
ROOT
HETATM    1  C   UNL     1      -5.295  16.918  69.077  1.00  0.00    -0.135 C  
HETATM    2  O   UNL     1      -6.152  17.892  69.668  1.00  0.00    -0.241 OA 
ENDROOT
BRANCH   2   3
HETATM    3  C   UNL     1      -6.262  19.045  68.949  1.00  0.00    -0.247 C  
HETATM    4  O   UNL     1      -6.504  20.150  69.419  1.00  0.00    -0.319 OA 
BRANCH   3   5
HETATM    5  C   UNL     1      -6.060  18.741  67.494  1.00  0.00    -0.179 C  
BRANCH   5   6
HETATM    6  C   UNL     1      -7.222  19.234  66.625  1.00  0.00    -0.228 C  
BRANCH   6   7
HETATM    7  C   UNL     1      -8.326  18.211  66.466  1.00  0.00    -0.288 A  
HETATM    8  C   UNL     1      -9.662  18.607  66.390  1.00  0.00    -0.363 A  
HETATM    9  C   UNL     1     -10.681  17.671  66.261  1.00  0.00    -0.096 A  
HETATM   10  C   UNL     1     -10.396  16.308  66.187  1.00  0.00    -0.341 A  
HETATM   11  C   UNL     1      -8.029  16.844  66.348  1.00  0.00    -0.352 A  
HETATM   12  C   UNL     1      -9.061  15.899  66.214  1.00  0.00    -0.379 A  
BRANCH  10  13
HETATM   13  O   UNL     1     -11.349  15.323  66.080  1.00  0.00    -0.285 OA 
BRANCH  13  14
HETATM   14  C   UNL     1     -11.361  14.650  64.808  1.00  0.00    -0.396 C  
BRANCH  14  15
HETATM   15  C   UNL     1     -12.193  13.366  64.862  1.00  0.00    -0.408 C  
HETATM   16  O   UNL     1     -12.584  12.991  63.536  1.00  0.00    -0.720 OA 
HETATM   17  H   UNL     1     -13.101  12.194  63.570  1.00  0.00     0.000 HD 
BRANCH  15  18
HETATM   18  C   UNL     1     -11.444  12.199  65.530  1.00  0.00    -0.343 C  
BRANCH  18  19
HETATM   19  N   UNL     1     -11.908  11.964  66.902  1.00  0.00    -0.610 NA 
HETATM   20  H   UNL     1     -12.795  11.460  66.901  1.00  0.00     0.000 HD 
BRANCH  19  21
HETATM   21  C   UNL     1     -10.926  11.277  67.749  1.00  0.00    -0.252 C  
HETATM   22  C   UNL     1     -10.177  10.165  67.012  1.00  0.00    -0.290 C  
HETATM   23  C   UNL     1      -9.920  12.323  68.240  1.00  0.00    -0.216 C  
ENDBRANCH  19  21
ENDBRANCH  18  19
ENDBRANCH  15  18
ENDBRANCH  14  15
ENDBRANCH  13  14
ENDBRANCH  10  13
ENDBRANCH   6   7
ENDBRANCH   5   6
ENDBRANCH   3   5
ENDBRANCH   2   3
TORSDOF 10
ENDMDL
MODEL      128
REMARK 921   NORMALIZED FREE ENERGY PREDICTED BY IDOCK:   -4.17 KCAL/MOL
REMARK 922        TOTAL FREE ENERGY PREDICTED BY IDOCK:   -7.48 KCAL/MOL
REMARK 923 INTER-LIGAND FREE ENERGY PREDICTED BY IDOCK:   -6.42 KCAL/MOL
REMARK 924 INTRA-LIGAND FREE ENERGY PREDICTED BY IDOCK:   -1.06 KCAL/MOL
REMARK 927      BINDING AFFINITY PREDICTED BY RF-SCORE:    0.00 PKD
ROOT
HETATM    1  C   UNL     1     -10.410   5.363  70.245  1.00  0.00    -0.287 C  
HETATM    2  O   UNL     1     -11.218   6.522  70.435  1.00  0.00    -0.299 OA 
ENDROOT
BRANCH   2   3
HETATM    3  C   UNL     1     -11.987   6.485  71.560  1.00  0.00    -0.329 C  
HETATM    4  O   UNL     1     -11.916   5.634  72.437  1.00  0.00    -0.235 OA 
BRANCH   3   5
HETATM    5  C   UNL     1     -12.945   7.641  71.540  1.00  0.00    -0.378 C  
BRANCH   5   6
HETATM    6  C   UNL     1     -12.372   8.888  72.222  1.00  0.00    -0.430 C  
BRANCH   6   7
HETATM    7  C   UNL     1     -12.054  10.006  71.254  1.00  0.00    -0.487 A  
HETATM    8  C   UNL     1     -12.664  11.255  71.379  1.00  0.00    -0.501 A  
HETATM    9  C   UNL     1     -12.389  12.281  70.482  1.00  0.00    -0.349 A  
HETATM   10  C   UNL     1     -11.480  12.096  69.440  1.00  0.00    -0.290 A  
HETATM   11  C   UNL     1     -11.105   9.828  70.234  1.00  0.00    -0.349 A  
HETATM   12  C   UNL     1     -10.826  10.867  69.330  1.00  0.00    -0.286 A  
BRANCH  10  13
HETATM   13  O   UNL     1     -11.172  13.054  68.503  1.00  0.00    -0.241 OA 
BRANCH  13  14
HETATM   14  C   UNL     1     -12.237  13.336  67.578  1.00  0.00    -0.164 C  
BRANCH  14  15
HETATM   15  C   UNL     1     -11.998  12.658  66.226  1.00  0.00    -0.374 C  
HETATM   16  O   UNL     1     -12.818  13.276  65.227  1.00  0.00    -0.629 OA 
HETATM   17  H   UNL     1     -12.670  12.856  64.388  1.00  0.00     0.000 HD 
BRANCH  15  18
HETATM   18  C   UNL     1     -10.523  12.706  65.788  1.00  0.00    -0.277 C  
BRANCH  18  19
HETATM   19  N   UNL     1      -9.851  11.416  65.981  1.00  0.00    -0.214 NA 
HETATM   20  H   UNL     1     -10.099  10.767  65.235  1.00  0.00     0.000 HD 
BRANCH  19  21
HETATM   21  C   UNL     1      -8.394  11.523  66.112  1.00  0.00    -0.018 C  
HETATM   22  C   UNL     1      -7.963  12.486  67.220  1.00  0.00    -0.173 C  
HETATM   23  C   UNL     1      -7.848  10.125  66.417  1.00  0.00    -0.114 C  
ENDBRANCH  19  21
ENDBRANCH  18  19
ENDBRANCH  15  18
ENDBRANCH  14  15
ENDBRANCH  13  14
ENDBRANCH  10  13
ENDBRANCH   6   7
ENDBRANCH   5   6
ENDBRANCH   3   5
ENDBRANCH   2   3
TORSDOF 10
ENDMDL
MODEL      129
REMARK 921   NORMALIZED FREE ENERGY PREDICTED BY IDOCK:   -4.15 KCAL/MOL
REMARK 922        TOTAL FREE ENERGY PREDICTED BY IDOCK:   -7.46 KCAL/MOL
REMARK 923 INTER-LIGAND FREE ENERGY PREDICTED BY IDOCK:   -6.94 KCAL/MOL
REMARK 924 INTRA-LIGAND FREE ENERGY PREDICTED BY IDOCK:   -0.52 KCAL/MOL
REMARK 927      BINDING AFFINITY PREDICTED BY RF-SCORE:    0.00 PKD
ROOT
HETATM    1  C   UNL     1     -12.410  13.817  64.807  1.00  0.00    -0.386 C  
HETATM    2  O   UNL     1     -12.308  12.829  65.829  1.00  0.00    -0.547 OA 
ENDROOT
BRANCH   2   3
HETATM    3  C   UNL     1     -12.117  13.340  67.079  1.00  0.00    -0.320 C  
HETATM    4  O   UNL     1     -12.271  14.513  67.394  1.00  0.00    -0.333 OA 
BRANCH   3   5
HETATM    5  C   UNL     1     -11.670  12.240  67.997  1.00  0.00    -0.417 C  
BRANCH   5   6
HETATM    6  C   UNL     1     -12.148  12.450  69.438  1.00  0.00    -0.237 C  
BRANCH   6   7
HETATM    7  C   UNL     1     -11.972  11.226  70.310  1.00  0.00    -0.466 A  
HETATM    8  C   UNL     1     -10.765  10.526  70.325  1.00  0.00    -0.165 A  
HETATM    9  C   UNL     1     -10.603   9.391  71.112  1.00  0.00    -0.403 A  
HETATM   10  C   UNL     1     -11.639   8.930  71.924  1.00  0.00    -0.371 A  
HETATM   11  C   UNL     1     -13.003  10.792  71.159  1.00  0.00    -0.467 A  
HETATM   12  C   UNL     1     -12.836   9.648  71.957  1.00  0.00    -0.497 A  
BRANCH  10  13
HETATM   13  O   UNL     1     -11.561   7.806  72.712  1.00  0.00    -0.362 OA 
BRANCH  13  14
HETATM   14  C   UNL     1     -11.831   6.578  72.013  1.00  0.00    -0.329 C  
BRANCH  14  15
HETATM   15  C   UNL     1     -10.545   5.949  71.472  1.00  0.00    -0.245 C  
HETATM   16  O   UNL     1     -10.297   4.707  72.143  1.00  0.00    -0.191 OA 
HETATM   17  H   UNL     1      -9.499   4.317  71.807  1.00  0.00     0.000 HD 
BRANCH  15  18
HETATM   18  C   UNL     1     -10.589   5.715  69.951  1.00  0.00    -0.328 C  
BRANCH  18  19
HETATM   19  N   UNL     1      -9.939   6.801  69.210  1.00  0.00    -0.158 NA 
HETATM   20  H   UNL     1      -9.037   7.032  69.628  1.00  0.00     0.000 HD 
BRANCH  19  21
HETATM   21  C   UNL     1      -9.789   6.531  67.776  1.00  0.00    -0.123 C  
HETATM   22  C   UNL     1     -10.414   5.200  67.351  1.00  0.00    -0.172 C  
HETATM   23  C   UNL     1     -10.466   7.673  67.012  1.00  0.00    -0.419 C  
ENDBRANCH  19  21
ENDBRANCH  18  19
ENDBRANCH  15  18
ENDBRANCH  14  15
ENDBRANCH  13  14
ENDBRANCH  10  13
ENDBRANCH   6   7
ENDBRANCH   5   6
ENDBRANCH   3   5
ENDBRANCH   2   3
TORSDOF 10
ENDMDL
MODEL      130
REMARK 921   NORMALIZED FREE ENERGY PREDICTED BY IDOCK:   -4.14 KCAL/MOL
REMARK 922        TOTAL FREE ENERGY PREDICTED BY IDOCK:   -7.44 KCAL/MOL
REMARK 923 INTER-LIGAND FREE ENERGY PREDICTED BY IDOCK:   -6.86 KCAL/MOL
REMARK 924 INTRA-LIGAND FREE ENERGY PREDICTED BY IDOCK:   -0.57 KCAL/MOL
REMARK 927      BINDING AFFINITY PREDICTED BY RF-SCORE:    0.00 PKD
ROOT
HETATM    1  C   UNL     1      -7.087  17.942  65.973  1.00  0.00    -0.305 C  
HETATM    2  O   UNL     1      -7.944  19.040  65.670  1.00  0.00    -0.437 OA 
ENDROOT
BRANCH   2   3
HETATM    3  C   UNL     1      -8.914  19.261  66.602  1.00  0.00    -0.338 C  
HETATM    4  O   UNL     1      -8.833  20.053  67.533  1.00  0.00    -0.326 OA 
BRANCH   3   5
HETATM    5  C   UNL     1     -10.085  18.367  66.316  1.00  0.00    -0.409 C  
BRANCH   5   6
HETATM    6  C   UNL     1     -10.394  17.416  67.477  1.00  0.00    -0.351 C  
BRANCH   6   7
HETATM    7  C   UNL     1     -10.850  16.047  67.024  1.00  0.00    -0.227 A  
HETATM    8  C   UNL     1     -11.520  15.190  67.899  1.00  0.00    -0.344 A  
HETATM    9  C   UNL     1     -11.926  13.924  67.492  1.00  0.00    -0.421 A  
HETATM   10  C   UNL     1     -11.692  13.481  66.191  1.00  0.00    -0.365 A  
HETATM   11  C   UNL     1     -10.650  15.623  65.700  1.00  0.00    -0.393 A  
HETATM   12  C   UNL     1     -11.065  14.345  65.290  1.00  0.00    -0.344 A  
BRANCH  10  13
HETATM   13  O   UNL     1     -12.044  12.237  65.723  1.00  0.00    -0.587 OA 
BRANCH  13  14
HETATM   14  C   UNL     1     -11.161  11.716  64.714  1.00  0.00    -0.264 C  
BRANCH  14  15
HETATM   15  C   UNL     1     -10.105  10.788  65.321  1.00  0.00    -0.290 C  
HETATM   16  O   UNL     1      -8.846  11.469  65.386  1.00  0.00    -0.390 OA 
HETATM   17  H   UNL     1      -8.191  10.893  65.762  1.00  0.00     0.000 HD 
BRANCH  15  18
HETATM   18  C   UNL     1     -10.492  10.280  66.721  1.00  0.00    -0.214 C  
BRANCH  18  19
HETATM   19  N   UNL     1      -9.322   9.830  67.484  1.00  0.00    -0.133 NA 
HETATM   20  H   UNL     1      -9.163  10.436  68.289  1.00  0.00     0.000 HD 
BRANCH  19  21
HETATM   21  C   UNL     1      -9.393   8.425  67.901  1.00  0.00    -0.135 C  
HETATM   22  C   UNL     1      -9.670   8.260  69.396  1.00  0.00    -0.177 C  
HETATM   23  C   UNL     1     -10.516   7.756  67.102  1.00  0.00    -0.413 C  
ENDBRANCH  19  21
ENDBRANCH  18  19
ENDBRANCH  15  18
ENDBRANCH  14  15
ENDBRANCH  13  14
ENDBRANCH  10  13
ENDBRANCH   6   7
ENDBRANCH   5   6
ENDBRANCH   3   5
ENDBRANCH   2   3
TORSDOF 10
ENDMDL
MODEL      131
REMARK 921   NORMALIZED FREE ENERGY PREDICTED BY IDOCK:   -4.14 KCAL/MOL
REMARK 922        TOTAL FREE ENERGY PREDICTED BY IDOCK:   -7.43 KCAL/MOL
REMARK 923 INTER-LIGAND FREE ENERGY PREDICTED BY IDOCK:   -6.01 KCAL/MOL
REMARK 924 INTRA-LIGAND FREE ENERGY PREDICTED BY IDOCK:   -1.42 KCAL/MOL
REMARK 927      BINDING AFFINITY PREDICTED BY RF-SCORE:    0.00 PKD
ROOT
HETATM    1  C   UNL     1     -10.622   6.489  69.580  1.00  0.00    -0.243 C  
HETATM    2  O   UNL     1      -9.276   6.584  70.039  1.00  0.00    -0.156 OA 
ENDROOT
BRANCH   2   3
HETATM    3  C   UNL     1      -8.866   7.858  70.302  1.00  0.00    -0.140 C  
HETATM    4  O   UNL     1      -8.624   8.307  71.415  1.00  0.00    -0.125 OA 
BRANCH   3   5
HETATM    5  C   UNL     1      -8.780   8.623  69.014  1.00  0.00    -0.134 C  
BRANCH   5   6
HETATM    6  C   UNL     1      -8.430  10.099  69.232  1.00  0.00    -0.167 C  
BRANCH   6   7
HETATM    7  C   UNL     1      -9.408  11.048  68.574  1.00  0.00    -0.188 A  
HETATM    8  C   UNL     1     -10.735  10.674  68.362  1.00  0.00    -0.260 A  
HETATM    9  C   UNL     1     -11.633  11.536  67.742  1.00  0.00    -0.338 A  
HETATM   10  C   UNL     1     -11.236  12.808  67.332  1.00  0.00    -0.294 A  
HETATM   11  C   UNL     1      -9.014  12.344  68.202  1.00  0.00    -0.196 A  
HETATM   12  C   UNL     1      -9.924  13.215  67.580  1.00  0.00    -0.219 A  
BRANCH  10  13
HETATM   13  O   UNL     1     -12.060  13.707  66.695  1.00  0.00    -0.404 OA 
BRANCH  13  14
HETATM   14  C   UNL     1     -11.429  14.961  66.380  1.00  0.00    -0.280 C  
BRANCH  14  15
HETATM   15  C   UNL     1     -11.611  15.324  64.904  1.00  0.00    -0.289 C  
HETATM   16  O   UNL     1     -10.566  16.214  64.495  1.00  0.00    -0.758 OA 
HETATM   17  H   UNL     1     -10.679  16.439  63.579  1.00  0.00     0.000 HD 
BRANCH  15  18
HETATM   18  C   UNL     1     -11.629  14.089  63.985  1.00  0.00    -0.177 C  
BRANCH  18  19
HETATM   19  N   UNL     1     -10.316  13.437  63.918  1.00  0.00    -0.668 NA 
HETATM   20  H   UNL     1      -9.777  13.626  64.763  1.00  0.00     0.000 HD 
BRANCH  19  21
HETATM   21  C   UNL     1     -10.385  11.995  63.661  1.00  0.00    -0.450 C  
HETATM   22  C   UNL     1      -9.581  11.170  64.668  1.00  0.00    -0.289 C  
HETATM   23  C   UNL     1     -11.857  11.577  63.727  1.00  0.00    -0.237 C  
ENDBRANCH  19  21
ENDBRANCH  18  19
ENDBRANCH  15  18
ENDBRANCH  14  15
ENDBRANCH  13  14
ENDBRANCH  10  13
ENDBRANCH   6   7
ENDBRANCH   5   6
ENDBRANCH   3   5
ENDBRANCH   2   3
TORSDOF 10
ENDMDL
MODEL      132
REMARK 921   NORMALIZED FREE ENERGY PREDICTED BY IDOCK:   -4.13 KCAL/MOL
REMARK 922        TOTAL FREE ENERGY PREDICTED BY IDOCK:   -7.43 KCAL/MOL
REMARK 923 INTER-LIGAND FREE ENERGY PREDICTED BY IDOCK:   -6.65 KCAL/MOL
REMARK 924 INTRA-LIGAND FREE ENERGY PREDICTED BY IDOCK:   -0.78 KCAL/MOL
REMARK 927      BINDING AFFINITY PREDICTED BY RF-SCORE:    0.00 PKD
ROOT
HETATM    1  C   UNL     1     -10.918  15.485  65.025  1.00  0.00    -0.440 C  
HETATM    2  O   UNL     1     -11.356  14.148  64.799  1.00  0.00    -0.342 OA 
ENDROOT
BRANCH   2   3
HETATM    3  C   UNL     1     -12.339  13.733  65.648  1.00  0.00    -0.482 C  
HETATM    4  O   UNL     1     -13.535  13.951  65.504  1.00  0.00    -0.657 OA 
BRANCH   3   5
HETATM    5  C   UNL     1     -11.719  12.988  66.793  1.00  0.00    -0.440 C  
BRANCH   5   6
HETATM    6  C   UNL     1     -11.196  11.608  66.380  1.00  0.00    -0.349 C  
BRANCH   6   7
HETATM    7  C   UNL     1     -11.024  10.659  67.546  1.00  0.00    -0.371 A  
HETATM    8  C   UNL     1     -11.300  11.072  68.850  1.00  0.00    -0.346 A  
HETATM    9  C   UNL     1     -11.128  10.209  69.927  1.00  0.00    -0.346 A  
HETATM   10  C   UNL     1     -10.692   8.899  69.731  1.00  0.00    -0.225 A  
HETATM   11  C   UNL     1     -10.627   9.328  67.339  1.00  0.00    -0.324 A  
HETATM   12  C   UNL     1     -10.457   8.457  68.428  1.00  0.00    -0.208 A  
BRANCH  10  13
HETATM   13  O   UNL     1     -10.479   7.996  70.746  1.00  0.00    -0.203 OA 
BRANCH  13  14
HETATM   14  C   UNL     1     -11.462   6.948  70.817  1.00  0.00    -0.335 C  
BRANCH  14  15
HETATM   15  C   UNL     1     -11.909   6.698  72.260  1.00  0.00    -0.252 C  
HETATM   16  O   UNL     1     -13.291   6.318  72.275  1.00  0.00    -0.447 OA 
HETATM   17  H   UNL     1     -13.568   6.163  73.171  1.00  0.00     0.000 HD 
BRANCH  15  18
HETATM   18  C   UNL     1     -11.068   5.620  72.966  1.00  0.00    -0.282 C  
BRANCH  18  19
HETATM   19  N   UNL     1      -9.643   5.733  72.636  1.00  0.00    -0.153 NA 
HETATM   20  H   UNL     1      -9.146   6.253  73.360  1.00  0.00     0.000 HD 
BRANCH  19  21
HETATM   21  C   UNL     1      -8.990   4.443  72.386  1.00  0.00    -0.119 C  
HETATM   22  C   UNL     1      -9.771   3.558  71.413  1.00  0.00    -0.236 C  
HETATM   23  C   UNL     1      -7.601   4.726  71.807  1.00  0.00    -0.095 C  
ENDBRANCH  19  21
ENDBRANCH  18  19
ENDBRANCH  15  18
ENDBRANCH  14  15
ENDBRANCH  13  14
ENDBRANCH  10  13
ENDBRANCH   6   7
ENDBRANCH   5   6
ENDBRANCH   3   5
ENDBRANCH   2   3
TORSDOF 10
ENDMDL
MODEL      133
REMARK 921   NORMALIZED FREE ENERGY PREDICTED BY IDOCK:   -4.12 KCAL/MOL
REMARK 922        TOTAL FREE ENERGY PREDICTED BY IDOCK:   -7.41 KCAL/MOL
REMARK 923 INTER-LIGAND FREE ENERGY PREDICTED BY IDOCK:   -6.82 KCAL/MOL
REMARK 924 INTRA-LIGAND FREE ENERGY PREDICTED BY IDOCK:   -0.59 KCAL/MOL
REMARK 927      BINDING AFFINITY PREDICTED BY RF-SCORE:    0.00 PKD
ROOT
HETATM    1  C   UNL     1     -11.007   5.577  72.860  1.00  0.00    -0.285 C  
HETATM    2  O   UNL     1     -11.209   6.951  72.541  1.00  0.00    -0.253 OA 
ENDROOT
BRANCH   2   3
HETATM    3  C   UNL     1     -11.913   7.157  71.391  1.00  0.00    -0.328 C  
HETATM    4  O   UNL     1     -13.133   7.152  71.299  1.00  0.00    -0.384 OA 
BRANCH   3   5
HETATM    5  C   UNL     1     -10.952   7.371  70.257  1.00  0.00    -0.272 C  
BRANCH   5   6
HETATM    6  C   UNL     1     -10.234   8.721  70.344  1.00  0.00    -0.228 C  
BRANCH   6   7
HETATM    7  C   UNL     1     -10.649   9.690  69.259  1.00  0.00    -0.236 A  
HETATM    8  C   UNL     1     -11.446  10.797  69.553  1.00  0.00    -0.365 A  
HETATM    9  C   UNL     1     -11.844  11.680  68.557  1.00  0.00    -0.357 A  
HETATM   10  C   UNL     1     -11.442  11.496  67.234  1.00  0.00    -0.263 A  
HETATM   11  C   UNL     1     -10.204   9.524  67.937  1.00  0.00    -0.251 A  
HETATM   12  C   UNL     1     -10.604  10.420  66.932  1.00  0.00    -0.293 A  
BRANCH  10  13
HETATM   13  O   UNL     1     -11.811  12.313  66.192  1.00  0.00    -0.507 OA 
BRANCH  13  14
HETATM   14  C   UNL     1     -11.735  13.718  66.492  1.00  0.00    -0.385 C  
BRANCH  14  15
HETATM   15  C   UNL     1     -10.412  14.322  66.013  1.00  0.00    -0.301 C  
HETATM   16  O   UNL     1      -9.926  13.582  64.886  1.00  0.00    -0.565 OA 
HETATM   17  H   UNL     1      -9.105  13.957  64.589  1.00  0.00     0.000 HD 
BRANCH  15  18
HETATM   18  C   UNL     1     -10.536  15.810  65.640  1.00  0.00    -0.377 C  
BRANCH  18  19
HETATM   19  N   UNL     1     -10.829  16.646  66.810  1.00  0.00    -0.122 NA 
HETATM   20  H   UNL     1     -10.994  16.067  67.634  1.00  0.00     0.000 HD 
BRANCH  19  21
HETATM   21  C   UNL     1      -9.801  17.656  67.087  1.00  0.00    -0.306 C  
HETATM   22  C   UNL     1     -10.388  18.998  67.531  1.00  0.00    -0.503 C  
HETATM   23  C   UNL     1      -8.894  17.110  68.194  1.00  0.00    -0.237 C  
ENDBRANCH  19  21
ENDBRANCH  18  19
ENDBRANCH  15  18
ENDBRANCH  14  15
ENDBRANCH  13  14
ENDBRANCH  10  13
ENDBRANCH   6   7
ENDBRANCH   5   6
ENDBRANCH   3   5
ENDBRANCH   2   3
TORSDOF 10
ENDMDL
MODEL      134
REMARK 921   NORMALIZED FREE ENERGY PREDICTED BY IDOCK:   -4.11 KCAL/MOL
REMARK 922        TOTAL FREE ENERGY PREDICTED BY IDOCK:   -7.40 KCAL/MOL
REMARK 923 INTER-LIGAND FREE ENERGY PREDICTED BY IDOCK:   -6.43 KCAL/MOL
REMARK 924 INTRA-LIGAND FREE ENERGY PREDICTED BY IDOCK:   -0.96 KCAL/MOL
REMARK 927      BINDING AFFINITY PREDICTED BY RF-SCORE:    0.00 PKD
ROOT
HETATM    1  C   UNL     1     -11.980  15.235  64.240  1.00  0.00    -0.223 C  
HETATM    2  O   UNL     1     -12.831  14.317  64.921  1.00  0.00    -0.680 OA 
ENDROOT
BRANCH   2   3
HETATM    3  C   UNL     1     -12.520  13.007  64.706  1.00  0.00    -0.427 C  
HETATM    4  O   UNL     1     -13.023  12.293  63.847  1.00  0.00    -0.753 OA 
BRANCH   3   5
HETATM    5  C   UNL     1     -11.482  12.577  65.700  1.00  0.00    -0.400 C  
BRANCH   5   6
HETATM    6  C   UNL     1     -12.017  12.560  67.136  1.00  0.00    -0.285 C  
BRANCH   6   7
HETATM    7  C   UNL     1     -11.178  11.725  68.078  1.00  0.00    -0.324 A  
HETATM    8  C   UNL     1      -9.812  11.548  67.852  1.00  0.00    -0.192 A  
HETATM    9  C   UNL     1      -9.039  10.767  68.705  1.00  0.00    -0.173 A  
HETATM   10  C   UNL     1      -9.605  10.153  69.822  1.00  0.00    -0.177 A  
HETATM   11  C   UNL     1     -11.744  11.145  69.225  1.00  0.00    -0.401 A  
HETATM   12  C   UNL     1     -10.960  10.360  70.088  1.00  0.00    -0.365 A  
BRANCH  10  13
HETATM   13  O   UNL     1      -8.911   9.351  70.698  1.00  0.00    -0.238 OA 
BRANCH  13  14
HETATM   14  C   UNL     1      -9.699   8.862  71.797  1.00  0.00    -0.295 C  
BRANCH  14  15
HETATM   15  C   UNL     1      -9.171   7.519  72.309  1.00  0.00    -0.138 C  
HETATM   16  O   UNL     1      -8.906   7.611  73.714  1.00  0.00    -0.206 OA 
HETATM   17  H   UNL     1      -8.577   6.778  74.032  1.00  0.00     0.000 HD 
BRANCH  15  18
HETATM   18  C   UNL     1     -10.142   6.355  72.041  1.00  0.00    -0.178 C  
BRANCH  18  19
HETATM   19  N   UNL     1     -10.105   5.921  70.640  1.00  0.00    -0.188 NA 
HETATM   20  H   UNL     1      -9.794   4.952  70.572  1.00  0.00     0.000 HD 
BRANCH  19  21
HETATM   21  C   UNL     1     -11.376   6.107  69.930  1.00  0.00    -0.384 C  
HETATM   22  C   UNL     1     -12.413   6.874  70.754  1.00  0.00    -0.251 C  
HETATM   23  C   UNL     1     -11.083   6.881  68.641  1.00  0.00    -0.152 C  
ENDBRANCH  19  21
ENDBRANCH  18  19
ENDBRANCH  15  18
ENDBRANCH  14  15
ENDBRANCH  13  14
ENDBRANCH  10  13
ENDBRANCH   6   7
ENDBRANCH   5   6
ENDBRANCH   3   5
ENDBRANCH   2   3
TORSDOF 10
ENDMDL
MODEL      135
REMARK 921   NORMALIZED FREE ENERGY PREDICTED BY IDOCK:   -4.11 KCAL/MOL
REMARK 922        TOTAL FREE ENERGY PREDICTED BY IDOCK:   -7.39 KCAL/MOL
REMARK 923 INTER-LIGAND FREE ENERGY PREDICTED BY IDOCK:   -6.37 KCAL/MOL
REMARK 924 INTRA-LIGAND FREE ENERGY PREDICTED BY IDOCK:   -1.01 KCAL/MOL
REMARK 927      BINDING AFFINITY PREDICTED BY RF-SCORE:    0.00 PKD
ROOT
HETATM    1  C   UNL     1     -10.732  19.379  67.564  1.00  0.00    -0.453 C  
HETATM    2  O   UNL     1     -10.667  17.973  67.788  1.00  0.00    -0.410 OA 
ENDROOT
BRANCH   2   3
HETATM    3  C   UNL     1      -9.401  17.469  67.799  1.00  0.00    -0.257 C  
HETATM    4  O   UNL     1      -8.658  17.446  68.772  1.00  0.00    -0.275 OA 
BRANCH   3   5
HETATM    5  C   UNL     1      -9.057  16.967  66.427  1.00  0.00    -0.300 C  
BRANCH   5   6
HETATM    6  C   UNL     1     -10.194  16.153  65.800  1.00  0.00    -0.397 C  
BRANCH   6   7
HETATM    7  C   UNL     1     -10.492  14.870  66.544  1.00  0.00    -0.297 A  
HETATM    8  C   UNL     1      -9.505  13.899  66.719  1.00  0.00    -0.287 A  
HETATM    9  C   UNL     1      -9.778  12.711  67.388  1.00  0.00    -0.199 A  
HETATM   10  C   UNL     1     -11.043  12.464  67.919  1.00  0.00    -0.239 A  
HETATM   11  C   UNL     1     -11.755  14.646  67.115  1.00  0.00    -0.392 A  
HETATM   12  C   UNL     1     -12.028  13.446  67.794  1.00  0.00    -0.363 A  
BRANCH  10  13
HETATM   13  O   UNL     1     -11.395  11.306  68.573  1.00  0.00    -0.226 OA 
BRANCH  13  14
HETATM   14  C   UNL     1     -11.978  11.518  69.871  1.00  0.00    -0.351 C  
BRANCH  14  15
HETATM   15  C   UNL     1     -11.900  10.254  70.732  1.00  0.00    -0.365 C  
HETATM   16  O   UNL     1     -13.165   9.583  70.716  1.00  0.00    -0.568 OA 
HETATM   17  H   UNL     1     -13.117   8.799  71.250  1.00  0.00     0.000 HD 
BRANCH  15  18
HETATM   18  C   UNL     1     -10.795   9.287  70.273  1.00  0.00    -0.246 C  
BRANCH  18  19
HETATM   19  N   UNL     1      -9.493   9.955  70.160  1.00  0.00    -0.363 NA 
HETATM   20  H   UNL     1      -9.199  10.325  71.064  1.00  0.00     0.000 HD 
BRANCH  19  21
HETATM   21  C   UNL     1      -8.443   9.109  69.582  1.00  0.00    -0.133 C  
HETATM   22  C   UNL     1      -8.768   7.616  69.661  1.00  0.00    -0.136 C  
HETATM   23  C   UNL     1      -8.273   9.512  68.114  1.00  0.00    -0.114 C  
ENDBRANCH  19  21
ENDBRANCH  18  19
ENDBRANCH  15  18
ENDBRANCH  14  15
ENDBRANCH  13  14
ENDBRANCH  10  13
ENDBRANCH   6   7
ENDBRANCH   5   6
ENDBRANCH   3   5
ENDBRANCH   2   3
TORSDOF 10
ENDMDL
MODEL      136
REMARK 921   NORMALIZED FREE ENERGY PREDICTED BY IDOCK:   -4.10 KCAL/MOL
REMARK 922        TOTAL FREE ENERGY PREDICTED BY IDOCK:   -7.38 KCAL/MOL
REMARK 923 INTER-LIGAND FREE ENERGY PREDICTED BY IDOCK:   -6.66 KCAL/MOL
REMARK 924 INTRA-LIGAND FREE ENERGY PREDICTED BY IDOCK:   -0.72 KCAL/MOL
REMARK 927      BINDING AFFINITY PREDICTED BY RF-SCORE:    0.00 PKD
ROOT
HETATM    1  C   UNL     1     -11.010   7.469  72.965  1.00  0.00    -0.390 C  
HETATM    2  O   UNL     1     -11.996   8.453  72.663  1.00  0.00    -0.396 OA 
ENDROOT
BRANCH   2   3
HETATM    3  C   UNL     1     -11.681   9.248  71.601  1.00  0.00    -0.392 C  
HETATM    4  O   UNL     1     -10.563   9.367  71.115  1.00  0.00    -0.295 OA 
BRANCH   3   5
HETATM    5  C   UNL     1     -12.915   9.965  71.139  1.00  0.00    -0.456 C  
BRANCH   5   6
HETATM    6  C   UNL     1     -13.057  11.354  71.771  1.00  0.00    -0.523 C  
BRANCH   6   7
HETATM    7  C   UNL     1     -12.659  12.478  70.840  1.00  0.00    -0.331 A  
HETATM    8  C   UNL     1     -12.197  12.210  69.551  1.00  0.00    -0.169 A  
HETATM    9  C   UNL     1     -11.815  13.238  68.697  1.00  0.00    -0.380 A  
HETATM   10  C   UNL     1     -11.899  14.570  69.099  1.00  0.00    -0.319 A  
HETATM   11  C   UNL     1     -12.788  13.820  71.235  1.00  0.00    -0.434 A  
HETATM   12  C   UNL     1     -12.404  14.858  70.369  1.00  0.00    -0.401 A  
BRANCH  10  13
HETATM   13  O   UNL     1     -11.521  15.639  68.321  1.00  0.00    -0.353 OA 
BRANCH  13  14
HETATM   14  C   UNL     1     -11.184  15.289  66.966  1.00  0.00    -0.275 C  
BRANCH  14  15
HETATM   15  C   UNL     1      -9.707  14.906  66.838  1.00  0.00    -0.240 C  
HETATM   16  O   UNL     1      -9.480  14.288  65.566  1.00  0.00    -0.534 OA 
HETATM   17  H   UNL     1      -8.563  14.049  65.487  1.00  0.00     0.000 HD 
BRANCH  15  18
HETATM   18  C   UNL     1      -8.762  16.109  67.006  1.00  0.00    -0.202 C  
BRANCH  18  19
HETATM   19  N   UNL     1      -8.610  16.495  68.413  1.00  0.00    -0.204 NA 
HETATM   20  H   UNL     1      -9.397  16.156  68.966  1.00  0.00     0.000 HD 
BRANCH  19  21
HETATM   21  C   UNL     1      -7.338  16.068  69.009  1.00  0.00    -0.191 C  
HETATM   22  C   UNL     1      -7.456  14.757  69.789  1.00  0.00    -0.024 C  
HETATM   23  C   UNL     1      -6.326  15.891  67.873  1.00  0.00    -0.154 C  
ENDBRANCH  19  21
ENDBRANCH  18  19
ENDBRANCH  15  18
ENDBRANCH  14  15
ENDBRANCH  13  14
ENDBRANCH  10  13
ENDBRANCH   6   7
ENDBRANCH   5   6
ENDBRANCH   3   5
ENDBRANCH   2   3
TORSDOF 10
ENDMDL
MODEL      137
REMARK 921   NORMALIZED FREE ENERGY PREDICTED BY IDOCK:   -4.10 KCAL/MOL
REMARK 922        TOTAL FREE ENERGY PREDICTED BY IDOCK:   -7.38 KCAL/MOL
REMARK 923 INTER-LIGAND FREE ENERGY PREDICTED BY IDOCK:   -6.96 KCAL/MOL
REMARK 924 INTRA-LIGAND FREE ENERGY PREDICTED BY IDOCK:   -0.41 KCAL/MOL
REMARK 927      BINDING AFFINITY PREDICTED BY RF-SCORE:    0.00 PKD
ROOT
HETATM    1  C   UNL     1      -5.950  10.054  64.675  1.00  0.00    -0.115 C  
HETATM    2  O   UNL     1      -7.369  10.173  64.612  1.00  0.00    -0.141 OA 
ENDROOT
BRANCH   2   3
HETATM    3  C   UNL     1      -7.864  10.263  63.344  1.00  0.00    -0.136 C  
HETATM    4  O   UNL     1      -7.209  10.548  62.349  1.00  0.00    -0.141 OA 
BRANCH   3   5
HETATM    5  C   UNL     1      -9.337   9.979  63.369  1.00  0.00    -0.300 C  
BRANCH   5   6
HETATM    6  C   UNL     1     -10.181  11.249  63.214  1.00  0.00    -0.417 C  
BRANCH   6   7
HETATM    7  C   UNL     1     -10.745  11.755  64.524  1.00  0.00    -0.369 A  
HETATM    8  C   UNL     1     -10.352  11.190  65.738  1.00  0.00    -0.316 A  
HETATM    9  C   UNL     1     -10.880  11.640  66.943  1.00  0.00    -0.322 A  
HETATM   10  C   UNL     1     -11.806  12.682  66.974  1.00  0.00    -0.345 A  
HETATM   11  C   UNL     1     -11.644  12.834  64.552  1.00  0.00    -0.397 A  
HETATM   12  C   UNL     1     -12.173  13.289  65.771  1.00  0.00    -0.510 A  
BRANCH  10  13
HETATM   13  O   UNL     1     -12.387  13.167  68.122  1.00  0.00    -0.135 OA 
BRANCH  13  14
HETATM   14  C   UNL     1     -11.446  13.574  69.131  1.00  0.00    -0.295 C  
BRANCH  14  15
HETATM   15  C   UNL     1     -11.167  15.077  69.062  1.00  0.00    -0.268 C  
HETATM   16  O   UNL     1     -12.396  15.785  68.856  1.00  0.00    -0.565 OA 
HETATM   17  H   UNL     1     -12.223  16.718  68.813  1.00  0.00     0.000 HD 
BRANCH  15  18
HETATM   18  C   UNL     1     -10.466  15.613  70.323  1.00  0.00    -0.260 C  
BRANCH  18  19
HETATM   19  N   UNL     1     -10.959  14.961  71.542  1.00  0.00    -0.480 NA 
HETATM   20  H   UNL     1     -10.263  15.017  72.286  1.00  0.00     0.000 HD 
BRANCH  19  21
HETATM   21  C   UNL     1     -12.252  15.475  72.006  1.00  0.00    -0.404 C  
HETATM   22  C   UNL     1     -13.132  14.394  72.638  1.00  0.00    -0.564 C  
HETATM   23  C   UNL     1     -11.977  16.571  73.040  1.00  0.00    -0.481 C  
ENDBRANCH  19  21
ENDBRANCH  18  19
ENDBRANCH  15  18
ENDBRANCH  14  15
ENDBRANCH  13  14
ENDBRANCH  10  13
ENDBRANCH   6   7
ENDBRANCH   5   6
ENDBRANCH   3   5
ENDBRANCH   2   3
TORSDOF 10
ENDMDL
MODEL      138
REMARK 921   NORMALIZED FREE ENERGY PREDICTED BY IDOCK:   -4.10 KCAL/MOL
REMARK 922        TOTAL FREE ENERGY PREDICTED BY IDOCK:   -7.37 KCAL/MOL
REMARK 923 INTER-LIGAND FREE ENERGY PREDICTED BY IDOCK:   -6.48 KCAL/MOL
REMARK 924 INTRA-LIGAND FREE ENERGY PREDICTED BY IDOCK:   -0.89 KCAL/MOL
REMARK 927      BINDING AFFINITY PREDICTED BY RF-SCORE:    0.00 PKD
ROOT
HETATM    1  C   UNL     1     -11.718   6.737  70.292  1.00  0.00    -0.341 C  
HETATM    2  O   UNL     1     -10.380   6.644  70.773  1.00  0.00    -0.198 OA 
ENDROOT
BRANCH   2   3
HETATM    3  C   UNL     1      -9.520   6.034  69.909  1.00  0.00    -0.151 C  
HETATM    4  O   UNL     1      -8.430   5.564  70.211  1.00  0.00    -0.117 OA 
BRANCH   3   5
HETATM    5  C   UNL     1     -10.112   6.048  68.530  1.00  0.00    -0.197 C  
BRANCH   5   6
HETATM    6  C   UNL     1      -9.084   6.415  67.455  1.00  0.00    -0.111 C  
BRANCH   6   7
HETATM    7  C   UNL     1      -9.372   7.738  66.780  1.00  0.00    -0.227 A  
HETATM    8  C   UNL     1      -8.699   8.108  65.615  1.00  0.00    -0.176 A  
HETATM    9  C   UNL     1      -8.947   9.330  65.000  1.00  0.00    -0.245 A  
HETATM   10  C   UNL     1      -9.891  10.214  65.521  1.00  0.00    -0.298 A  
HETATM   11  C   UNL     1     -10.356   8.605  67.284  1.00  0.00    -0.366 A  
HETATM   12  C   UNL     1     -10.608   9.838  66.658  1.00  0.00    -0.178 A  
BRANCH  10  13
HETATM   13  O   UNL     1     -10.176  11.447  64.982  1.00  0.00    -0.251 OA 
BRANCH  13  14
HETATM   14  C   UNL     1     -10.865  11.392  63.720  1.00  0.00    -0.395 C  
BRANCH  14  15
HETATM   15  C   UNL     1     -11.967  12.452  63.638  1.00  0.00    -0.539 C  
HETATM   16  O   UNL     1     -13.222  11.871  64.011  1.00  0.00    -0.632 OA 
HETATM   17  H   UNL     1     -13.906  12.528  63.960  1.00  0.00     0.000 HD 
BRANCH  15  18
HETATM   18  C   UNL     1     -11.682  13.678  64.523  1.00  0.00    -0.400 C  
BRANCH  18  19
HETATM   19  N   UNL     1     -12.630  13.782  65.638  1.00  0.00    -0.510 NA 
HETATM   20  H   UNL     1     -13.153  12.913  65.748  1.00  0.00     0.000 HD 
BRANCH  19  21
HETATM   21  C   UNL     1     -12.008  14.175  66.908  1.00  0.00    -0.449 C  
HETATM   22  C   UNL     1     -11.593  12.978  67.765  1.00  0.00    -0.385 C  
HETATM   23  C   UNL     1     -10.770  15.016  66.582  1.00  0.00    -0.312 C  
ENDBRANCH  19  21
ENDBRANCH  18  19
ENDBRANCH  15  18
ENDBRANCH  14  15
ENDBRANCH  13  14
ENDBRANCH  10  13
ENDBRANCH   6   7
ENDBRANCH   5   6
ENDBRANCH   3   5
ENDBRANCH   2   3
TORSDOF 10
ENDMDL
MODEL      139
REMARK 921   NORMALIZED FREE ENERGY PREDICTED BY IDOCK:   -4.09 KCAL/MOL
REMARK 922        TOTAL FREE ENERGY PREDICTED BY IDOCK:   -7.36 KCAL/MOL
REMARK 923 INTER-LIGAND FREE ENERGY PREDICTED BY IDOCK:   -6.66 KCAL/MOL
REMARK 924 INTRA-LIGAND FREE ENERGY PREDICTED BY IDOCK:   -0.70 KCAL/MOL
REMARK 927      BINDING AFFINITY PREDICTED BY RF-SCORE:    0.00 PKD
ROOT
HETATM    1  C   UNL     1     -10.034  19.615  68.528  1.00  0.00    -0.443 C  
HETATM    2  O   UNL     1     -10.050  18.230  68.196  1.00  0.00    -0.340 OA 
ENDROOT
BRANCH   2   3
HETATM    3  C   UNL     1      -8.840  17.738  67.804  1.00  0.00    -0.249 C  
HETATM    4  O   UNL     1      -7.826  17.727  68.490  1.00  0.00    -0.273 OA 
BRANCH   3   5
HETATM    5  C   UNL     1      -8.946  17.235  66.394  1.00  0.00    -0.282 C  
BRANCH   5   6
HETATM    6  C   UNL     1     -10.391  16.926  65.990  1.00  0.00    -0.335 C  
BRANCH   6   7
HETATM    7  C   UNL     1     -10.763  15.470  66.165  1.00  0.00    -0.315 A  
HETATM    8  C   UNL     1     -10.568  14.553  65.131  1.00  0.00    -0.429 A  
HETATM    9  C   UNL     1     -10.924  13.217  65.280  1.00  0.00    -0.307 A  
HETATM   10  C   UNL     1     -11.469  12.751  66.476  1.00  0.00    -0.355 A  
HETATM   11  C   UNL     1     -11.271  14.998  67.386  1.00  0.00    -0.337 A  
HETATM   12  C   UNL     1     -11.626  13.647  67.536  1.00  0.00    -0.384 A  
BRANCH  10  13
HETATM   13  O   UNL     1     -11.864  11.452  66.692  1.00  0.00    -0.399 OA 
BRANCH  13  14
HETATM   14  C   UNL     1     -11.060  10.744  67.652  1.00  0.00    -0.319 C  
BRANCH  14  15
HETATM   15  C   UNL     1     -10.890   9.273  67.263  1.00  0.00    -0.069 C  
HETATM   16  O   UNL     1     -10.218   9.184  66.001  1.00  0.00    -0.332 OA 
HETATM   17  H   UNL     1     -10.114   8.271  65.759  1.00  0.00     0.000 HD 
BRANCH  15  18
HETATM   18  C   UNL     1     -10.117   8.463  68.319  1.00  0.00    -0.199 C  
BRANCH  18  19
HETATM   19  N   UNL     1     -11.019   7.780  69.254  1.00  0.00    -0.427 NA 
HETATM   20  H   UNL     1     -10.921   6.768  69.172  1.00  0.00     0.000 HD 
BRANCH  19  21
HETATM   21  C   UNL     1     -10.856   8.204  70.649  1.00  0.00    -0.233 C  
HETATM   22  C   UNL     1      -9.575   9.009  70.882  1.00  0.00    -0.328 C  
HETATM   23  C   UNL     1     -12.067   9.064  71.021  1.00  0.00    -0.304 C  
ENDBRANCH  19  21
ENDBRANCH  18  19
ENDBRANCH  15  18
ENDBRANCH  14  15
ENDBRANCH  13  14
ENDBRANCH  10  13
ENDBRANCH   6   7
ENDBRANCH   5   6
ENDBRANCH   3   5
ENDBRANCH   2   3
TORSDOF 10
ENDMDL
MODEL      140
REMARK 921   NORMALIZED FREE ENERGY PREDICTED BY IDOCK:   -4.08 KCAL/MOL
REMARK 922        TOTAL FREE ENERGY PREDICTED BY IDOCK:   -7.35 KCAL/MOL
REMARK 923 INTER-LIGAND FREE ENERGY PREDICTED BY IDOCK:   -6.81 KCAL/MOL
REMARK 924 INTRA-LIGAND FREE ENERGY PREDICTED BY IDOCK:   -0.53 KCAL/MOL
REMARK 927      BINDING AFFINITY PREDICTED BY RF-SCORE:    0.00 PKD
ROOT
HETATM    1  C   UNL     1     -10.649  19.710  65.690  1.00  0.00    -0.364 C  
HETATM    2  O   UNL     1      -9.412  19.356  66.304  1.00  0.00    -0.353 OA 
ENDROOT
BRANCH   2   3
HETATM    3  C   UNL     1      -9.397  19.518  67.658  1.00  0.00    -0.316 C  
HETATM    4  O   UNL     1     -10.143  20.255  68.289  1.00  0.00    -0.381 OA 
BRANCH   3   5
HETATM    5  C   UNL     1      -8.308  18.668  68.244  1.00  0.00    -0.350 C  
BRANCH   5   6
HETATM    6  C   UNL     1      -8.090  17.372  67.456  1.00  0.00    -0.205 C  
BRANCH   6   7
HETATM    7  C   UNL     1      -8.999  16.245  67.895  1.00  0.00    -0.187 A  
HETATM    8  C   UNL     1      -9.075  15.060  67.161  1.00  0.00    -0.229 A  
HETATM    9  C   UNL     1      -9.922  14.028  67.550  1.00  0.00    -0.236 A  
HETATM   10  C   UNL     1     -10.707  14.141  68.697  1.00  0.00    -0.254 A  
HETATM   11  C   UNL     1      -9.754  16.347  69.075  1.00  0.00    -0.262 A  
HETATM   12  C   UNL     1     -10.606  15.301  69.468  1.00  0.00    -0.272 A  
BRANCH  10  13
HETATM   13  O   UNL     1     -11.582  13.175  69.133  1.00  0.00    -0.278 OA 
BRANCH  13  14
HETATM   14  C   UNL     1     -11.603  11.989  68.319  1.00  0.00    -0.334 C  
BRANCH  14  15
HETATM   15  C   UNL     1     -11.217  10.748  69.128  1.00  0.00    -0.262 C  
HETATM   16  O   UNL     1      -9.846  10.845  69.532  1.00  0.00    -0.425 OA 
HETATM   17  H   UNL     1      -9.607  10.074  70.034  1.00  0.00     0.000 HD 
BRANCH  15  18
HETATM   18  C   UNL     1     -12.109  10.542  70.365  1.00  0.00    -0.329 C  
BRANCH  18  19
HETATM   19  N   UNL     1     -12.522   9.142  70.517  1.00  0.00    -0.466 NA 
HETATM   20  H   UNL     1     -11.757   8.513  70.273  1.00  0.00     0.000 HD 
BRANCH  19  21
HETATM   21  C   UNL     1     -13.048   8.823  71.849  1.00  0.00    -0.378 C  
HETATM   22  C   UNL     1     -14.397   8.100  71.800  1.00  0.00    -0.582 C  
HETATM   23  C   UNL     1     -12.023   7.931  72.556  1.00  0.00    -0.349 C  
ENDBRANCH  19  21
ENDBRANCH  18  19
ENDBRANCH  15  18
ENDBRANCH  14  15
ENDBRANCH  13  14
ENDBRANCH  10  13
ENDBRANCH   6   7
ENDBRANCH   5   6
ENDBRANCH   3   5
ENDBRANCH   2   3
TORSDOF 10
ENDMDL
MODEL      141
REMARK 921   NORMALIZED FREE ENERGY PREDICTED BY IDOCK:   -4.08 KCAL/MOL
REMARK 922        TOTAL FREE ENERGY PREDICTED BY IDOCK:   -7.34 KCAL/MOL
REMARK 923 INTER-LIGAND FREE ENERGY PREDICTED BY IDOCK:   -6.60 KCAL/MOL
REMARK 924 INTRA-LIGAND FREE ENERGY PREDICTED BY IDOCK:   -0.74 KCAL/MOL
REMARK 927      BINDING AFFINITY PREDICTED BY RF-SCORE:    0.00 PKD
ROOT
HETATM    1  C   UNL     1      -8.687   6.155  66.999  1.00  0.00    -0.107 C  
HETATM    2  O   UNL     1      -9.438   5.999  68.201  1.00  0.00    -0.115 OA 
ENDROOT
BRANCH   2   3
HETATM    3  C   UNL     1     -10.737   6.401  68.102  1.00  0.00    -0.291 C  
HETATM    4  O   UNL     1     -11.275   6.804  67.078  1.00  0.00    -0.393 OA 
BRANCH   3   5
HETATM    5  C   UNL     1     -11.391   6.290  69.447  1.00  0.00    -0.448 C  
BRANCH   5   6
HETATM    6  C   UNL     1     -10.678   7.123  70.517  1.00  0.00    -0.259 C  
BRANCH   6   7
HETATM    7  C   UNL     1     -11.191   8.544  70.609  1.00  0.00    -0.278 A  
HETATM    8  C   UNL     1     -12.207   8.880  71.505  1.00  0.00    -0.388 A  
HETATM    9  C   UNL     1     -12.694  10.180  71.582  1.00  0.00    -0.549 A  
HETATM   10  C   UNL     1     -12.168  11.190  70.777  1.00  0.00    -0.385 A  
HETATM   11  C   UNL     1     -10.627   9.566  69.828  1.00  0.00    -0.257 A  
HETATM   12  C   UNL     1     -11.119  10.879  69.910  1.00  0.00    -0.311 A  
BRANCH  10  13
HETATM   13  O   UNL     1     -12.611  12.491  70.782  1.00  0.00    -0.304 OA 
BRANCH  13  14
HETATM   14  C   UNL     1     -12.192  13.260  69.640  1.00  0.00    -0.199 C  
BRANCH  14  15
HETATM   15  C   UNL     1     -12.041  14.743  69.989  1.00  0.00    -0.329 C  
HETATM   16  O   UNL     1     -11.126  14.889  71.081  1.00  0.00    -0.532 OA 
HETATM   17  H   UNL     1     -11.032  15.810  71.297  1.00  0.00     0.000 HD 
BRANCH  15  18
HETATM   18  C   UNL     1     -11.564  15.590  68.796  1.00  0.00    -0.378 C  
BRANCH  18  19
HETATM   19  N   UNL     1     -10.180  15.279  68.421  1.00  0.00    -0.220 NA 
HETATM   20  H   UNL     1      -9.774  14.605  69.071  1.00  0.00     0.000 HD 
BRANCH  19  21
HETATM   21  C   UNL     1     -10.032  14.815  67.037  1.00  0.00    -0.238 C  
HETATM   22  C   UNL     1      -8.979  15.602  66.253  1.00  0.00    -0.377 C  
HETATM   23  C   UNL     1      -9.631  13.337  67.079  1.00  0.00    -0.243 C  
ENDBRANCH  19  21
ENDBRANCH  18  19
ENDBRANCH  15  18
ENDBRANCH  14  15
ENDBRANCH  13  14
ENDBRANCH  10  13
ENDBRANCH   6   7
ENDBRANCH   5   6
ENDBRANCH   3   5
ENDBRANCH   2   3
TORSDOF 10
ENDMDL
MODEL      142
REMARK 921   NORMALIZED FREE ENERGY PREDICTED BY IDOCK:   -4.03 KCAL/MOL
REMARK 922        TOTAL FREE ENERGY PREDICTED BY IDOCK:   -7.26 KCAL/MOL
REMARK 923 INTER-LIGAND FREE ENERGY PREDICTED BY IDOCK:   -6.62 KCAL/MOL
REMARK 924 INTRA-LIGAND FREE ENERGY PREDICTED BY IDOCK:   -0.64 KCAL/MOL
REMARK 927      BINDING AFFINITY PREDICTED BY RF-SCORE:    0.00 PKD
ROOT
HETATM    1  C   UNL     1     -11.966   7.312  70.986  1.00  0.00    -0.327 C  
HETATM    2  O   UNL     1     -10.747   6.594  70.816  1.00  0.00    -0.223 OA 
ENDROOT
BRANCH   2   3
HETATM    3  C   UNL     1      -9.967   7.055  69.797  1.00  0.00    -0.173 C  
HETATM    4  O   UNL     1      -8.748   7.165  69.834  1.00  0.00    -0.140 OA 
BRANCH   3   5
HETATM    5  C   UNL     1     -10.842   7.425  68.635  1.00  0.00    -0.073 C  
BRANCH   5   6
HETATM    6  C   UNL     1     -10.080   8.190  67.548  1.00  0.00    -0.286 C  
BRANCH   6   7
HETATM    7  C   UNL     1     -10.522   9.631  67.409  1.00  0.00    -0.319 A  
HETATM    8  C   UNL     1     -10.157  10.387  66.294  1.00  0.00    -0.292 A  
HETATM    9  C   UNL     1     -10.545  11.715  66.170  1.00  0.00    -0.306 A  
HETATM   10  C   UNL     1     -11.328  12.327  67.150  1.00  0.00    -0.335 A  
HETATM   11  C   UNL     1     -11.346  10.227  68.377  1.00  0.00    -0.244 A  
HETATM   12  C   UNL     1     -11.741  11.570  68.248  1.00  0.00    -0.371 A  
BRANCH  10  13
HETATM   13  O   UNL     1     -11.733  13.640  67.107  1.00  0.00    -0.340 OA 
BRANCH  13  14
HETATM   14  C   UNL     1     -12.107  14.182  68.387  1.00  0.00    -0.273 C  
BRANCH  14  15
HETATM   15  C   UNL     1     -10.986  15.039  68.980  1.00  0.00    -0.249 C  
HETATM   16  O   UNL     1     -10.500  15.950  67.987  1.00  0.00    -0.258 OA 
HETATM   17  H   UNL     1      -9.804  16.482  68.355  1.00  0.00     0.000 HD 
BRANCH  15  18
HETATM   18  C   UNL     1     -11.431  15.822  70.228  1.00  0.00    -0.359 C  
BRANCH  18  19
HETATM   19  N   UNL     1     -11.759  14.932  71.347  1.00  0.00    -0.382 NA 
HETATM   20  H   UNL     1     -10.959  14.828  71.970  1.00  0.00     0.000 HD 
BRANCH  19  21
HETATM   21  C   UNL     1     -12.951  15.341  72.098  1.00  0.00    -0.366 C  
HETATM   22  C   UNL     1     -13.877  14.170  72.433  1.00  0.00    -0.638 C  
HETATM   23  C   UNL     1     -12.480  16.001  73.398  1.00  0.00    -0.668 C  
ENDBRANCH  19  21
ENDBRANCH  18  19
ENDBRANCH  15  18
ENDBRANCH  14  15
ENDBRANCH  13  14
ENDBRANCH  10  13
ENDBRANCH   6   7
ENDBRANCH   5   6
ENDBRANCH   3   5
ENDBRANCH   2   3
TORSDOF 10
ENDMDL
MODEL      143
REMARK 921   NORMALIZED FREE ENERGY PREDICTED BY IDOCK:   -4.03 KCAL/MOL
REMARK 922        TOTAL FREE ENERGY PREDICTED BY IDOCK:   -7.26 KCAL/MOL
REMARK 923 INTER-LIGAND FREE ENERGY PREDICTED BY IDOCK:   -6.50 KCAL/MOL
REMARK 924 INTRA-LIGAND FREE ENERGY PREDICTED BY IDOCK:   -0.76 KCAL/MOL
REMARK 927      BINDING AFFINITY PREDICTED BY RF-SCORE:    0.00 PKD
ROOT
HETATM    1  C   UNL     1     -10.667   7.492  70.076  1.00  0.00    -0.240 C  
HETATM    2  O   UNL     1     -10.110   6.621  69.095  1.00  0.00    -0.159 OA 
ENDROOT
BRANCH   2   3
HETATM    3  C   UNL     1      -9.526   7.267  68.046  1.00  0.00    -0.136 C  
HETATM    4  O   UNL     1      -8.319   7.355  67.854  1.00  0.00    -0.118 OA 
BRANCH   3   5
HETATM    5  C   UNL     1     -10.594   7.867  67.178  1.00  0.00    -0.383 C  
BRANCH   5   6
HETATM    6  C   UNL     1     -10.051   8.962  66.255  1.00  0.00    -0.284 C  
BRANCH   6   7
HETATM    7  C   UNL     1     -10.632  10.329  66.543  1.00  0.00    -0.202 A  
HETATM    8  C   UNL     1     -10.732  11.291  65.536  1.00  0.00    -0.283 A  
HETATM    9  C   UNL     1     -11.250  12.554  65.799  1.00  0.00    -0.356 A  
HETATM   10  C   UNL     1     -11.701  12.890  67.075  1.00  0.00    -0.385 A  
HETATM   11  C   UNL     1     -11.126  10.648  67.818  1.00  0.00    -0.385 A  
HETATM   12  C   UNL     1     -11.652  11.924  68.081  1.00  0.00    -0.400 A  
BRANCH  10  13
HETATM   13  O   UNL     1     -12.205  14.123  67.416  1.00  0.00    -0.380 OA 
BRANCH  13  14
HETATM   14  C   UNL     1     -12.174  14.401  68.828  1.00  0.00    -0.165 C  
BRANCH  14  15
HETATM   15  C   UNL     1     -11.659  15.815  69.108  1.00  0.00    -0.392 C  
HETATM   16  O   UNL     1     -12.018  16.203  70.440  1.00  0.00    -0.419 OA 
HETATM   17  H   UNL     1     -11.699  17.080  70.614  1.00  0.00     0.000 HD 
BRANCH  15  18
HETATM   18  C   UNL     1     -10.136  15.942  68.925  1.00  0.00    -0.225 C  
BRANCH  18  19
HETATM   19  N   UNL     1      -9.748  17.281  68.469  1.00  0.00    -0.284 NA 
HETATM   20  H   UNL     1      -8.788  17.280  68.124  1.00  0.00     0.000 HD 
BRANCH  19  21
HETATM   21  C   UNL     1     -10.656  17.850  67.466  1.00  0.00    -0.376 C  
HETATM   22  C   UNL     1     -10.660  19.381  67.465  1.00  0.00    -0.591 C  
HETATM   23  C   UNL     1     -10.209  17.346  66.091  1.00  0.00    -0.334 C  
ENDBRANCH  19  21
ENDBRANCH  18  19
ENDBRANCH  15  18
ENDBRANCH  14  15
ENDBRANCH  13  14
ENDBRANCH  10  13
ENDBRANCH   6   7
ENDBRANCH   5   6
ENDBRANCH   3   5
ENDBRANCH   2   3
TORSDOF 10
ENDMDL
MODEL      144
REMARK 921   NORMALIZED FREE ENERGY PREDICTED BY IDOCK:   -4.00 KCAL/MOL
REMARK 922        TOTAL FREE ENERGY PREDICTED BY IDOCK:   -7.22 KCAL/MOL
REMARK 923 INTER-LIGAND FREE ENERGY PREDICTED BY IDOCK:   -6.39 KCAL/MOL
REMARK 924 INTRA-LIGAND FREE ENERGY PREDICTED BY IDOCK:   -0.83 KCAL/MOL
REMARK 927      BINDING AFFINITY PREDICTED BY RF-SCORE:    0.00 PKD
ROOT
HETATM    1  C   UNL     1     -10.004  16.450  66.370  1.00  0.00    -0.303 C  
HETATM    2  O   UNL     1     -10.679  16.839  65.177  1.00  0.00    -0.641 OA 
ENDROOT
BRANCH   2   3
HETATM    3  C   UNL     1     -11.303  15.813  64.530  1.00  0.00    -0.316 C  
HETATM    4  O   UNL     1     -12.209  15.938  63.716  1.00  0.00    -0.817 OA 
BRANCH   3   5
HETATM    5  C   UNL     1     -10.716  14.511  64.991  1.00  0.00    -0.444 C  
BRANCH   5   6
HETATM    6  C   UNL     1     -11.788  13.507  65.427  1.00  0.00    -0.379 C  
BRANCH   6   7
HETATM    7  C   UNL     1     -11.217  12.272  66.088  1.00  0.00    -0.372 A  
HETATM    8  C   UNL     1     -11.342  12.074  67.464  1.00  0.00    -0.387 A  
HETATM    9  C   UNL     1     -10.805  10.949  68.079  1.00  0.00    -0.293 A  
HETATM   10  C   UNL     1     -10.140   9.975  67.334  1.00  0.00    -0.208 A  
HETATM   11  C   UNL     1     -10.587  11.274  65.327  1.00  0.00    -0.323 A  
HETATM   12  C   UNL     1     -10.048  10.135  65.949  1.00  0.00    -0.325 A  
BRANCH  10  13
HETATM   13  O   UNL     1      -9.565   8.848  67.872  1.00  0.00    -0.144 OA 
BRANCH  13  14
HETATM   14  C   UNL     1     -10.506   7.924  68.446  1.00  0.00    -0.166 C  
BRANCH  14  15
HETATM   15  C   UNL     1     -10.578   6.625  67.640  1.00  0.00    -0.263 C  
HETATM   16  O   UNL     1     -11.535   6.768  66.583  1.00  0.00    -0.649 OA 
HETATM   17  H   UNL     1     -11.580   5.962  66.082  1.00  0.00     0.000 HD 
BRANCH  15  18
HETATM   18  C   UNL     1      -9.217   6.211  67.053  1.00  0.00    -0.123 C  
BRANCH  18  19
HETATM   19  N   UNL     1      -8.168   6.167  68.078  1.00  0.00    -0.113 NA 
HETATM   20  H   UNL     1      -8.410   5.500  68.811  1.00  0.00     0.000 HD 
BRANCH  19  21
HETATM   21  C   UNL     1      -6.831   5.886  67.544  1.00  0.00    -0.060 C  
HETATM   22  C   UNL     1      -6.425   6.841  66.420  1.00  0.00    -0.047 C  
HETATM   23  C   UNL     1      -5.831   6.009  68.698  1.00  0.00    -0.012 C  
ENDBRANCH  19  21
ENDBRANCH  18  19
ENDBRANCH  15  18
ENDBRANCH  14  15
ENDBRANCH  13  14
ENDBRANCH  10  13
ENDBRANCH   6   7
ENDBRANCH   5   6
ENDBRANCH   3   5
ENDBRANCH   2   3
TORSDOF 10
ENDMDL
MODEL      145
REMARK 921   NORMALIZED FREE ENERGY PREDICTED BY IDOCK:   -3.99 KCAL/MOL
REMARK 922        TOTAL FREE ENERGY PREDICTED BY IDOCK:   -7.21 KCAL/MOL
REMARK 923 INTER-LIGAND FREE ENERGY PREDICTED BY IDOCK:   -6.61 KCAL/MOL
REMARK 924 INTRA-LIGAND FREE ENERGY PREDICTED BY IDOCK:   -0.60 KCAL/MOL
REMARK 927      BINDING AFFINITY PREDICTED BY RF-SCORE:    0.00 PKD
ROOT
HETATM    1  C   UNL     1      -9.770   4.120  65.192  1.00  0.00    -0.197 C  
HETATM    2  O   UNL     1     -10.414   4.892  66.203  1.00  0.00    -0.283 OA 
ENDROOT
BRANCH   2   3
HETATM    3  C   UNL     1      -9.556   5.587  67.002  1.00  0.00    -0.137 C  
HETATM    4  O   UNL     1      -8.637   5.097  67.647  1.00  0.00    -0.105 OA 
BRANCH   3   5
HETATM    5  C   UNL     1      -9.931   7.040  66.982  1.00  0.00    -0.273 C  
BRANCH   5   6
HETATM    6  C   UNL     1     -10.038   7.637  68.389  1.00  0.00    -0.208 C  
BRANCH   6   7
HETATM    7  C   UNL     1     -10.472   9.086  68.393  1.00  0.00    -0.234 A  
HETATM    8  C   UNL     1     -10.326   9.880  67.254  1.00  0.00    -0.303 A  
HETATM    9  C   UNL     1     -10.707  11.216  67.257  1.00  0.00    -0.304 A  
HETATM   10  C   UNL     1     -11.265  11.799  68.395  1.00  0.00    -0.251 A  
HETATM   11  C   UNL     1     -11.074   9.655  69.527  1.00  0.00    -0.198 A  
HETATM   12  C   UNL     1     -11.462  11.006  69.527  1.00  0.00    -0.370 A  
BRANCH  10  13
HETATM   13  O   UNL     1     -11.646  13.117  68.480  1.00  0.00    -0.282 OA 
BRANCH  13  14
HETATM   14  C   UNL     1     -10.877  13.892  69.417  1.00  0.00    -0.070 C  
BRANCH  14  15
HETATM   15  C   UNL     1     -11.325  15.356  69.432  1.00  0.00    -0.307 C  
HETATM   16  O   UNL     1     -12.400  15.540  68.502  1.00  0.00    -0.514 OA 
HETATM   17  H   UNL     1     -12.677  16.448  68.511  1.00  0.00     0.000 HD 
BRANCH  15  18
HETATM   18  C   UNL     1     -11.761  15.832  70.829  1.00  0.00    -0.399 C  
BRANCH  18  19
HETATM   19  N   UNL     1     -11.663  14.762  71.828  1.00  0.00    -0.434 NA 
HETATM   20  H   UNL     1     -10.798  14.847  72.362  1.00  0.00     0.000 HD 
BRANCH  19  21
HETATM   21  C   UNL     1     -12.820  14.686  72.727  1.00  0.00    -0.438 C  
HETATM   22  C   UNL     1     -13.007  15.951  73.568  1.00  0.00    -0.707 C  
HETATM   23  C   UNL     1     -14.067  14.462  71.867  1.00  0.00    -0.596 C  
ENDBRANCH  19  21
ENDBRANCH  18  19
ENDBRANCH  15  18
ENDBRANCH  14  15
ENDBRANCH  13  14
ENDBRANCH  10  13
ENDBRANCH   6   7
ENDBRANCH   5   6
ENDBRANCH   3   5
ENDBRANCH   2   3
TORSDOF 10
ENDMDL
MODEL      146
REMARK 921   NORMALIZED FREE ENERGY PREDICTED BY IDOCK:   -3.98 KCAL/MOL
REMARK 922        TOTAL FREE ENERGY PREDICTED BY IDOCK:   -7.19 KCAL/MOL
REMARK 923 INTER-LIGAND FREE ENERGY PREDICTED BY IDOCK:   -6.01 KCAL/MOL
REMARK 924 INTRA-LIGAND FREE ENERGY PREDICTED BY IDOCK:   -1.18 KCAL/MOL
REMARK 927      BINDING AFFINITY PREDICTED BY RF-SCORE:    0.00 PKD
ROOT
HETATM    1  C   UNL     1      -5.781  10.460  64.804  1.00  0.00    -0.133 C  
HETATM    2  O   UNL     1      -7.024  10.009  65.335  1.00  0.00    -0.113 OA 
ENDROOT
BRANCH   2   3
HETATM    3  C   UNL     1      -7.934   9.643  64.388  1.00  0.00    -0.138 C  
HETATM    4  O   UNL     1      -7.689   9.478  63.200  1.00  0.00    -0.118 OA 
BRANCH   3   5
HETATM    5  C   UNL     1      -9.282   9.496  65.030  1.00  0.00    -0.297 C  
BRANCH   5   6
HETATM    6  C   UNL     1     -10.309  10.484  64.469  1.00  0.00    -0.275 C  
BRANCH   6   7
HETATM    7  C   UNL     1     -10.764  11.513  65.481  1.00  0.00    -0.328 A  
HETATM    8  C   UNL     1     -10.129  11.629  66.718  1.00  0.00    -0.242 A  
HETATM    9  C   UNL     1     -10.553  12.561  67.658  1.00  0.00    -0.234 A  
HETATM   10  C   UNL     1     -11.617  13.421  67.383  1.00  0.00    -0.354 A  
HETATM   11  C   UNL     1     -11.807  12.405  65.182  1.00  0.00    -0.437 A  
HETATM   12  C   UNL     1     -12.232  13.349  66.132  1.00  0.00    -0.471 A  
BRANCH  10  13
HETATM   13  O   UNL     1     -12.106  14.352  68.268  1.00  0.00    -0.309 OA 
BRANCH  13  14
HETATM   14  C   UNL     1     -11.305  14.518  69.451  1.00  0.00    -0.279 C  
BRANCH  14  15
HETATM   15  C   UNL     1     -11.434  15.934  70.021  1.00  0.00    -0.354 C  
HETATM   16  O   UNL     1     -11.182  15.909  71.431  1.00  0.00    -0.346 OA 
HETATM   17  H   UNL     1     -11.263  16.788  71.784  1.00  0.00     0.000 HD 
BRANCH  15  18
HETATM   18  C   UNL     1     -10.484  16.937  69.343  1.00  0.00    -0.283 C  
BRANCH  18  19
HETATM   19  N   UNL     1      -9.796  16.348  68.189  1.00  0.00    -0.234 NA 
HETATM   20  H   UNL     1     -10.186  15.432  67.967  1.00  0.00     0.000 HD 
BRANCH  19  21
HETATM   21  C   UNL     1      -9.792  17.209  67.000  1.00  0.00    -0.276 C  
HETATM   22  C   UNL     1     -10.342  16.510  65.755  1.00  0.00    -0.359 C  
HETATM   23  C   UNL     1     -10.650  18.439  67.310  1.00  0.00    -0.435 C  
ENDBRANCH  19  21
ENDBRANCH  18  19
ENDBRANCH  15  18
ENDBRANCH  14  15
ENDBRANCH  13  14
ENDBRANCH  10  13
ENDBRANCH   6   7
ENDBRANCH   5   6
ENDBRANCH   3   5
ENDBRANCH   2   3
TORSDOF 10
ENDMDL
MODEL      147
REMARK 921   NORMALIZED FREE ENERGY PREDICTED BY IDOCK:   -3.98 KCAL/MOL
REMARK 922        TOTAL FREE ENERGY PREDICTED BY IDOCK:   -7.19 KCAL/MOL
REMARK 923 INTER-LIGAND FREE ENERGY PREDICTED BY IDOCK:   -6.92 KCAL/MOL
REMARK 924 INTRA-LIGAND FREE ENERGY PREDICTED BY IDOCK:   -0.26 KCAL/MOL
REMARK 927      BINDING AFFINITY PREDICTED BY RF-SCORE:    0.00 PKD
ROOT
HETATM    1  C   UNL     1     -10.008   4.707  69.314  1.00  0.00    -0.161 C  
HETATM    2  O   UNL     1      -9.492   5.723  68.457  1.00  0.00    -0.119 OA 
ENDROOT
BRANCH   2   3
HETATM    3  C   UNL     1     -10.348   6.102  67.465  1.00  0.00    -0.208 C  
HETATM    4  O   UNL     1     -10.838   5.352  66.631  1.00  0.00    -0.277 OA 
BRANCH   3   5
HETATM    5  C   UNL     1     -10.574   7.583  67.549  1.00  0.00    -0.331 C  
BRANCH   5   6
HETATM    6  C   UNL     1      -9.788   8.356  66.485  1.00  0.00    -0.338 C  
BRANCH   6   7
HETATM    7  C   UNL     1     -10.258   9.785  66.315  1.00  0.00    -0.282 A  
HETATM    8  C   UNL     1     -10.984  10.424  67.321  1.00  0.00    -0.306 A  
HETATM    9  C   UNL     1     -11.432  11.730  67.164  1.00  0.00    -0.366 A  
HETATM   10  C   UNL     1     -11.154  12.446  66.000  1.00  0.00    -0.308 A  
HETATM   11  C   UNL     1      -9.937  10.516  65.159  1.00  0.00    -0.375 A  
HETATM   12  C   UNL     1     -10.388  11.837  65.004  1.00  0.00    -0.325 A  
BRANCH  10  13
HETATM   13  O   UNL     1     -11.581  13.732  65.763  1.00  0.00    -0.317 OA 
BRANCH  13  14
HETATM   14  C   UNL     1     -11.409  14.624  66.878  1.00  0.00    -0.356 C  
BRANCH  14  15
HETATM   15  C   UNL     1     -10.162  15.496  66.710  1.00  0.00    -0.280 C  
HETATM   16  O   UNL     1      -9.340  14.964  65.664  1.00  0.00    -0.489 OA 
HETATM   17  H   UNL     1      -8.566  15.505  65.560  1.00  0.00     0.000 HD 
BRANCH  15  18
HETATM   18  C   UNL     1     -10.500  16.966  66.404  1.00  0.00    -0.252 C  
BRANCH  18  19
HETATM   19  N   UNL     1     -10.645  17.762  67.628  1.00  0.00    -0.391 NA 
HETATM   20  H   UNL     1      -9.924  17.513  68.306  1.00  0.00     0.000 HD 
BRANCH  19  21
HETATM   21  C   UNL     1     -10.657  19.210  67.394  1.00  0.00    -0.481 C  
HETATM   22  C   UNL     1      -9.444  19.922  67.998  1.00  0.00    -0.458 C  
HETATM   23  C   UNL     1     -10.674  19.440  65.880  1.00  0.00    -0.501 C  
ENDBRANCH  19  21
ENDBRANCH  18  19
ENDBRANCH  15  18
ENDBRANCH  14  15
ENDBRANCH  13  14
ENDBRANCH  10  13
ENDBRANCH   6   7
ENDBRANCH   5   6
ENDBRANCH   3   5
ENDBRANCH   2   3
TORSDOF 10
ENDMDL
MODEL      148
REMARK 921   NORMALIZED FREE ENERGY PREDICTED BY IDOCK:   -3.97 KCAL/MOL
REMARK 922        TOTAL FREE ENERGY PREDICTED BY IDOCK:   -7.17 KCAL/MOL
REMARK 923 INTER-LIGAND FREE ENERGY PREDICTED BY IDOCK:   -6.35 KCAL/MOL
REMARK 924 INTRA-LIGAND FREE ENERGY PREDICTED BY IDOCK:   -0.83 KCAL/MOL
REMARK 927      BINDING AFFINITY PREDICTED BY RF-SCORE:    0.00 PKD
ROOT
HETATM    1  C   UNL     1     -10.493   2.816  63.429  1.00  0.00    -0.205 C  
HETATM    2  O   UNL     1     -10.522   3.925  64.324  1.00  0.00    -0.242 OA 
ENDROOT
BRANCH   2   3
HETATM    3  C   UNL     1      -9.506   3.932  65.234  1.00  0.00    -0.170 C  
HETATM    4  O   UNL     1      -8.755   2.992  65.461  1.00  0.00    -0.112 OA 
BRANCH   3   5
HETATM    5  C   UNL     1      -9.471   5.265  65.922  1.00  0.00    -0.156 C  
BRANCH   5   6
HETATM    6  C   UNL     1     -10.656   5.465  66.873  1.00  0.00    -0.320 C  
BRANCH   6   7
HETATM    7  C   UNL     1     -10.645   6.809  67.568  1.00  0.00    -0.348 A  
HETATM    8  C   UNL     1     -10.713   6.896  68.959  1.00  0.00    -0.259 A  
HETATM    9  C   UNL     1     -10.721   8.128  69.602  1.00  0.00    -0.196 A  
HETATM   10  C   UNL     1     -10.643   9.315  68.873  1.00  0.00    -0.199 A  
HETATM   11  C   UNL     1     -10.522   7.999  66.832  1.00  0.00    -0.387 A  
HETATM   12  C   UNL     1     -10.526   9.243  67.484  1.00  0.00    -0.338 A  
BRANCH  10  13
HETATM   13  O   UNL     1     -10.666  10.570  69.435  1.00  0.00    -0.211 OA 
BRANCH  13  14
HETATM   14  C   UNL     1     -11.763  11.391  68.995  1.00  0.00    -0.343 C  
BRANCH  14  15
HETATM   15  C   UNL     1     -11.324  12.842  68.780  1.00  0.00    -0.288 C  
HETATM   16  O   UNL     1      -9.893  12.920  68.804  1.00  0.00    -0.400 OA 
HETATM   17  H   UNL     1      -9.621  13.820  68.671  1.00  0.00     0.000 HD 
BRANCH  15  18
HETATM   18  C   UNL     1     -11.853  13.436  67.463  1.00  0.00    -0.366 C  
BRANCH  18  19
HETATM   19  N   UNL     1     -12.089  12.401  66.450  1.00  0.00    -0.614 NA 
HETATM   20  H   UNL     1     -13.088  12.251  66.315  1.00  0.00     0.000 HD 
BRANCH  19  21
HETATM   21  C   UNL     1     -11.428  12.668  65.168  1.00  0.00    -0.326 C  
HETATM   22  C   UNL     1     -10.107  11.912  65.008  1.00  0.00    -0.297 C  
HETATM   23  C   UNL     1     -12.388  12.248  64.050  1.00  0.00    -0.569 C  
ENDBRANCH  19  21
ENDBRANCH  18  19
ENDBRANCH  15  18
ENDBRANCH  14  15
ENDBRANCH  13  14
ENDBRANCH  10  13
ENDBRANCH   6   7
ENDBRANCH   5   6
ENDBRANCH   3   5
ENDBRANCH   2   3
TORSDOF 10
ENDMDL
MODEL      149
REMARK 921   NORMALIZED FREE ENERGY PREDICTED BY IDOCK:   -3.96 KCAL/MOL
REMARK 922        TOTAL FREE ENERGY PREDICTED BY IDOCK:   -7.15 KCAL/MOL
REMARK 923 INTER-LIGAND FREE ENERGY PREDICTED BY IDOCK:   -6.26 KCAL/MOL
REMARK 924 INTRA-LIGAND FREE ENERGY PREDICTED BY IDOCK:   -0.89 KCAL/MOL
REMARK 927      BINDING AFFINITY PREDICTED BY RF-SCORE:    0.00 PKD
ROOT
HETATM    1  C   UNL     1     -10.875   6.436  67.909  1.00  0.00    -0.322 C  
HETATM    2  O   UNL     1     -11.779   6.456  69.010  1.00  0.00    -0.156 OA 
ENDROOT
BRANCH   2   3
HETATM    3  C   UNL     1     -11.234   6.034  70.186  1.00  0.00    -0.342 C  
HETATM    4  O   UNL     1     -10.329   5.215  70.292  1.00  0.00    -0.268 OA 
BRANCH   3   5
HETATM    5  C   UNL     1     -11.932   6.716  71.326  1.00  0.00    -0.409 C  
BRANCH   5   6
HETATM    6  C   UNL     1     -11.144   7.917  71.861  1.00  0.00    -0.317 C  
BRANCH   6   7
HETATM    7  C   UNL     1     -11.304   9.161  71.016  1.00  0.00    -0.377 A  
HETATM    8  C   UNL     1     -10.264   9.610  70.199  1.00  0.00    -0.313 A  
HETATM    9  C   UNL     1     -10.399  10.762  69.433  1.00  0.00    -0.207 A  
HETATM   10  C   UNL     1     -11.587  11.493  69.445  1.00  0.00    -0.321 A  
HETATM   11  C   UNL     1     -12.517   9.869  70.998  1.00  0.00    -0.441 A  
HETATM   12  C   UNL     1     -12.652  11.031  70.220  1.00  0.00    -0.321 A  
BRANCH  10  13
HETATM   13  O   UNL     1     -11.788  12.652  68.732  1.00  0.00    -0.302 OA 
BRANCH  13  14
HETATM   14  C   UNL     1     -12.223  13.766  69.532  1.00  0.00    -0.293 C  
BRANCH  14  15
HETATM   15  C   UNL     1     -12.114  15.084  68.760  1.00  0.00    -0.180 C  
HETATM   16  O   UNL     1     -12.738  16.133  69.509  1.00  0.00    -0.458 OA 
HETATM   17  H   UNL     1     -12.671  16.951  69.030  1.00  0.00     0.000 HD 
BRANCH  15  18
HETATM   18  C   UNL     1     -10.658  15.471  68.443  1.00  0.00    -0.252 C  
BRANCH  18  19
HETATM   19  N   UNL     1     -10.333  15.267  67.027  1.00  0.00    -0.272 NA 
HETATM   20  H   UNL     1     -10.498  16.120  66.493  1.00  0.00     0.000 HD 
BRANCH  19  21
HETATM   21  C   UNL     1      -8.971  14.771  66.799  1.00  0.00    -0.266 C  
HETATM   22  C   UNL     1      -7.942  15.895  66.658  1.00  0.00    -0.270 C  
HETATM   23  C   UNL     1      -8.590  13.885  67.988  1.00  0.00    -0.178 C  
ENDBRANCH  19  21
ENDBRANCH  18  19
ENDBRANCH  15  18
ENDBRANCH  14  15
ENDBRANCH  13  14
ENDBRANCH  10  13
ENDBRANCH   6   7
ENDBRANCH   5   6
ENDBRANCH   3   5
ENDBRANCH   2   3
TORSDOF 10
ENDMDL
MODEL      150
REMARK 921   NORMALIZED FREE ENERGY PREDICTED BY IDOCK:   -3.96 KCAL/MOL
REMARK 922        TOTAL FREE ENERGY PREDICTED BY IDOCK:   -7.15 KCAL/MOL
REMARK 923 INTER-LIGAND FREE ENERGY PREDICTED BY IDOCK:   -6.13 KCAL/MOL
REMARK 924 INTRA-LIGAND FREE ENERGY PREDICTED BY IDOCK:   -1.02 KCAL/MOL
REMARK 927      BINDING AFFINITY PREDICTED BY RF-SCORE:    0.00 PKD
ROOT
HETATM    1  C   UNL     1      -7.057   8.054  73.081  1.00  0.00    -0.103 C  
HETATM    2  O   UNL     1      -8.285   8.699  72.757  1.00  0.00    -0.385 OA 
ENDROOT
BRANCH   2   3
HETATM    3  C   UNL     1      -8.412   9.026  71.439  1.00  0.00    -0.080 C  
HETATM    4  O   UNL     1      -7.574   9.625  70.777  1.00  0.00    -0.271 OA 
BRANCH   3   5
HETATM    5  C   UNL     1      -9.745   8.552  70.940  1.00  0.00    -0.231 C  
BRANCH   5   6
HETATM    6  C   UNL     1     -10.847   9.601  71.127  1.00  0.00    -0.404 C  
BRANCH   6   7
HETATM    7  C   UNL     1     -11.184  10.348  69.855  1.00  0.00    -0.371 A  
HETATM    8  C   UNL     1     -11.830  11.584  69.902  1.00  0.00    -0.430 A  
HETATM    9  C   UNL     1     -12.158  12.267  68.736  1.00  0.00    -0.162 A  
HETATM   10  C   UNL     1     -11.833  11.743  67.485  1.00  0.00    -0.154 A  
HETATM   11  C   UNL     1     -10.815   9.837  68.600  1.00  0.00    -0.223 A  
HETATM   12  C   UNL     1     -11.144  10.530  67.423  1.00  0.00    -0.322 A  
BRANCH  10  13
HETATM   13  O   UNL     1     -12.141  12.348  66.289  1.00  0.00    -0.612 OA 
BRANCH  13  14
HETATM   14  C   UNL     1     -11.093  12.279  65.307  1.00  0.00    -0.316 C  
BRANCH  14  15
HETATM   15  C   UNL     1     -10.939  13.606  64.559  1.00  0.00    -0.396 C  
HETATM   16  O   UNL     1     -12.232  14.170  64.309  1.00  0.00    -0.520 OA 
HETATM   17  H   UNL     1     -12.136  14.994  63.845  1.00  0.00     0.000 HD 
BRANCH  15  18
HETATM   18  C   UNL     1     -10.070  14.623  65.322  1.00  0.00    -0.360 C  
BRANCH  18  19
HETATM   19  N   UNL     1     -10.020  14.332  66.759  1.00  0.00    -0.258 NA 
HETATM   20  H   UNL     1     -10.192  13.342  66.932  1.00  0.00     0.000 HD 
BRANCH  19  21
HETATM   21  C   UNL     1      -8.774  14.760  67.405  1.00  0.00    -0.198 C  
HETATM   22  C   UNL     1      -8.892  16.126  68.084  1.00  0.00    -0.184 C  
HETATM   23  C   UNL     1      -8.404  13.705  68.453  1.00  0.00    -0.147 C  
ENDBRANCH  19  21
ENDBRANCH  18  19
ENDBRANCH  15  18
ENDBRANCH  14  15
ENDBRANCH  13  14
ENDBRANCH  10  13
ENDBRANCH   6   7
ENDBRANCH   5   6
ENDBRANCH   3   5
ENDBRANCH   2   3
TORSDOF 10
ENDMDL
MODEL      151
REMARK 921   NORMALIZED FREE ENERGY PREDICTED BY IDOCK:   -3.96 KCAL/MOL
REMARK 922        TOTAL FREE ENERGY PREDICTED BY IDOCK:   -7.15 KCAL/MOL
REMARK 923 INTER-LIGAND FREE ENERGY PREDICTED BY IDOCK:   -6.27 KCAL/MOL
REMARK 924 INTRA-LIGAND FREE ENERGY PREDICTED BY IDOCK:   -0.87 KCAL/MOL
REMARK 927      BINDING AFFINITY PREDICTED BY RF-SCORE:    0.00 PKD
ROOT
HETATM    1  C   UNL     1     -10.492   7.135  73.524  1.00  0.00    -0.380 C  
HETATM    2  O   UNL     1     -10.640   8.058  72.448  1.00  0.00    -0.257 OA 
ENDROOT
BRANCH   2   3
HETATM    3  C   UNL     1     -11.816   7.935  71.768  1.00  0.00    -0.293 C  
HETATM    4  O   UNL     1     -12.901   8.351  72.153  1.00  0.00    -0.338 OA 
BRANCH   3   5
HETATM    5  C   UNL     1     -11.569   7.192  70.487  1.00  0.00    -0.331 C  
BRANCH   5   6
HETATM    6  C   UNL     1     -10.156   7.421  69.941  1.00  0.00    -0.195 C  
BRANCH   6   7
HETATM    7  C   UNL     1     -10.032   8.680  69.111  1.00  0.00    -0.193 A  
HETATM    8  C   UNL     1      -9.844   9.922  69.719  1.00  0.00    -0.268 A  
HETATM    9  C   UNL     1      -9.747  11.084  68.962  1.00  0.00    -0.151 A  
HETATM   10  C   UNL     1      -9.817  11.039  67.570  1.00  0.00    -0.169 A  
HETATM   11  C   UNL     1     -10.059   8.623  67.708  1.00  0.00    -0.266 A  
HETATM   12  C   UNL     1      -9.956   9.798  66.945  1.00  0.00    -0.270 A  
BRANCH  10  13
HETATM   13  O   UNL     1      -9.750  12.145  66.756  1.00  0.00    -0.199 OA 
BRANCH  13  14
HETATM   14  C   UNL     1     -10.919  12.349  65.942  1.00  0.00    -0.288 C  
BRANCH  14  15
HETATM   15  C   UNL     1     -11.087  13.823  65.564  1.00  0.00    -0.298 C  
HETATM   16  O   UNL     1     -11.491  13.924  64.193  1.00  0.00    -0.543 OA 
HETATM   17  H   UNL     1     -11.596  14.839  63.958  1.00  0.00     0.000 HD 
BRANCH  15  18
HETATM   18  C   UNL     1     -12.103  14.555  66.458  1.00  0.00    -0.309 C  
BRANCH  18  19
HETATM   19  N   UNL     1     -12.294  13.874  67.744  1.00  0.00    -0.455 NA 
HETATM   20  H   UNL     1     -12.043  12.888  67.668  1.00  0.00     0.000 HD 
BRANCH  19  21
HETATM   21  C   UNL     1     -11.581  14.505  68.859  1.00  0.00    -0.309 C  
HETATM   22  C   UNL     1     -11.270  15.982  68.609  1.00  0.00    -0.366 C  
HETATM   23  C   UNL     1     -12.459  14.378  70.108  1.00  0.00    -0.395 C  
ENDBRANCH  19  21
ENDBRANCH  18  19
ENDBRANCH  15  18
ENDBRANCH  14  15
ENDBRANCH  13  14
ENDBRANCH  10  13
ENDBRANCH   6   7
ENDBRANCH   5   6
ENDBRANCH   3   5
ENDBRANCH   2   3
TORSDOF 10
ENDMDL
MODEL      152
REMARK 921   NORMALIZED FREE ENERGY PREDICTED BY IDOCK:   -3.94 KCAL/MOL
REMARK 922        TOTAL FREE ENERGY PREDICTED BY IDOCK:   -7.11 KCAL/MOL
REMARK 923 INTER-LIGAND FREE ENERGY PREDICTED BY IDOCK:   -6.62 KCAL/MOL
REMARK 924 INTRA-LIGAND FREE ENERGY PREDICTED BY IDOCK:   -0.49 KCAL/MOL
REMARK 927      BINDING AFFINITY PREDICTED BY RF-SCORE:    0.00 PKD
ROOT
HETATM    1  C   UNL     1      -5.694  16.581  69.203  1.00  0.00    -0.144 C  
HETATM    2  O   UNL     1      -7.109  16.411  69.209  1.00  0.00    -0.213 OA 
ENDROOT
BRANCH   2   3
HETATM    3  C   UNL     1      -7.749  17.034  68.179  1.00  0.00    -0.197 C  
HETATM    4  O   UNL     1      -8.378  18.081  68.269  1.00  0.00    -0.273 OA 
BRANCH   3   5
HETATM    5  C   UNL     1      -7.576  16.224  66.928  1.00  0.00    -0.279 C  
BRANCH   5   6
HETATM    6  C   UNL     1      -8.874  16.106  66.122  1.00  0.00    -0.367 C  
BRANCH   6   7
HETATM    7  C   UNL     1      -9.736  14.937  66.544  1.00  0.00    -0.294 A  
HETATM    8  C   UNL     1     -11.116  14.954  66.337  1.00  0.00    -0.342 A  
HETATM    9  C   UNL     1     -11.915  13.889  66.738  1.00  0.00    -0.472 A  
HETATM   10  C   UNL     1     -11.356  12.764  67.343  1.00  0.00    -0.313 A  
HETATM   11  C   UNL     1      -9.162  13.787  67.112  1.00  0.00    -0.245 A  
HETATM   12  C   UNL     1      -9.971  12.711  67.513  1.00  0.00    -0.205 A  
BRANCH  10  13
HETATM   13  O   UNL     1     -12.082  11.683  67.784  1.00  0.00    -0.613 OA 
BRANCH  13  14
HETATM   14  C   UNL     1     -11.279  10.606  68.299  1.00  0.00    -0.301 C  
BRANCH  14  15
HETATM   15  C   UNL     1     -11.339  10.545  69.828  1.00  0.00    -0.300 C  
HETATM   16  O   UNL     1     -12.500  11.245  70.292  1.00  0.00    -0.290 OA 
HETATM   17  H   UNL     1     -12.536  11.208  71.241  1.00  0.00     0.000 HD 
BRANCH  15  18
HETATM   18  C   UNL     1     -11.354   9.104  70.368  1.00  0.00    -0.224 C  
BRANCH  18  19
HETATM   19  N   UNL     1     -10.875   9.032  71.753  1.00  0.00    -0.357 NA 
HETATM   20  H   UNL     1     -10.989   9.931  72.220  1.00  0.00     0.000 HD 
BRANCH  19  21
HETATM   21  C   UNL     1     -11.497   7.959  72.538  1.00  0.00    -0.398 C  
HETATM   22  C   UNL     1     -12.044   6.824  71.670  1.00  0.00    -0.404 C  
HETATM   23  C   UNL     1     -10.435   7.400  73.489  1.00  0.00    -0.396 C  
ENDBRANCH  19  21
ENDBRANCH  18  19
ENDBRANCH  15  18
ENDBRANCH  14  15
ENDBRANCH  13  14
ENDBRANCH  10  13
ENDBRANCH   6   7
ENDBRANCH   5   6
ENDBRANCH   3   5
ENDBRANCH   2   3
TORSDOF 10
ENDMDL
MODEL      153
REMARK 921   NORMALIZED FREE ENERGY PREDICTED BY IDOCK:   -3.93 KCAL/MOL
REMARK 922        TOTAL FREE ENERGY PREDICTED BY IDOCK:   -7.10 KCAL/MOL
REMARK 923 INTER-LIGAND FREE ENERGY PREDICTED BY IDOCK:   -6.21 KCAL/MOL
REMARK 924 INTRA-LIGAND FREE ENERGY PREDICTED BY IDOCK:   -0.89 KCAL/MOL
REMARK 927      BINDING AFFINITY PREDICTED BY RF-SCORE:    0.00 PKD
ROOT
HETATM    1  C   UNL     1      -7.424   8.115  73.671  1.00  0.00    -0.154 C  
HETATM    2  O   UNL     1      -8.463   8.745  72.927  1.00  0.00    -0.409 OA 
ENDROOT
BRANCH   2   3
HETATM    3  C   UNL     1      -8.401   8.518  71.584  1.00  0.00    -0.165 C  
HETATM    4  O   UNL     1      -7.389   8.597  70.900  1.00  0.00    -0.059 OA 
BRANCH   3   5
HETATM    5  C   UNL     1      -9.773   8.178  71.078  1.00  0.00    -0.193 C  
BRANCH   5   6
HETATM    6  C   UNL     1     -10.776   9.315  71.297  1.00  0.00    -0.422 C  
BRANCH   6   7
HETATM    7  C   UNL     1     -10.859  10.273  70.128  1.00  0.00    -0.362 A  
HETATM    8  C   UNL     1      -9.955  10.188  69.069  1.00  0.00    -0.216 A  
HETATM    9  C   UNL     1     -10.016  11.076  68.001  1.00  0.00    -0.188 A  
HETATM   10  C   UNL     1     -10.996  12.067  67.950  1.00  0.00    -0.220 A  
HETATM   11  C   UNL     1     -11.875  11.240  70.061  1.00  0.00    -0.448 A  
HETATM   12  C   UNL     1     -11.937  12.134  68.979  1.00  0.00    -0.302 A  
BRANCH  10  13
HETATM   13  O   UNL     1     -11.107  12.993  66.939  1.00  0.00    -0.264 OA 
BRANCH  13  14
HETATM   14  C   UNL     1     -11.818  12.519  65.782  1.00  0.00    -0.437 C  
BRANCH  14  15
HETATM   15  C   UNL     1     -11.321  13.199  64.503  1.00  0.00    -0.349 C  
HETATM   16  O   UNL     1     -10.732  14.464  64.829  1.00  0.00    -0.422 OA 
HETATM   17  H   UNL     1     -10.424  14.886  64.035  1.00  0.00     0.000 HD 
BRANCH  15  18
HETATM   18  C   UNL     1     -10.306  12.340  63.727  1.00  0.00    -0.435 C  
BRANCH  18  19
HETATM   19  N   UNL     1      -9.327  11.708  64.619  1.00  0.00    -0.422 NA 
HETATM   20  H   UNL     1      -9.704  11.622  65.563  1.00  0.00     0.000 HD 
BRANCH  19  21
HETATM   21  C   UNL     1      -8.840  10.411  64.136  1.00  0.00    -0.214 C  
HETATM   22  C   UNL     1      -9.347   9.234  64.973  1.00  0.00    -0.196 C  
HETATM   23  C   UNL     1      -9.313  10.242  62.689  1.00  0.00    -0.335 C  
ENDBRANCH  19  21
ENDBRANCH  18  19
ENDBRANCH  15  18
ENDBRANCH  14  15
ENDBRANCH  13  14
ENDBRANCH  10  13
ENDBRANCH   6   7
ENDBRANCH   5   6
ENDBRANCH   3   5
ENDBRANCH   2   3
TORSDOF 10
ENDMDL
MODEL      154
REMARK 921   NORMALIZED FREE ENERGY PREDICTED BY IDOCK:   -3.90 KCAL/MOL
REMARK 922        TOTAL FREE ENERGY PREDICTED BY IDOCK:   -7.06 KCAL/MOL
REMARK 923 INTER-LIGAND FREE ENERGY PREDICTED BY IDOCK:   -6.37 KCAL/MOL
REMARK 924 INTRA-LIGAND FREE ENERGY PREDICTED BY IDOCK:   -0.69 KCAL/MOL
REMARK 927      BINDING AFFINITY PREDICTED BY RF-SCORE:    0.00 PKD
ROOT
HETATM    1  C   UNL     1      -6.909   9.481  68.377  1.00  0.00    -0.062 C  
HETATM    2  O   UNL     1      -8.305   9.543  68.656  1.00  0.00    -0.114 OA 
ENDROOT
BRANCH   2   3
HETATM    3  C   UNL     1      -8.905   8.323  68.766  1.00  0.00    -0.137 C  
HETATM    4  O   UNL     1      -8.338   7.282  69.072  1.00  0.00    -0.124 OA 
BRANCH   3   5
HETATM    5  C   UNL     1     -10.362   8.459  68.432  1.00  0.00    -0.239 C  
BRANCH   5   6
HETATM    6  C   UNL     1     -10.593   9.158  67.088  1.00  0.00    -0.286 C  
BRANCH   6   7
HETATM    7  C   UNL     1     -10.951  10.621  67.229  1.00  0.00    -0.348 A  
HETATM    8  C   UNL     1     -11.491  11.114  68.417  1.00  0.00    -0.377 A  
HETATM    9  C   UNL     1     -11.838  12.454  68.546  1.00  0.00    -0.352 A  
HETATM   10  C   UNL     1     -11.639  13.349  67.495  1.00  0.00    -0.344 A  
HETATM   11  C   UNL     1     -10.707  11.526  66.182  1.00  0.00    -0.324 A  
HETATM   12  C   UNL     1     -11.055  12.880  66.316  1.00  0.00    -0.317 A  
BRANCH  10  13
HETATM   13  O   UNL     1     -11.975  14.681  67.539  1.00  0.00    -0.375 OA 
BRANCH  13  14
HETATM   14  C   UNL     1     -12.325  15.157  68.851  1.00  0.00     0.014 C  
BRANCH  14  15
HETATM   15  C   UNL     1     -11.116  15.766  69.566  1.00  0.00    -0.306 C  
HETATM   16  O   UNL     1     -11.133  17.190  69.410  1.00  0.00    -0.277 OA 
HETATM   17  H   UNL     1     -10.383  17.569  69.853  1.00  0.00     0.000 HD 
BRANCH  15  18
HETATM   18  C   UNL     1     -11.067  15.411  71.063  1.00  0.00    -0.331 C  
BRANCH  18  19
HETATM   19  N   UNL     1     -12.144  14.490  71.443  1.00  0.00    -0.354 NA 
HETATM   20  H   UNL     1     -11.771  13.561  71.636  1.00  0.00     0.000 HD 
BRANCH  19  21
HETATM   21  C   UNL     1     -12.957  14.964  72.569  1.00  0.00    -0.383 C  
HETATM   22  C   UNL     1     -12.373  16.206  73.246  1.00  0.00    -0.647 C  
HETATM   23  C   UNL     1     -14.354  15.292  72.032  1.00  0.00    -0.689 C  
ENDBRANCH  19  21
ENDBRANCH  18  19
ENDBRANCH  15  18
ENDBRANCH  14  15
ENDBRANCH  13  14
ENDBRANCH  10  13
ENDBRANCH   6   7
ENDBRANCH   5   6
ENDBRANCH   3   5
ENDBRANCH   2   3
TORSDOF 10
ENDMDL
MODEL      155
REMARK 921   NORMALIZED FREE ENERGY PREDICTED BY IDOCK:   -3.90 KCAL/MOL
REMARK 922        TOTAL FREE ENERGY PREDICTED BY IDOCK:   -7.06 KCAL/MOL
REMARK 923 INTER-LIGAND FREE ENERGY PREDICTED BY IDOCK:   -6.45 KCAL/MOL
REMARK 924 INTRA-LIGAND FREE ENERGY PREDICTED BY IDOCK:   -0.61 KCAL/MOL
REMARK 927      BINDING AFFINITY PREDICTED BY RF-SCORE:    0.00 PKD
ROOT
HETATM    1  C   UNL     1      -7.266   7.575  62.562  1.00  0.00    -0.084 C  
HETATM    2  O   UNL     1      -7.803   8.172  63.739  1.00  0.00    -0.135 OA 
ENDROOT
BRANCH   2   3
HETATM    3  C   UNL     1      -8.228   9.457  63.567  1.00  0.00    -0.168 C  
HETATM    4  O   UNL     1      -7.799  10.236  62.726  1.00  0.00    -0.142 OA 
BRANCH   3   5
HETATM    5  C   UNL     1      -9.286   9.767  64.586  1.00  0.00    -0.318 C  
BRANCH   5   6
HETATM    6  C   UNL     1     -10.207  10.909  64.144  1.00  0.00    -0.424 C  
BRANCH   6   7
HETATM    7  C   UNL     1     -10.765  11.708  65.301  1.00  0.00    -0.346 A  
HETATM    8  C   UNL     1     -11.853  12.564  65.121  1.00  0.00    -0.450 A  
HETATM    9  C   UNL     1     -12.360  13.313  66.176  1.00  0.00    -0.423 A  
HETATM   10  C   UNL     1     -11.806  13.217  67.452  1.00  0.00    -0.361 A  
HETATM   11  C   UNL     1     -10.231  11.574  66.593  1.00  0.00    -0.254 A  
HETATM   12  C   UNL     1     -10.747  12.329  67.660  1.00  0.00    -0.250 A  
BRANCH  10  13
HETATM   13  O   UNL     1     -12.237  13.940  68.539  1.00  0.00    -0.342 OA 
BRANCH  13  14
HETATM   14  C   UNL     1     -11.180  14.569  69.285  1.00  0.00    -0.281 C  
BRANCH  14  15
HETATM   15  C   UNL     1     -11.195  16.089  69.103  1.00  0.00    -0.342 C  
HETATM   16  O   UNL     1     -11.168  16.727  70.386  1.00  0.00    -0.471 OA 
HETATM   17  H   UNL     1     -11.178  17.670  70.273  1.00  0.00     0.000 HD 
BRANCH  15  18
HETATM   18  C   UNL     1     -10.022  16.598  68.247  1.00  0.00    -0.261 C  
BRANCH  18  19
HETATM   19  N   UNL     1     -10.411  17.736  67.406  1.00  0.00    -0.356 NA 
HETATM   20  H   UNL     1     -11.343  18.067  67.657  1.00  0.00     0.000 HD 
BRANCH  19  21
HETATM   21  C   UNL     1      -9.447  18.842  67.427  1.00  0.00    -0.297 C  
HETATM   22  C   UNL     1      -9.800  19.922  68.452  1.00  0.00    -0.489 C  
HETATM   23  C   UNL     1      -8.072  18.258  67.762  1.00  0.00    -0.256 C  
ENDBRANCH  19  21
ENDBRANCH  18  19
ENDBRANCH  15  18
ENDBRANCH  14  15
ENDBRANCH  13  14
ENDBRANCH  10  13
ENDBRANCH   6   7
ENDBRANCH   5   6
ENDBRANCH   3   5
ENDBRANCH   2   3
TORSDOF 10
ENDMDL
MODEL      156
REMARK 921   NORMALIZED FREE ENERGY PREDICTED BY IDOCK:   -3.90 KCAL/MOL
REMARK 922        TOTAL FREE ENERGY PREDICTED BY IDOCK:   -7.06 KCAL/MOL
REMARK 923 INTER-LIGAND FREE ENERGY PREDICTED BY IDOCK:   -6.36 KCAL/MOL
REMARK 924 INTRA-LIGAND FREE ENERGY PREDICTED BY IDOCK:   -0.69 KCAL/MOL
REMARK 927      BINDING AFFINITY PREDICTED BY RF-SCORE:    0.00 PKD
ROOT
HETATM    1  C   UNL     1     -12.128  14.048  66.775  1.00  0.00    -0.447 C  
HETATM    2  O   UNL     1     -13.152  13.761  65.826  1.00  0.00    -0.493 OA 
ENDROOT
BRANCH   2   3
HETATM    3  C   UNL     1     -12.771  13.934  64.528  1.00  0.00    -0.071 C  
HETATM    4  O   UNL     1     -12.600  15.016  63.980  1.00  0.00    -0.817 OA 
BRANCH   3   5
HETATM    5  C   UNL     1     -12.617  12.591  63.876  1.00  0.00    -0.485 C  
BRANCH   5   6
HETATM    6  C   UNL     1     -11.195  12.352  63.356  1.00  0.00    -0.492 C  
BRANCH   6   7
HETATM    7  C   UNL     1     -10.488  11.211  64.053  1.00  0.00    -0.447 A  
HETATM    8  C   UNL     1     -10.766  10.904  65.386  1.00  0.00    -0.189 A  
HETATM    9  C   UNL     1     -10.106   9.868  66.036  1.00  0.00    -0.314 A  
HETATM   10  C   UNL     1      -9.159   9.092  65.368  1.00  0.00    -0.193 A  
HETATM   11  C   UNL     1      -9.567  10.406  63.363  1.00  0.00    -0.361 A  
HETATM   12  C   UNL     1      -8.904   9.356  64.021  1.00  0.00    -0.210 A  
BRANCH  10  13
HETATM   13  O   UNL     1      -8.452   8.066  65.949  1.00  0.00    -0.128 OA 
BRANCH  13  14
HETATM   14  C   UNL     1      -8.694   7.907  67.358  1.00  0.00    -0.128 C  
BRANCH  14  15
HETATM   15  C   UNL     1      -9.199   6.499  67.684  1.00  0.00    -0.113 C  
HETATM   16  O   UNL     1      -8.132   5.557  67.526  1.00  0.00    -0.101 OA 
HETATM   17  H   UNL     1      -8.445   4.683  67.728  1.00  0.00     0.000 HD 
BRANCH  15  18
HETATM   18  C   UNL     1      -9.782   6.388  69.104  1.00  0.00    -0.136 C  
BRANCH  18  19
HETATM   19  N   UNL     1      -9.954   7.704  69.730  1.00  0.00    -0.182 NA 
HETATM   20  H   UNL     1      -9.775   8.449  69.057  1.00  0.00     0.000 HD 
BRANCH  19  21
HETATM   21  C   UNL     1     -11.261   7.888  70.369  1.00  0.00    -0.234 C  
HETATM   22  C   UNL     1     -11.807   6.602  70.993  1.00  0.00    -0.427 C  
HETATM   23  C   UNL     1     -11.103   8.950  71.461  1.00  0.00    -0.397 C  
ENDBRANCH  19  21
ENDBRANCH  18  19
ENDBRANCH  15  18
ENDBRANCH  14  15
ENDBRANCH  13  14
ENDBRANCH  10  13
ENDBRANCH   6   7
ENDBRANCH   5   6
ENDBRANCH   3   5
ENDBRANCH   2   3
TORSDOF 10
ENDMDL
MODEL      157
REMARK 921   NORMALIZED FREE ENERGY PREDICTED BY IDOCK:   -3.90 KCAL/MOL
REMARK 922        TOTAL FREE ENERGY PREDICTED BY IDOCK:   -7.05 KCAL/MOL
REMARK 923 INTER-LIGAND FREE ENERGY PREDICTED BY IDOCK:   -6.20 KCAL/MOL
REMARK 924 INTRA-LIGAND FREE ENERGY PREDICTED BY IDOCK:   -0.85 KCAL/MOL
REMARK 927      BINDING AFFINITY PREDICTED BY RF-SCORE:    0.00 PKD
ROOT
HETATM    1  C   UNL     1     -10.115  18.950  66.964  1.00  0.00    -0.354 C  
HETATM    2  O   UNL     1     -10.151  17.531  67.099  1.00  0.00    -0.299 OA 
ENDROOT
BRANCH   2   3
HETATM    3  C   UNL     1      -9.546  17.064  68.228  1.00  0.00    -0.273 C  
HETATM    4  O   UNL     1      -8.352  16.817  68.339  1.00  0.00    -0.204 OA 
BRANCH   3   5
HETATM    5  C   UNL     1     -10.579  16.883  69.301  1.00  0.00    -0.325 C  
BRANCH   5   6
HETATM    6  C   UNL     1     -11.891  16.305  68.760  1.00  0.00    -0.024 C  
BRANCH   6   7
HETATM    7  C   UNL     1     -11.811  14.825  68.456  1.00  0.00    -0.340 A  
HETATM    8  C   UNL     1     -11.758  13.884  69.485  1.00  0.00    -0.369 A  
HETATM    9  C   UNL     1     -11.667  12.524  69.211  1.00  0.00    -0.379 A  
HETATM   10  C   UNL     1     -11.645  12.060  67.896  1.00  0.00    -0.337 A  
HETATM   11  C   UNL     1     -11.834  14.360  67.130  1.00  0.00    -0.437 A  
HETATM   12  C   UNL     1     -11.746  12.985  66.855  1.00  0.00    -0.441 A  
BRANCH  10  13
HETATM   13  O   UNL     1     -11.536  10.734  67.546  1.00  0.00    -0.510 OA 
BRANCH  13  14
HETATM   14  C   UNL     1     -10.484  10.030  68.229  1.00  0.00    -0.213 C  
BRANCH  14  15
HETATM   15  C   UNL     1      -9.209  10.874  68.312  1.00  0.00    -0.161 C  
HETATM   16  O   UNL     1      -8.510  10.571  69.526  1.00  0.00    -0.304 OA 
HETATM   17  H   UNL     1      -7.719  11.095  69.577  1.00  0.00     0.000 HD 
BRANCH  15  18
HETATM   18  C   UNL     1      -8.273  10.659  67.109  1.00  0.00    -0.121 C  
BRANCH  18  19
HETATM   19  N   UNL     1      -8.743  11.370  65.915  1.00  0.00    -0.332 NA 
HETATM   20  H   UNL     1      -8.156  12.183  65.726  1.00  0.00     0.000 HD 
BRANCH  19  21
HETATM   21  C   UNL     1      -8.847  10.520  64.724  1.00  0.00    -0.196 C  
HETATM   22  C   UNL     1      -8.508   9.055  65.005  1.00  0.00    -0.191 C  
HETATM   23  C   UNL     1     -10.286  10.615  64.206  1.00  0.00    -0.391 C  
ENDBRANCH  19  21
ENDBRANCH  18  19
ENDBRANCH  15  18
ENDBRANCH  14  15
ENDBRANCH  13  14
ENDBRANCH  10  13
ENDBRANCH   6   7
ENDBRANCH   5   6
ENDBRANCH   3   5
ENDBRANCH   2   3
TORSDOF 10
ENDMDL
MODEL      158
REMARK 921   NORMALIZED FREE ENERGY PREDICTED BY IDOCK:   -3.90 KCAL/MOL
REMARK 922        TOTAL FREE ENERGY PREDICTED BY IDOCK:   -7.05 KCAL/MOL
REMARK 923 INTER-LIGAND FREE ENERGY PREDICTED BY IDOCK:   -6.02 KCAL/MOL
REMARK 924 INTRA-LIGAND FREE ENERGY PREDICTED BY IDOCK:   -1.03 KCAL/MOL
REMARK 927      BINDING AFFINITY PREDICTED BY RF-SCORE:    0.00 PKD
ROOT
HETATM    1  C   UNL     1      -9.415   4.180  67.632  1.00  0.00    -0.180 C  
HETATM    2  O   UNL     1      -8.584   5.024  68.426  1.00  0.00    -0.098 OA 
ENDROOT
BRANCH   2   3
HETATM    3  C   UNL     1      -8.928   5.059  69.745  1.00  0.00    -0.106 C  
HETATM    4  O   UNL     1      -8.232   4.652  70.667  1.00  0.00    -0.080 OA 
BRANCH   3   5
HETATM    5  C   UNL     1     -10.298   5.657  69.882  1.00  0.00    -0.347 C  
BRANCH   5   6
HETATM    6  C   UNL     1     -10.311   6.888  70.795  1.00  0.00    -0.223 C  
BRANCH   6   7
HETATM    7  C   UNL     1     -10.635   8.171  70.062  1.00  0.00    -0.239 A  
HETATM    8  C   UNL     1     -11.356   9.189  70.688  1.00  0.00    -0.323 A  
HETATM    9  C   UNL     1     -11.672  10.364  70.014  1.00  0.00    -0.366 A  
HETATM   10  C   UNL     1     -11.260  10.565  68.697  1.00  0.00    -0.270 A  
HETATM   11  C   UNL     1     -10.181   8.387  68.751  1.00  0.00    -0.223 A  
HETATM   12  C   UNL     1     -10.498   9.576  68.073  1.00  0.00    -0.279 A  
BRANCH  10  13
HETATM   13  O   UNL     1     -11.551  11.689  67.960  1.00  0.00    -0.334 OA 
BRANCH  13  14
HETATM   14  C   UNL     1     -10.582  11.991  66.941  1.00  0.00    -0.229 C  
BRANCH  14  15
HETATM   15  C   UNL     1     -11.159  12.935  65.882  1.00  0.00    -0.283 C  
HETATM   16  O   UNL     1     -12.425  12.438  65.434  1.00  0.00    -0.637 OA 
HETATM   17  H   UNL     1     -12.783  13.023  64.777  1.00  0.00     0.000 HD 
BRANCH  15  18
HETATM   18  C   UNL     1     -11.321  14.377  66.394  1.00  0.00    -0.350 C  
BRANCH  18  19
HETATM   19  N   UNL     1     -12.379  14.485  67.404  1.00  0.00    -0.575 NA 
HETATM   20  H   UNL     1     -12.777  13.568  67.607  1.00  0.00     0.000 HD 
BRANCH  19  21
HETATM   21  C   UNL     1     -11.951  15.148  68.641  1.00  0.00    -0.240 C  
HETATM   22  C   UNL     1     -12.255  14.326  69.895  1.00  0.00    -0.407 C  
HETATM   23  C   UNL     1     -10.441  15.385  68.546  1.00  0.00    -0.234 C  
ENDBRANCH  19  21
ENDBRANCH  18  19
ENDBRANCH  15  18
ENDBRANCH  14  15
ENDBRANCH  13  14
ENDBRANCH  10  13
ENDBRANCH   6   7
ENDBRANCH   5   6
ENDBRANCH   3   5
ENDBRANCH   2   3
TORSDOF 10
ENDMDL
MODEL      159
REMARK 921   NORMALIZED FREE ENERGY PREDICTED BY IDOCK:   -3.89 KCAL/MOL
REMARK 922        TOTAL FREE ENERGY PREDICTED BY IDOCK:   -7.05 KCAL/MOL
REMARK 923 INTER-LIGAND FREE ENERGY PREDICTED BY IDOCK:   -6.32 KCAL/MOL
REMARK 924 INTRA-LIGAND FREE ENERGY PREDICTED BY IDOCK:   -0.72 KCAL/MOL
REMARK 927      BINDING AFFINITY PREDICTED BY RF-SCORE:    0.00 PKD
ROOT
HETATM    1  C   UNL     1     -10.102  19.991  66.882  1.00  0.00    -0.467 C  
HETATM    2  O   UNL     1     -10.776  19.324  67.946  1.00  0.00    -0.398 OA 
ENDROOT
BRANCH   2   3
HETATM    3  C   UNL     1     -10.177  18.166  68.344  1.00  0.00    -0.387 C  
HETATM    4  O   UNL     1      -9.016  18.064  68.720  1.00  0.00    -0.289 OA 
BRANCH   3   5
HETATM    5  C   UNL     1     -11.159  17.037  68.229  1.00  0.00    -0.172 C  
BRANCH   5   6
HETATM    6  C   UNL     1     -10.892  16.151  67.008  1.00  0.00    -0.194 C  
BRANCH   6   7
HETATM    7  C   UNL     1     -10.684  14.694  67.361  1.00  0.00    -0.280 A  
HETATM    8  C   UNL     1      -9.425  14.221  67.732  1.00  0.00    -0.216 A  
HETATM    9  C   UNL     1      -9.224  12.881  68.041  1.00  0.00    -0.212 A  
HETATM   10  C   UNL     1     -10.282  11.972  68.005  1.00  0.00    -0.198 A  
HETATM   11  C   UNL     1     -11.762  13.793  67.366  1.00  0.00    -0.417 A  
HETATM   12  C   UNL     1     -11.557  12.440  67.682  1.00  0.00    -0.421 A  
BRANCH  10  13
HETATM   13  O   UNL     1     -10.158  10.630  68.277  1.00  0.00    -0.150 OA 
BRANCH  13  14
HETATM   14  C   UNL     1      -9.039  10.301  69.119  1.00  0.00    -0.191 C  
BRANCH  14  15
HETATM   15  C   UNL     1      -9.408   9.226  70.145  1.00  0.00    -0.228 C  
HETATM   16  O   UNL     1      -9.085   9.688  71.462  1.00  0.00    -0.227 OA 
HETATM   17  H   UNL     1      -9.314   9.021  72.099  1.00  0.00     0.000 HD 
BRANCH  15  18
HETATM   18  C   UNL     1     -10.894   8.830  70.085  1.00  0.00    -0.227 C  
BRANCH  18  19
HETATM   19  N   UNL     1     -11.460   8.619  71.422  1.00  0.00    -0.271 NA 
HETATM   20  H   UNL     1     -10.720   8.442  72.101  1.00  0.00     0.000 HD 
BRANCH  19  21
HETATM   21  C   UNL     1     -12.327   9.712  71.875  1.00  0.00    -0.357 C  
HETATM   22  C   UNL     1     -12.626  10.732  70.775  1.00  0.00    -0.476 C  
HETATM   23  C   UNL     1     -13.642   9.094  72.362  1.00  0.00    -0.544 C  
ENDBRANCH  19  21
ENDBRANCH  18  19
ENDBRANCH  15  18
ENDBRANCH  14  15
ENDBRANCH  13  14
ENDBRANCH  10  13
ENDBRANCH   6   7
ENDBRANCH   5   6
ENDBRANCH   3   5
ENDBRANCH   2   3
TORSDOF 10
ENDMDL
MODEL      160
REMARK 921   NORMALIZED FREE ENERGY PREDICTED BY IDOCK:   -3.89 KCAL/MOL
REMARK 922        TOTAL FREE ENERGY PREDICTED BY IDOCK:   -7.04 KCAL/MOL
REMARK 923 INTER-LIGAND FREE ENERGY PREDICTED BY IDOCK:   -6.03 KCAL/MOL
REMARK 924 INTRA-LIGAND FREE ENERGY PREDICTED BY IDOCK:   -1.01 KCAL/MOL
REMARK 927      BINDING AFFINITY PREDICTED BY RF-SCORE:    0.00 PKD
ROOT
HETATM    1  C   UNL     1      -6.226  16.167  68.879  1.00  0.00    -0.132 C  
HETATM    2  O   UNL     1      -7.419  16.878  69.195  1.00  0.00    -0.239 OA 
ENDROOT
BRANCH   2   3
HETATM    3  C   UNL     1      -7.675  17.932  68.368  1.00  0.00    -0.291 C  
HETATM    4  O   UNL     1      -7.905  19.077  68.735  1.00  0.00    -0.340 OA 
BRANCH   3   5
HETATM    5  C   UNL     1      -7.647  17.459  66.944  1.00  0.00    -0.253 C  
BRANCH   5   6
HETATM    6  C   UNL     1      -9.038  17.460  66.300  1.00  0.00    -0.232 C  
BRANCH   6   7
HETATM    7  C   UNL     1      -9.623  16.074  66.139  1.00  0.00    -0.366 A  
HETATM    8  C   UNL     1     -10.817  15.879  65.444  1.00  0.00    -0.361 A  
HETATM    9  C   UNL     1     -11.368  14.610  65.308  1.00  0.00    -0.354 A  
HETATM   10  C   UNL     1     -10.733  13.492  65.847  1.00  0.00    -0.277 A  
HETATM   11  C   UNL     1      -8.956  14.947  66.647  1.00  0.00    -0.301 A  
HETATM   12  C   UNL     1      -9.513  13.665  66.504  1.00  0.00    -0.270 A  
BRANCH  10  13
HETATM   13  O   UNL     1     -11.226  12.210  65.771  1.00  0.00    -0.314 OA 
BRANCH  13  14
HETATM   14  C   UNL     1     -10.257  11.231  65.355  1.00  0.00    -0.270 C  
BRANCH  14  15
HETATM   15  C   UNL     1     -10.367   9.949  66.183  1.00  0.00    -0.153 C  
HETATM   16  O   UNL     1      -9.644   8.895  65.536  1.00  0.00    -0.440 OA 
HETATM   17  H   UNL     1      -9.712   8.099  66.050  1.00  0.00     0.000 HD 
BRANCH  15  18
HETATM   18  C   UNL     1      -9.850  10.123  67.622  1.00  0.00    -0.172 C  
BRANCH  18  19
HETATM   19  N   UNL     1     -10.775  10.907  68.447  1.00  0.00    -0.188 NA 
HETATM   20  H   UNL     1     -11.568  11.229  67.891  1.00  0.00     0.000 HD 
BRANCH  19  21
HETATM   21  C   UNL     1     -11.238  10.204  69.648  1.00  0.00    -0.261 C  
HETATM   22  C   UNL     1     -10.093   9.608  70.469  1.00  0.00    -0.338 C  
HETATM   23  C   UNL     1     -12.008  11.209  70.511  1.00  0.00    -0.475 C  
ENDBRANCH  19  21
ENDBRANCH  18  19
ENDBRANCH  15  18
ENDBRANCH  14  15
ENDBRANCH  13  14
ENDBRANCH  10  13
ENDBRANCH   6   7
ENDBRANCH   5   6
ENDBRANCH   3   5
ENDBRANCH   2   3
TORSDOF 10
ENDMDL
MODEL      161
REMARK 921   NORMALIZED FREE ENERGY PREDICTED BY IDOCK:   -3.89 KCAL/MOL
REMARK 922        TOTAL FREE ENERGY PREDICTED BY IDOCK:   -7.04 KCAL/MOL
REMARK 923 INTER-LIGAND FREE ENERGY PREDICTED BY IDOCK:   -6.16 KCAL/MOL
REMARK 924 INTRA-LIGAND FREE ENERGY PREDICTED BY IDOCK:   -0.88 KCAL/MOL
REMARK 927      BINDING AFFINITY PREDICTED BY RF-SCORE:    0.00 PKD
ROOT
HETATM    1  C   UNL     1     -11.546  13.209  63.757  1.00  0.00    -0.425 C  
HETATM    2  O   UNL     1     -12.174  14.144  64.631  1.00  0.00    -0.425 OA 
ENDROOT
BRANCH   2   3
HETATM    3  C   UNL     1     -11.302  14.929  65.326  1.00  0.00    -0.358 C  
HETATM    4  O   UNL     1     -10.716  15.904  64.874  1.00  0.00    -0.522 OA 
BRANCH   3   5
HETATM    5  C   UNL     1     -11.161  14.394  66.721  1.00  0.00    -0.340 C  
BRANCH   5   6
HETATM    6  C   UNL     1      -9.806  13.717  66.954  1.00  0.00    -0.261 C  
BRANCH   6   7
HETATM    7  C   UNL     1      -9.918  12.232  67.220  1.00  0.00    -0.210 A  
HETATM    8  C   UNL     1      -8.965  11.570  67.995  1.00  0.00    -0.170 A  
HETATM    9  C   UNL     1      -9.053  10.202  68.228  1.00  0.00    -0.122 A  
HETATM   10  C   UNL     1     -10.108   9.454  67.707  1.00  0.00    -0.198 A  
HETATM   11  C   UNL     1     -11.006  11.492  66.729  1.00  0.00    -0.347 A  
HETATM   12  C   UNL     1     -11.095  10.110  66.969  1.00  0.00    -0.061 A  
BRANCH  10  13
HETATM   13  O   UNL     1     -10.252   8.097  67.876  1.00  0.00    -0.197 OA 
BRANCH  13  14
HETATM   14  C   UNL     1      -9.874   7.624  69.181  1.00  0.00    -0.171 C  
BRANCH  14  15
HETATM   15  C   UNL     1     -10.802   6.504  69.660  1.00  0.00    -0.304 C  
HETATM   16  O   UNL     1     -10.067   5.590  70.483  1.00  0.00    -0.196 OA 
HETATM   17  H   UNL     1     -10.643   4.895  70.780  1.00  0.00     0.000 HD 
BRANCH  15  18
HETATM   18  C   UNL     1     -12.022   7.032  70.434  1.00  0.00    -0.207 C  
BRANCH  18  19
HETATM   19  N   UNL     1     -12.099   8.496  70.405  1.00  0.00    -0.449 NA 
HETATM   20  H   UNL     1     -12.775   8.807  69.707  1.00  0.00     0.000 HD 
BRANCH  19  21
HETATM   21  C   UNL     1     -12.390   9.099  71.710  1.00  0.00    -0.372 C  
HETATM   22  C   UNL     1     -13.878   9.059  72.068  1.00  0.00    -0.501 C  
HETATM   23  C   UNL     1     -11.596   8.329  72.769  1.00  0.00    -0.326 C  
ENDBRANCH  19  21
ENDBRANCH  18  19
ENDBRANCH  15  18
ENDBRANCH  14  15
ENDBRANCH  13  14
ENDBRANCH  10  13
ENDBRANCH   6   7
ENDBRANCH   5   6
ENDBRANCH   3   5
ENDBRANCH   2   3
TORSDOF 10
ENDMDL
MODEL      162
REMARK 921   NORMALIZED FREE ENERGY PREDICTED BY IDOCK:   -3.89 KCAL/MOL
REMARK 922        TOTAL FREE ENERGY PREDICTED BY IDOCK:   -7.04 KCAL/MOL
REMARK 923 INTER-LIGAND FREE ENERGY PREDICTED BY IDOCK:   -6.34 KCAL/MOL
REMARK 924 INTRA-LIGAND FREE ENERGY PREDICTED BY IDOCK:   -0.70 KCAL/MOL
REMARK 927      BINDING AFFINITY PREDICTED BY RF-SCORE:    0.00 PKD
ROOT
HETATM    1  C   UNL     1     -10.083  18.565  68.946  1.00  0.00    -0.310 C  
HETATM    2  O   UNL     1      -9.106  19.590  68.784  1.00  0.00    -0.368 OA 
ENDROOT
BRANCH   2   3
HETATM    3  C   UNL     1      -8.822  19.887  67.484  1.00  0.00    -0.338 C  
HETATM    4  O   UNL     1      -9.622  20.331  66.670  1.00  0.00    -0.397 OA 
BRANCH   3   5
HETATM    5  C   UNL     1      -7.383  19.565  67.207  1.00  0.00    -0.249 C  
BRANCH   5   6
HETATM    6  C   UNL     1      -7.217  18.571  66.053  1.00  0.00    -0.290 C  
BRANCH   6   7
HETATM    7  C   UNL     1      -7.643  17.163  66.410  1.00  0.00    -0.347 A  
HETATM    8  C   UNL     1      -8.884  16.668  66.009  1.00  0.00    -0.242 A  
HETATM    9  C   UNL     1      -9.287  15.382  66.350  1.00  0.00    -0.331 A  
HETATM   10  C   UNL     1      -8.453  14.542  67.087  1.00  0.00    -0.212 A  
HETATM   11  C   UNL     1      -6.781  16.307  67.115  1.00  0.00    -0.237 A  
HETATM   12  C   UNL     1      -7.189  15.007  67.455  1.00  0.00    -0.224 A  
BRANCH  10  13
HETATM   13  O   UNL     1      -8.789  13.268  67.479  1.00  0.00    -0.184 OA 
BRANCH  13  14
HETATM   14  C   UNL     1      -9.728  13.215  68.567  1.00  0.00    -0.137 C  
BRANCH  14  15
HETATM   15  C   UNL     1     -11.129  12.835  68.079  1.00  0.00    -0.250 C  
HETATM   16  O   UNL     1     -11.025  11.870  67.025  1.00  0.00    -0.248 OA 
HETATM   17  H   UNL     1     -11.894  11.634  66.722  1.00  0.00     0.000 HD 
BRANCH  15  18
HETATM   18  C   UNL     1     -12.021  12.279  69.203  1.00  0.00    -0.249 C  
BRANCH  18  19
HETATM   19  N   UNL     1     -12.074  10.813  69.187  1.00  0.00    -0.642 NA 
HETATM   20  H   UNL     1     -11.538  10.442  68.403  1.00  0.00     0.000 HD 
BRANCH  19  21
HETATM   21  C   UNL     1     -11.646  10.192  70.446  1.00  0.00    -0.316 C  
HETATM   22  C   UNL     1     -12.801   9.970  71.425  1.00  0.00    -0.519 C  
HETATM   23  C   UNL     1     -11.004   8.843  70.108  1.00  0.00    -0.245 C  
ENDBRANCH  19  21
ENDBRANCH  18  19
ENDBRANCH  15  18
ENDBRANCH  14  15
ENDBRANCH  13  14
ENDBRANCH  10  13
ENDBRANCH   6   7
ENDBRANCH   5   6
ENDBRANCH   3   5
ENDBRANCH   2   3
TORSDOF 10
ENDMDL
MODEL      163
REMARK 921   NORMALIZED FREE ENERGY PREDICTED BY IDOCK:   -3.88 KCAL/MOL
REMARK 922        TOTAL FREE ENERGY PREDICTED BY IDOCK:   -7.03 KCAL/MOL
REMARK 923 INTER-LIGAND FREE ENERGY PREDICTED BY IDOCK:   -5.75 KCAL/MOL
REMARK 924 INTRA-LIGAND FREE ENERGY PREDICTED BY IDOCK:   -1.28 KCAL/MOL
REMARK 927      BINDING AFFINITY PREDICTED BY RF-SCORE:    0.00 PKD
ROOT
HETATM    1  C   UNL     1     -11.120   6.245  67.410  1.00  0.00    -0.287 C  
HETATM    2  O   UNL     1      -9.885   5.611  67.089  1.00  0.00    -0.128 OA 
ENDROOT
BRANCH   2   3
HETATM    3  C   UNL     1      -8.782   6.353  67.394  1.00  0.00    -0.106 C  
HETATM    4  O   UNL     1      -7.952   6.067  68.247  1.00  0.00    -0.104 OA 
BRANCH   3   5
HETATM    5  C   UNL     1      -8.762   7.583  66.534  1.00  0.00    -0.151 C  
BRANCH   5   6
HETATM    6  C   UNL     1      -8.075   8.767  67.221  1.00  0.00    -0.101 C  
BRANCH   6   7
HETATM    7  C   UNL     1      -8.945  10.002  67.297  1.00  0.00    -0.144 A  
HETATM    8  C   UNL     1     -10.336   9.896  67.333  1.00  0.00    -0.301 A  
HETATM    9  C   UNL     1     -11.141  11.028  67.385  1.00  0.00    -0.370 A  
HETATM   10  C   UNL     1     -10.580  12.304  67.421  1.00  0.00    -0.222 A  
HETATM   11  C   UNL     1      -8.373  11.283  67.378  1.00  0.00    -0.137 A  
HETATM   12  C   UNL     1      -9.189  12.425  67.434  1.00  0.00    -0.184 A  
BRANCH  10  13
HETATM   13  O   UNL     1     -11.309  13.469  67.452  1.00  0.00    -0.287 OA 
BRANCH  13  14
HETATM   14  C   UNL     1     -10.595  14.623  66.975  1.00  0.00    -0.280 C  
BRANCH  14  15
HETATM   15  C   UNL     1     -11.344  15.310  65.829  1.00  0.00    -0.180 C  
HETATM   16  O   UNL     1     -10.405  15.945  64.954  1.00  0.00    -0.517 OA 
HETATM   17  H   UNL     1     -10.869  16.371  64.243  1.00  0.00     0.000 HD 
BRANCH  15  18
HETATM   18  C   UNL     1     -12.224  14.337  65.025  1.00  0.00    -0.433 C  
BRANCH  18  19
HETATM   19  N   UNL     1     -11.632  14.009  63.723  1.00  0.00    -0.597 NA 
HETATM   20  H   UNL     1     -10.670  14.346  63.671  1.00  0.00     0.000 HD 
BRANCH  19  21
HETATM   21  C   UNL     1     -11.700  12.583  63.384  1.00  0.00    -0.488 C  
HETATM   22  C   UNL     1     -10.411  11.829  63.716  1.00  0.00    -0.451 C  
HETATM   23  C   UNL     1     -12.861  11.970  64.173  1.00  0.00    -0.283 C  
ENDBRANCH  19  21
ENDBRANCH  18  19
ENDBRANCH  15  18
ENDBRANCH  14  15
ENDBRANCH  13  14
ENDBRANCH  10  13
ENDBRANCH   6   7
ENDBRANCH   5   6
ENDBRANCH   3   5
ENDBRANCH   2   3
TORSDOF 10
ENDMDL
MODEL      164
REMARK 921   NORMALIZED FREE ENERGY PREDICTED BY IDOCK:   -3.88 KCAL/MOL
REMARK 922        TOTAL FREE ENERGY PREDICTED BY IDOCK:   -7.03 KCAL/MOL
REMARK 923 INTER-LIGAND FREE ENERGY PREDICTED BY IDOCK:   -6.12 KCAL/MOL
REMARK 924 INTRA-LIGAND FREE ENERGY PREDICTED BY IDOCK:   -0.91 KCAL/MOL
REMARK 927      BINDING AFFINITY PREDICTED BY RF-SCORE:    0.00 PKD
ROOT
HETATM    1  C   UNL     1     -10.406   5.162  70.309  1.00  0.00    -0.261 C  
HETATM    2  O   UNL     1     -11.495   6.081  70.292  1.00  0.00    -0.339 OA 
ENDROOT
BRANCH   2   3
HETATM    3  C   UNL     1     -11.881   6.510  71.528  1.00  0.00    -0.333 C  
HETATM    4  O   UNL     1     -11.600   5.961  72.585  1.00  0.00    -0.290 OA 
BRANCH   3   5
HETATM    5  C   UNL     1     -12.718   7.747  71.381  1.00  0.00    -0.333 C  
BRANCH   5   6
HETATM    6  C   UNL     1     -11.947   9.022  71.741  1.00  0.00    -0.438 C  
BRANCH   6   7
HETATM    7  C   UNL     1     -11.626   9.886  70.541  1.00  0.00    -0.386 A  
HETATM    8  C   UNL     1     -11.004   9.345  69.416  1.00  0.00    -0.165 A  
HETATM    9  C   UNL     1     -10.692  10.138  68.318  1.00  0.00    -0.277 A  
HETATM   10  C   UNL     1     -11.009  11.496  68.302  1.00  0.00    -0.224 A  
HETATM   11  C   UNL     1     -11.988  11.243  70.514  1.00  0.00    -0.467 A  
HETATM   12  C   UNL     1     -11.676  12.042  69.401  1.00  0.00    -0.402 A  
BRANCH  10  13
HETATM   13  O   UNL     1     -10.715  12.347  67.263  1.00  0.00    -0.224 OA 
BRANCH  13  14
HETATM   14  C   UNL     1      -9.571  11.952  66.485  1.00  0.00    -0.214 C  
BRANCH  14  15
HETATM   15  C   UNL     1      -8.262  12.292  67.202  1.00  0.00    -0.179 C  
HETATM   16  O   UNL     1      -7.152  11.856  66.409  1.00  0.00    -0.369 OA 
HETATM   17  H   UNL     1      -6.339  12.066  66.854  1.00  0.00     0.000 HD 
BRANCH  15  18
HETATM   18  C   UNL     1      -8.122  13.794  67.507  1.00  0.00    -0.185 C  
BRANCH  18  19
HETATM   19  N   UNL     1      -8.674  14.141  68.821  1.00  0.00    -0.331 NA 
HETATM   20  H   UNL     1      -7.994  13.953  69.558  1.00  0.00     0.000 HD 
BRANCH  19  21
HETATM   21  C   UNL     1      -9.163  15.522  68.911  1.00  0.00    -0.218 C  
HETATM   22  C   UNL     1      -8.043  16.559  68.809  1.00  0.00    -0.244 C  
HETATM   23  C   UNL     1     -10.160  15.740  67.768  1.00  0.00    -0.238 C  
ENDBRANCH  19  21
ENDBRANCH  18  19
ENDBRANCH  15  18
ENDBRANCH  14  15
ENDBRANCH  13  14
ENDBRANCH  10  13
ENDBRANCH   6   7
ENDBRANCH   5   6
ENDBRANCH   3   5
ENDBRANCH   2   3
TORSDOF 10
ENDMDL
MODEL      165
REMARK 921   NORMALIZED FREE ENERGY PREDICTED BY IDOCK:   -3.88 KCAL/MOL
REMARK 922        TOTAL FREE ENERGY PREDICTED BY IDOCK:   -7.02 KCAL/MOL
REMARK 923 INTER-LIGAND FREE ENERGY PREDICTED BY IDOCK:   -6.12 KCAL/MOL
REMARK 924 INTRA-LIGAND FREE ENERGY PREDICTED BY IDOCK:   -0.91 KCAL/MOL
REMARK 927      BINDING AFFINITY PREDICTED BY RF-SCORE:    0.00 PKD
ROOT
HETATM    1  C   UNL     1     -10.448   3.623  63.978  1.00  0.00    -0.265 C  
HETATM    2  O   UNL     1      -9.622   3.602  65.139  1.00  0.00    -0.160 OA 
ENDROOT
BRANCH   2   3
HETATM    3  C   UNL     1      -8.856   4.718  65.298  1.00  0.00    -0.149 C  
HETATM    4  O   UNL     1      -8.511   5.472  64.397  1.00  0.00    -0.136 OA 
BRANCH   3   5
HETATM    5  C   UNL     1      -8.489   4.863  66.746  1.00  0.00    -0.106 C  
BRANCH   5   6
HETATM    6  C   UNL     1      -9.670   4.579  67.680  1.00  0.00    -0.206 C  
BRANCH   6   7
HETATM    7  C   UNL     1      -9.959   5.713  68.639  1.00  0.00    -0.213 A  
HETATM    8  C   UNL     1     -10.668   5.488  69.820  1.00  0.00    -0.355 A  
HETATM    9  C   UNL     1     -10.951   6.529  70.697  1.00  0.00    -0.340 A  
HETATM   10  C   UNL     1     -10.518   7.828  70.428  1.00  0.00    -0.221 A  
HETATM   11  C   UNL     1      -9.483   7.010  68.385  1.00  0.00    -0.133 A  
HETATM   12  C   UNL     1      -9.767   8.060  69.274  1.00  0.00    -0.167 A  
BRANCH  10  13
HETATM   13  O   UNL     1     -10.777   8.911  71.235  1.00  0.00    -0.239 OA 
BRANCH  13  14
HETATM   14  C   UNL     1     -12.113   8.943  71.767  1.00  0.00    -0.362 C  
BRANCH  14  15
HETATM   15  C   UNL     1     -12.910  10.125  71.209  1.00  0.00    -0.410 C  
HETATM   16  O   UNL     1     -13.456  10.890  72.290  1.00  0.00    -0.599 OA 
HETATM   17  H   UNL     1     -13.951  11.623  71.944  1.00  0.00     0.000 HD 
BRANCH  15  18
HETATM   18  C   UNL     1     -12.065  11.039  70.304  1.00  0.00    -0.362 C  
BRANCH  18  19
HETATM   19  N   UNL     1     -12.203  10.686  68.886  1.00  0.00    -0.793 NA 
HETATM   20  H   UNL     1     -13.130  10.303  68.700  1.00  0.00     0.000 HD 
BRANCH  19  21
HETATM   21  C   UNL     1     -11.908  11.794  67.970  1.00  0.00    -0.234 C  
HETATM   22  C   UNL     1     -11.188  12.958  68.654  1.00  0.00    -0.321 C  
HETATM   23  C   UNL     1     -11.028  11.247  66.843  1.00  0.00    -0.348 C  
ENDBRANCH  19  21
ENDBRANCH  18  19
ENDBRANCH  15  18
ENDBRANCH  14  15
ENDBRANCH  13  14
ENDBRANCH  10  13
ENDBRANCH   6   7
ENDBRANCH   5   6
ENDBRANCH   3   5
ENDBRANCH   2   3
TORSDOF 10
ENDMDL
MODEL      166
REMARK 921   NORMALIZED FREE ENERGY PREDICTED BY IDOCK:   -3.86 KCAL/MOL
REMARK 922        TOTAL FREE ENERGY PREDICTED BY IDOCK:   -7.00 KCAL/MOL
REMARK 923 INTER-LIGAND FREE ENERGY PREDICTED BY IDOCK:   -5.98 KCAL/MOL
REMARK 924 INTRA-LIGAND FREE ENERGY PREDICTED BY IDOCK:   -1.02 KCAL/MOL
REMARK 927      BINDING AFFINITY PREDICTED BY RF-SCORE:    0.00 PKD
ROOT
HETATM    1  C   UNL     1     -10.630  19.056  65.912  1.00  0.00    -0.393 C  
HETATM    2  O   UNL     1     -10.133  20.014  66.843  1.00  0.00    -0.413 OA 
ENDROOT
BRANCH   2   3
HETATM    3  C   UNL     1      -9.465  19.469  67.899  1.00  0.00    -0.336 C  
HETATM    4  O   UNL     1      -9.667  19.736  69.077  1.00  0.00    -0.372 OA 
BRANCH   3   5
HETATM    5  C   UNL     1      -8.432  18.509  67.386  1.00  0.00    -0.265 C  
BRANCH   5   6
HETATM    6  C   UNL     1      -8.269  17.284  68.293  1.00  0.00    -0.237 C  
BRANCH   6   7
HETATM    7  C   UNL     1      -9.068  16.086  67.829  1.00  0.00    -0.196 A  
HETATM    8  C   UNL     1      -9.145  15.758  66.475  1.00  0.00    -0.327 A  
HETATM    9  C   UNL     1      -9.892  14.669  66.042  1.00  0.00    -0.347 A  
HETATM   10  C   UNL     1     -10.572  13.860  66.952  1.00  0.00    -0.280 A  
HETATM   11  C   UNL     1      -9.715  15.250  68.754  1.00  0.00    -0.212 A  
HETATM   12  C   UNL     1     -10.466  14.147  68.314  1.00  0.00    -0.249 A  
BRANCH  10  13
HETATM   13  O   UNL     1     -11.346  12.780  66.599  1.00  0.00    -0.285 OA 
BRANCH  13  14
HETATM   14  C   UNL     1     -11.104  12.293  65.267  1.00  0.00    -0.316 C  
BRANCH  14  15
HETATM   15  C   UNL     1     -10.658  10.828  65.281  1.00  0.00    -0.160 C  
HETATM   16  O   UNL     1      -9.717  10.602  64.224  1.00  0.00    -0.259 OA 
HETATM   17  H   UNL     1      -9.441   9.693  64.232  1.00  0.00     0.000 HD 
BRANCH  15  18
HETATM   18  C   UNL     1     -10.038  10.406  66.624  1.00  0.00    -0.224 C  
BRANCH  18  19
HETATM   19  N   UNL     1     -11.062  10.087  67.625  1.00  0.00    -0.422 NA 
HETATM   20  H   UNL     1     -11.712   9.389  67.265  1.00  0.00     0.000 HD 
BRANCH  19  21
HETATM   21  C   UNL     1     -10.513   9.663  68.918  1.00  0.00    -0.215 C  
HETATM   22  C   UNL     1      -8.983   9.630  68.935  1.00  0.00    -0.144 C  
HETATM   23  C   UNL     1     -11.008  10.647  69.983  1.00  0.00    -0.325 C  
ENDBRANCH  19  21
ENDBRANCH  18  19
ENDBRANCH  15  18
ENDBRANCH  14  15
ENDBRANCH  13  14
ENDBRANCH  10  13
ENDBRANCH   6   7
ENDBRANCH   5   6
ENDBRANCH   3   5
ENDBRANCH   2   3
TORSDOF 10
ENDMDL
MODEL      167
REMARK 921   NORMALIZED FREE ENERGY PREDICTED BY IDOCK:   -3.83 KCAL/MOL
REMARK 922        TOTAL FREE ENERGY PREDICTED BY IDOCK:   -6.94 KCAL/MOL
REMARK 923 INTER-LIGAND FREE ENERGY PREDICTED BY IDOCK:   -5.96 KCAL/MOL
REMARK 924 INTRA-LIGAND FREE ENERGY PREDICTED BY IDOCK:   -0.98 KCAL/MOL
REMARK 927      BINDING AFFINITY PREDICTED BY RF-SCORE:    0.00 PKD
ROOT
HETATM    1  C   UNL     1     -14.361  14.346  72.174  1.00  0.00    -0.519 C  
HETATM    2  O   UNL     1     -13.057  13.890  71.826  1.00  0.00    -0.339 OA 
ENDROOT
BRANCH   2   3
HETATM    3  C   UNL     1     -12.618  14.331  70.613  1.00  0.00    -0.355 C  
HETATM    4  O   UNL     1     -12.723  15.478  70.198  1.00  0.00    -0.347 OA 
BRANCH   3   5
HETATM    5  C   UNL     1     -12.007  13.184  69.862  1.00  0.00    -0.387 C  
BRANCH   5   6
HETATM    6  C   UNL     1     -12.379  11.825  70.465  1.00  0.00    -0.387 C  
BRANCH   6   7
HETATM    7  C   UNL     1     -11.643  10.667  69.828  1.00  0.00    -0.385 A  
HETATM    8  C   UNL     1     -11.144   9.622  70.607  1.00  0.00    -0.384 A  
HETATM    9  C   UNL     1     -10.452   8.563  70.029  1.00  0.00    -0.226 A  
HETATM   10  C   UNL     1     -10.253   8.507  68.649  1.00  0.00    -0.197 A  
HETATM   11  C   UNL     1     -11.484  10.594  68.435  1.00  0.00    -0.330 A  
HETATM   12  C   UNL     1     -10.788   9.521  67.852  1.00  0.00    -0.240 A  
BRANCH  10  13
HETATM   13  O   UNL     1      -9.562   7.506  68.008  1.00  0.00    -0.141 OA 
BRANCH  13  14
HETATM   14  C   UNL     1     -10.184   7.046  66.795  1.00  0.00    -0.211 C  
BRANCH  14  15
HETATM   15  C   UNL     1     -10.676   5.603  66.931  1.00  0.00    -0.272 C  
HETATM   16  O   UNL     1     -10.824   5.020  65.631  1.00  0.00    -0.617 OA 
HETATM   17  H   UNL     1     -11.130   4.124  65.715  1.00  0.00     0.000 HD 
BRANCH  15  18
HETATM   18  C   UNL     1      -9.738   4.731  67.785  1.00  0.00    -0.156 C  
BRANCH  18  19
HETATM   19  N   UNL     1     -10.130   4.726  69.199  1.00  0.00    -0.169 NA 
HETATM   20  H   UNL     1     -10.913   4.090  69.353  1.00  0.00     0.000 HD 
BRANCH  19  21
HETATM   21  C   UNL     1      -9.027   4.420  70.117  1.00  0.00    -0.088 C  
HETATM   22  C   UNL     1      -7.665   4.382  69.421  1.00  0.00    -0.054 C  
HETATM   23  C   UNL     1      -9.009   5.500  71.203  1.00  0.00    -0.153 C  
ENDBRANCH  19  21
ENDBRANCH  18  19
ENDBRANCH  15  18
ENDBRANCH  14  15
ENDBRANCH  13  14
ENDBRANCH  10  13
ENDBRANCH   6   7
ENDBRANCH   5   6
ENDBRANCH   3   5
ENDBRANCH   2   3
TORSDOF 10
ENDMDL
MODEL      168
REMARK 921   NORMALIZED FREE ENERGY PREDICTED BY IDOCK:   -3.83 KCAL/MOL
REMARK 922        TOTAL FREE ENERGY PREDICTED BY IDOCK:   -6.94 KCAL/MOL
REMARK 923 INTER-LIGAND FREE ENERGY PREDICTED BY IDOCK:   -5.52 KCAL/MOL
REMARK 924 INTRA-LIGAND FREE ENERGY PREDICTED BY IDOCK:   -1.42 KCAL/MOL
REMARK 927      BINDING AFFINITY PREDICTED BY RF-SCORE:    0.00 PKD
ROOT
HETATM    1  C   UNL     1      -9.543  12.079  68.407  1.00  0.00    -0.190 C  
HETATM    2  O   UNL     1      -9.463  11.799  67.012  1.00  0.00    -0.180 OA 
ENDROOT
BRANCH   2   3
HETATM    3  C   UNL     1     -10.560  11.165  66.508  1.00  0.00    -0.262 C  
HETATM    4  O   UNL     1     -11.717  11.373  66.853  1.00  0.00    -0.507 OA 
BRANCH   3   5
HETATM    5  C   UNL     1     -10.122  10.161  65.482  1.00  0.00    -0.338 C  
BRANCH   5   6
HETATM    6  C   UNL     1      -9.016   9.237  66.002  1.00  0.00    -0.215 C  
BRANCH   6   7
HETATM    7  C   UNL     1      -9.493   8.276  67.069  1.00  0.00    -0.226 A  
HETATM    8  C   UNL     1     -10.433   7.287  66.773  1.00  0.00    -0.311 A  
HETATM    9  C   UNL     1     -10.887   6.412  67.753  1.00  0.00    -0.418 A  
HETATM   10  C   UNL     1     -10.401   6.486  69.059  1.00  0.00    -0.195 A  
HETATM   11  C   UNL     1      -8.968   8.326  68.371  1.00  0.00    -0.136 A  
HETATM   12  C   UNL     1      -9.425   7.439  69.359  1.00  0.00    -0.155 A  
BRANCH  10  13
HETATM   13  O   UNL     1     -10.816   5.671  70.085  1.00  0.00    -0.316 OA 
BRANCH  13  14
HETATM   14  C   UNL     1      -9.997   4.505  70.279  1.00  0.00    -0.218 C  
BRANCH  14  15
HETATM   15  C   UNL     1      -9.811   4.193  71.767  1.00  0.00    -0.182 C  
HETATM   16  O   UNL     1      -8.705   3.298  71.936  1.00  0.00    -0.079 OA 
HETATM   17  H   UNL     1      -8.591   3.104  72.859  1.00  0.00     0.000 HD 
BRANCH  15  18
HETATM   18  C   UNL     1      -9.590   5.455  72.618  1.00  0.00    -0.150 C  
BRANCH  18  19
HETATM   19  N   UNL     1     -10.858   6.073  73.023  1.00  0.00    -0.249 NA 
HETATM   20  H   UNL     1     -11.252   5.588  73.829  1.00  0.00     0.000 HD 
BRANCH  19  21
HETATM   21  C   UNL     1     -10.757   7.513  73.285  1.00  0.00    -0.382 C  
HETATM   22  C   UNL     1      -9.360   8.073  73.007  1.00  0.00    -0.344 C  
HETATM   23  C   UNL     1     -11.774   8.224  72.388  1.00  0.00    -0.463 C  
ENDBRANCH  19  21
ENDBRANCH  18  19
ENDBRANCH  15  18
ENDBRANCH  14  15
ENDBRANCH  13  14
ENDBRANCH  10  13
ENDBRANCH   6   7
ENDBRANCH   5   6
ENDBRANCH   3   5
ENDBRANCH   2   3
TORSDOF 10
ENDMDL
MODEL      169
REMARK 921   NORMALIZED FREE ENERGY PREDICTED BY IDOCK:   -3.82 KCAL/MOL
REMARK 922        TOTAL FREE ENERGY PREDICTED BY IDOCK:   -6.93 KCAL/MOL
REMARK 923 INTER-LIGAND FREE ENERGY PREDICTED BY IDOCK:   -6.15 KCAL/MOL
REMARK 924 INTRA-LIGAND FREE ENERGY PREDICTED BY IDOCK:   -0.78 KCAL/MOL
REMARK 927      BINDING AFFINITY PREDICTED BY RF-SCORE:    0.00 PKD
ROOT
HETATM    1  C   UNL     1     -10.254  20.046  68.184  1.00  0.00    -0.396 C  
HETATM    2  O   UNL     1     -10.295  18.629  68.330  1.00  0.00    -0.374 OA 
ENDROOT
BRANCH   2   3
HETATM    3  C   UNL     1      -9.126  18.003  68.009  1.00  0.00    -0.272 C  
HETATM    4  O   UNL     1      -8.176  17.850  68.766  1.00  0.00    -0.291 OA 
BRANCH   3   5
HETATM    5  C   UNL     1      -9.185  17.552  66.579  1.00  0.00    -0.286 C  
BRANCH   5   6
HETATM    6  C   UNL     1     -10.588  17.095  66.166  1.00  0.00    -0.201 C  
BRANCH   6   7
HETATM    7  C   UNL     1     -10.827  15.618  66.395  1.00  0.00    -0.252 A  
HETATM    8  C   UNL     1     -10.372  14.670  65.477  1.00  0.00    -0.383 A  
HETATM    9  C   UNL     1     -10.603  13.313  65.674  1.00  0.00    -0.291 A  
HETATM   10  C   UNL     1     -11.282  12.859  66.804  1.00  0.00    -0.298 A  
HETATM   11  C   UNL     1     -11.472  15.164  67.557  1.00  0.00    -0.306 A  
HETATM   12  C   UNL     1     -11.701  13.792  67.755  1.00  0.00    -0.393 A  
BRANCH  10  13
HETATM   13  O   UNL     1     -11.566  11.538  67.057  1.00  0.00    -0.510 OA 
BRANCH  13  14
HETATM   14  C   UNL     1     -10.775  10.956  68.108  1.00  0.00    -0.214 C  
BRANCH  14  15
HETATM   15  C   UNL     1     -10.300   9.549  67.738  1.00  0.00    -0.239 C  
HETATM   16  O   UNL     1     -11.147   8.576  68.361  1.00  0.00    -0.431 OA 
HETATM   17  H   UNL     1     -10.852   7.703  68.131  1.00  0.00     0.000 HD 
BRANCH  15  18
HETATM   18  C   UNL     1     -10.270   9.311  66.217  1.00  0.00    -0.203 C  
BRANCH  18  19
HETATM   19  N   UNL     1      -8.997   8.730  65.778  1.00  0.00    -0.196 NA 
HETATM   20  H   UNL     1      -9.113   7.744  65.544  1.00  0.00     0.000 HD 
BRANCH  19  21
HETATM   21  C   UNL     1      -8.369   9.454  64.667  1.00  0.00    -0.157 C  
HETATM   22  C   UNL     1      -9.336  10.395  63.945  1.00  0.00    -0.322 C  
HETATM   23  C   UNL     1      -7.204  10.268  65.237  1.00  0.00    -0.134 C  
ENDBRANCH  19  21
ENDBRANCH  18  19
ENDBRANCH  15  18
ENDBRANCH  14  15
ENDBRANCH  13  14
ENDBRANCH  10  13
ENDBRANCH   6   7
ENDBRANCH   5   6
ENDBRANCH   3   5
ENDBRANCH   2   3
TORSDOF 10
ENDMDL
MODEL      170
REMARK 921   NORMALIZED FREE ENERGY PREDICTED BY IDOCK:   -3.82 KCAL/MOL
REMARK 922        TOTAL FREE ENERGY PREDICTED BY IDOCK:   -6.93 KCAL/MOL
REMARK 923 INTER-LIGAND FREE ENERGY PREDICTED BY IDOCK:   -6.10 KCAL/MOL
REMARK 924 INTRA-LIGAND FREE ENERGY PREDICTED BY IDOCK:   -0.83 KCAL/MOL
REMARK 927      BINDING AFFINITY PREDICTED BY RF-SCORE:    0.00 PKD
ROOT
HETATM    1  C   UNL     1      -9.944   4.057  64.818  1.00  0.00    -0.205 C  
HETATM    2  O   UNL     1      -9.534   3.441  66.036  1.00  0.00    -0.168 OA 
ENDROOT
BRANCH   2   3
HETATM    3  C   UNL     1      -9.441   4.301  67.091  1.00  0.00    -0.181 C  
HETATM    4  O   UNL     1      -8.755   4.122  68.089  1.00  0.00    -0.094 OA 
BRANCH   3   5
HETATM    5  C   UNL     1     -10.327   5.486  66.840  1.00  0.00    -0.315 C  
BRANCH   5   6
HETATM    6  C   UNL     1     -10.371   6.447  68.032  1.00  0.00    -0.234 C  
BRANCH   6   7
HETATM    7  C   UNL     1     -10.436   7.903  67.626  1.00  0.00    -0.303 A  
HETATM    8  C   UNL     1     -10.833   8.883  68.536  1.00  0.00    -0.038 A  
HETATM    9  C   UNL     1     -10.911  10.220  68.163  1.00  0.00    -0.312 A  
HETATM   10  C   UNL     1     -10.575  10.622  66.870  1.00  0.00    -0.254 A  
HETATM   11  C   UNL     1     -10.055   8.308  66.336  1.00  0.00    -0.222 A  
HETATM   12  C   UNL     1     -10.130   9.660  65.962  1.00  0.00    -0.318 A  
BRANCH  10  13
HETATM   13  O   UNL     1     -10.647  11.920  66.421  1.00  0.00    -0.233 OA 
BRANCH  13  14
HETATM   14  C   UNL     1     -11.527  12.107  65.299  1.00  0.00    -0.336 C  
BRANCH  14  15
HETATM   15  C   UNL     1     -11.309  13.470  64.638  1.00  0.00    -0.356 C  
HETATM   16  O   UNL     1     -12.024  13.523  63.398  1.00  0.00    -0.749 OA 
HETATM   17  H   UNL     1     -11.889  14.370  62.987  1.00  0.00     0.000 HD 
BRANCH  15  18
HETATM   18  C   UNL     1     -11.741  14.644  65.535  1.00  0.00    -0.316 C  
BRANCH  18  19
HETATM   19  N   UNL     1     -12.288  14.182  66.816  1.00  0.00    -0.554 NA 
HETATM   20  H   UNL     1     -12.292  13.163  66.859  1.00  0.00     0.000 HD 
BRANCH  19  21
HETATM   21  C   UNL     1     -11.606  14.746  67.987  1.00  0.00    -0.343 C  
HETATM   22  C   UNL     1     -11.346  13.709  69.082  1.00  0.00    -0.335 C  
HETATM   23  C   UNL     1     -10.270  15.328  67.516  1.00  0.00    -0.239 C  
ENDBRANCH  19  21
ENDBRANCH  18  19
ENDBRANCH  15  18
ENDBRANCH  14  15
ENDBRANCH  13  14
ENDBRANCH  10  13
ENDBRANCH   6   7
ENDBRANCH   5   6
ENDBRANCH   3   5
ENDBRANCH   2   3
TORSDOF 10
ENDMDL
MODEL      171
REMARK 921   NORMALIZED FREE ENERGY PREDICTED BY IDOCK:   -3.82 KCAL/MOL
REMARK 922        TOTAL FREE ENERGY PREDICTED BY IDOCK:   -6.93 KCAL/MOL
REMARK 923 INTER-LIGAND FREE ENERGY PREDICTED BY IDOCK:   -5.66 KCAL/MOL
REMARK 924 INTRA-LIGAND FREE ENERGY PREDICTED BY IDOCK:   -1.27 KCAL/MOL
REMARK 927      BINDING AFFINITY PREDICTED BY RF-SCORE:    0.00 PKD
ROOT
HETATM    1  C   UNL     1     -12.786  12.073  71.329  1.00  0.00    -0.279 C  
HETATM    2  O   UNL     1     -13.390  11.116  72.195  1.00  0.00    -0.452 OA 
ENDROOT
BRANCH   2   3
HETATM    3  C   UNL     1     -13.127   9.820  71.862  1.00  0.00    -0.446 C  
HETATM    4  O   UNL     1     -13.947   8.911  71.861  1.00  0.00    -0.407 OA 
BRANCH   3   5
HETATM    5  C   UNL     1     -11.673   9.685  71.517  1.00  0.00    -0.472 C  
BRANCH   5   6
HETATM    6  C   UNL     1     -11.087   8.343  71.967  1.00  0.00    -0.397 C  
BRANCH   6   7
HETATM    7  C   UNL     1     -10.558   7.507  70.822  1.00  0.00    -0.227 A  
HETATM    8  C   UNL     1     -11.429   6.911  69.909  1.00  0.00    -0.294 A  
HETATM    9  C   UNL     1     -10.949   6.129  68.865  1.00  0.00    -0.424 A  
HETATM   10  C   UNL     1      -9.580   5.932  68.689  1.00  0.00    -0.123 A  
HETATM   11  C   UNL     1      -9.176   7.348  70.624  1.00  0.00    -0.157 A  
HETATM   12  C   UNL     1      -8.693   6.560  69.566  1.00  0.00    -0.134 A  
BRANCH  10  13
HETATM   13  O   UNL     1      -9.031   5.156  67.695  1.00  0.00    -0.109 OA 
BRANCH  13  14
HETATM   14  C   UNL     1      -7.872   5.733  67.070  1.00  0.00    -0.102 C  
BRANCH  14  15
HETATM   15  C   UNL     1      -8.145   6.090  65.606  1.00  0.00    -0.126 C  
HETATM   16  O   UNL     1      -9.286   5.360  65.139  1.00  0.00    -0.350 OA 
HETATM   17  H   UNL     1      -9.455   5.581  64.230  1.00  0.00     0.000 HD 
BRANCH  15  18
HETATM   18  C   UNL     1      -8.371   7.597  65.392  1.00  0.00    -0.128 C  
BRANCH  18  19
HETATM   19  N   UNL     1      -8.730   8.281  66.640  1.00  0.00    -0.131 NA 
HETATM   20  H   UNL     1      -7.941   8.823  66.992  1.00  0.00     0.000 HD 
BRANCH  19  21
HETATM   21  C   UNL     1      -9.927   9.121  66.530  1.00  0.00    -0.288 C  
HETATM   22  C   UNL     1     -10.169   9.980  67.773  1.00  0.00    -0.235 C  
HETATM   23  C   UNL     1      -9.749  10.034  65.313  1.00  0.00    -0.373 C  
ENDBRANCH  19  21
ENDBRANCH  18  19
ENDBRANCH  15  18
ENDBRANCH  14  15
ENDBRANCH  13  14
ENDBRANCH  10  13
ENDBRANCH   6   7
ENDBRANCH   5   6
ENDBRANCH   3   5
ENDBRANCH   2   3
TORSDOF 10
ENDMDL
MODEL      172
REMARK 921   NORMALIZED FREE ENERGY PREDICTED BY IDOCK:   -3.82 KCAL/MOL
REMARK 922        TOTAL FREE ENERGY PREDICTED BY IDOCK:   -6.93 KCAL/MOL
REMARK 923 INTER-LIGAND FREE ENERGY PREDICTED BY IDOCK:   -6.18 KCAL/MOL
REMARK 924 INTRA-LIGAND FREE ENERGY PREDICTED BY IDOCK:   -0.75 KCAL/MOL
REMARK 927      BINDING AFFINITY PREDICTED BY RF-SCORE:    0.00 PKD
ROOT
HETATM    1  C   UNL     1      -7.376   8.408  71.256  1.00  0.00    -0.086 C  
HETATM    2  O   UNL     1      -8.094   7.251  71.676  1.00  0.00    -0.099 OA 
ENDROOT
BRANCH   2   3
HETATM    3  C   UNL     1      -8.946   7.472  72.716  1.00  0.00    -0.148 C  
HETATM    4  O   UNL     1      -8.615   7.850  73.833  1.00  0.00    -0.234 OA 
BRANCH   3   5
HETATM    5  C   UNL     1     -10.348   7.158  72.281  1.00  0.00    -0.226 C  
BRANCH   5   6
HETATM    6  C   UNL     1     -11.315   8.318  72.540  1.00  0.00    -0.455 C  
BRANCH   6   7
HETATM    7  C   UNL     1     -11.496   9.225  71.343  1.00  0.00    -0.439 A  
HETATM    8  C   UNL     1     -12.282  10.375  71.429  1.00  0.00    -0.461 A  
HETATM    9  C   UNL     1     -12.465  11.203  70.327  1.00  0.00    -0.354 A  
HETATM   10  C   UNL     1     -11.853  10.917  69.107  1.00  0.00    -0.317 A  
HETATM   11  C   UNL     1     -10.841   8.956  70.130  1.00  0.00    -0.251 A  
HETATM   12  C   UNL     1     -11.025   9.796  69.019  1.00  0.00    -0.193 A  
BRANCH  10  13
HETATM   13  O   UNL     1     -12.003  11.675  67.970  1.00  0.00    -0.577 OA 
BRANCH  13  14
HETATM   14  C   UNL     1     -10.773  12.218  67.458  1.00  0.00    -0.225 C  
BRANCH  14  15
HETATM   15  C   UNL     1     -10.599  13.685  67.861  1.00  0.00    -0.249 C  
HETATM   16  O   UNL     1      -9.653  13.780  68.933  1.00  0.00    -0.398 OA 
HETATM   17  H   UNL     1      -9.545  14.690  69.184  1.00  0.00     0.000 HD 
BRANCH  15  18
HETATM   18  C   UNL     1     -10.145  14.575  66.691  1.00  0.00    -0.272 C  
BRANCH  18  19
HETATM   19  N   UNL     1     -10.660  15.944  66.811  1.00  0.00    -0.317 NA 
HETATM   20  H   UNL     1     -11.299  16.019  67.603  1.00  0.00     0.000 HD 
BRANCH  19  21
HETATM   21  C   UNL     1      -9.610  16.965  66.895  1.00  0.00    -0.254 C  
HETATM   22  C   UNL     1      -9.571  17.670  68.253  1.00  0.00    -0.306 C  
HETATM   23  C   UNL     1      -8.265  16.276  66.646  1.00  0.00    -0.316 C  
ENDBRANCH  19  21
ENDBRANCH  18  19
ENDBRANCH  15  18
ENDBRANCH  14  15
ENDBRANCH  13  14
ENDBRANCH  10  13
ENDBRANCH   6   7
ENDBRANCH   5   6
ENDBRANCH   3   5
ENDBRANCH   2   3
TORSDOF 10
ENDMDL
MODEL      173
REMARK 921   NORMALIZED FREE ENERGY PREDICTED BY IDOCK:   -3.81 KCAL/MOL
REMARK 922        TOTAL FREE ENERGY PREDICTED BY IDOCK:   -6.91 KCAL/MOL
REMARK 923 INTER-LIGAND FREE ENERGY PREDICTED BY IDOCK:   -5.99 KCAL/MOL
REMARK 924 INTRA-LIGAND FREE ENERGY PREDICTED BY IDOCK:   -0.92 KCAL/MOL
REMARK 927      BINDING AFFINITY PREDICTED BY RF-SCORE:    0.00 PKD
ROOT
HETATM    1  C   UNL     1      -9.478   9.960  69.678  1.00  0.00    -0.231 C  
HETATM    2  O   UNL     1      -8.259   9.255  69.896  1.00  0.00    -0.115 OA 
ENDROOT
BRANCH   2   3
HETATM    3  C   UNL     1      -7.237   9.647  69.081  1.00  0.00    -0.068 C  
HETATM    4  O   UNL     1      -6.842   9.033  68.098  1.00  0.00    -0.067 OA 
BRANCH   3   5
HETATM    5  C   UNL     1      -6.664  10.936  69.594  1.00  0.00    -0.131 C  
BRANCH   5   6
HETATM    6  C   UNL     1      -6.416  11.952  68.475  1.00  0.00    -0.057 C  
BRANCH   6   7
HETATM    7  C   UNL     1      -7.662  12.705  68.063  1.00  0.00    -0.139 A  
HETATM    8  C   UNL     1      -8.475  12.233  67.032  1.00  0.00    -0.181 A  
HETATM    9  C   UNL     1      -9.611  12.929  66.638  1.00  0.00    -0.257 A  
HETATM   10  C   UNL     1      -9.983  14.112  67.276  1.00  0.00    -0.249 A  
HETATM   11  C   UNL     1      -8.055  13.872  68.739  1.00  0.00    -0.043 A  
HETATM   12  C   UNL     1      -9.206  14.572  68.341  1.00  0.00    -0.196 A  
BRANCH  10  13
HETATM   13  O   UNL     1     -11.079  14.866  66.930  1.00  0.00    -0.325 OA 
BRANCH  13  14
HETATM   14  C   UNL     1     -11.438  14.779  65.539  1.00  0.00    -0.329 C  
BRANCH  14  15
HETATM   15  C   UNL     1     -10.986  16.020  64.766  1.00  0.00    -0.356 C  
HETATM   16  O   UNL     1     -11.948  16.331  63.751  1.00  0.00    -1.409 OA 
HETATM   17  H   UNL     1     -11.667  17.101  63.270  1.00  0.00     0.000 HD 
BRANCH  15  18
HETATM   18  C   UNL     1     -10.776  17.245  65.673  1.00  0.00    -0.120 C  
BRANCH  18  19
HETATM   19  N   UNL     1      -9.362  17.442  66.011  1.00  0.00    -0.508 NA 
HETATM   20  H   UNL     1      -8.773  17.291  65.192  1.00  0.00     0.000 HD 
BRANCH  19  21
HETATM   21  C   UNL     1      -9.076  18.745  66.620  1.00  0.00    -0.322 C  
HETATM   22  C   UNL     1      -7.814  19.403  66.058  1.00  0.00    -0.294 C  
HETATM   23  C   UNL     1     -10.279  19.657  66.361  1.00  0.00    -0.592 C  
ENDBRANCH  19  21
ENDBRANCH  18  19
ENDBRANCH  15  18
ENDBRANCH  14  15
ENDBRANCH  13  14
ENDBRANCH  10  13
ENDBRANCH   6   7
ENDBRANCH   5   6
ENDBRANCH   3   5
ENDBRANCH   2   3
TORSDOF 10
ENDMDL
MODEL      174
REMARK 921   NORMALIZED FREE ENERGY PREDICTED BY IDOCK:   -3.80 KCAL/MOL
REMARK 922        TOTAL FREE ENERGY PREDICTED BY IDOCK:   -6.91 KCAL/MOL
REMARK 923 INTER-LIGAND FREE ENERGY PREDICTED BY IDOCK:   -6.32 KCAL/MOL
REMARK 924 INTRA-LIGAND FREE ENERGY PREDICTED BY IDOCK:   -0.58 KCAL/MOL
REMARK 927      BINDING AFFINITY PREDICTED BY RF-SCORE:    0.00 PKD
ROOT
HETATM    1  C   UNL     1      -9.450  16.321  66.037  1.00  0.00    -0.334 C  
HETATM    2  O   UNL     1     -10.537  16.868  65.295  1.00  0.00    -0.633 OA 
ENDROOT
BRANCH   2   3
HETATM    3  C   UNL     1     -11.269  15.939  64.615  1.00  0.00    -0.351 C  
HETATM    4  O   UNL     1     -12.139  16.191  63.791  1.00  0.00    -0.946 OA 
BRANCH   3   5
HETATM    5  C   UNL     1     -10.851  14.566  65.052  1.00  0.00    -0.425 C  
BRANCH   5   6
HETATM    6  C   UNL     1     -12.044  13.691  65.453  1.00  0.00    -0.429 C  
BRANCH   6   7
HETATM    7  C   UNL     1     -11.657  12.514  66.321  1.00  0.00    -0.449 A  
HETATM    8  C   UNL     1     -11.003  11.408  65.776  1.00  0.00    -0.256 A  
HETATM    9  C   UNL     1     -10.660  10.316  66.565  1.00  0.00    -0.202 A  
HETATM   10  C   UNL     1     -10.945  10.302  67.930  1.00  0.00    -0.292 A  
HETATM   11  C   UNL     1     -11.907  12.524  67.703  1.00  0.00    -0.381 A  
HETATM   12  C   UNL     1     -11.557  11.421  68.499  1.00  0.00    -0.384 A  
BRANCH  10  13
HETATM   13  O   UNL     1     -10.657   9.252  68.770  1.00  0.00    -0.217 OA 
BRANCH  13  14
HETATM   14  C   UNL     1      -9.283   8.829  68.732  1.00  0.00    -0.141 C  
BRANCH  14  15
HETATM   15  C   UNL     1      -8.691   8.725  70.141  1.00  0.00    -0.149 C  
HETATM   16  O   UNL     1      -9.368   9.636  71.015  1.00  0.00    -0.303 OA 
HETATM   17  H   UNL     1      -9.000   9.571  71.889  1.00  0.00     0.000 HD 
BRANCH  15  18
HETATM   18  C   UNL     1      -8.771   7.300  70.716  1.00  0.00    -0.146 C  
BRANCH  18  19
HETATM   19  N   UNL     1      -7.539   6.541  70.475  1.00  0.00    -0.094 NA 
HETATM   20  H   UNL     1      -7.197   6.126  71.342  1.00  0.00     0.000 HD 
BRANCH  19  21
HETATM   21  C   UNL     1      -7.669   5.520  69.430  1.00  0.00    -0.086 C  
HETATM   22  C   UNL     1      -6.773   5.789  68.218  1.00  0.00    -0.057 C  
HETATM   23  C   UNL     1      -7.293   4.169  70.046  1.00  0.00    -0.046 C  
ENDBRANCH  19  21
ENDBRANCH  18  19
ENDBRANCH  15  18
ENDBRANCH  14  15
ENDBRANCH  13  14
ENDBRANCH  10  13
ENDBRANCH   6   7
ENDBRANCH   5   6
ENDBRANCH   3   5
ENDBRANCH   2   3
TORSDOF 10
ENDMDL
MODEL      175
REMARK 921   NORMALIZED FREE ENERGY PREDICTED BY IDOCK:   -3.79 KCAL/MOL
REMARK 922        TOTAL FREE ENERGY PREDICTED BY IDOCK:   -6.88 KCAL/MOL
REMARK 923 INTER-LIGAND FREE ENERGY PREDICTED BY IDOCK:   -5.58 KCAL/MOL
REMARK 924 INTRA-LIGAND FREE ENERGY PREDICTED BY IDOCK:   -1.29 KCAL/MOL
REMARK 927      BINDING AFFINITY PREDICTED BY RF-SCORE:    0.00 PKD
ROOT
HETATM    1  C   UNL     1     -10.624   9.908  70.408  1.00  0.00    -0.302 C  
HETATM    2  O   UNL     1     -11.005   9.454  71.704  1.00  0.00    -0.369 OA 
ENDROOT
BRANCH   2   3
HETATM    3  C   UNL     1     -10.062   8.690  72.325  1.00  0.00    -0.292 C  
HETATM    4  O   UNL     1      -8.851   8.849  72.232  1.00  0.00    -0.397 OA 
BRANCH   3   5
HETATM    5  C   UNL     1     -10.743   7.616  73.122  1.00  0.00    -0.445 C  
BRANCH   5   6
HETATM    6  C   UNL     1     -11.720   6.791  72.278  1.00  0.00    -0.300 C  
BRANCH   6   7
HETATM    7  C   UNL     1     -11.070   6.141  71.076  1.00  0.00    -0.359 A  
HETATM    8  C   UNL     1     -10.072   5.179  71.235  1.00  0.00    -0.278 A  
HETATM    9  C   UNL     1      -9.460   4.591  70.135  1.00  0.00    -0.237 A  
HETATM   10  C   UNL     1      -9.839   4.934  68.837  1.00  0.00    -0.170 A  
HETATM   11  C   UNL     1     -11.487   6.459  69.773  1.00  0.00    -0.468 A  
HETATM   12  C   UNL     1     -10.869   5.860  68.662  1.00  0.00    -0.333 A  
BRANCH  10  13
HETATM   13  O   UNL     1      -9.267   4.412  67.701  1.00  0.00    -0.126 OA 
BRANCH  13  14
HETATM   14  C   UNL     1      -9.969   4.735  66.487  1.00  0.00    -0.239 C  
BRANCH  14  15
HETATM   15  C   UNL     1      -8.997   5.030  65.341  1.00  0.00    -0.152 C  
HETATM   16  O   UNL     1      -9.639   4.767  64.087  1.00  0.00    -0.353 OA 
HETATM   17  H   UNL     1      -9.036   4.949  63.376  1.00  0.00     0.000 HD 
BRANCH  15  18
HETATM   18  C   UNL     1      -8.474   6.477  65.361  1.00  0.00    -0.115 C  
BRANCH  18  19
HETATM   19  N   UNL     1      -8.048   6.888  66.703  1.00  0.00    -0.108 NA 
HETATM   20  H   UNL     1      -7.040   6.778  66.811  1.00  0.00     0.000 HD 
BRANCH  19  21
HETATM   21  C   UNL     1      -8.461   8.249  67.063  1.00  0.00    -0.122 C  
HETATM   22  C   UNL     1      -7.444   9.312  66.642  1.00  0.00    -0.093 C  
HETATM   23  C   UNL     1      -9.800   8.530  66.374  1.00  0.00    -0.327 C  
ENDBRANCH  19  21
ENDBRANCH  18  19
ENDBRANCH  15  18
ENDBRANCH  14  15
ENDBRANCH  13  14
ENDBRANCH  10  13
ENDBRANCH   6   7
ENDBRANCH   5   6
ENDBRANCH   3   5
ENDBRANCH   2   3
TORSDOF 10
ENDMDL
MODEL      176
REMARK 921   NORMALIZED FREE ENERGY PREDICTED BY IDOCK:   -3.77 KCAL/MOL
REMARK 922        TOTAL FREE ENERGY PREDICTED BY IDOCK:   -6.86 KCAL/MOL
REMARK 923 INTER-LIGAND FREE ENERGY PREDICTED BY IDOCK:   -6.32 KCAL/MOL
REMARK 924 INTRA-LIGAND FREE ENERGY PREDICTED BY IDOCK:   -0.54 KCAL/MOL
REMARK 927      BINDING AFFINITY PREDICTED BY RF-SCORE:    0.00 PKD
ROOT
HETATM    1  C   UNL     1     -10.014  17.917  68.480  1.00  0.00    -0.379 C  
HETATM    2  O   UNL     1      -9.049  18.925  68.768  1.00  0.00    -0.345 OA 
ENDROOT
BRANCH   2   3
HETATM    3  C   UNL     1      -7.925  18.856  67.999  1.00  0.00    -0.286 C  
HETATM    4  O   UNL     1      -7.831  19.262  66.848  1.00  0.00    -0.245 OA 
BRANCH   3   5
HETATM    5  C   UNL     1      -6.834  18.185  68.781  1.00  0.00    -0.264 C  
BRANCH   5   6
HETATM    6  C   UNL     1      -6.099  17.118  67.963  1.00  0.00    -0.135 C  
BRANCH   6   7
HETATM    7  C   UNL     1      -6.823  15.790  67.925  1.00  0.00    -0.161 A  
HETATM    8  C   UNL     1      -7.888  15.581  67.047  1.00  0.00    -0.260 A  
HETATM    9  C   UNL     1      -8.568  14.369  67.020  1.00  0.00    -0.226 A  
HETATM   10  C   UNL     1      -8.193  13.319  67.858  1.00  0.00    -0.163 A  
HETATM   11  C   UNL     1      -6.413  14.722  68.739  1.00  0.00    -0.087 A  
HETATM   12  C   UNL     1      -7.099  13.497  68.707  1.00  0.00    -0.103 A  
BRANCH  10  13
HETATM   13  O   UNL     1      -8.829  12.101  67.903  1.00  0.00    -0.161 OA 
BRANCH  13  14
HETATM   14  C   UNL     1     -10.116  12.132  68.544  1.00  0.00    -0.187 C  
BRANCH  14  15
HETATM   15  C   UNL     1     -11.236  11.760  67.569  1.00  0.00    -0.291 C  
HETATM   16  O   UNL     1     -12.273  11.063  68.270  1.00  0.00    -0.769 OA 
HETATM   17  H   UNL     1     -12.967  10.832  67.665  1.00  0.00     0.000 HD 
BRANCH  15  18
HETATM   18  C   UNL     1     -11.831  12.984  66.849  1.00  0.00    -0.380 C  
BRANCH  18  19
HETATM   19  N   UNL     1     -12.648  12.597  65.693  1.00  0.00    -0.557 NA 
HETATM   20  H   UNL     1     -13.578  13.012  65.756  1.00  0.00     0.000 HD 
BRANCH  19  21
HETATM   21  C   UNL     1     -12.029  12.909  64.401  1.00  0.00    -0.395 C  
HETATM   22  C   UNL     1     -10.517  12.671  64.390  1.00  0.00    -0.398 C  
HETATM   23  C   UNL     1     -12.688  12.023  63.340  1.00  0.00    -0.527 C  
ENDBRANCH  19  21
ENDBRANCH  18  19
ENDBRANCH  15  18
ENDBRANCH  14  15
ENDBRANCH  13  14
ENDBRANCH  10  13
ENDBRANCH   6   7
ENDBRANCH   5   6
ENDBRANCH   3   5
ENDBRANCH   2   3
TORSDOF 10
ENDMDL
MODEL      177
REMARK 921   NORMALIZED FREE ENERGY PREDICTED BY IDOCK:   -3.75 KCAL/MOL
REMARK 922        TOTAL FREE ENERGY PREDICTED BY IDOCK:   -6.82 KCAL/MOL
REMARK 923 INTER-LIGAND FREE ENERGY PREDICTED BY IDOCK:   -5.18 KCAL/MOL
REMARK 924 INTRA-LIGAND FREE ENERGY PREDICTED BY IDOCK:   -1.65 KCAL/MOL
REMARK 927      BINDING AFFINITY PREDICTED BY RF-SCORE:    0.00 PKD
ROOT
HETATM    1  C   UNL     1     -12.882  12.543  71.540  1.00  0.00    -0.265 C  
HETATM    2  O   UNL     1     -13.407  11.295  71.986  1.00  0.00    -0.462 OA 
ENDROOT
BRANCH   2   3
HETATM    3  C   UNL     1     -12.657  10.216  71.624  1.00  0.00    -0.434 C  
HETATM    4  O   UNL     1     -11.752  10.229  70.799  1.00  0.00    -0.307 OA 
BRANCH   3   5
HETATM    5  C   UNL     1     -13.131   9.010  72.381  1.00  0.00    -0.487 C  
BRANCH   5   6
HETATM    6  C   UNL     1     -13.447   7.827  71.460  1.00  0.00    -0.379 C  
BRANCH   6   7
HETATM    7  C   UNL     1     -12.300   6.848  71.329  1.00  0.00    -0.422 A  
HETATM    8  C   UNL     1     -11.712   6.598  70.088  1.00  0.00    -0.412 A  
HETATM    9  C   UNL     1     -10.670   5.687  69.959  1.00  0.00    -0.390 A  
HETATM   10  C   UNL     1     -10.169   5.011  71.071  1.00  0.00    -0.213 A  
HETATM   11  C   UNL     1     -11.771   6.203  72.459  1.00  0.00    -0.259 A  
HETATM   12  C   UNL     1     -10.715   5.286  72.326  1.00  0.00    -0.282 A  
BRANCH  10  13
HETATM   13  O   UNL     1      -9.156   4.082  71.020  1.00  0.00    -0.101 OA 
BRANCH  13  14
HETATM   14  C   UNL     1      -8.271   4.113  72.154  1.00  0.00    -0.101 C  
BRANCH  14  15
HETATM   15  C   UNL     1      -6.813   4.283  71.720  1.00  0.00    -0.034 C  
HETATM   16  O   UNL     1      -6.579   3.539  70.518  1.00  0.00    -0.031 OA 
HETATM   17  H   UNL     1      -5.674   3.644  70.249  1.00  0.00     0.000 HD 
BRANCH  15  18
HETATM   18  C   UNL     1      -6.423   5.755  71.501  1.00  0.00    -0.049 C  
BRANCH  18  19
HETATM   19  N   UNL     1      -7.389   6.675  72.113  1.00  0.00    -0.088 NA 
HETATM   20  H   UNL     1      -7.130   6.878  73.079  1.00  0.00     0.000 HD 
BRANCH  19  21
HETATM   21  C   UNL     1      -7.582   7.918  71.358  1.00  0.00    -0.083 C  
HETATM   22  C   UNL     1      -7.578   7.702  69.843  1.00  0.00    -0.092 C  
HETATM   23  C   UNL     1      -8.927   8.517  71.779  1.00  0.00    -0.288 C  
ENDBRANCH  19  21
ENDBRANCH  18  19
ENDBRANCH  15  18
ENDBRANCH  14  15
ENDBRANCH  13  14
ENDBRANCH  10  13
ENDBRANCH   6   7
ENDBRANCH   5   6
ENDBRANCH   3   5
ENDBRANCH   2   3
TORSDOF 10
ENDMDL
MODEL      178
REMARK 921   NORMALIZED FREE ENERGY PREDICTED BY IDOCK:   -3.74 KCAL/MOL
REMARK 922        TOTAL FREE ENERGY PREDICTED BY IDOCK:   -6.80 KCAL/MOL
REMARK 923 INTER-LIGAND FREE ENERGY PREDICTED BY IDOCK:   -6.29 KCAL/MOL
REMARK 924 INTRA-LIGAND FREE ENERGY PREDICTED BY IDOCK:   -0.51 KCAL/MOL
REMARK 927      BINDING AFFINITY PREDICTED BY RF-SCORE:    0.00 PKD
ROOT
HETATM    1  C   UNL     1     -10.756  19.199  67.091  1.00  0.00    -0.471 C  
HETATM    2  O   UNL     1     -10.308  17.850  67.188  1.00  0.00    -0.344 OA 
ENDROOT
BRANCH   2   3
HETATM    3  C   UNL     1      -9.289  17.539  66.337  1.00  0.00    -0.246 C  
HETATM    4  O   UNL     1      -8.466  18.334  65.900  1.00  0.00    -0.499 OA 
BRANCH   3   5
HETATM    5  C   UNL     1      -9.350  16.076  66.007  1.00  0.00    -0.380 C  
BRANCH   5   6
HETATM    6  C   UNL     1     -10.786  15.583  65.798  1.00  0.00    -0.362 C  
BRANCH   6   7
HETATM    7  C   UNL     1     -11.134  14.380  66.647  1.00  0.00    -0.326 A  
HETATM    8  C   UNL     1     -11.328  13.126  66.065  1.00  0.00    -0.337 A  
HETATM    9  C   UNL     1     -11.664  12.020  66.837  1.00  0.00    -0.342 A  
HETATM   10  C   UNL     1     -11.800  12.129  68.221  1.00  0.00    -0.301 A  
HETATM   11  C   UNL     1     -11.226  14.486  68.044  1.00  0.00    -0.308 A  
HETATM   12  C   UNL     1     -11.562  13.366  68.824  1.00  0.00    -0.363 A  
BRANCH  10  13
HETATM   13  O   UNL     1     -12.150  11.088  69.048  1.00  0.00    -0.426 OA 
BRANCH  13  14
HETATM   14  C   UNL     1     -11.099  10.659  69.931  1.00  0.00    -0.298 C  
BRANCH  14  15
HETATM   15  C   UNL     1      -9.806  10.369  69.163  1.00  0.00    -0.223 C  
HETATM   16  O   UNL     1      -8.680  10.557  70.029  1.00  0.00    -0.331 OA 
HETATM   17  H   UNL     1      -7.878  10.377  69.552  1.00  0.00     0.000 HD 
BRANCH  15  18
HETATM   18  C   UNL     1      -9.771   8.949  68.569  1.00  0.00    -0.161 C  
BRANCH  18  19
HETATM   19  N   UNL     1      -8.659   8.776  67.629  1.00  0.00    -0.127 NA 
HETATM   20  H   UNL     1      -7.783   9.091  68.046  1.00  0.00     0.000 HD 
BRANCH  19  21
HETATM   21  C   UNL     1      -8.525   7.407  67.118  1.00  0.00    -0.118 C  
HETATM   22  C   UNL     1      -9.874   6.730  66.865  1.00  0.00    -0.229 C  
HETATM   23  C   UNL     1      -7.739   7.472  65.805  1.00  0.00    -0.098 C  
ENDBRANCH  19  21
ENDBRANCH  18  19
ENDBRANCH  15  18
ENDBRANCH  14  15
ENDBRANCH  13  14
ENDBRANCH  10  13
ENDBRANCH   6   7
ENDBRANCH   5   6
ENDBRANCH   3   5
ENDBRANCH   2   3
TORSDOF 10
ENDMDL
MODEL      179
REMARK 921   NORMALIZED FREE ENERGY PREDICTED BY IDOCK:   -3.74 KCAL/MOL
REMARK 922        TOTAL FREE ENERGY PREDICTED BY IDOCK:   -6.80 KCAL/MOL
REMARK 923 INTER-LIGAND FREE ENERGY PREDICTED BY IDOCK:   -5.71 KCAL/MOL
REMARK 924 INTRA-LIGAND FREE ENERGY PREDICTED BY IDOCK:   -1.09 KCAL/MOL
REMARK 927      BINDING AFFINITY PREDICTED BY RF-SCORE:    0.00 PKD
ROOT
HETATM    1  C   UNL     1      -7.841   4.264  63.604  1.00  0.00    -0.083 C  
HETATM    2  O   UNL     1      -7.898   4.422  65.019  1.00  0.00    -0.087 OA 
ENDROOT
BRANCH   2   3
HETATM    3  C   UNL     1      -9.114   4.824  65.485  1.00  0.00    -0.152 C  
HETATM    4  O   UNL     1     -10.187   4.311  65.195  1.00  0.00    -0.227 OA 
BRANCH   3   5
HETATM    5  C   UNL     1      -8.929   6.006  66.392  1.00  0.00    -0.150 C  
BRANCH   5   6
HETATM    6  C   UNL     1      -8.743   7.315  65.617  1.00  0.00    -0.092 C  
BRANCH   6   7
HETATM    7  C   UNL     1      -9.161   8.539  66.401  1.00  0.00    -0.251 A  
HETATM    8  C   UNL     1     -10.424   8.612  66.992  1.00  0.00    -0.354 A  
HETATM    9  C   UNL     1     -10.820   9.741  67.700  1.00  0.00    -0.301 A  
HETATM   10  C   UNL     1      -9.959  10.827  67.854  1.00  0.00    -0.174 A  
HETATM   11  C   UNL     1      -8.274   9.611  66.591  1.00  0.00    -0.120 A  
HETATM   12  C   UNL     1      -8.676  10.749  67.309  1.00  0.00    -0.130 A  
BRANCH  10  13
HETATM   13  O   UNL     1     -10.286  11.985  68.521  1.00  0.00    -0.215 OA 
BRANCH  13  14
HETATM   14  C   UNL     1     -10.350  13.150  67.680  1.00  0.00    -0.223 C  
BRANCH  14  15
HETATM   15  C   UNL     1     -11.747  13.332  67.081  1.00  0.00    -0.376 C  
HETATM   16  O   UNL     1     -12.402  14.437  67.715  1.00  0.00    -0.620 OA 
HETATM   17  H   UNL     1     -13.269  14.549  67.343  1.00  0.00     0.000 HD 
BRANCH  15  18
HETATM   18  C   UNL     1     -11.719  13.552  65.558  1.00  0.00    -0.340 C  
BRANCH  18  19
HETATM   19  N   UNL     1     -10.436  13.149  64.969  1.00  0.00    -0.327 NA 
HETATM   20  H   UNL     1      -9.885  12.613  65.640  1.00  0.00     0.000 HD 
BRANCH  19  21
HETATM   21  C   UNL     1     -10.570  12.414  63.707  1.00  0.00    -0.452 C  
HETATM   22  C   UNL     1     -10.050  10.977  63.794  1.00  0.00    -0.420 C  
HETATM   23  C   UNL     1     -12.056  12.391  63.334  1.00  0.00    -0.620 C  
ENDBRANCH  19  21
ENDBRANCH  18  19
ENDBRANCH  15  18
ENDBRANCH  14  15
ENDBRANCH  13  14
ENDBRANCH  10  13
ENDBRANCH   6   7
ENDBRANCH   5   6
ENDBRANCH   3   5
ENDBRANCH   2   3
TORSDOF 10
ENDMDL
MODEL      180
REMARK 921   NORMALIZED FREE ENERGY PREDICTED BY IDOCK:   -3.73 KCAL/MOL
REMARK 922        TOTAL FREE ENERGY PREDICTED BY IDOCK:   -6.78 KCAL/MOL
REMARK 923 INTER-LIGAND FREE ENERGY PREDICTED BY IDOCK:   -6.12 KCAL/MOL
REMARK 924 INTRA-LIGAND FREE ENERGY PREDICTED BY IDOCK:   -0.66 KCAL/MOL
REMARK 927      BINDING AFFINITY PREDICTED BY RF-SCORE:    0.00 PKD
ROOT
HETATM    1  C   UNL     1     -10.585   7.736  67.024  1.00  0.00    -0.326 C  
HETATM    2  O   UNL     1      -9.941   8.692  66.186  1.00  0.00    -0.260 OA 
ENDROOT
BRANCH   2   3
HETATM    3  C   UNL     1      -8.888   9.328  66.774  1.00  0.00    -0.127 C  
HETATM    4  O   UNL     1      -8.155   8.841  67.626  1.00  0.00    -0.105 OA 
BRANCH   3   5
HETATM    5  C   UNL     1      -8.786  10.722  66.228  1.00  0.00    -0.182 C  
BRANCH   5   6
HETATM    6  C   UNL     1     -10.157  11.331  65.918  1.00  0.00    -0.291 C  
BRANCH   6   7
HETATM    7  C   UNL     1     -10.360  12.695  66.540  1.00  0.00    -0.256 A  
HETATM    8  C   UNL     1      -9.648  13.075  67.679  1.00  0.00    -0.206 A  
HETATM    9  C   UNL     1      -9.843  14.320  68.264  1.00  0.00    -0.235 A  
HETATM   10  C   UNL     1     -10.744  15.234  67.719  1.00  0.00    -0.286 A  
HETATM   11  C   UNL     1     -11.236  13.628  65.961  1.00  0.00    -0.302 A  
HETATM   12  C   UNL     1     -11.428  14.888  66.552  1.00  0.00    -0.286 A  
BRANCH  10  13
HETATM   13  O   UNL     1     -11.006  16.475  68.252  1.00  0.00    -0.337 OA 
BRANCH  13  14
HETATM   14  C   UNL     1      -9.966  17.443  68.027  1.00  0.00    -0.302 C  
BRANCH  14  15
HETATM   15  C   UNL     1     -10.494  18.664  67.269  1.00  0.00    -0.423 C  
HETATM   16  O   UNL     1     -10.908  19.668  68.203  1.00  0.00    -0.365 OA 
HETATM   17  H   UNL     1     -11.236  20.426  67.732  1.00  0.00     0.000 HD 
BRANCH  15  18
HETATM   18  C   UNL     1      -9.457  19.257  66.298  1.00  0.00    -0.345 C  
BRANCH  18  19
HETATM   19  N   UNL     1      -8.691  20.347  66.912  1.00  0.00    -0.509 NA 
HETATM   20  H   UNL     1      -9.133  20.653  67.779  1.00  0.00     0.000 HD 
BRANCH  19  21
HETATM   21  C   UNL     1      -7.278  20.021  67.139  1.00  0.00    -0.249 C  
HETATM   22  C   UNL     1      -6.327  21.115  66.649  1.00  0.00    -0.362 C  
HETATM   23  C   UNL     1      -7.081  19.818  68.645  1.00  0.00    -0.366 C  
ENDBRANCH  19  21
ENDBRANCH  18  19
ENDBRANCH  15  18
ENDBRANCH  14  15
ENDBRANCH  13  14
ENDBRANCH  10  13
ENDBRANCH   6   7
ENDBRANCH   5   6
ENDBRANCH   3   5
ENDBRANCH   2   3
TORSDOF 10
ENDMDL
MODEL      181
REMARK 921   NORMALIZED FREE ENERGY PREDICTED BY IDOCK:   -3.73 KCAL/MOL
REMARK 922        TOTAL FREE ENERGY PREDICTED BY IDOCK:   -6.78 KCAL/MOL
REMARK 923 INTER-LIGAND FREE ENERGY PREDICTED BY IDOCK:   -5.82 KCAL/MOL
REMARK 924 INTRA-LIGAND FREE ENERGY PREDICTED BY IDOCK:   -0.97 KCAL/MOL
REMARK 927      BINDING AFFINITY PREDICTED BY RF-SCORE:    0.00 PKD
ROOT
HETATM    1  C   UNL     1     -10.981  17.737  67.630  1.00  0.00    -0.088 C  
HETATM    2  O   UNL     1     -11.090  19.153  67.502  1.00  0.00    -0.405 OA 
ENDROOT
BRANCH   2   3
HETATM    3  C   UNL     1     -10.431  19.666  66.424  1.00  0.00    -0.513 C  
HETATM    4  O   UNL     1     -10.744  19.488  65.254  1.00  0.00    -0.408 OA 
BRANCH   3   5
HETATM    5  C   UNL     1      -9.253  20.464  66.901  1.00  0.00    -0.450 C  
BRANCH   5   6
HETATM    6  C   UNL     1      -7.917  19.853  66.467  1.00  0.00    -0.346 C  
BRANCH   6   7
HETATM    7  C   UNL     1      -7.715  18.439  66.967  1.00  0.00    -0.234 A  
HETATM    8  C   UNL     1      -7.707  17.361  66.080  1.00  0.00    -0.311 A  
HETATM    9  C   UNL     1      -7.540  16.059  66.536  1.00  0.00    -0.100 A  
HETATM   10  C   UNL     1      -7.355  15.794  67.893  1.00  0.00    -0.136 A  
HETATM   11  C   UNL     1      -7.486  18.183  68.328  1.00  0.00    -0.280 A  
HETATM   12  C   UNL     1      -7.313  16.866  68.787  1.00  0.00    -0.227 A  
BRANCH  10  13
HETATM   13  O   UNL     1      -7.204  14.533  68.421  1.00  0.00    -0.101 OA 
BRANCH  13  14
HETATM   14  C   UNL     1      -8.437  13.913  68.827  1.00  0.00    -0.008 C  
BRANCH  14  15
HETATM   15  C   UNL     1      -8.666  12.590  68.093  1.00  0.00    -0.190 C  
HETATM   16  O   UNL     1      -8.463  11.497  68.998  1.00  0.00    -0.355 OA 
HETATM   17  H   UNL     1      -8.604  10.675  68.542  1.00  0.00     0.000 HD 
BRANCH  15  18
HETATM   18  C   UNL     1     -10.069  12.489  67.468  1.00  0.00    -0.207 C  
BRANCH  18  19
HETATM   19  N   UNL     1     -10.598  13.806  67.095  1.00  0.00    -0.275 NA 
HETATM   20  H   UNL     1      -9.844  14.426  66.798  1.00  0.00     0.000 HD 
BRANCH  19  21
HETATM   21  C   UNL     1     -11.654  13.752  66.078  1.00  0.00    -0.346 C  
HETATM   22  C   UNL     1     -11.395  14.691  64.898  1.00  0.00    -0.403 C  
HETATM   23  C   UNL     1     -11.738  12.311  65.567  1.00  0.00    -0.433 C  
ENDBRANCH  19  21
ENDBRANCH  18  19
ENDBRANCH  15  18
ENDBRANCH  14  15
ENDBRANCH  13  14
ENDBRANCH  10  13
ENDBRANCH   6   7
ENDBRANCH   5   6
ENDBRANCH   3   5
ENDBRANCH   2   3
TORSDOF 10
ENDMDL
MODEL      182
REMARK 921   NORMALIZED FREE ENERGY PREDICTED BY IDOCK:   -3.73 KCAL/MOL
REMARK 922        TOTAL FREE ENERGY PREDICTED BY IDOCK:   -6.78 KCAL/MOL
REMARK 923 INTER-LIGAND FREE ENERGY PREDICTED BY IDOCK:   -5.87 KCAL/MOL
REMARK 924 INTRA-LIGAND FREE ENERGY PREDICTED BY IDOCK:   -0.91 KCAL/MOL
REMARK 927      BINDING AFFINITY PREDICTED BY RF-SCORE:    0.00 PKD
ROOT
HETATM    1  C   UNL     1      -8.071  19.856  66.082  1.00  0.00    -0.326 C  
HETATM    2  O   UNL     1      -8.560  20.506  67.252  1.00  0.00    -0.344 OA 
ENDROOT
BRANCH   2   3
HETATM    3  C   UNL     1      -9.439  19.758  67.978  1.00  0.00    -0.365 C  
HETATM    4  O   UNL     1     -10.417  20.195  68.571  1.00  0.00    -0.385 OA 
BRANCH   3   5
HETATM    5  C   UNL     1      -9.005  18.321  67.949  1.00  0.00    -0.285 C  
BRANCH   5   6
HETATM    6  C   UNL     1     -10.168  17.353  68.190  1.00  0.00    -0.350 C  
BRANCH   6   7
HETATM    7  C   UNL     1      -9.768  15.898  68.079  1.00  0.00    -0.216 A  
HETATM    8  C   UNL     1      -8.433  15.536  67.893  1.00  0.00    -0.146 A  
HETATM    9  C   UNL     1      -8.062  14.201  67.774  1.00  0.00    -0.170 A  
HETATM   10  C   UNL     1      -9.013  13.184  67.854  1.00  0.00    -0.200 A  
HETATM   11  C   UNL     1     -10.724  14.877  68.204  1.00  0.00    -0.251 A  
HETATM   12  C   UNL     1     -10.346  13.529  68.087  1.00  0.00    -0.247 A  
BRANCH  10  13
HETATM   13  O   UNL     1      -8.726  11.846  67.724  1.00  0.00    -0.145 OA 
BRANCH  13  14
HETATM   14  C   UNL     1      -9.457  10.997  68.627  1.00  0.00    -0.195 C  
BRANCH  14  15
HETATM   15  C   UNL     1      -9.884   9.694  67.948  1.00  0.00    -0.154 C  
HETATM   16  O   UNL     1     -11.234   9.382  68.312  1.00  0.00    -0.496 OA 
HETATM   17  H   UNL     1     -11.499   8.573  67.890  1.00  0.00     0.000 HD 
BRANCH  15  18
HETATM   18  C   UNL     1      -9.762   9.752  66.415  1.00  0.00    -0.216 C  
BRANCH  18  19
HETATM   19  N   UNL     1     -10.629  10.783  65.835  1.00  0.00    -0.192 NA 
HETATM   20  H   UNL     1     -10.761  11.553  66.491  1.00  0.00     0.000 HD 
BRANCH  19  21
HETATM   21  C   UNL     1     -10.165  11.285  64.536  1.00  0.00    -0.314 C  
HETATM   22  C   UNL     1      -9.428  10.223  63.716  1.00  0.00    -0.352 C  
HETATM   23  C   UNL     1     -11.391  11.766  63.755  1.00  0.00    -0.524 C  
ENDBRANCH  19  21
ENDBRANCH  18  19
ENDBRANCH  15  18
ENDBRANCH  14  15
ENDBRANCH  13  14
ENDBRANCH  10  13
ENDBRANCH   6   7
ENDBRANCH   5   6
ENDBRANCH   3   5
ENDBRANCH   2   3
TORSDOF 10
ENDMDL
MODEL      183
REMARK 921   NORMALIZED FREE ENERGY PREDICTED BY IDOCK:   -3.69 KCAL/MOL
REMARK 922        TOTAL FREE ENERGY PREDICTED BY IDOCK:   -6.73 KCAL/MOL
REMARK 923 INTER-LIGAND FREE ENERGY PREDICTED BY IDOCK:   -5.53 KCAL/MOL
REMARK 924 INTRA-LIGAND FREE ENERGY PREDICTED BY IDOCK:   -1.20 KCAL/MOL
REMARK 927      BINDING AFFINITY PREDICTED BY RF-SCORE:    0.00 PKD
ROOT
HETATM    1  C   UNL     1     -11.575  14.630  67.502  1.00  0.00    -0.375 C  
HETATM    2  O   UNL     1     -12.147  14.464  66.207  1.00  0.00    -0.409 OA 
ENDROOT
BRANCH   2   3
HETATM    3  C   UNL     1     -11.283  14.705  65.181  1.00  0.00    -0.374 C  
HETATM    4  O   UNL     1     -10.359  15.508  65.210  1.00  0.00    -0.371 OA 
BRANCH   3   5
HETATM    5  C   UNL     1     -11.657  13.846  64.009  1.00  0.00    -0.253 C  
BRANCH   5   6
HETATM    6  C   UNL     1     -12.184  12.472  64.435  1.00  0.00    -0.528 C  
BRANCH   6   7
HETATM    7  C   UNL     1     -11.085  11.494  64.790  1.00  0.00    -0.300 A  
HETATM    8  C   UNL     1     -10.245  10.973  63.804  1.00  0.00    -0.425 A  
HETATM    9  C   UNL     1      -9.245  10.061  64.123  1.00  0.00    -0.319 A  
HETATM   10  C   UNL     1      -9.040   9.655  65.441  1.00  0.00    -0.215 A  
HETATM   11  C   UNL     1     -10.855  11.123  66.125  1.00  0.00    -0.247 A  
HETATM   12  C   UNL     1      -9.841  10.204  66.444  1.00  0.00    -0.279 A  
BRANCH  10  13
HETATM   13  O   UNL     1      -8.087   8.744  65.830  1.00  0.00    -0.103 OA 
BRANCH  13  14
HETATM   14  C   UNL     1      -8.097   7.522  65.071  1.00  0.00    -0.127 C  
BRANCH  14  15
HETATM   15  C   UNL     1      -8.768   6.386  65.849  1.00  0.00    -0.145 C  
HETATM   16  O   UNL     1      -8.648   5.163  65.112  1.00  0.00    -0.141 OA 
HETATM   17  H   UNL     1      -9.064   4.458  65.594  1.00  0.00     0.000 HD 
BRANCH  15  18
HETATM   18  C   UNL     1      -8.179   6.200  67.258  1.00  0.00    -0.106 C  
BRANCH  18  19
HETATM   19  N   UNL     1      -8.589   7.274  68.170  1.00  0.00    -0.123 NA 
HETATM   20  H   UNL     1      -8.412   8.187  67.752  1.00  0.00     0.000 HD 
BRANCH  19  21
HETATM   21  C   UNL     1      -9.984   7.171  68.615  1.00  0.00    -0.159 C  
HETATM   22  C   UNL     1     -10.306   5.822  69.260  1.00  0.00    -0.326 C  
HETATM   23  C   UNL     1     -10.235   8.289  69.631  1.00  0.00    -0.209 C  
ENDBRANCH  19  21
ENDBRANCH  18  19
ENDBRANCH  15  18
ENDBRANCH  14  15
ENDBRANCH  13  14
ENDBRANCH  10  13
ENDBRANCH   6   7
ENDBRANCH   5   6
ENDBRANCH   3   5
ENDBRANCH   2   3
TORSDOF 10
ENDMDL
MODEL      184
REMARK 921   NORMALIZED FREE ENERGY PREDICTED BY IDOCK:   -3.69 KCAL/MOL
REMARK 922        TOTAL FREE ENERGY PREDICTED BY IDOCK:   -6.72 KCAL/MOL
REMARK 923 INTER-LIGAND FREE ENERGY PREDICTED BY IDOCK:   -5.70 KCAL/MOL
REMARK 924 INTRA-LIGAND FREE ENERGY PREDICTED BY IDOCK:   -1.02 KCAL/MOL
REMARK 927      BINDING AFFINITY PREDICTED BY RF-SCORE:    0.00 PKD
ROOT
HETATM    1  C   UNL     1      -9.507   3.617  68.424  1.00  0.00    -0.150 C  
HETATM    2  O   UNL     1      -9.956   4.156  69.664  1.00  0.00    -0.195 OA 
ENDROOT
BRANCH   2   3
HETATM    3  C   UNL     1      -9.042   4.953  70.288  1.00  0.00    -0.118 C  
HETATM    4  O   UNL     1      -8.237   5.681  69.723  1.00  0.00    -0.103 OA 
BRANCH   3   5
HETATM    5  C   UNL     1      -9.168   4.777  71.774  1.00  0.00    -0.175 C  
BRANCH   5   6
HETATM    6  C   UNL     1     -10.498   5.311  72.316  1.00  0.00    -0.273 C  
BRANCH   6   7
HETATM    7  C   UNL     1     -10.780   6.740  71.907  1.00  0.00    -0.250 A  
HETATM    8  C   UNL     1     -12.019   7.101  71.377  1.00  0.00    -0.364 A  
HETATM    9  C   UNL     1     -12.278   8.410  70.985  1.00  0.00    -0.181 A  
HETATM   10  C   UNL     1     -11.310   9.404  71.126  1.00  0.00    -0.351 A  
HETATM   11  C   UNL     1      -9.817   7.745  72.093  1.00  0.00    -0.242 A  
HETATM   12  C   UNL     1     -10.082   9.068  71.699  1.00  0.00    -0.405 A  
BRANCH  10  13
HETATM   13  O   UNL     1     -11.484  10.712  70.742  1.00  0.00    -0.327 OA 
BRANCH  13  14
HETATM   14  C   UNL     1     -12.175  10.871  69.491  1.00  0.00    -0.261 C  
BRANCH  14  15
HETATM   15  C   UNL     1     -11.196  10.939  68.315  1.00  0.00    -0.286 C  
HETATM   16  O   UNL     1     -11.889  11.366  67.136  1.00  0.00    -0.566 OA 
HETATM   17  H   UNL     1     -11.282  11.407  66.407  1.00  0.00     0.000 HD 
BRANCH  15  18
HETATM   18  C   UNL     1     -10.006  11.878  68.584  1.00  0.00    -0.154 C  
BRANCH  18  19
HETATM   19  N   UNL     1     -10.434  13.148  69.182  1.00  0.00    -0.437 NA 
HETATM   20  H   UNL     1     -10.001  13.278  70.096  1.00  0.00     0.000 HD 
BRANCH  19  21
HETATM   21  C   UNL     1     -10.193  14.315  68.326  1.00  0.00    -0.244 C  
HETATM   22  C   UNL     1      -9.371  13.981  67.079  1.00  0.00    -0.256 C  
HETATM   23  C   UNL     1     -11.555  14.870  67.898  1.00  0.00    -0.364 C  
ENDBRANCH  19  21
ENDBRANCH  18  19
ENDBRANCH  15  18
ENDBRANCH  14  15
ENDBRANCH  13  14
ENDBRANCH  10  13
ENDBRANCH   6   7
ENDBRANCH   5   6
ENDBRANCH   3   5
ENDBRANCH   2   3
TORSDOF 10
ENDMDL
MODEL      185
REMARK 921   NORMALIZED FREE ENERGY PREDICTED BY IDOCK:   -3.68 KCAL/MOL
REMARK 922        TOTAL FREE ENERGY PREDICTED BY IDOCK:   -6.71 KCAL/MOL
REMARK 923 INTER-LIGAND FREE ENERGY PREDICTED BY IDOCK:   -5.76 KCAL/MOL
REMARK 924 INTRA-LIGAND FREE ENERGY PREDICTED BY IDOCK:   -0.96 KCAL/MOL
REMARK 927      BINDING AFFINITY PREDICTED BY RF-SCORE:    0.00 PKD
ROOT
HETATM    1  C   UNL     1     -10.670  15.311  69.154  1.00  0.00    -0.251 C  
HETATM    2  O   UNL     1     -11.457  14.748  68.108  1.00  0.00    -0.295 OA 
ENDROOT
BRANCH   2   3
HETATM    3  C   UNL     1     -11.744  13.426  68.277  1.00  0.00    -0.356 C  
HETATM    4  O   UNL     1     -11.946  12.879  69.354  1.00  0.00    -0.302 OA 
BRANCH   3   5
HETATM    5  C   UNL     1     -11.752  12.748  66.938  1.00  0.00    -0.447 C  
BRANCH   5   6
HETATM    6  C   UNL     1     -10.356  12.285  66.508  1.00  0.00    -0.250 C  
BRANCH   6   7
HETATM    7  C   UNL     1      -9.993  10.913  67.031  1.00  0.00    -0.227 A  
HETATM    8  C   UNL     1      -9.206  10.768  68.175  1.00  0.00    -0.151 A  
HETATM    9  C   UNL     1      -8.855   9.510  68.650  1.00  0.00    -0.132 A  
HETATM   10  C   UNL     1      -9.296   8.354  68.007  1.00  0.00    -0.136 A  
HETATM   11  C   UNL     1     -10.476   9.752  66.405  1.00  0.00    -0.190 A  
HETATM   12  C   UNL     1     -10.123   8.482  66.889  1.00  0.00    -0.364 A  
BRANCH  10  13
HETATM   13  O   UNL     1      -8.974   7.078  68.404  1.00  0.00    -0.124 OA 
BRANCH  13  14
HETATM   14  C   UNL     1      -9.289   6.792  69.778  1.00  0.00    -0.145 C  
BRANCH  14  15
HETATM   15  C   UNL     1     -10.351   5.696  69.893  1.00  0.00    -0.277 C  
HETATM   16  O   UNL     1      -9.961   4.750  70.896  1.00  0.00    -0.193 OA 
HETATM   17  H   UNL     1     -10.620   4.070  70.967  1.00  0.00     0.000 HD 
BRANCH  15  18
HETATM   18  C   UNL     1     -11.749   6.251  70.221  1.00  0.00    -0.219 C  
BRANCH  18  19
HETATM   19  N   UNL     1     -11.775   7.718  70.199  1.00  0.00    -0.474 NA 
HETATM   20  H   UNL     1     -12.210   8.057  69.341  1.00  0.00     0.000 HD 
BRANCH  19  21
HETATM   21  C   UNL     1     -12.417   8.315  71.375  1.00  0.00    -0.292 C  
HETATM   22  C   UNL     1     -13.824   7.768  71.629  1.00  0.00    -0.465 C  
HETATM   23  C   UNL     1     -11.534   8.021  72.591  1.00  0.00    -0.465 C  
ENDBRANCH  19  21
ENDBRANCH  18  19
ENDBRANCH  15  18
ENDBRANCH  14  15
ENDBRANCH  13  14
ENDBRANCH  10  13
ENDBRANCH   6   7
ENDBRANCH   5   6
ENDBRANCH   3   5
ENDBRANCH   2   3
TORSDOF 10
ENDMDL
MODEL      186
REMARK 921   NORMALIZED FREE ENERGY PREDICTED BY IDOCK:   -3.68 KCAL/MOL
REMARK 922        TOTAL FREE ENERGY PREDICTED BY IDOCK:   -6.70 KCAL/MOL
REMARK 923 INTER-LIGAND FREE ENERGY PREDICTED BY IDOCK:   -6.08 KCAL/MOL
REMARK 924 INTRA-LIGAND FREE ENERGY PREDICTED BY IDOCK:   -0.62 KCAL/MOL
REMARK 927      BINDING AFFINITY PREDICTED BY RF-SCORE:    0.00 PKD
ROOT
HETATM    1  C   UNL     1      -6.168   7.943  72.738  1.00  0.00    -0.066 C  
HETATM    2  O   UNL     1      -7.512   8.213  72.350  1.00  0.00    -0.102 OA 
ENDROOT
BRANCH   2   3
HETATM    3  C   UNL     1      -7.627   8.860  71.155  1.00  0.00    -0.119 C  
HETATM    4  O   UNL     1      -7.047   9.895  70.853  1.00  0.00    -0.323 OA 
BRANCH   3   5
HETATM    5  C   UNL     1      -8.590   8.111  70.280  1.00  0.00    -0.131 C  
BRANCH   5   6
HETATM    6  C   UNL     1     -10.043   8.269  70.741  1.00  0.00    -0.218 C  
BRANCH   6   7
HETATM    7  C   UNL     1     -10.657   9.593  70.341  1.00  0.00    -0.354 A  
HETATM    8  C   UNL     1     -11.734  10.126  71.051  1.00  0.00    -0.470 A  
HETATM    9  C   UNL     1     -12.312  11.334  70.677  1.00  0.00    -0.477 A  
HETATM   10  C   UNL     1     -11.820  12.057  69.592  1.00  0.00    -0.333 A  
HETATM   11  C   UNL     1     -10.129  10.339  69.274  1.00  0.00    -0.244 A  
HETATM   12  C   UNL     1     -10.712  11.561  68.901  1.00  0.00    -0.245 A  
BRANCH  10  13
HETATM   13  O   UNL     1     -12.351  13.246  69.150  1.00  0.00    -0.197 OA 
BRANCH  13  14
HETATM   14  C   UNL     1     -11.574  13.893  68.127  1.00  0.00    -0.335 C  
BRANCH  14  15
HETATM   15  C   UNL     1     -11.498  15.405  68.354  1.00  0.00    -0.355 C  
HETATM   16  O   UNL     1     -12.475  15.795  69.328  1.00  0.00    -0.545 OA 
HETATM   17  H   UNL     1     -12.428  16.733  69.469  1.00  0.00     0.000 HD 
BRANCH  15  18
HETATM   18  C   UNL     1     -10.103  15.871  68.807  1.00  0.00    -0.221 C  
BRANCH  18  19
HETATM   19  N   UNL     1      -9.836  17.261  68.420  1.00  0.00    -0.293 NA 
HETATM   20  H   UNL     1      -8.873  17.516  68.640  1.00  0.00     0.000 HD 
BRANCH  19  21
HETATM   21  C   UNL     1     -10.141  17.552  67.015  1.00  0.00    -0.323 C  
HETATM   22  C   UNL     1     -10.391  19.039  66.755  1.00  0.00    -0.486 C  
HETATM   23  C   UNL     1      -8.951  17.085  66.172  1.00  0.00    -0.243 C  
ENDBRANCH  19  21
ENDBRANCH  18  19
ENDBRANCH  15  18
ENDBRANCH  14  15
ENDBRANCH  13  14
ENDBRANCH  10  13
ENDBRANCH   6   7
ENDBRANCH   5   6
ENDBRANCH   3   5
ENDBRANCH   2   3
TORSDOF 10
ENDMDL
MODEL      187
REMARK 921   NORMALIZED FREE ENERGY PREDICTED BY IDOCK:   -3.66 KCAL/MOL
REMARK 922        TOTAL FREE ENERGY PREDICTED BY IDOCK:   -6.67 KCAL/MOL
REMARK 923 INTER-LIGAND FREE ENERGY PREDICTED BY IDOCK:   -6.11 KCAL/MOL
REMARK 924 INTRA-LIGAND FREE ENERGY PREDICTED BY IDOCK:   -0.56 KCAL/MOL
REMARK 927      BINDING AFFINITY PREDICTED BY RF-SCORE:    0.00 PKD
ROOT
HETATM    1  C   UNL     1     -11.340   4.918  73.070  1.00  0.00    -0.273 C  
HETATM    2  O   UNL     1     -10.671   5.903  72.288  1.00  0.00    -0.214 OA 
ENDROOT
BRANCH   2   3
HETATM    3  C   UNL     1     -11.433   6.996  71.998  1.00  0.00    -0.271 C  
HETATM    4  O   UNL     1     -11.613   7.950  72.744  1.00  0.00    -0.383 OA 
BRANCH   3   5
HETATM    5  C   UNL     1     -12.032   6.831  70.632  1.00  0.00    -0.418 C  
BRANCH   5   6
HETATM    6  C   UNL     1     -11.147   5.995  69.702  1.00  0.00    -0.474 C  
BRANCH   6   7
HETATM    7  C   UNL     1     -10.317   6.832  68.753  1.00  0.00    -0.211 A  
HETATM    8  C   UNL     1      -9.105   7.389  69.163  1.00  0.00    -0.134 A  
HETATM    9  C   UNL     1      -8.347   8.173  68.301  1.00  0.00    -0.126 A  
HETATM   10  C   UNL     1      -8.769   8.412  66.994  1.00  0.00    -0.126 A  
HETATM   11  C   UNL     1     -10.726   7.033  67.424  1.00  0.00    -0.383 A  
HETATM   12  C   UNL     1      -9.956   7.823  66.554  1.00  0.00    -0.244 A  
BRANCH  10  13
HETATM   13  O   UNL     1      -8.086   9.192  66.091  1.00  0.00    -0.105 OA 
BRANCH  13  14
HETATM   14  C   UNL     1      -8.809   9.455  64.875  1.00  0.00    -0.202 C  
BRANCH  14  15
HETATM   15  C   UNL     1      -9.050  10.955  64.681  1.00  0.00    -0.170 C  
HETATM   16  O   UNL     1      -8.885  11.293  63.299  1.00  0.00    -0.428 OA 
HETATM   17  H   UNL     1      -9.035  12.223  63.178  1.00  0.00     0.000 HD 
BRANCH  15  18
HETATM   18  C   UNL     1     -10.443  11.401  65.160  1.00  0.00    -0.295 C  
BRANCH  18  19
HETATM   19  N   UNL     1     -10.485  12.837  65.461  1.00  0.00    -0.282 NA 
HETATM   20  H   UNL     1      -9.576  13.162  65.789  1.00  0.00     0.000 HD 
BRANCH  19  21
HETATM   21  C   UNL     1     -10.957  13.661  64.342  1.00  0.00    -0.366 C  
HETATM   22  C   UNL     1     -11.957  12.931  63.443  1.00  0.00    -0.612 C  
HETATM   23  C   UNL     1     -11.623  14.909  64.929  1.00  0.00    -0.395 C  
ENDBRANCH  19  21
ENDBRANCH  18  19
ENDBRANCH  15  18
ENDBRANCH  14  15
ENDBRANCH  13  14
ENDBRANCH  10  13
ENDBRANCH   6   7
ENDBRANCH   5   6
ENDBRANCH   3   5
ENDBRANCH   2   3
TORSDOF 10
ENDMDL
MODEL      188
REMARK 921   NORMALIZED FREE ENERGY PREDICTED BY IDOCK:   -3.65 KCAL/MOL
REMARK 922        TOTAL FREE ENERGY PREDICTED BY IDOCK:   -6.67 KCAL/MOL
REMARK 923 INTER-LIGAND FREE ENERGY PREDICTED BY IDOCK:   -6.13 KCAL/MOL
REMARK 924 INTRA-LIGAND FREE ENERGY PREDICTED BY IDOCK:   -0.54 KCAL/MOL
REMARK 927      BINDING AFFINITY PREDICTED BY RF-SCORE:    0.00 PKD
ROOT
HETATM    1  C   UNL     1     -10.315   7.696  67.483  1.00  0.00    -0.257 C  
HETATM    2  O   UNL     1     -10.554   8.665  66.466  1.00  0.00    -0.199 OA 
ENDROOT
BRANCH   2   3
HETATM    3  C   UNL     1      -9.454   8.972  65.720  1.00  0.00    -0.236 C  
HETATM    4  O   UNL     1      -8.384   8.378  65.763  1.00  0.00    -0.128 OA 
BRANCH   3   5
HETATM    5  C   UNL     1      -9.759  10.162  64.859  1.00  0.00    -0.392 C  
BRANCH   5   6
HETATM    6  C   UNL     1     -10.945  10.977  65.385  1.00  0.00    -0.091 C  
BRANCH   6   7
HETATM    7  C   UNL     1     -10.686  12.468  65.401  1.00  0.00    -0.312 A  
HETATM    8  C   UNL     1      -9.803  13.030  66.324  1.00  0.00    -0.278 A  
HETATM    9  C   UNL     1      -9.574  14.401  66.354  1.00  0.00    -0.320 A  
HETATM   10  C   UNL     1     -10.207  15.253  65.450  1.00  0.00    -0.383 A  
HETATM   11  C   UNL     1     -11.293  13.315  64.459  1.00  0.00    -0.392 A  
HETATM   12  C   UNL     1     -11.057  14.700  64.490  1.00  0.00    -0.269 A  
BRANCH  10  13
HETATM   13  O   UNL     1     -10.048  16.618  65.431  1.00  0.00    -0.578 OA 
BRANCH  13  14
HETATM   14  C   UNL     1      -9.436  17.155  66.617  1.00  0.00    -0.264 C  
BRANCH  14  15
HETATM   15  C   UNL     1      -7.956  17.474  66.387  1.00  0.00    -0.285 C  
HETATM   16  O   UNL     1      -7.838  18.632  65.551  1.00  0.00    -0.419 OA 
HETATM   17  H   UNL     1      -6.920  18.830  65.408  1.00  0.00     0.000 HD 
BRANCH  15  18
HETATM   18  C   UNL     1      -7.184  17.702  67.698  1.00  0.00    -0.178 C  
BRANCH  18  19
HETATM   19  N   UNL     1      -6.079  18.652  67.527  1.00  0.00    -0.181 NA 
HETATM   20  H   UNL     1      -6.019  18.962  66.557  1.00  0.00     0.000 HD 
BRANCH  19  21
HETATM   21  C   UNL     1      -6.143  19.803  68.434  1.00  0.00    -0.245 C  
HETATM   22  C   UNL     1      -6.221  21.141  67.696  1.00  0.00    -0.426 C  
HETATM   23  C   UNL     1      -7.387  19.638  69.313  1.00  0.00    -0.294 C  
ENDBRANCH  19  21
ENDBRANCH  18  19
ENDBRANCH  15  18
ENDBRANCH  14  15
ENDBRANCH  13  14
ENDBRANCH  10  13
ENDBRANCH   6   7
ENDBRANCH   5   6
ENDBRANCH   3   5
ENDBRANCH   2   3
TORSDOF 10
ENDMDL
MODEL      189
REMARK 921   NORMALIZED FREE ENERGY PREDICTED BY IDOCK:   -3.65 KCAL/MOL
REMARK 922        TOTAL FREE ENERGY PREDICTED BY IDOCK:   -6.66 KCAL/MOL
REMARK 923 INTER-LIGAND FREE ENERGY PREDICTED BY IDOCK:   -5.64 KCAL/MOL
REMARK 924 INTRA-LIGAND FREE ENERGY PREDICTED BY IDOCK:   -1.01 KCAL/MOL
REMARK 927      BINDING AFFINITY PREDICTED BY RF-SCORE:    0.00 PKD
ROOT
HETATM    1  C   UNL     1     -10.815  18.494  67.534  1.00  0.00    -0.291 C  
HETATM    2  O   UNL     1     -10.246  19.800  67.537  1.00  0.00    -0.384 OA 
ENDROOT
BRANCH   2   3
HETATM    3  C   UNL     1      -8.888  19.816  67.415  1.00  0.00    -0.326 C  
HETATM    4  O   UNL     1      -8.273  20.152  66.411  1.00  0.00    -0.304 OA 
BRANCH   3   5
HETATM    5  C   UNL     1      -8.272  19.337  68.697  1.00  0.00    -0.408 C  
BRANCH   5   6
HETATM    6  C   UNL     1      -7.041  18.455  68.461  1.00  0.00    -0.285 C  
BRANCH   6   7
HETATM    7  C   UNL     1      -7.388  17.010  68.172  1.00  0.00    -0.192 A  
HETATM    8  C   UNL     1      -7.555  16.564  66.860  1.00  0.00    -0.272 A  
HETATM    9  C   UNL     1      -7.890  15.242  66.589  1.00  0.00     0.097 A  
HETATM   10  C   UNL     1      -8.051  14.319  67.622  1.00  0.00    -0.179 A  
HETATM   11  C   UNL     1      -7.505  16.075  69.213  1.00  0.00    -0.228 A  
HETATM   12  C   UNL     1      -7.840  14.739  68.937  1.00  0.00    -0.152 A  
BRANCH  10  13
HETATM   13  O   UNL     1      -8.401  13.003  67.435  1.00  0.00    -0.175 OA 
BRANCH  13  14
HETATM   14  C   UNL     1      -9.695  12.658  67.961  1.00  0.00    -0.215 C  
BRANCH  14  15
HETATM   15  C   UNL     1     -10.814  13.044  66.991  1.00  0.00    -0.261 C  
HETATM   16  O   UNL     1     -11.169  11.910  66.191  1.00  0.00    -0.319 OA 
HETATM   17  H   UNL     1     -11.864  12.150  65.588  1.00  0.00     0.000 HD 
BRANCH  15  18
HETATM   18  C   UNL     1     -12.065  13.583  67.708  1.00  0.00    -0.280 C  
BRANCH  18  19
HETATM   19  N   UNL     1     -11.811  14.874  68.358  1.00  0.00    -0.473 NA 
HETATM   20  H   UNL     1     -12.585  15.518  68.192  1.00  0.00     0.000 HD 
BRANCH  19  21
HETATM   21  C   UNL     1     -11.525  14.768  69.793  1.00  0.00    -0.291 C  
HETATM   22  C   UNL     1     -11.654  16.104  70.527  1.00  0.00    -0.322 C  
HETATM   23  C   UNL     1     -12.514  13.764  70.394  1.00  0.00    -0.384 C  
ENDBRANCH  19  21
ENDBRANCH  18  19
ENDBRANCH  15  18
ENDBRANCH  14  15
ENDBRANCH  13  14
ENDBRANCH  10  13
ENDBRANCH   6   7
ENDBRANCH   5   6
ENDBRANCH   3   5
ENDBRANCH   2   3
TORSDOF 10
ENDMDL
MODEL      190
REMARK 921   NORMALIZED FREE ENERGY PREDICTED BY IDOCK:   -3.64 KCAL/MOL
REMARK 922        TOTAL FREE ENERGY PREDICTED BY IDOCK:   -6.65 KCAL/MOL
REMARK 923 INTER-LIGAND FREE ENERGY PREDICTED BY IDOCK:   -6.06 KCAL/MOL
REMARK 924 INTRA-LIGAND FREE ENERGY PREDICTED BY IDOCK:   -0.58 KCAL/MOL
REMARK 927      BINDING AFFINITY PREDICTED BY RF-SCORE:    0.00 PKD
ROOT
HETATM    1  C   UNL     1     -13.899  13.345  72.323  1.00  0.00    -0.573 C  
HETATM    2  O   UNL     1     -12.663  13.828  71.803  1.00  0.00    -0.324 OA 
ENDROOT
BRANCH   2   3
HETATM    3  C   UNL     1     -12.800  14.702  70.766  1.00  0.00    -0.358 C  
HETATM    4  O   UNL     1     -13.451  15.738  70.796  1.00  0.00    -0.520 OA 
BRANCH   3   5
HETATM    5  C   UNL     1     -12.043  14.180  69.579  1.00  0.00    -0.388 C  
BRANCH   5   6
HETATM    6  C   UNL     1     -11.880  12.657  69.612  1.00  0.00    -0.379 C  
BRANCH   6   7
HETATM    7  C   UNL     1     -11.444  12.074  68.285  1.00  0.00    -0.361 A  
HETATM    8  C   UNL     1     -10.746  10.867  68.230  1.00  0.00    -0.244 A  
HETATM    9  C   UNL     1     -10.329  10.335  67.015  1.00  0.00    -0.299 A  
HETATM   10  C   UNL     1     -10.613  10.985  65.814  1.00  0.00    -0.195 A  
HETATM   11  C   UNL     1     -11.771  12.710  67.077  1.00  0.00    -0.438 A  
HETATM   12  C   UNL     1     -11.351  12.169  65.850  1.00  0.00    -0.407 A  
BRANCH  10  13
HETATM   13  O   UNL     1     -10.216  10.532  64.578  1.00  0.00    -0.348 OA 
BRANCH  13  14
HETATM   14  C   UNL     1      -8.807  10.259  64.475  1.00  0.00    -0.203 C  
BRANCH  14  15
HETATM   15  C   UNL     1      -8.536   8.757  64.356  1.00  0.00    -0.084 C  
HETATM   16  O   UNL     1      -8.435   8.395  62.973  1.00  0.00    -0.361 OA 
HETATM   17  H   UNL     1      -8.267   7.463  62.899  1.00  0.00     0.000 HD 
BRANCH  15  18
HETATM   18  C   UNL     1      -7.262   8.320  65.100  1.00  0.00    -0.079 C  
BRANCH  18  19
HETATM   19  N   UNL     1      -7.462   7.071  65.843  1.00  0.00    -0.078 NA 
HETATM   20  H   UNL     1      -7.013   7.122  66.758  1.00  0.00     0.000 HD 
BRANCH  19  21
HETATM   21  C   UNL     1      -8.870   6.683  65.979  1.00  0.00    -0.139 C  
HETATM   22  C   UNL     1      -9.124   5.221  65.607  1.00  0.00    -0.158 C  
HETATM   23  C   UNL     1      -9.280   6.912  67.437  1.00  0.00    -0.130 C  
ENDBRANCH  19  21
ENDBRANCH  18  19
ENDBRANCH  15  18
ENDBRANCH  14  15
ENDBRANCH  13  14
ENDBRANCH  10  13
ENDBRANCH   6   7
ENDBRANCH   5   6
ENDBRANCH   3   5
ENDBRANCH   2   3
TORSDOF 10
ENDMDL
MODEL      191
REMARK 921   NORMALIZED FREE ENERGY PREDICTED BY IDOCK:   -3.63 KCAL/MOL
REMARK 922        TOTAL FREE ENERGY PREDICTED BY IDOCK:   -6.64 KCAL/MOL
REMARK 923 INTER-LIGAND FREE ENERGY PREDICTED BY IDOCK:   -5.54 KCAL/MOL
REMARK 924 INTRA-LIGAND FREE ENERGY PREDICTED BY IDOCK:   -1.09 KCAL/MOL
REMARK 927      BINDING AFFINITY PREDICTED BY RF-SCORE:    0.00 PKD
ROOT
HETATM    1  C   UNL     1     -11.002   6.263  67.010  1.00  0.00    -0.364 C  
HETATM    2  O   UNL     1      -9.854   5.491  66.666  1.00  0.00    -0.146 OA 
ENDROOT
BRANCH   2   3
HETATM    3  C   UNL     1      -8.682   6.186  66.713  1.00  0.00    -0.116 C  
HETATM    4  O   UNL     1      -7.851   6.110  67.610  1.00  0.00    -0.102 OA 
BRANCH   3   5
HETATM    5  C   UNL     1      -8.584   7.071  65.505  1.00  0.00    -0.091 C  
BRANCH   5   6
HETATM    6  C   UNL     1      -8.045   8.465  65.842  1.00  0.00    -0.110 C  
BRANCH   6   7
HETATM    7  C   UNL     1      -9.115   9.419  66.325  1.00  0.00    -0.204 A  
HETATM    8  C   UNL     1      -9.797  10.243  65.429  1.00  0.00    -0.362 A  
HETATM    9  C   UNL     1     -10.769  11.134  65.870  1.00  0.00    -0.261 A  
HETATM   10  C   UNL     1     -11.104  11.216  67.221  1.00  0.00    -0.302 A  
HETATM   11  C   UNL     1      -9.479   9.466  67.681  1.00  0.00    -0.154 A  
HETATM   12  C   UNL     1     -10.464  10.364  68.124  1.00  0.00    -0.221 A  
BRANCH  10  13
HETATM   13  O   UNL     1     -12.037  12.085  67.735  1.00  0.00    -0.537 OA 
BRANCH  13  14
HETATM   14  C   UNL     1     -11.927  12.296  69.154  1.00  0.00    -0.249 C  
BRANCH  14  15
HETATM   15  C   UNL     1     -12.149  13.766  69.519  1.00  0.00    -0.334 C  
HETATM   16  O   UNL     1     -11.304  14.120  70.621  1.00  0.00    -0.513 OA 
HETATM   17  H   UNL     1     -11.442  15.032  70.848  1.00  0.00     0.000 HD 
BRANCH  15  18
HETATM   18  C   UNL     1     -11.890  14.719  68.340  1.00  0.00    -0.286 C  
BRANCH  18  19
HETATM   19  N   UNL     1     -10.459  14.995  68.162  1.00  0.00    -0.241 NA 
HETATM   20  H   UNL     1      -9.909  14.514  68.874  1.00  0.00     0.000 HD 
BRANCH  19  21
HETATM   21  C   UNL     1      -9.959  14.678  66.820  1.00  0.00    -0.261 C  
HETATM   22  C   UNL     1     -11.023  14.843  65.732  1.00  0.00    -0.345 C  
HETATM   23  C   UNL     1      -8.786  15.618  66.524  1.00  0.00    -0.342 C  
ENDBRANCH  19  21
ENDBRANCH  18  19
ENDBRANCH  15  18
ENDBRANCH  14  15
ENDBRANCH  13  14
ENDBRANCH  10  13
ENDBRANCH   6   7
ENDBRANCH   5   6
ENDBRANCH   3   5
ENDBRANCH   2   3
TORSDOF 10
ENDMDL
MODEL      192
REMARK 921   NORMALIZED FREE ENERGY PREDICTED BY IDOCK:   -3.63 KCAL/MOL
REMARK 922        TOTAL FREE ENERGY PREDICTED BY IDOCK:   -6.64 KCAL/MOL
REMARK 923 INTER-LIGAND FREE ENERGY PREDICTED BY IDOCK:   -5.90 KCAL/MOL
REMARK 924 INTRA-LIGAND FREE ENERGY PREDICTED BY IDOCK:   -0.74 KCAL/MOL
REMARK 927      BINDING AFFINITY PREDICTED BY RF-SCORE:    0.00 PKD
ROOT
HETATM    1  C   UNL     1      -8.600   2.489  73.231  1.00  0.00    -0.071 C  
HETATM    2  O   UNL     1      -8.801   3.891  73.390  1.00  0.00    -0.096 OA 
ENDROOT
BRANCH   2   3
HETATM    3  C   UNL     1      -9.742   4.416  72.554  1.00  0.00    -0.153 C  
HETATM    4  O   UNL     1      -9.997   4.004  71.430  1.00  0.00    -0.185 OA 
BRANCH   3   5
HETATM    5  C   UNL     1     -10.398   5.588  73.225  1.00  0.00    -0.233 C  
BRANCH   5   6
HETATM    6  C   UNL     1     -11.710   5.993  72.544  1.00  0.00    -0.280 C  
BRANCH   6   7
HETATM    7  C   UNL     1     -11.702   7.417  72.031  1.00  0.00    -0.325 A  
HETATM    8  C   UNL     1     -10.519   8.012  71.589  1.00  0.00    -0.272 A  
HETATM    9  C   UNL     1     -10.504   9.325  71.133  1.00  0.00    -0.401 A  
HETATM   10  C   UNL     1     -11.675  10.080  71.087  1.00  0.00    -0.387 A  
HETATM   11  C   UNL     1     -12.892   8.158  71.945  1.00  0.00    -0.360 A  
HETATM   12  C   UNL     1     -12.874   9.484  71.480  1.00  0.00    -0.464 A  
BRANCH  10  13
HETATM   13  O   UNL     1     -11.735  11.389  70.669  1.00  0.00    -0.298 OA 
BRANCH  13  14
HETATM   14  C   UNL     1     -12.036  11.547  69.271  1.00  0.00    -0.330 C  
BRANCH  14  15
HETATM   15  C   UNL     1     -10.759  11.617  68.428  1.00  0.00    -0.217 C  
HETATM   16  O   UNL     1     -10.930  10.850  67.231  1.00  0.00    -0.274 OA 
HETATM   17  H   UNL     1     -10.138  10.893  66.708  1.00  0.00     0.000 HD 
BRANCH  15  18
HETATM   18  C   UNL     1     -10.363  13.059  68.066  1.00  0.00    -0.234 C  
BRANCH  18  19
HETATM   19  N   UNL     1      -9.976  13.835  69.250  1.00  0.00    -0.395 NA 
HETATM   20  H   UNL     1      -8.967  13.791  69.395  1.00  0.00     0.000 HD 
BRANCH  19  21
HETATM   21  C   UNL     1     -10.433  15.229  69.218  1.00  0.00    -0.258 C  
HETATM   22  C   UNL     1     -10.973  15.649  67.849  1.00  0.00    -0.319 C  
HETATM   23  C   UNL     1     -11.540  15.383  70.266  1.00  0.00    -0.346 C  
ENDBRANCH  19  21
ENDBRANCH  18  19
ENDBRANCH  15  18
ENDBRANCH  14  15
ENDBRANCH  13  14
ENDBRANCH  10  13
ENDBRANCH   6   7
ENDBRANCH   5   6
ENDBRANCH   3   5
ENDBRANCH   2   3
TORSDOF 10
ENDMDL
MODEL      193
REMARK 921   NORMALIZED FREE ENERGY PREDICTED BY IDOCK:   -3.63 KCAL/MOL
REMARK 922        TOTAL FREE ENERGY PREDICTED BY IDOCK:   -6.63 KCAL/MOL
REMARK 923 INTER-LIGAND FREE ENERGY PREDICTED BY IDOCK:   -5.76 KCAL/MOL
REMARK 924 INTRA-LIGAND FREE ENERGY PREDICTED BY IDOCK:   -0.87 KCAL/MOL
REMARK 927      BINDING AFFINITY PREDICTED BY RF-SCORE:    0.00 PKD
ROOT
HETATM    1  C   UNL     1     -10.583  20.114  65.752  1.00  0.00    -0.239 C  
HETATM    2  O   UNL     1     -10.149  20.516  67.048  1.00  0.00    -0.429 OA 
ENDROOT
BRANCH   2   3
HETATM    3  C   UNL     1     -10.023  19.490  67.936  1.00  0.00    -0.395 C  
HETATM    4  O   UNL     1      -9.952  19.612  69.152  1.00  0.00    -0.441 OA 
BRANCH   3   5
HETATM    5  C   UNL     1      -9.965  18.192  67.184  1.00  0.00    -0.341 C  
BRANCH   5   6
HETATM    6  C   UNL     1      -9.038  17.170  67.851  1.00  0.00    -0.230 C  
BRANCH   6   7
HETATM    7  C   UNL     1      -9.375  15.738  67.498  1.00  0.00    -0.210 A  
HETATM    8  C   UNL     1     -10.651  15.392  67.052  1.00  0.00    -0.309 A  
HETATM    9  C   UNL     1     -10.971  14.075  66.742  1.00  0.00    -0.298 A  
HETATM   10  C   UNL     1     -10.018  13.063  66.851  1.00  0.00    -0.243 A  
HETATM   11  C   UNL     1      -8.399  14.730  67.567  1.00  0.00    -0.197 A  
HETATM   12  C   UNL     1      -8.723  13.401  67.250  1.00  0.00    -0.219 A  
BRANCH  10  13
HETATM   13  O   UNL     1     -10.264  11.737  66.584  1.00  0.00    -0.204 OA 
BRANCH  13  14
HETATM   14  C   UNL     1     -11.170  11.516  65.488  1.00  0.00    -0.138 C  
BRANCH  14  15
HETATM   15  C   UNL     1     -10.416  11.203  64.193  1.00  0.00    -0.377 C  
HETATM   16  O   UNL     1     -10.147  12.421  63.488  1.00  0.00    -0.462 OA 
HETATM   17  H   UNL     1      -9.679  12.227  62.684  1.00  0.00     0.000 HD 
BRANCH  15  18
HETATM   18  C   UNL     1      -9.099  10.445  64.438  1.00  0.00    -0.234 C  
BRANCH  18  19
HETATM   19  N   UNL     1      -9.311   9.208  65.197  1.00  0.00    -0.445 NA 
HETATM   20  H   UNL     1      -9.961   8.592  64.707  1.00  0.00     0.000 HD 
BRANCH  19  21
HETATM   21  C   UNL     1      -8.071   8.495  65.525  1.00  0.00    -0.126 C  
HETATM   22  C   UNL     1      -8.214   6.974  65.426  1.00  0.00    -0.133 C  
HETATM   23  C   UNL     1      -6.989   8.965  64.548  1.00  0.00    -0.085 C  
ENDBRANCH  19  21
ENDBRANCH  18  19
ENDBRANCH  15  18
ENDBRANCH  14  15
ENDBRANCH  13  14
ENDBRANCH  10  13
ENDBRANCH   6   7
ENDBRANCH   5   6
ENDBRANCH   3   5
ENDBRANCH   2   3
TORSDOF 10
ENDMDL
MODEL      194
REMARK 921   NORMALIZED FREE ENERGY PREDICTED BY IDOCK:   -3.61 KCAL/MOL
REMARK 922        TOTAL FREE ENERGY PREDICTED BY IDOCK:   -6.59 KCAL/MOL
REMARK 923 INTER-LIGAND FREE ENERGY PREDICTED BY IDOCK:   -5.62 KCAL/MOL
REMARK 924 INTRA-LIGAND FREE ENERGY PREDICTED BY IDOCK:   -0.98 KCAL/MOL
REMARK 927      BINDING AFFINITY PREDICTED BY RF-SCORE:    0.00 PKD
ROOT
HETATM    1  C   UNL     1     -10.891   5.894  66.863  1.00  0.00    -0.296 C  
HETATM    2  O   UNL     1      -9.527   5.532  67.062  1.00  0.00    -0.123 OA 
ENDROOT
BRANCH   2   3
HETATM    3  C   UNL     1      -8.779   6.494  67.674  1.00  0.00    -0.114 C  
HETATM    4  O   UNL     1      -8.853   6.800  68.857  1.00  0.00    -0.129 OA 
BRANCH   3   5
HETATM    5  C   UNL     1      -7.869   7.129  66.663  1.00  0.00    -0.109 C  
BRANCH   5   6
HETATM    6  C   UNL     1      -7.606   8.609  66.959  1.00  0.00    -0.084 C  
BRANCH   6   7
HETATM    7  C   UNL     1      -8.597   9.537  66.291  1.00  0.00    -0.141 A  
HETATM    8  C   UNL     1      -8.705   9.588  64.901  1.00  0.00    -0.218 A  
HETATM    9  C   UNL     1      -9.601  10.451  64.281  1.00  0.00    -0.377 A  
HETATM   10  C   UNL     1     -10.432  11.280  65.034  1.00  0.00    -0.298 A  
HETATM   11  C   UNL     1      -9.462  10.338  67.055  1.00  0.00    -0.191 A  
HETATM   12  C   UNL     1     -10.370  11.207  66.427  1.00  0.00    -0.300 A  
BRANCH  10  13
HETATM   13  O   UNL     1     -11.327  12.174  64.495  1.00  0.00    -0.313 OA 
BRANCH  13  14
HETATM   14  C   UNL     1     -12.387  12.558  65.389  1.00  0.00    -0.359 C  
BRANCH  14  15
HETATM   15  C   UNL     1     -12.555  14.079  65.437  1.00  0.00    -0.505 C  
HETATM   16  O   UNL     1     -12.591  14.515  66.801  1.00  0.00    -0.494 OA 
HETATM   17  H   UNL     1     -12.696  15.459  66.831  1.00  0.00     0.000 HD 
BRANCH  15  18
HETATM   18  C   UNL     1     -11.439  14.826  64.685  1.00  0.00    -0.381 C  
BRANCH  18  19
HETATM   19  N   UNL     1     -10.131  14.647  65.325  1.00  0.00    -0.421 NA 
HETATM   20  H   UNL     1      -9.476  14.197  64.685  1.00  0.00     0.000 HD 
BRANCH  19  21
HETATM   21  C   UNL     1      -9.561  15.888  65.861  1.00  0.00    -0.343 C  
HETATM   22  C   UNL     1     -10.469  17.101  65.651  1.00  0.00    -0.208 C  
HETATM   23  C   UNL     1      -9.327  15.685  67.361  1.00  0.00    -0.214 C  
ENDBRANCH  19  21
ENDBRANCH  18  19
ENDBRANCH  15  18
ENDBRANCH  14  15
ENDBRANCH  13  14
ENDBRANCH  10  13
ENDBRANCH   6   7
ENDBRANCH   5   6
ENDBRANCH   3   5
ENDBRANCH   2   3
TORSDOF 10
ENDMDL
MODEL      195
REMARK 921   NORMALIZED FREE ENERGY PREDICTED BY IDOCK:   -3.59 KCAL/MOL
REMARK 922        TOTAL FREE ENERGY PREDICTED BY IDOCK:   -6.57 KCAL/MOL
REMARK 923 INTER-LIGAND FREE ENERGY PREDICTED BY IDOCK:   -5.74 KCAL/MOL
REMARK 924 INTRA-LIGAND FREE ENERGY PREDICTED BY IDOCK:   -0.84 KCAL/MOL
REMARK 927      BINDING AFFINITY PREDICTED BY RF-SCORE:    0.00 PKD
ROOT
HETATM    1  C   UNL     1      -7.292  10.144  69.742  1.00  0.00    -0.158 C  
HETATM    2  O   UNL     1      -7.286   8.731  69.561  1.00  0.00    -0.064 OA 
ENDROOT
BRANCH   2   3
HETATM    3  C   UNL     1      -8.226   8.071  70.296  1.00  0.00    -0.123 C  
HETATM    4  O   UNL     1      -8.113   7.766  71.476  1.00  0.00    -0.094 OA 
BRANCH   3   5
HETATM    5  C   UNL     1      -9.408   7.764  69.424  1.00  0.00    -0.152 C  
BRANCH   5   6
HETATM    6  C   UNL     1     -10.740   7.924  70.165  1.00  0.00    -0.244 C  
BRANCH   6   7
HETATM    7  C   UNL     1     -11.210   9.359  70.246  1.00  0.00    -0.286 A  
HETATM    8  C   UNL     1     -11.998   9.795  71.313  1.00  0.00    -0.471 A  
HETATM    9  C   UNL     1     -12.448  11.108  71.383  1.00  0.00    -0.414 A  
HETATM   10  C   UNL     1     -12.108  12.035  70.398  1.00  0.00    -0.321 A  
HETATM   11  C   UNL     1     -10.829  10.298  69.274  1.00  0.00    -0.275 A  
HETATM   12  C   UNL     1     -11.281  11.626  69.350  1.00  0.00    -0.311 A  
BRANCH  10  13
HETATM   13  O   UNL     1     -12.531  13.343  70.388  1.00  0.00    -0.310 OA 
BRANCH  13  14
HETATM   14  C   UNL     1     -12.087  14.096  69.245  1.00  0.00    -0.324 C  
BRANCH  14  15
HETATM   15  C   UNL     1     -12.250  15.602  69.470  1.00  0.00    -0.207 C  
HETATM   16  O   UNL     1     -13.255  15.834  70.464  1.00  0.00    -0.735 OA 
HETATM   17  H   UNL     1     -13.356  16.768  70.603  1.00  0.00     0.000 HD 
BRANCH  15  18
HETATM   18  C   UNL     1     -10.937  16.286  69.892  1.00  0.00    -0.365 C  
BRANCH  18  19
HETATM   19  N   UNL     1      -9.921  16.221  68.836  1.00  0.00    -0.236 NA 
HETATM   20  H   UNL     1      -9.734  17.150  68.459  1.00  0.00     0.000 HD 
BRANCH  19  21
HETATM   21  C   UNL     1      -8.673  15.574  69.257  1.00  0.00    -0.260 C  
HETATM   22  C   UNL     1      -8.404  14.261  68.518  1.00  0.00    -0.156 C  
HETATM   23  C   UNL     1      -7.525  16.551  68.985  1.00  0.00    -0.229 C  
ENDBRANCH  19  21
ENDBRANCH  18  19
ENDBRANCH  15  18
ENDBRANCH  14  15
ENDBRANCH  13  14
ENDBRANCH  10  13
ENDBRANCH   6   7
ENDBRANCH   5   6
ENDBRANCH   3   5
ENDBRANCH   2   3
TORSDOF 10
ENDMDL
MODEL      196
REMARK 921   NORMALIZED FREE ENERGY PREDICTED BY IDOCK:   -3.57 KCAL/MOL
REMARK 922        TOTAL FREE ENERGY PREDICTED BY IDOCK:   -6.54 KCAL/MOL
REMARK 923 INTER-LIGAND FREE ENERGY PREDICTED BY IDOCK:   -6.01 KCAL/MOL
REMARK 924 INTRA-LIGAND FREE ENERGY PREDICTED BY IDOCK:   -0.53 KCAL/MOL
REMARK 927      BINDING AFFINITY PREDICTED BY RF-SCORE:    0.00 PKD
ROOT
HETATM    1  C   UNL     1      -7.250  19.533  69.045  1.00  0.00    -0.362 C  
HETATM    2  O   UNL     1      -7.949  19.510  67.803  1.00  0.00    -0.279 OA 
ENDROOT
BRANCH   2   3
HETATM    3  C   UNL     1      -9.011  18.656  67.778  1.00  0.00    -0.282 C  
HETATM    4  O   UNL     1      -9.923  18.638  68.595  1.00  0.00    -0.363 OA 
BRANCH   3   5
HETATM    5  C   UNL     1      -8.872  17.730  66.604  1.00  0.00    -0.282 C  
BRANCH   5   6
HETATM    6  C   UNL     1     -10.226  17.343  66.000  1.00  0.00    -0.308 C  
BRANCH   6   7
HETATM    7  C   UNL     1     -10.398  15.850  65.825  1.00  0.00    -0.396 A  
HETATM    8  C   UNL     1      -9.674  14.950  66.609  1.00  0.00    -0.276 A  
HETATM    9  C   UNL     1      -9.815  13.578  66.440  1.00  0.00    -0.299 A  
HETATM   10  C   UNL     1     -10.699  13.060  65.494  1.00  0.00    -0.281 A  
HETATM   11  C   UNL     1     -11.322  15.335  64.901  1.00  0.00    -0.387 A  
HETATM   12  C   UNL     1     -11.465  13.947  64.735  1.00  0.00    -0.368 A  
BRANCH  10  13
HETATM   13  O   UNL     1     -10.878  11.718  65.255  1.00  0.00    -0.280 OA 
BRANCH  13  14
HETATM   14  C   UNL     1     -10.737  10.889  66.422  1.00  0.00    -0.194 C  
BRANCH  14  15
HETATM   15  C   UNL     1      -9.892   9.646  66.127  1.00  0.00    -0.265 C  
HETATM   16  O   UNL     1      -8.528   9.895  66.487  1.00  0.00    -0.124 OA 
HETATM   17  H   UNL     1      -8.004   9.124  66.303  1.00  0.00     0.000 HD 
BRANCH  15  18
HETATM   18  C   UNL     1     -10.401   8.392  66.860  1.00  0.00    -0.307 C  
BRANCH  18  19
HETATM   19  N   UNL     1      -9.543   8.035  67.995  1.00  0.00    -0.149 NA 
HETATM   20  H   UNL     1      -9.290   8.866  68.530  1.00  0.00     0.000 HD 
BRANCH  19  21
HETATM   21  C   UNL     1     -10.120   7.012  68.874  1.00  0.00    -0.173 C  
HETATM   22  C   UNL     1     -10.947   7.605  70.017  1.00  0.00    -0.237 C  
HETATM   23  C   UNL     1     -11.016   6.111  68.018  1.00  0.00    -0.399 C  
ENDBRANCH  19  21
ENDBRANCH  18  19
ENDBRANCH  15  18
ENDBRANCH  14  15
ENDBRANCH  13  14
ENDBRANCH  10  13
ENDBRANCH   6   7
ENDBRANCH   5   6
ENDBRANCH   3   5
ENDBRANCH   2   3
TORSDOF 10
ENDMDL
MODEL      197
REMARK 921   NORMALIZED FREE ENERGY PREDICTED BY IDOCK:   -3.56 KCAL/MOL
REMARK 922        TOTAL FREE ENERGY PREDICTED BY IDOCK:   -6.51 KCAL/MOL
REMARK 923 INTER-LIGAND FREE ENERGY PREDICTED BY IDOCK:   -5.42 KCAL/MOL
REMARK 924 INTRA-LIGAND FREE ENERGY PREDICTED BY IDOCK:   -1.09 KCAL/MOL
REMARK 927      BINDING AFFINITY PREDICTED BY RF-SCORE:    0.00 PKD
ROOT
HETATM    1  C   UNL     1     -11.861  15.211  71.196  1.00  0.00    -0.343 C  
HETATM    2  O   UNL     1     -10.678  15.740  70.603  1.00  0.00    -0.303 OA 
ENDROOT
BRANCH   2   3
HETATM    3  C   UNL     1     -10.870  16.284  69.368  1.00  0.00    -0.331 C  
HETATM    4  O   UNL     1     -10.240  17.226  68.905  1.00  0.00    -0.320 OA 
BRANCH   3   5
HETATM    5  C   UNL     1     -11.989  15.559  68.678  1.00  0.00    -0.231 C  
BRANCH   5   6
HETATM    6  C   UNL     1     -11.533  14.872  67.387  1.00  0.00    -0.354 C  
BRANCH   6   7
HETATM    7  C   UNL     1     -10.951  13.494  67.615  1.00  0.00    -0.280 A  
HETATM    8  C   UNL     1      -9.855  13.048  66.876  1.00  0.00    -0.240 A  
HETATM    9  C   UNL     1      -9.327  11.777  67.070  1.00  0.00    -0.187 A  
HETATM   10  C   UNL     1      -9.868  10.916  68.024  1.00  0.00    -0.171 A  
HETATM   11  C   UNL     1     -11.472  12.648  68.608  1.00  0.00    -0.347 A  
HETATM   12  C   UNL     1     -10.935  11.365  68.805  1.00  0.00    -0.272 A  
BRANCH  10  13
HETATM   13  O   UNL     1      -9.415   9.639  68.258  1.00  0.00    -0.136 OA 
BRANCH  13  14
HETATM   14  C   UNL     1      -7.989   9.540  68.413  1.00  0.00    -0.093 C  
BRANCH  14  15
HETATM   15  C   UNL     1      -7.595   9.393  69.885  1.00  0.00    -0.109 C  
HETATM   16  O   UNL     1      -7.205  10.669  70.408  1.00  0.00    -0.464 OA 
HETATM   17  H   UNL     1      -6.961  10.578  71.322  1.00  0.00     0.000 HD 
BRANCH  15  18
HETATM   18  C   UNL     1      -8.724   8.803  70.749  1.00  0.00    -0.189 C  
BRANCH  18  19
HETATM   19  N   UNL     1      -9.065   7.434  70.345  1.00  0.00    -0.157 NA 
HETATM   20  H   UNL     1      -8.729   6.762  71.035  1.00  0.00     0.000 HD 
BRANCH  19  21
HETATM   21  C   UNL     1     -10.494   7.234  70.082  1.00  0.00    -0.218 C  
HETATM   22  C   UNL     1     -10.901   5.759  70.089  1.00  0.00    -0.383 C  
HETATM   23  C   UNL     1     -11.279   7.979  71.166  1.00  0.00    -0.287 C  
ENDBRANCH  19  21
ENDBRANCH  18  19
ENDBRANCH  15  18
ENDBRANCH  14  15
ENDBRANCH  13  14
ENDBRANCH  10  13
ENDBRANCH   6   7
ENDBRANCH   5   6
ENDBRANCH   3   5
ENDBRANCH   2   3
TORSDOF 10
ENDMDL
MODEL      198
REMARK 921   NORMALIZED FREE ENERGY PREDICTED BY IDOCK:   -3.54 KCAL/MOL
REMARK 922        TOTAL FREE ENERGY PREDICTED BY IDOCK:   -6.49 KCAL/MOL
REMARK 923 INTER-LIGAND FREE ENERGY PREDICTED BY IDOCK:   -5.90 KCAL/MOL
REMARK 924 INTRA-LIGAND FREE ENERGY PREDICTED BY IDOCK:   -0.59 KCAL/MOL
REMARK 927      BINDING AFFINITY PREDICTED BY RF-SCORE:    0.00 PKD
ROOT
HETATM    1  C   UNL     1      -7.591   6.017  67.158  1.00  0.00    -0.092 C  
HETATM    2  O   UNL     1      -8.871   5.746  66.594  1.00  0.00    -0.117 OA 
ENDROOT
BRANCH   2   3
HETATM    3  C   UNL     1      -9.895   5.783  67.494  1.00  0.00    -0.130 C  
HETATM    4  O   UNL     1     -10.080   4.967  68.388  1.00  0.00    -0.145 OA 
BRANCH   3   5
HETATM    5  C   UNL     1     -10.767   6.969  67.201  1.00  0.00    -0.433 C  
BRANCH   5   6
HETATM    6  C   UNL     1     -10.337   8.218  67.977  1.00  0.00    -0.268 C  
BRANCH   6   7
HETATM    7  C   UNL     1     -10.502   9.498  67.189  1.00  0.00    -0.322 A  
HETATM    8  C   UNL     1      -9.973   9.620  65.903  1.00  0.00    -0.351 A  
HETATM    9  C   UNL     1     -10.107  10.800  65.181  1.00  0.00    -0.363 A  
HETATM   10  C   UNL     1     -10.791  11.892  65.714  1.00  0.00    -0.295 A  
HETATM   11  C   UNL     1     -11.230  10.579  67.714  1.00  0.00    -0.344 A  
HETATM   12  C   UNL     1     -11.367  11.769  66.980  1.00  0.00    -0.387 A  
BRANCH  10  13
HETATM   13  O   UNL     1     -10.947  13.097  65.071  1.00  0.00    -0.286 OA 
BRANCH  13  14
HETATM   14  C   UNL     1     -10.951  14.237  65.948  1.00  0.00    -0.304 C  
BRANCH  14  15
HETATM   15  C   UNL     1      -9.733  15.132  65.708  1.00  0.00    -0.344 C  
HETATM   16  O   UNL     1     -10.167  16.432  65.290  1.00  0.00    -0.575 OA 
HETATM   17  H   UNL     1      -9.411  16.988  65.141  1.00  0.00     0.000 HD 
BRANCH  15  18
HETATM   18  C   UNL     1      -8.833  15.261  66.950  1.00  0.00    -0.254 C  
BRANCH  18  19
HETATM   19  N   UNL     1      -7.415  15.364  66.591  1.00  0.00    -0.260 NA 
HETATM   20  H   UNL     1      -7.310  15.614  65.607  1.00  0.00     0.000 HD 
BRANCH  19  21
HETATM   21  C   UNL     1      -6.655  16.287  67.442  1.00  0.00    -0.179 C  
HETATM   22  C   UNL     1      -5.899  17.350  66.643  1.00  0.00    -0.234 C  
HETATM   23  C   UNL     1      -7.645  16.975  68.387  1.00  0.00    -0.220 C  
ENDBRANCH  19  21
ENDBRANCH  18  19
ENDBRANCH  15  18
ENDBRANCH  14  15
ENDBRANCH  13  14
ENDBRANCH  10  13
ENDBRANCH   6   7
ENDBRANCH   5   6
ENDBRANCH   3   5
ENDBRANCH   2   3
TORSDOF 10
ENDMDL
MODEL      199
REMARK 921   NORMALIZED FREE ENERGY PREDICTED BY IDOCK:   -3.53 KCAL/MOL
REMARK 922        TOTAL FREE ENERGY PREDICTED BY IDOCK:   -6.48 KCAL/MOL
REMARK 923 INTER-LIGAND FREE ENERGY PREDICTED BY IDOCK:   -5.54 KCAL/MOL
REMARK 924 INTRA-LIGAND FREE ENERGY PREDICTED BY IDOCK:   -0.93 KCAL/MOL
REMARK 927      BINDING AFFINITY PREDICTED BY RF-SCORE:    0.00 PKD
ROOT
HETATM    1  C   UNL     1      -9.760   3.904  64.951  1.00  0.00    -0.188 C  
HETATM    2  O   UNL     1      -8.528   4.616  65.034  1.00  0.00    -0.122 OA 
ENDROOT
BRANCH   2   3
HETATM    3  C   UNL     1      -8.299   5.192  66.248  1.00  0.00    -0.113 C  
HETATM    4  O   UNL     1      -7.197   5.350  66.759  1.00  0.00    -0.075 OA 
BRANCH   3   5
HETATM    5  C   UNL     1      -9.611   5.581  66.865  1.00  0.00    -0.149 C  
BRANCH   5   6
HETATM    6  C   UNL     1      -9.437   6.296  68.209  1.00  0.00    -0.117 C  
BRANCH   6   7
HETATM    7  C   UNL     1     -10.070   7.670  68.241  1.00  0.00    -0.214 A  
HETATM    8  C   UNL     1     -10.276   8.391  67.063  1.00  0.00    -0.377 A  
HETATM    9  C   UNL     1     -10.841   9.660  67.088  1.00  0.00    -0.184 A  
HETATM   10  C   UNL     1     -11.235  10.244  68.292  1.00  0.00    -0.232 A  
HETATM   11  C   UNL     1     -10.505   8.235  69.451  1.00  0.00    -0.224 A  
HETATM   12  C   UNL     1     -11.079   9.517  69.474  1.00  0.00    -0.168 A  
BRANCH  10  13
HETATM   13  O   UNL     1     -11.781  11.502  68.399  1.00  0.00    -0.327 OA 
BRANCH  13  14
HETATM   14  C   UNL     1     -10.901  12.562  67.986  1.00  0.00    -0.225 C  
BRANCH  14  15
HETATM   15  C   UNL     1     -11.676  13.848  67.687  1.00  0.00    -0.368 C  
HETATM   16  O   UNL     1     -10.773  14.960  67.663  1.00  0.00    -0.261 OA 
HETATM   17  H   UNL     1     -11.254  15.758  67.477  1.00  0.00     0.000 HD 
BRANCH  15  18
HETATM   18  C   UNL     1     -12.450  13.781  66.358  1.00  0.00    -0.355 C  
BRANCH  18  19
HETATM   19  N   UNL     1     -12.409  12.439  65.766  1.00  0.00    -0.603 NA 
HETATM   20  H   UNL     1     -13.212  11.888  66.070  1.00  0.00     0.000 HD 
BRANCH  19  21
HETATM   21  C   UNL     1     -12.309  12.442  64.302  1.00  0.00    -0.455 C  
HETATM   22  C   UNL     1     -12.146  13.846  63.718  1.00  0.00    -0.330 C  
HETATM   23  C   UNL     1     -11.096  11.590  63.915  1.00  0.00    -0.458 C  
ENDBRANCH  19  21
ENDBRANCH  18  19
ENDBRANCH  15  18
ENDBRANCH  14  15
ENDBRANCH  13  14
ENDBRANCH  10  13
ENDBRANCH   6   7
ENDBRANCH   5   6
ENDBRANCH   3   5
ENDBRANCH   2   3
TORSDOF 10
ENDMDL
MODEL      200
REMARK 921   NORMALIZED FREE ENERGY PREDICTED BY IDOCK:   -3.53 KCAL/MOL
REMARK 922        TOTAL FREE ENERGY PREDICTED BY IDOCK:   -6.47 KCAL/MOL
REMARK 923 INTER-LIGAND FREE ENERGY PREDICTED BY IDOCK:   -5.78 KCAL/MOL
REMARK 924 INTRA-LIGAND FREE ENERGY PREDICTED BY IDOCK:   -0.69 KCAL/MOL
REMARK 927      BINDING AFFINITY PREDICTED BY RF-SCORE:    0.00 PKD
ROOT
HETATM    1  C   UNL     1      -7.465   9.334  69.686  1.00  0.00    -0.078 C  
HETATM    2  O   UNL     1      -7.395   7.922  69.504  1.00  0.00    -0.082 OA 
ENDROOT
BRANCH   2   3
HETATM    3  C   UNL     1      -8.219   7.214  70.328  1.00  0.00    -0.131 C  
HETATM    4  O   UNL     1      -8.130   7.169  71.548  1.00  0.00    -0.102 OA 
BRANCH   3   5
HETATM    5  C   UNL     1      -9.237   6.485  69.500  1.00  0.00    -0.142 C  
BRANCH   5   6
HETATM    6  C   UNL     1     -10.675   6.832  69.899  1.00  0.00    -0.290 C  
BRANCH   6   7
HETATM    7  C   UNL     1     -10.992   8.306  69.770  1.00  0.00    -0.132 A  
HETATM    8  C   UNL     1     -11.454   9.037  70.866  1.00  0.00    -0.347 A  
HETATM    9  C   UNL     1     -11.763  10.387  70.749  1.00  0.00    -0.464 A  
HETATM   10  C   UNL     1     -11.603  11.055  69.536  1.00  0.00    -0.313 A  
HETATM   11  C   UNL     1     -10.786   8.984  68.558  1.00  0.00    -0.061 A  
HETATM   12  C   UNL     1     -11.096  10.349  68.443  1.00  0.00    -0.322 A  
BRANCH  10  13
HETATM   13  O   UNL     1     -11.906  12.381  69.337  1.00  0.00    -0.301 OA 
BRANCH  13  14
HETATM   14  C   UNL     1     -11.823  12.805  67.965  1.00  0.00    -0.336 C  
BRANCH  14  15
HETATM   15  C   UNL     1     -10.609  13.709  67.732  1.00  0.00    -0.242 C  
HETATM   16  O   UNL     1      -9.908  13.900  68.966  1.00  0.00    -0.415 OA 
HETATM   17  H   UNL     1      -9.155  14.461  68.822  1.00  0.00     0.000 HD 
BRANCH  15  18
HETATM   18  C   UNL     1      -9.645  13.150  66.670  1.00  0.00    -0.260 C  
BRANCH  18  19
HETATM   19  N   UNL     1     -10.110  13.427  65.307  1.00  0.00    -0.464 NA 
HETATM   20  H   UNL     1      -9.333  13.723  64.716  1.00  0.00     0.000 HD 
BRANCH  19  21
HETATM   21  C   UNL     1     -10.832  12.309  64.689  1.00  0.00    -0.308 C  
HETATM   22  C   UNL     1     -12.275  12.660  64.323  1.00  0.00    -0.524 C  
HETATM   23  C   UNL     1     -10.073  11.905  63.422  1.00  0.00    -0.464 C  
ENDBRANCH  19  21
ENDBRANCH  18  19
ENDBRANCH  15  18
ENDBRANCH  14  15
ENDBRANCH  13  14
ENDBRANCH  10  13
ENDBRANCH   6   7
ENDBRANCH   5   6
ENDBRANCH   3   5
ENDBRANCH   2   3
TORSDOF 10
ENDMDL
MODEL      201
REMARK 921   NORMALIZED FREE ENERGY PREDICTED BY IDOCK:   -3.51 KCAL/MOL
REMARK 922        TOTAL FREE ENERGY PREDICTED BY IDOCK:   -6.44 KCAL/MOL
REMARK 923 INTER-LIGAND FREE ENERGY PREDICTED BY IDOCK:   -5.95 KCAL/MOL
REMARK 924 INTRA-LIGAND FREE ENERGY PREDICTED BY IDOCK:   -0.49 KCAL/MOL
REMARK 927      BINDING AFFINITY PREDICTED BY RF-SCORE:    0.00 PKD
ROOT
HETATM    1  C   UNL     1     -12.037  16.028  73.452  1.00  0.00    -0.482 C  
HETATM    2  O   UNL     1     -13.411  16.084  73.078  1.00  0.00    -0.550 OA 
ENDROOT
BRANCH   2   3
HETATM    3  C   UNL     1     -13.775  15.146  72.157  1.00  0.00    -0.477 C  
HETATM    4  O   UNL     1     -14.410  15.370  71.134  1.00  0.00    -0.490 OA 
BRANCH   3   5
HETATM    5  C   UNL     1     -13.293  13.799  72.609  1.00  0.00    -0.618 C  
BRANCH   5   6
HETATM    6  C   UNL     1     -14.096  12.651  71.987  1.00  0.00     0.236 C  
BRANCH   6   7
HETATM    7  C   UNL     1     -13.246  11.451  71.630  1.00  0.00    -0.413 A  
HETATM    8  C   UNL     1     -12.151  11.579  70.774  1.00  0.00    -0.410 A  
HETATM    9  C   UNL     1     -11.377  10.477  70.430  1.00  0.00    -0.411 A  
HETATM   10  C   UNL     1     -11.662   9.213  70.945  1.00  0.00    -0.284 A  
HETATM   11  C   UNL     1     -13.511  10.189  72.187  1.00  0.00    -0.371 A  
HETATM   12  C   UNL     1     -12.725   9.078  71.840  1.00  0.00    -0.450 A  
BRANCH  10  13
HETATM   13  O   UNL     1     -10.956   8.075  70.635  1.00  0.00    -0.238 OA 
BRANCH  13  14
HETATM   14  C   UNL     1     -10.335   8.102  69.338  1.00  0.00    -0.218 C  
BRANCH  14  15
HETATM   15  C   UNL     1      -8.820   8.294  69.448  1.00  0.00    -0.146 C  
HETATM   16  O   UNL     1      -8.166   7.023  69.344  1.00  0.00    -0.128 OA 
HETATM   17  H   UNL     1      -7.226   7.142  69.412  1.00  0.00     0.000 HD 
BRANCH  15  18
HETATM   18  C   UNL     1      -8.261   9.252  68.382  1.00  0.00    -0.115 C  
BRANCH  18  19
HETATM   19  N   UNL     1      -7.697  10.468  68.979  1.00  0.00    -0.115 NA 
HETATM   20  H   UNL     1      -7.403  10.294  69.940  1.00  0.00     0.000 HD 
BRANCH  19  21
HETATM   21  C   UNL     1      -6.600  11.055  68.201  1.00  0.00    -0.058 C  
HETATM   22  C   UNL     1      -6.847  11.009  66.692  1.00  0.00    -0.137 C  
HETATM   23  C   UNL     1      -6.440  12.512  68.642  1.00  0.00    -0.078 C  
ENDBRANCH  19  21
ENDBRANCH  18  19
ENDBRANCH  15  18
ENDBRANCH  14  15
ENDBRANCH  13  14
ENDBRANCH  10  13
ENDBRANCH   6   7
ENDBRANCH   5   6
ENDBRANCH   3   5
ENDBRANCH   2   3
TORSDOF 10
ENDMDL
MODEL      202
REMARK 921   NORMALIZED FREE ENERGY PREDICTED BY IDOCK:   -3.51 KCAL/MOL
REMARK 922        TOTAL FREE ENERGY PREDICTED BY IDOCK:   -6.43 KCAL/MOL
REMARK 923 INTER-LIGAND FREE ENERGY PREDICTED BY IDOCK:   -5.62 KCAL/MOL
REMARK 924 INTRA-LIGAND FREE ENERGY PREDICTED BY IDOCK:   -0.81 KCAL/MOL
REMARK 927      BINDING AFFINITY PREDICTED BY RF-SCORE:    0.00 PKD
ROOT
HETATM    1  C   UNL     1      -7.780   6.919  68.899  1.00  0.00    -0.110 C  
HETATM    2  O   UNL     1      -8.042   6.188  67.704  1.00  0.00    -0.111 OA 
ENDROOT
BRANCH   2   3
HETATM    3  C   UNL     1      -9.177   6.572  67.054  1.00  0.00    -0.134 C  
HETATM    4  O   UNL     1     -10.097   5.828  66.738  1.00  0.00    -0.161 OA 
BRANCH   3   5
HETATM    5  C   UNL     1      -9.109   8.044  66.772  1.00  0.00    -0.189 C  
BRANCH   5   6
HETATM    6  C   UNL     1     -10.451   8.747  67.002  1.00  0.00    -0.338 C  
BRANCH   6   7
HETATM    7  C   UNL     1     -10.321  10.246  67.165  1.00  0.00    -0.292 A  
HETATM    8  C   UNL     1      -9.638  10.790  68.254  1.00  0.00    -0.170 A  
HETATM    9  C   UNL     1      -9.529  12.167  68.418  1.00  0.00    -0.179 A  
HETATM   10  C   UNL     1     -10.086  13.044  67.487  1.00  0.00    -0.218 A  
HETATM   11  C   UNL     1     -10.845  11.124  66.202  1.00  0.00    -0.247 A  
HETATM   12  C   UNL     1     -10.731  12.514  66.368  1.00  0.00    -0.275 A  
BRANCH  10  13
HETATM   13  O   UNL     1     -10.038  14.414  67.591  1.00  0.00    -0.220 OA 
BRANCH  13  14
HETATM   14  C   UNL     1     -11.325  15.054  67.527  1.00  0.00    -0.333 C  
BRANCH  14  15
HETATM   15  C   UNL     1     -11.669  15.751  68.846  1.00  0.00    -0.394 C  
HETATM   16  O   UNL     1     -12.070  14.775  69.815  1.00  0.00    -0.302 OA 
HETATM   17  H   UNL     1     -12.285  15.207  70.634  1.00  0.00     0.000 HD 
BRANCH  15  18
HETATM   18  C   UNL     1     -10.501  16.583  69.403  1.00  0.00    -0.320 C  
BRANCH  18  19
HETATM   19  N   UNL     1      -9.785  17.302  68.343  1.00  0.00    -0.280 NA 
HETATM   20  H   UNL     1     -10.208  17.116  67.434  1.00  0.00     0.000 HD 
BRANCH  19  21
HETATM   21  C   UNL     1      -9.678  18.746  68.577  1.00  0.00    -0.380 C  
HETATM   22  C   UNL     1      -8.229  19.233  68.649  1.00  0.00    -0.408 C  
HETATM   23  C   UNL     1     -10.393  19.461  67.427  1.00  0.00    -0.559 C  
ENDBRANCH  19  21
ENDBRANCH  18  19
ENDBRANCH  15  18
ENDBRANCH  14  15
ENDBRANCH  13  14
ENDBRANCH  10  13
ENDBRANCH   6   7
ENDBRANCH   5   6
ENDBRANCH   3   5
ENDBRANCH   2   3
TORSDOF 10
ENDMDL
MODEL      203
REMARK 921   NORMALIZED FREE ENERGY PREDICTED BY IDOCK:   -3.50 KCAL/MOL
REMARK 922        TOTAL FREE ENERGY PREDICTED BY IDOCK:   -6.43 KCAL/MOL
REMARK 923 INTER-LIGAND FREE ENERGY PREDICTED BY IDOCK:   -5.88 KCAL/MOL
REMARK 924 INTRA-LIGAND FREE ENERGY PREDICTED BY IDOCK:   -0.54 KCAL/MOL
REMARK 927      BINDING AFFINITY PREDICTED BY RF-SCORE:    0.00 PKD
ROOT
HETATM    1  C   UNL     1      -6.168  19.414  65.416  1.00  0.00    -0.246 C  
HETATM    2  O   UNL     1      -7.478  19.884  65.726  1.00  0.00    -0.323 OA 
ENDROOT
BRANCH   2   3
HETATM    3  C   UNL     1      -8.276  18.953  66.322  1.00  0.00    -0.268 C  
HETATM    4  O   UNL     1      -9.236  18.405  65.796  1.00  0.00    -0.431 OA 
BRANCH   3   5
HETATM    5  C   UNL     1      -7.803  18.726  67.728  1.00  0.00    -0.262 C  
BRANCH   5   6
HETATM    6  C   UNL     1      -7.280  17.302  67.947  1.00  0.00    -0.185 C  
BRANCH   6   7
HETATM    7  C   UNL     1      -8.363  16.322  68.341  1.00  0.00    -0.190 A  
HETATM    8  C   UNL     1      -8.326  14.999  67.898  1.00  0.00    -0.151 A  
HETATM    9  C   UNL     1      -9.327  14.098  68.243  1.00  0.00    -0.203 A  
HETATM   10  C   UNL     1     -10.389  14.487  69.058  1.00  0.00    -0.223 A  
HETATM   11  C   UNL     1      -9.406  16.707  69.199  1.00  0.00    -0.177 A  
HETATM   12  C   UNL     1     -10.415  15.794  69.549  1.00  0.00    -0.270 A  
BRANCH  10  13
HETATM   13  O   UNL     1     -11.426  13.661  69.425  1.00  0.00    -0.270 OA 
BRANCH  13  14
HETATM   14  C   UNL     1     -11.884  12.790  68.375  1.00  0.00    -0.310 C  
BRANCH  14  15
HETATM   15  C   UNL     1     -12.100  11.364  68.887  1.00  0.00    -0.219 C  
HETATM   16  O   UNL     1     -11.683  10.426  67.887  1.00  0.00    -0.714 OA 
HETATM   17  H   UNL     1     -11.818   9.541  68.204  1.00  0.00     0.000 HD 
BRANCH  15  18
HETATM   18  C   UNL     1     -11.354  11.083  70.203  1.00  0.00    -0.251 C  
BRANCH  18  19
HETATM   19  N   UNL     1     -11.680   9.759  70.747  1.00  0.00    -0.306 NA 
HETATM   20  H   UNL     1     -12.468   9.349  70.246  1.00  0.00     0.000 HD 
BRANCH  19  21
HETATM   21  C   UNL     1     -10.543   8.833  70.768  1.00  0.00    -0.220 C  
HETATM   22  C   UNL     1      -9.285   9.416  70.121  1.00  0.00    -0.268 C  
HETATM   23  C   UNL     1     -10.245   8.491  72.231  1.00  0.00    -0.395 C  
ENDBRANCH  19  21
ENDBRANCH  18  19
ENDBRANCH  15  18
ENDBRANCH  14  15
ENDBRANCH  13  14
ENDBRANCH  10  13
ENDBRANCH   6   7
ENDBRANCH   5   6
ENDBRANCH   3   5
ENDBRANCH   2   3
TORSDOF 10
ENDMDL
MODEL      204
REMARK 921   NORMALIZED FREE ENERGY PREDICTED BY IDOCK:   -3.50 KCAL/MOL
REMARK 922        TOTAL FREE ENERGY PREDICTED BY IDOCK:   -6.42 KCAL/MOL
REMARK 923 INTER-LIGAND FREE ENERGY PREDICTED BY IDOCK:   -5.52 KCAL/MOL
REMARK 924 INTRA-LIGAND FREE ENERGY PREDICTED BY IDOCK:   -0.90 KCAL/MOL
REMARK 927      BINDING AFFINITY PREDICTED BY RF-SCORE:    0.00 PKD
ROOT
HETATM    1  C   UNL     1     -11.343  15.156  70.662  1.00  0.00    -0.293 C  
HETATM    2  O   UNL     1     -12.074  15.590  69.518  1.00  0.00    -0.344 OA 
ENDROOT
BRANCH   2   3
HETATM    3  C   UNL     1     -11.390  15.472  68.344  1.00  0.00    -0.354 C  
HETATM    4  O   UNL     1     -10.588  16.288  67.909  1.00  0.00    -0.298 OA 
BRANCH   3   5
HETATM    5  C   UNL     1     -11.795  14.196  67.664  1.00  0.00    -0.427 C  
BRANCH   5   6
HETATM    6  C   UNL     1     -10.589  13.375  67.196  1.00  0.00    -0.259 C  
BRANCH   6   7
HETATM    7  C   UNL     1     -10.471  12.036  67.892  1.00  0.00    -0.221 A  
HETATM    8  C   UNL     1      -9.393  11.188  67.633  1.00  0.00    -0.169 A  
HETATM    9  C   UNL     1      -9.288   9.950  68.257  1.00  0.00    -0.136 A  
HETATM   10  C   UNL     1     -10.249   9.528  69.174  1.00  0.00    -0.201 A  
HETATM   11  C   UNL     1     -11.418  11.635  68.848  1.00  0.00    -0.349 A  
HETATM   12  C   UNL     1     -11.308  10.385  69.480  1.00  0.00    -0.325 A  
BRANCH  10  13
HETATM   13  O   UNL     1     -10.226   8.311  69.815  1.00  0.00    -0.194 OA 
BRANCH  13  14
HETATM   14  C   UNL     1     -10.923   8.294  71.073  1.00  0.00    -0.245 C  
BRANCH  14  15
HETATM   15  C   UNL     1     -11.741   7.011  71.241  1.00  0.00    -0.317 C  
HETATM   16  O   UNL     1     -13.135   7.306  71.090  1.00  0.00    -0.523 OA 
HETATM   17  H   UNL     1     -13.643   6.510  71.196  1.00  0.00     0.000 HD 
BRANCH  15  18
HETATM   18  C   UNL     1     -11.335   5.910  70.246  1.00  0.00    -0.162 C  
BRANCH  18  19
HETATM   19  N   UNL     1      -9.959   5.450  70.469  1.00  0.00    -0.205 NA 
HETATM   20  H   UNL     1      -9.778   5.328  71.466  1.00  0.00     0.000 HD 
BRANCH  19  21
HETATM   21  C   UNL     1      -9.617   4.230  69.729  1.00  0.00    -0.209 C  
HETATM   22  C   UNL     1      -9.425   4.476  68.231  1.00  0.00    -0.205 C  
HETATM   23  C   UNL     1      -8.318   3.673  70.320  1.00  0.00    -0.082 C  
ENDBRANCH  19  21
ENDBRANCH  18  19
ENDBRANCH  15  18
ENDBRANCH  14  15
ENDBRANCH  13  14
ENDBRANCH  10  13
ENDBRANCH   6   7
ENDBRANCH   5   6
ENDBRANCH   3   5
ENDBRANCH   2   3
TORSDOF 10
ENDMDL
MODEL      205
REMARK 921   NORMALIZED FREE ENERGY PREDICTED BY IDOCK:   -3.49 KCAL/MOL
REMARK 922        TOTAL FREE ENERGY PREDICTED BY IDOCK:   -6.40 KCAL/MOL
REMARK 923 INTER-LIGAND FREE ENERGY PREDICTED BY IDOCK:   -5.26 KCAL/MOL
REMARK 924 INTRA-LIGAND FREE ENERGY PREDICTED BY IDOCK:   -1.15 KCAL/MOL
REMARK 927      BINDING AFFINITY PREDICTED BY RF-SCORE:    0.00 PKD
ROOT
HETATM    1  C   UNL     1     -10.771   3.553  63.720  1.00  0.00    -0.256 C  
HETATM    2  O   UNL     1     -10.843   4.137  65.018  1.00  0.00    -0.223 OA 
ENDROOT
BRANCH   2   3
HETATM    3  C   UNL     1      -9.688   4.740  65.420  1.00  0.00    -0.123 C  
HETATM    4  O   UNL     1      -8.671   4.840  64.746  1.00  0.00    -0.143 OA 
BRANCH   3   5
HETATM    5  C   UNL     1      -9.857   5.241  66.825  1.00  0.00    -0.195 C  
BRANCH   5   6
HETATM    6  C   UNL     1     -10.971   6.287  66.943  1.00  0.00    -0.404 C  
BRANCH   6   7
HETATM    7  C   UNL     1     -10.472   7.647  67.380  1.00  0.00    -0.367 A  
HETATM    8  C   UNL     1     -10.074   8.598  66.439  1.00  0.00    -0.294 A  
HETATM    9  C   UNL     1      -9.598   9.843  66.835  1.00  0.00    -0.225 A  
HETATM   10  C   UNL     1      -9.522  10.183  68.185  1.00  0.00    -0.142 A  
HETATM   11  C   UNL     1     -10.438   8.000  68.739  1.00  0.00    -0.196 A  
HETATM   12  C   UNL     1      -9.960   9.260  69.136  1.00  0.00    -0.181 A  
BRANCH  10  13
HETATM   13  O   UNL     1      -9.043  11.384  68.654  1.00  0.00    -0.175 OA 
BRANCH  13  14
HETATM   14  C   UNL     1      -8.018  11.970  67.832  1.00  0.00    -0.147 C  
BRANCH  14  15
HETATM   15  C   UNL     1      -8.085  13.500  67.860  1.00  0.00    -0.165 C  
HETATM   16  O   UNL     1      -7.033  14.042  67.053  1.00  0.00    -0.384 OA 
HETATM   17  H   UNL     1      -7.075  14.991  67.070  1.00  0.00     0.000 HD 
BRANCH  15  18
HETATM   18  C   UNL     1      -9.441  14.045  67.378  1.00  0.00    -0.225 C  
BRANCH  18  19
HETATM   19  N   UNL     1     -10.335  14.360  68.498  1.00  0.00    -0.242 NA 
HETATM   20  H   UNL     1     -10.399  15.369  68.635  1.00  0.00     0.000 HD 
BRANCH  19  21
HETATM   21  C   UNL     1     -11.673  13.770  68.371  1.00  0.00    -0.358 C  
HETATM   22  C   UNL     1     -11.845  12.954  67.088  1.00  0.00    -0.424 C  
HETATM   23  C   UNL     1     -11.901  12.861  69.582  1.00  0.00    -0.387 C  
ENDBRANCH  19  21
ENDBRANCH  18  19
ENDBRANCH  15  18
ENDBRANCH  14  15
ENDBRANCH  13  14
ENDBRANCH  10  13
ENDBRANCH   6   7
ENDBRANCH   5   6
ENDBRANCH   3   5
ENDBRANCH   2   3
TORSDOF 10
ENDMDL
MODEL      206
REMARK 921   NORMALIZED FREE ENERGY PREDICTED BY IDOCK:   -3.49 KCAL/MOL
REMARK 922        TOTAL FREE ENERGY PREDICTED BY IDOCK:   -6.40 KCAL/MOL
REMARK 923 INTER-LIGAND FREE ENERGY PREDICTED BY IDOCK:   -5.42 KCAL/MOL
REMARK 924 INTRA-LIGAND FREE ENERGY PREDICTED BY IDOCK:   -0.98 KCAL/MOL
REMARK 927      BINDING AFFINITY PREDICTED BY RF-SCORE:    0.00 PKD
ROOT
HETATM    1  C   UNL     1     -11.926  15.311  73.648  1.00  0.00    -0.406 C  
HETATM    2  O   UNL     1     -12.922  15.964  72.863  1.00  0.00    -0.439 OA 
ENDROOT
BRANCH   2   3
HETATM    3  C   UNL     1     -13.482  15.172  71.905  1.00  0.00    -0.424 C  
HETATM    4  O   UNL     1     -14.394  15.504  71.159  1.00  0.00    -0.516 OA 
BRANCH   3   5
HETATM    5  C   UNL     1     -12.819  13.826  71.927  1.00  0.00    -0.400 C  
BRANCH   5   6
HETATM    6  C   UNL     1     -13.145  12.992  70.684  1.00  0.00     0.179 C  
BRANCH   6   7
HETATM    7  C   UNL     1     -12.003  12.922  69.694  1.00  0.00    -0.358 A  
HETATM    8  C   UNL     1     -11.219  11.773  69.586  1.00  0.00    -0.225 A  
HETATM    9  C   UNL     1     -10.158  11.710  68.690  1.00  0.00    -0.206 A  
HETATM   10  C   UNL     1      -9.858  12.789  67.859  1.00  0.00    -0.223 A  
HETATM   11  C   UNL     1     -11.734  13.995  68.829  1.00  0.00    -0.388 A  
HETATM   12  C   UNL     1     -10.663  13.928  67.922  1.00  0.00    -0.248 A  
BRANCH  10  13
HETATM   13  O   UNL     1      -8.814  12.809  66.964  1.00  0.00    -0.206 OA 
BRANCH  13  14
HETATM   14  C   UNL     1      -7.514  12.733  67.575  1.00  0.00    -0.154 C  
BRANCH  14  15
HETATM   15  C   UNL     1      -6.617  11.722  66.857  1.00  0.00    -0.114 C  
HETATM   16  O   UNL     1      -5.694  11.149  67.791  1.00  0.00    -0.043 OA 
HETATM   17  H   UNL     1      -5.137  10.522  67.346  1.00  0.00     0.000 HD 
BRANCH  15  18
HETATM   18  C   UNL     1      -7.415  10.603  66.166  1.00  0.00    -0.138 C  
BRANCH  18  19
HETATM   19  N   UNL     1      -7.796  10.966  64.796  1.00  0.00    -0.338 NA 
HETATM   20  H   UNL     1      -6.970  11.059  64.206  1.00  0.00     0.000 HD 
BRANCH  19  21
HETATM   21  C   UNL     1      -8.765  10.047  64.189  1.00  0.00    -0.205 C  
HETATM   22  C   UNL     1      -9.737   9.446  65.207  1.00  0.00    -0.184 C  
HETATM   23  C   UNL     1      -9.557  10.830  63.137  1.00  0.00    -0.385 C  
ENDBRANCH  19  21
ENDBRANCH  18  19
ENDBRANCH  15  18
ENDBRANCH  14  15
ENDBRANCH  13  14
ENDBRANCH  10  13
ENDBRANCH   6   7
ENDBRANCH   5   6
ENDBRANCH   3   5
ENDBRANCH   2   3
TORSDOF 10
ENDMDL
MODEL      207
REMARK 921   NORMALIZED FREE ENERGY PREDICTED BY IDOCK:   -3.48 KCAL/MOL
REMARK 922        TOTAL FREE ENERGY PREDICTED BY IDOCK:   -6.39 KCAL/MOL
REMARK 923 INTER-LIGAND FREE ENERGY PREDICTED BY IDOCK:   -5.83 KCAL/MOL
REMARK 924 INTRA-LIGAND FREE ENERGY PREDICTED BY IDOCK:   -0.56 KCAL/MOL
REMARK 927      BINDING AFFINITY PREDICTED BY RF-SCORE:    0.00 PKD
ROOT
HETATM    1  C   UNL     1      -7.666  17.901  68.050  1.00  0.00    -0.245 C  
HETATM    2  O   UNL     1      -8.810  18.732  68.226  1.00  0.00    -0.311 OA 
ENDROOT
BRANCH   2   3
HETATM    3  C   UNL     1      -9.976  18.175  67.792  1.00  0.00    -0.327 C  
HETATM    4  O   UNL     1     -10.766  18.701  67.019  1.00  0.00    -0.408 OA 
BRANCH   3   5
HETATM    5  C   UNL     1     -10.144  16.826  68.428  1.00  0.00    -0.285 C  
BRANCH   5   6
HETATM    6  C   UNL     1     -11.425  16.119  67.974  1.00  0.00    -0.163 C  
BRANCH   6   7
HETATM    7  C   UNL     1     -11.181  14.729  67.430  1.00  0.00    -0.346 A  
HETATM    8  C   UNL     1     -10.103  13.965  67.877  1.00  0.00    -0.242 A  
HETATM    9  C   UNL     1      -9.864  12.694  67.368  1.00  0.00    -0.205 A  
HETATM   10  C   UNL     1     -10.708  12.138  66.407  1.00  0.00    -0.257 A  
HETATM   11  C   UNL     1     -12.060  14.157  66.494  1.00  0.00    -0.481 A  
HETATM   12  C   UNL     1     -11.819  12.871  65.984  1.00  0.00    -0.485 A  
BRANCH  10  13
HETATM   13  O   UNL     1     -10.525  10.898  65.841  1.00  0.00    -0.254 OA 
BRANCH  13  14
HETATM   14  C   UNL     1     -10.617  10.886  64.406  1.00  0.00    -0.273 C  
BRANCH  14  15
HETATM   15  C   UNL     1      -9.243  10.694  63.759  1.00  0.00    -0.254 C  
HETATM   16  O   UNL     1      -8.914  11.850  62.979  1.00  0.00    -0.658 OA 
HETATM   17  H   UNL     1      -8.061  11.731  62.577  1.00  0.00     0.000 HD 
BRANCH  15  18
HETATM   18  C   UNL     1      -8.130  10.431  64.789  1.00  0.00    -0.124 C  
BRANCH  18  19
HETATM   19  N   UNL     1      -6.808  10.348  64.159  1.00  0.00    -0.323 NA 
HETATM   20  H   UNL     1      -6.344  11.257  64.175  1.00  0.00     0.000 HD 
BRANCH  19  21
HETATM   21  C   UNL     1      -5.941   9.316  64.738  1.00  0.00    -0.066 C  
HETATM   22  C   UNL     1      -6.575   8.609  65.939  1.00  0.00    -0.057 C  
HETATM   23  C   UNL     1      -5.647   8.285  63.644  1.00  0.00    -0.062 C  
ENDBRANCH  19  21
ENDBRANCH  18  19
ENDBRANCH  15  18
ENDBRANCH  14  15
ENDBRANCH  13  14
ENDBRANCH  10  13
ENDBRANCH   6   7
ENDBRANCH   5   6
ENDBRANCH   3   5
ENDBRANCH   2   3
TORSDOF 10
ENDMDL
MODEL      208
REMARK 921   NORMALIZED FREE ENERGY PREDICTED BY IDOCK:   -3.48 KCAL/MOL
REMARK 922        TOTAL FREE ENERGY PREDICTED BY IDOCK:   -6.38 KCAL/MOL
REMARK 923 INTER-LIGAND FREE ENERGY PREDICTED BY IDOCK:   -5.51 KCAL/MOL
REMARK 924 INTRA-LIGAND FREE ENERGY PREDICTED BY IDOCK:   -0.87 KCAL/MOL
REMARK 927      BINDING AFFINITY PREDICTED BY RF-SCORE:    0.00 PKD
ROOT
HETATM    1  C   UNL     1      -8.704   3.158  67.001  1.00  0.00    -0.124 C  
HETATM    2  O   UNL     1      -7.779   3.925  67.768  1.00  0.00    -0.070 OA 
ENDROOT
BRANCH   2   3
HETATM    3  C   UNL     1      -8.127   4.068  69.079  1.00  0.00    -0.069 C  
HETATM    4  O   UNL     1      -7.348   4.296  69.995  1.00  0.00    -0.045 OA 
BRANCH   3   5
HETATM    5  C   UNL     1      -9.609   3.881  69.218  1.00  0.00    -0.232 C  
BRANCH   5   6
HETATM    6  C   UNL     1     -10.282   5.055  69.939  1.00  0.00    -0.340 C  
BRANCH   6   7
HETATM    7  C   UNL     1     -10.353   6.311  69.099  1.00  0.00    -0.262 A  
HETATM    8  C   UNL     1     -10.742   6.256  67.760  1.00  0.00    -0.383 A  
HETATM    9  C   UNL     1     -10.792   7.404  66.979  1.00  0.00    -0.307 A  
HETATM   10  C   UNL     1     -10.471   8.650  67.517  1.00  0.00    -0.266 A  
HETATM   11  C   UNL     1     -10.071   7.568  69.658  1.00  0.00    -0.189 A  
HETATM   12  C   UNL     1     -10.126   8.729  68.868  1.00  0.00    -0.210 A  
BRANCH  10  13
HETATM   13  O   UNL     1     -10.477   9.826  66.804  1.00  0.00    -0.231 OA 
BRANCH  13  14
HETATM   14  C   UNL     1     -10.669  11.002  67.610  1.00  0.00    -0.238 C  
BRANCH  14  15
HETATM   15  C   UNL     1      -9.702  12.119  67.209  1.00  0.00    -0.191 C  
HETATM   16  O   UNL     1      -8.601  11.562  66.480  1.00  0.00    -0.173 OA 
HETATM   17  H   UNL     1      -8.000  12.255  66.231  1.00  0.00     0.000 HD 
BRANCH  15  18
HETATM   18  C   UNL     1     -10.376  13.218  66.368  1.00  0.00    -0.286 C  
BRANCH  18  19
HETATM   19  N   UNL     1     -10.101  13.059  64.936  1.00  0.00    -0.499 NA 
HETATM   20  H   UNL     1      -9.662  12.157  64.752  1.00  0.00     0.000 HD 
BRANCH  19  21
HETATM   21  C   UNL     1     -11.281  13.243  64.084  1.00  0.00    -0.379 C  
HETATM   22  C   UNL     1     -12.117  11.969  63.939  1.00  0.00    -0.557 C  
HETATM   23  C   UNL     1     -12.143  14.343  64.709  1.00  0.00    -0.462 C  
ENDBRANCH  19  21
ENDBRANCH  18  19
ENDBRANCH  15  18
ENDBRANCH  14  15
ENDBRANCH  13  14
ENDBRANCH  10  13
ENDBRANCH   6   7
ENDBRANCH   5   6
ENDBRANCH   3   5
ENDBRANCH   2   3
TORSDOF 10
ENDMDL
MODEL      209
REMARK 921   NORMALIZED FREE ENERGY PREDICTED BY IDOCK:   -3.47 KCAL/MOL
REMARK 922        TOTAL FREE ENERGY PREDICTED BY IDOCK:   -6.38 KCAL/MOL
REMARK 923 INTER-LIGAND FREE ENERGY PREDICTED BY IDOCK:   -5.76 KCAL/MOL
REMARK 924 INTRA-LIGAND FREE ENERGY PREDICTED BY IDOCK:   -0.61 KCAL/MOL
REMARK 927      BINDING AFFINITY PREDICTED BY RF-SCORE:    0.00 PKD
ROOT
HETATM    1  C   UNL     1     -11.951   9.256  71.175  1.00  0.00    -0.322 C  
HETATM    2  O   UNL     1     -10.787  10.047  70.949  1.00  0.00    -0.319 OA 
ENDROOT
BRANCH   2   3
HETATM    3  C   UNL     1      -9.739   9.355  70.418  1.00  0.00    -0.261 C  
HETATM    4  O   UNL     1      -8.699   9.086  71.006  1.00  0.00    -0.198 OA 
BRANCH   3   5
HETATM    5  C   UNL     1     -10.055   8.997  68.995  1.00  0.00    -0.204 C  
BRANCH   5   6
HETATM    6  C   UNL     1      -9.282   9.856  67.989  1.00  0.00    -0.129 C  
BRANCH   6   7
HETATM    7  C   UNL     1      -9.938  11.192  67.715  1.00  0.00    -0.193 A  
HETATM    8  C   UNL     1     -11.185  11.262  67.092  1.00  0.00    -0.344 A  
HETATM    9  C   UNL     1     -11.785  12.486  66.822  1.00  0.00    -0.453 A  
HETATM   10  C   UNL     1     -11.164  13.682  67.183  1.00  0.00    -0.309 A  
HETATM   11  C   UNL     1      -9.329  12.391  68.120  1.00  0.00    -0.209 A  
HETATM   12  C   UNL     1      -9.939  13.627  67.849  1.00  0.00    -0.244 A  
BRANCH  10  13
HETATM   13  O   UNL     1     -11.684  14.929  66.931  1.00  0.00    -0.343 OA 
BRANCH  13  14
HETATM   14  C   UNL     1     -10.886  16.013  67.439  1.00  0.00    -0.277 C  
BRANCH  14  15
HETATM   15  C   UNL     1      -9.846  16.470  66.413  1.00  0.00    -0.293 C  
HETATM   16  O   UNL     1     -10.499  16.812  65.185  1.00  0.00    -0.658 OA 
HETATM   17  H   UNL     1      -9.854  17.095  64.548  1.00  0.00     0.000 HD 
BRANCH  15  18
HETATM   18  C   UNL     1      -9.010  17.666  66.904  1.00  0.00    -0.246 C  
BRANCH  18  19
HETATM   19  N   UNL     1      -8.294  17.361  68.148  1.00  0.00    -0.232 NA 
HETATM   20  H   UNL     1      -8.952  17.170  68.904  1.00  0.00     0.000 HD 
BRANCH  19  21
HETATM   21  C   UNL     1      -7.325  16.267  68.020  1.00  0.00    -0.132 C  
HETATM   22  C   UNL     1      -6.062  16.675  67.257  1.00  0.00    -0.195 C  
HETATM   23  C   UNL     1      -6.938  15.816  69.431  1.00  0.00    -0.202 C  
ENDBRANCH  19  21
ENDBRANCH  18  19
ENDBRANCH  15  18
ENDBRANCH  14  15
ENDBRANCH  13  14
ENDBRANCH  10  13
ENDBRANCH   6   7
ENDBRANCH   5   6
ENDBRANCH   3   5
ENDBRANCH   2   3
TORSDOF 10
ENDMDL
MODEL      210
REMARK 921   NORMALIZED FREE ENERGY PREDICTED BY IDOCK:   -3.47 KCAL/MOL
REMARK 922        TOTAL FREE ENERGY PREDICTED BY IDOCK:   -6.37 KCAL/MOL
REMARK 923 INTER-LIGAND FREE ENERGY PREDICTED BY IDOCK:   -5.79 KCAL/MOL
REMARK 924 INTRA-LIGAND FREE ENERGY PREDICTED BY IDOCK:   -0.58 KCAL/MOL
REMARK 927      BINDING AFFINITY PREDICTED BY RF-SCORE:    0.00 PKD
ROOT
HETATM    1  C   UNL     1      -8.855  17.335  66.035  1.00  0.00    -0.084 C  
HETATM    2  O   UNL     1     -10.260  17.463  65.835  1.00  0.00    -0.499 OA 
ENDROOT
BRANCH   2   3
HETATM    3  C   UNL     1     -10.783  16.554  64.963  1.00  0.00    -0.209 C  
HETATM    4  O   UNL     1     -11.437  16.828  63.965  1.00  0.00    -1.198 OA 
BRANCH   3   5
HETATM    5  C   UNL     1     -10.446  15.169  65.434  1.00  0.00    -0.416 C  
BRANCH   5   6
HETATM    6  C   UNL     1     -11.032  14.862  66.816  1.00  0.00    -0.326 C  
BRANCH   6   7
HETATM    7  C   UNL     1     -10.800  13.434  67.259  1.00  0.00    -0.278 A  
HETATM    8  C   UNL     1      -9.508  12.919  67.368  1.00  0.00    -0.198 A  
HETATM    9  C   UNL     1      -9.290  11.603  67.758  1.00  0.00    -0.178 A  
HETATM   10  C   UNL     1     -10.359  10.763  68.071  1.00  0.00    -0.182 A  
HETATM   11  C   UNL     1     -11.878  12.607  67.615  1.00  0.00    -0.390 A  
HETATM   12  C   UNL     1     -11.655  11.278  68.013  1.00  0.00    -0.343 A  
BRANCH  10  13
HETATM   13  O   UNL     1     -10.224   9.447  68.443  1.00  0.00    -0.182 OA 
BRANCH  13  14
HETATM   14  C   UNL     1      -9.007   8.828  67.991  1.00  0.00    -0.140 C  
BRANCH  14  15
HETATM   15  C   UNL     1      -9.238   7.998  66.725  1.00  0.00    -0.165 C  
HETATM   16  O   UNL     1     -10.637   7.730  66.576  1.00  0.00    -0.470 OA 
HETATM   17  H   UNL     1     -10.781   7.214  65.790  1.00  0.00     0.000 HD 
BRANCH  15  18
HETATM   18  C   UNL     1      -8.704   8.685  65.456  1.00  0.00    -0.186 C  
BRANCH  18  19
HETATM   19  N   UNL     1      -7.343   9.201  65.643  1.00  0.00    -0.085 NA 
HETATM   20  H   UNL     1      -6.696   8.441  65.854  1.00  0.00     0.000 HD 
BRANCH  19  21
HETATM   21  C   UNL     1      -6.852   9.996  64.512  1.00  0.00    -0.127 C  
HETATM   22  C   UNL     1      -5.612  10.823  64.858  1.00  0.00    -0.046 C  
HETATM   23  C   UNL     1      -6.513   9.031  63.372  1.00  0.00    -0.090 C  
ENDBRANCH  19  21
ENDBRANCH  18  19
ENDBRANCH  15  18
ENDBRANCH  14  15
ENDBRANCH  13  14
ENDBRANCH  10  13
ENDBRANCH   6   7
ENDBRANCH   5   6
ENDBRANCH   3   5
ENDBRANCH   2   3
TORSDOF 10
ENDMDL
MODEL      211
REMARK 921   NORMALIZED FREE ENERGY PREDICTED BY IDOCK:   -3.47 KCAL/MOL
REMARK 922        TOTAL FREE ENERGY PREDICTED BY IDOCK:   -6.37 KCAL/MOL
REMARK 923 INTER-LIGAND FREE ENERGY PREDICTED BY IDOCK:   -5.22 KCAL/MOL
REMARK 924 INTRA-LIGAND FREE ENERGY PREDICTED BY IDOCK:   -1.15 KCAL/MOL
REMARK 927      BINDING AFFINITY PREDICTED BY RF-SCORE:    0.00 PKD
ROOT
HETATM    1  C   UNL     1     -10.402   4.748  66.033  1.00  0.00    -0.293 C  
HETATM    2  O   UNL     1      -9.612   5.927  66.155  1.00  0.00    -0.149 OA 
ENDROOT
BRANCH   2   3
HETATM    3  C   UNL     1      -8.311   5.693  66.488  1.00  0.00    -0.110 C  
HETATM    4  O   UNL     1      -7.683   4.679  66.211  1.00  0.00    -0.089 OA 
BRANCH   3   5
HETATM    5  C   UNL     1      -7.781   6.865  67.262  1.00  0.00    -0.109 C  
BRANCH   5   6
HETATM    6  C   UNL     1      -8.313   8.203  66.736  1.00  0.00    -0.115 C  
BRANCH   6   7
HETATM    7  C   UNL     1      -9.173   8.940  67.739  1.00  0.00    -0.153 A  
HETATM    8  C   UNL     1      -8.614   9.493  68.891  1.00  0.00    -0.128 A  
HETATM    9  C   UNL     1      -9.402  10.157  69.824  1.00  0.00    -0.183 A  
HETATM   10  C   UNL     1     -10.775  10.304  69.625  1.00  0.00    -0.264 A  
HETATM   11  C   UNL     1     -10.547   9.123  67.512  1.00  0.00    -0.317 A  
HETATM   12  C   UNL     1     -11.342   9.797  68.454  1.00  0.00     0.027 A  
BRANCH  10  13
HETATM   13  O   UNL     1     -11.622  10.928  70.511  1.00  0.00    -0.322 OA 
BRANCH  13  14
HETATM   14  C   UNL     1     -12.832  10.198  70.781  1.00  0.00    -0.308 C  
BRANCH  14  15
HETATM   15  C   UNL     1     -12.798   9.553  72.169  1.00  0.00    -0.389 C  
HETATM   16  O   UNL     1     -14.092   9.652  72.777  1.00  0.00    -0.752 OA 
HETATM   17  H   UNL     1     -14.070   9.252  73.639  1.00  0.00     0.000 HD 
BRANCH  15  18
HETATM   18  C   UNL     1     -12.355   8.080  72.131  1.00  0.00    -0.315 C  
BRANCH  18  19
HETATM   19  N   UNL     1     -10.941   7.941  71.766  1.00  0.00    -0.236 NA 
HETATM   20  H   UNL     1     -10.340   8.198  72.549  1.00  0.00     0.000 HD 
BRANCH  19  21
HETATM   21  C   UNL     1     -10.590   6.609  71.260  1.00  0.00    -0.223 C  
HETATM   22  C   UNL     1     -10.993   5.483  72.214  1.00  0.00    -0.296 C  
HETATM   23  C   UNL     1     -11.303   6.415  69.919  1.00  0.00    -0.500 C  
ENDBRANCH  19  21
ENDBRANCH  18  19
ENDBRANCH  15  18
ENDBRANCH  14  15
ENDBRANCH  13  14
ENDBRANCH  10  13
ENDBRANCH   6   7
ENDBRANCH   5   6
ENDBRANCH   3   5
ENDBRANCH   2   3
TORSDOF 10
ENDMDL
MODEL      212
REMARK 921   NORMALIZED FREE ENERGY PREDICTED BY IDOCK:   -3.47 KCAL/MOL
REMARK 922        TOTAL FREE ENERGY PREDICTED BY IDOCK:   -6.37 KCAL/MOL
REMARK 923 INTER-LIGAND FREE ENERGY PREDICTED BY IDOCK:   -5.78 KCAL/MOL
REMARK 924 INTRA-LIGAND FREE ENERGY PREDICTED BY IDOCK:   -0.59 KCAL/MOL
REMARK 927      BINDING AFFINITY PREDICTED BY RF-SCORE:    0.00 PKD
ROOT
HETATM    1  C   UNL     1      -7.722  19.968  67.536  1.00  0.00    -0.298 C  
HETATM    2  O   UNL     1      -8.944  20.430  66.965  1.00  0.00    -0.341 OA 
ENDROOT
BRANCH   2   3
HETATM    3  C   UNL     1      -9.937  19.496  66.946  1.00  0.00    -0.386 C  
HETATM    4  O   UNL     1     -11.090  19.684  67.313  1.00  0.00    -0.417 OA 
BRANCH   3   5
HETATM    5  C   UNL     1      -9.386  18.201  66.426  1.00  0.00    -0.274 C  
BRANCH   5   6
HETATM    6  C   UNL     1     -10.488  17.230  65.987  1.00  0.00    -0.285 C  
BRANCH   6   7
HETATM    7  C   UNL     1     -10.380  15.868  66.636  1.00  0.00    -0.302 A  
HETATM    8  C   UNL     1      -9.685  15.701  67.835  1.00  0.00    -0.211 A  
HETATM    9  C   UNL     1      -9.568  14.449  68.428  1.00  0.00    -0.219 A  
HETATM   10  C   UNL     1     -10.158  13.326  67.849  1.00  0.00    -0.235 A  
HETATM   11  C   UNL     1     -11.013  14.749  66.072  1.00  0.00    -0.328 A  
HETATM   12  C   UNL     1     -10.896  13.485  66.675  1.00  0.00    -0.283 A  
BRANCH  10  13
HETATM   13  O   UNL     1     -10.068  12.053  68.363  1.00  0.00    -0.204 OA 
BRANCH  13  14
HETATM   14  C   UNL     1     -11.340  11.437  68.632  1.00  0.00    -0.265 C  
BRANCH  14  15
HETATM   15  C   UNL     1     -11.431  10.951  70.082  1.00  0.00    -0.319 C  
HETATM   16  O   UNL     1     -12.621  11.468  70.688  1.00  0.00    -0.304 OA 
HETATM   17  H   UNL     1     -12.678  11.168  71.587  1.00  0.00     0.000 HD 
BRANCH  15  18
HETATM   18  C   UNL     1     -11.415   9.417  70.198  1.00  0.00    -0.138 C  
BRANCH  18  19
HETATM   19  N   UNL     1     -10.049   8.881  70.203  1.00  0.00    -0.183 NA 
HETATM   20  H   UNL     1      -9.654   8.910  71.143  1.00  0.00     0.000 HD 
BRANCH  19  21
HETATM   21  C   UNL     1      -9.942   7.531  69.638  1.00  0.00    -0.184 C  
HETATM   22  C   UNL     1     -10.960   6.555  70.230  1.00  0.00    -0.365 C  
HETATM   23  C   UNL     1     -10.163   7.637  68.126  1.00  0.00    -0.236 C  
ENDBRANCH  19  21
ENDBRANCH  18  19
ENDBRANCH  15  18
ENDBRANCH  14  15
ENDBRANCH  13  14
ENDBRANCH  10  13
ENDBRANCH   6   7
ENDBRANCH   5   6
ENDBRANCH   3   5
ENDBRANCH   2   3
TORSDOF 10
ENDMDL
MODEL      213
REMARK 921   NORMALIZED FREE ENERGY PREDICTED BY IDOCK:   -3.43 KCAL/MOL
REMARK 922        TOTAL FREE ENERGY PREDICTED BY IDOCK:   -6.31 KCAL/MOL
REMARK 923 INTER-LIGAND FREE ENERGY PREDICTED BY IDOCK:   -5.11 KCAL/MOL
REMARK 924 INTRA-LIGAND FREE ENERGY PREDICTED BY IDOCK:   -1.19 KCAL/MOL
REMARK 927      BINDING AFFINITY PREDICTED BY RF-SCORE:    0.00 PKD
ROOT
HETATM    1  C   UNL     1      -8.753   7.538  66.209  1.00  0.00    -0.149 C  
HETATM    2  O   UNL     1      -7.346   7.325  66.124  1.00  0.00    -0.072 OA 
ENDROOT
BRANCH   2   3
HETATM    3  C   UNL     1      -6.616   8.072  67.000  1.00  0.00    -0.057 C  
HETATM    4  O   UNL     1      -5.405   8.242  66.946  1.00  0.00    -0.031 OA 
BRANCH   3   5
HETATM    5  C   UNL     1      -7.530   8.633  68.050  1.00  0.00    -0.097 C  
BRANCH   5   6
HETATM    6  C   UNL     1      -7.184  10.080  68.416  1.00  0.00    -0.073 C  
BRANCH   6   7
HETATM    7  C   UNL     1      -8.169  11.088  67.865  1.00  0.00    -0.119 A  
HETATM    8  C   UNL     1      -9.519  10.764  67.721  1.00  0.00    -0.165 A  
HETATM    9  C   UNL     1     -10.425  11.680  67.200  1.00  0.00    -0.252 A  
HETATM   10  C   UNL     1     -10.013  12.958  66.822  1.00  0.00    -0.243 A  
HETATM   11  C   UNL     1      -7.757  12.388  67.528  1.00  0.00    -0.161 A  
HETATM   12  C   UNL     1      -8.675  13.313  67.005  1.00  0.00    -0.192 A  
BRANCH  10  13
HETATM   13  O   UNL     1     -10.845  13.910  66.281  1.00  0.00    -0.288 OA 
BRANCH  13  14
HETATM   14  C   UNL     1     -10.289  14.602  65.149  1.00  0.00    -0.403 C  
BRANCH  14  15
HETATM   15  C   UNL     1     -10.335  16.120  65.344  1.00  0.00    -0.330 C  
HETATM   16  O   UNL     1     -11.113  16.715  64.298  1.00  0.00    -1.270 OA 
HETATM   17  H   UNL     1     -11.142  17.657  64.419  1.00  0.00     0.000 HD 
BRANCH  15  18
HETATM   18  C   UNL     1     -10.908  16.528  66.712  1.00  0.00    -0.070 C  
BRANCH  18  19
HETATM   19  N   UNL     1      -9.856  16.687  67.722  1.00  0.00    -0.247 NA 
HETATM   20  H   UNL     1      -9.444  17.619  67.669  1.00  0.00     0.000 HD 
BRANCH  19  21
HETATM   21  C   UNL     1     -10.300  16.395  69.090  1.00  0.00    -0.289 C  
HETATM   22  C   UNL     1     -11.713  15.811  69.146  1.00  0.00    -0.398 C  
HETATM   23  C   UNL     1      -9.314  15.392  69.698  1.00  0.00    -0.208 C  
ENDBRANCH  19  21
ENDBRANCH  18  19
ENDBRANCH  15  18
ENDBRANCH  14  15
ENDBRANCH  13  14
ENDBRANCH  10  13
ENDBRANCH   6   7
ENDBRANCH   5   6
ENDBRANCH   3   5
ENDBRANCH   2   3
TORSDOF 10
ENDMDL
MODEL      214
REMARK 921   NORMALIZED FREE ENERGY PREDICTED BY IDOCK:   -3.42 KCAL/MOL
REMARK 922        TOTAL FREE ENERGY PREDICTED BY IDOCK:   -6.29 KCAL/MOL
REMARK 923 INTER-LIGAND FREE ENERGY PREDICTED BY IDOCK:   -5.69 KCAL/MOL
REMARK 924 INTRA-LIGAND FREE ENERGY PREDICTED BY IDOCK:   -0.60 KCAL/MOL
REMARK 927      BINDING AFFINITY PREDICTED BY RF-SCORE:    0.00 PKD
ROOT
HETATM    1  C   UNL     1     -12.029  16.001  73.428  1.00  0.00    -0.410 C  
HETATM    2  O   UNL     1     -13.398  15.997  73.034  1.00  0.00    -0.532 OA 
ENDROOT
BRANCH   2   3
HETATM    3  C   UNL     1     -13.719  15.012  72.148  1.00  0.00    -0.453 C  
HETATM    4  O   UNL     1     -14.383  15.166  71.130  1.00  0.00    -0.420 OA 
BRANCH   3   5
HETATM    5  C   UNL     1     -13.149  13.710  72.630  1.00  0.00    -0.452 C  
BRANCH   5   6
HETATM    6  C   UNL     1     -13.895  12.498  72.063  1.00  0.00    -0.083 C  
BRANCH   6   7
HETATM    7  C   UNL     1     -12.974  11.378  71.630  1.00  0.00    -0.523 A  
HETATM    8  C   UNL     1     -11.888  11.629  70.791  1.00  0.00    -0.119 A  
HETATM    9  C   UNL     1     -11.049  10.601  70.376  1.00  0.00    -0.253 A  
HETATM   10  C   UNL     1     -11.258   9.290  70.804  1.00  0.00    -0.288 A  
HETATM   11  C   UNL     1     -13.164  10.068  72.099  1.00  0.00    -0.489 A  
HETATM   12  C   UNL     1     -12.312   9.031  71.682  1.00  0.00    -0.416 A  
BRANCH  10  13
HETATM   13  O   UNL     1     -10.486   8.219  70.421  1.00  0.00    -0.206 OA 
BRANCH  13  14
HETATM   14  C   UNL     1     -10.373   8.054  68.996  1.00  0.00    -0.218 C  
BRANCH  14  15
HETATM   15  C   UNL     1      -8.933   8.264  68.521  1.00  0.00    -0.137 C  
HETATM   16  O   UNL     1      -8.050   8.269  69.649  1.00  0.00    -0.112 OA 
HETATM   17  H   UNL     1      -7.157   8.400  69.354  1.00  0.00     0.000 HD 
BRANCH  15  18
HETATM   18  C   UNL     1      -8.477   7.196  67.511  1.00  0.00    -0.123 C  
BRANCH  18  19
HETATM   19  N   UNL     1      -7.741   6.106  68.161  1.00  0.00    -0.101 NA 
HETATM   20  H   UNL     1      -7.861   6.145  69.174  1.00  0.00     0.000 HD 
BRANCH  19  21
HETATM   21  C   UNL     1      -8.085   4.774  67.651  1.00  0.00    -0.097 C  
HETATM   22  C   UNL     1      -7.441   3.642  68.456  1.00  0.00    -0.054 C  
HETATM   23  C   UNL     1      -9.609   4.630  67.709  1.00  0.00    -0.203 C  
ENDBRANCH  19  21
ENDBRANCH  18  19
ENDBRANCH  15  18
ENDBRANCH  14  15
ENDBRANCH  13  14
ENDBRANCH  10  13
ENDBRANCH   6   7
ENDBRANCH   5   6
ENDBRANCH   3   5
ENDBRANCH   2   3
TORSDOF 10
ENDMDL
MODEL      215
REMARK 921   NORMALIZED FREE ENERGY PREDICTED BY IDOCK:   -3.41 KCAL/MOL
REMARK 922        TOTAL FREE ENERGY PREDICTED BY IDOCK:   -6.28 KCAL/MOL
REMARK 923 INTER-LIGAND FREE ENERGY PREDICTED BY IDOCK:   -5.37 KCAL/MOL
REMARK 924 INTRA-LIGAND FREE ENERGY PREDICTED BY IDOCK:   -0.91 KCAL/MOL
REMARK 927      BINDING AFFINITY PREDICTED BY RF-SCORE:    0.00 PKD
ROOT
HETATM    1  C   UNL     1     -11.495  15.229  70.506  1.00  0.00    -0.310 C  
HETATM    2  O   UNL     1     -12.020  15.777  69.300  1.00  0.00    -0.369 OA 
ENDROOT
BRANCH   2   3
HETATM    3  C   UNL     1     -11.236  15.563  68.205  1.00  0.00    -0.343 C  
HETATM    4  O   UNL     1     -10.167  16.116  67.983  1.00  0.00    -0.241 OA 
BRANCH   3   5
HETATM    5  C   UNL     1     -11.903  14.560  67.309  1.00  0.00    -0.419 C  
BRANCH   5   6
HETATM    6  C   UNL     1     -10.897  13.646  66.602  1.00  0.00    -0.283 C  
BRANCH   6   7
HETATM    7  C   UNL     1     -10.630  12.359  67.350  1.00  0.00    -0.237 A  
HETATM    8  C   UNL     1     -11.622  11.769  68.136  1.00  0.00    -0.391 A  
HETATM    9  C   UNL     1     -11.376  10.595  68.839  1.00  0.00    -0.337 A  
HETATM   10  C   UNL     1     -10.136   9.963  68.764  1.00  0.00    -0.174 A  
HETATM   11  C   UNL     1      -9.393  11.703  67.236  1.00  0.00    -0.170 A  
HETATM   12  C   UNL     1      -9.149  10.515  67.945  1.00  0.00    -0.136 A  
BRANCH  10  13
HETATM   13  O   UNL     1      -9.812   8.813  69.446  1.00  0.00    -0.179 OA 
BRANCH  13  14
HETATM   14  C   UNL     1     -10.255   7.604  68.804  1.00  0.00    -0.199 C  
BRANCH  14  15
HETATM   15  C   UNL     1      -9.453   6.391  69.283  1.00  0.00    -0.135 C  
HETATM   16  O   UNL     1      -8.123   6.454  68.754  1.00  0.00    -0.111 OA 
HETATM   17  H   UNL     1      -7.626   5.701  69.051  1.00  0.00     0.000 HD 
BRANCH  15  18
HETATM   18  C   UNL     1      -9.395   6.282  70.817  1.00  0.00    -0.158 C  
BRANCH  18  19
HETATM   19  N   UNL     1     -10.589   6.851  71.453  1.00  0.00    -0.218 NA 
HETATM   20  H   UNL     1     -11.306   6.136  71.576  1.00  0.00     0.000 HD 
BRANCH  19  21
HETATM   21  C   UNL     1     -10.315   7.532  72.723  1.00  0.00    -0.278 C  
HETATM   22  C   UNL     1     -10.379   6.592  73.929  1.00  0.00    -0.385 C  
HETATM   23  C   UNL     1      -8.913   8.143  72.634  1.00  0.00    -0.299 C  
ENDBRANCH  19  21
ENDBRANCH  18  19
ENDBRANCH  15  18
ENDBRANCH  14  15
ENDBRANCH  13  14
ENDBRANCH  10  13
ENDBRANCH   6   7
ENDBRANCH   5   6
ENDBRANCH   3   5
ENDBRANCH   2   3
TORSDOF 10
ENDMDL
MODEL      216
REMARK 921   NORMALIZED FREE ENERGY PREDICTED BY IDOCK:   -3.40 KCAL/MOL
REMARK 922        TOTAL FREE ENERGY PREDICTED BY IDOCK:   -6.27 KCAL/MOL
REMARK 923 INTER-LIGAND FREE ENERGY PREDICTED BY IDOCK:   -5.16 KCAL/MOL
REMARK 924 INTRA-LIGAND FREE ENERGY PREDICTED BY IDOCK:   -1.10 KCAL/MOL
REMARK 927      BINDING AFFINITY PREDICTED BY RF-SCORE:    0.00 PKD
ROOT
HETATM    1  C   UNL     1      -9.582  13.617  67.602  1.00  0.00    -0.221 C  
HETATM    2  O   UNL     1     -10.247  13.183  66.419  1.00  0.00    -0.273 OA 
ENDROOT
BRANCH   2   3
HETATM    3  C   UNL     1     -11.286  12.330  66.646  1.00  0.00    -0.343 C  
HETATM    4  O   UNL     1     -12.195  12.521  67.444  1.00  0.00    -0.430 OA 
BRANCH   3   5
HETATM    5  C   UNL     1     -11.125  11.115  65.780  1.00  0.00    -0.084 C  
BRANCH   5   6
HETATM    6  C   UNL     1      -9.722  10.507  65.879  1.00  0.00    -0.270 C  
BRANCH   6   7
HETATM    7  C   UNL     1      -9.566   9.550  67.040  1.00  0.00    -0.214 A  
HETATM    8  C   UNL     1      -8.343   9.420  67.700  1.00  0.00    -0.119 A  
HETATM    9  C   UNL     1      -8.189   8.530  68.757  1.00  0.00    -0.122 A  
HETATM   10  C   UNL     1      -9.259   7.753  69.200  1.00  0.00    -0.144 A  
HETATM   11  C   UNL     1     -10.658   8.803  67.510  1.00  0.00    -0.298 A  
HETATM   12  C   UNL     1     -10.501   7.907  68.581  1.00  0.00    -0.196 A  
BRANCH  10  13
HETATM   13  O   UNL     1      -9.179   6.838  70.223  1.00  0.00    -0.155 OA 
BRANCH  13  14
HETATM   14  C   UNL     1      -9.063   7.426  71.531  1.00  0.00    -0.139 C  
BRANCH  14  15
HETATM   15  C   UNL     1     -10.034   6.780  72.523  1.00  0.00    -0.169 C  
HETATM   16  O   UNL     1      -9.330   6.410  73.714  1.00  0.00    -0.129 OA 
HETATM   17  H   UNL     1      -9.933   6.009  74.330  1.00  0.00     0.000 HD 
BRANCH  15  18
HETATM   18  C   UNL     1     -11.216   7.697  72.884  1.00  0.00    -0.372 C  
BRANCH  18  19
HETATM   19  N   UNL     1     -11.227   8.921  72.074  1.00  0.00    -0.368 NA 
HETATM   20  H   UNL     1     -10.763   8.765  71.179  1.00  0.00     0.000 HD 
BRANCH  19  21
HETATM   21  C   UNL     1     -12.567   9.483  71.871  1.00  0.00    -0.396 C  
HETATM   22  C   UNL     1     -12.597  10.584  70.808  1.00  0.00    -0.474 C  
HETATM   23  C   UNL     1     -13.493   8.342  71.441  1.00  0.00    -0.247 C  
ENDBRANCH  19  21
ENDBRANCH  18  19
ENDBRANCH  15  18
ENDBRANCH  14  15
ENDBRANCH  13  14
ENDBRANCH  10  13
ENDBRANCH   6   7
ENDBRANCH   5   6
ENDBRANCH   3   5
ENDBRANCH   2   3
TORSDOF 10
ENDMDL
MODEL      217
REMARK 921   NORMALIZED FREE ENERGY PREDICTED BY IDOCK:   -3.39 KCAL/MOL
REMARK 922        TOTAL FREE ENERGY PREDICTED BY IDOCK:   -6.25 KCAL/MOL
REMARK 923 INTER-LIGAND FREE ENERGY PREDICTED BY IDOCK:   -5.55 KCAL/MOL
REMARK 924 INTRA-LIGAND FREE ENERGY PREDICTED BY IDOCK:   -0.70 KCAL/MOL
REMARK 927      BINDING AFFINITY PREDICTED BY RF-SCORE:    0.00 PKD
ROOT
HETATM    1  C   UNL     1     -10.563  19.994  65.734  1.00  0.00    -0.323 C  
HETATM    2  O   UNL     1     -10.144  20.433  67.024  1.00  0.00    -0.445 OA 
ENDROOT
BRANCH   2   3
HETATM    3  C   UNL     1     -10.182  19.463  67.981  1.00  0.00    -0.423 C  
HETATM    4  O   UNL     1     -10.115  19.659  69.188  1.00  0.00    -0.438 OA 
BRANCH   3   5
HETATM    5  C   UNL     1     -10.298  18.121  67.319  1.00  0.00    -0.399 C  
BRANCH   5   6
HETATM    6  C   UNL     1      -9.006  17.303  67.423  1.00  0.00    -0.224 C  
BRANCH   6   7
HETATM    7  C   UNL     1      -9.249  15.829  67.657  1.00  0.00    -0.200 A  
HETATM    8  C   UNL     1     -10.426  15.385  68.262  1.00  0.00    -0.241 A  
HETATM    9  C   UNL     1     -10.648  14.033  68.495  1.00  0.00    -0.260 A  
HETATM   10  C   UNL     1      -9.705  13.077  68.115  1.00  0.00    -0.228 A  
HETATM   11  C   UNL     1      -8.317  14.868  67.233  1.00  0.00    -0.233 A  
HETATM   12  C   UNL     1      -8.544  13.502  67.466  1.00  0.00    -0.193 A  
BRANCH  10  13
HETATM   13  O   UNL     1      -9.843  11.726  68.331  1.00  0.00    -0.193 OA 
BRANCH  13  14
HETATM   14  C   UNL     1     -11.067  11.171  67.819  1.00  0.00    -0.285 C  
BRANCH  14  15
HETATM   15  C   UNL     1     -10.860   9.745  67.300  1.00  0.00    -0.177 C  
HETATM   16  O   UNL     1     -10.090   9.780  66.092  1.00  0.00    -0.257 OA 
HETATM   17  H   UNL     1      -9.962   8.895  65.770  1.00  0.00     0.000 HD 
BRANCH  15  18
HETATM   18  C   UNL     1     -10.168   8.832  68.328  1.00  0.00    -0.201 C  
BRANCH  18  19
HETATM   19  N   UNL     1     -10.417   9.269  69.706  1.00  0.00    -0.212 NA 
HETATM   20  H   UNL     1     -11.414   9.417  69.862  1.00  0.00     0.000 HD 
BRANCH  19  21
HETATM   21  C   UNL     1      -9.863   8.367  70.722  1.00  0.00    -0.182 C  
HETATM   22  C   UNL     1     -10.901   7.922  71.754  1.00  0.00    -0.286 C  
HETATM   23  C   UNL     1      -9.307   7.136  70.001  1.00  0.00    -0.154 C  
ENDBRANCH  19  21
ENDBRANCH  18  19
ENDBRANCH  15  18
ENDBRANCH  14  15
ENDBRANCH  13  14
ENDBRANCH  10  13
ENDBRANCH   6   7
ENDBRANCH   5   6
ENDBRANCH   3   5
ENDBRANCH   2   3
TORSDOF 10
ENDMDL
MODEL      218
REMARK 921   NORMALIZED FREE ENERGY PREDICTED BY IDOCK:   -3.39 KCAL/MOL
REMARK 922        TOTAL FREE ENERGY PREDICTED BY IDOCK:   -6.25 KCAL/MOL
REMARK 923 INTER-LIGAND FREE ENERGY PREDICTED BY IDOCK:   -5.63 KCAL/MOL
REMARK 924 INTRA-LIGAND FREE ENERGY PREDICTED BY IDOCK:   -0.62 KCAL/MOL
REMARK 927      BINDING AFFINITY PREDICTED BY RF-SCORE:    0.00 PKD
ROOT
HETATM    1  C   UNL     1      -7.700  17.358  66.616  1.00  0.00    -0.258 C  
HETATM    2  O   UNL     1      -8.597  18.464  66.552  1.00  0.00    -0.268 OA 
ENDROOT
BRANCH   2   3
HETATM    3  C   UNL     1      -9.907  18.110  66.422  1.00  0.00    -0.353 C  
HETATM    4  O   UNL     1     -10.686  18.575  65.600  1.00  0.00    -0.549 OA 
BRANCH   3   5
HETATM    5  C   UNL     1     -10.244  17.078  67.459  1.00  0.00    -0.323 C  
BRANCH   5   6
HETATM    6  C   UNL     1     -11.227  16.024  66.938  1.00  0.00     0.065 C  
BRANCH   6   7
HETATM    7  C   UNL     1     -10.793  14.605  67.231  1.00  0.00    -0.305 A  
HETATM    8  C   UNL     1      -9.601  14.348  67.911  1.00  0.00    -0.219 A  
HETATM    9  C   UNL     1      -9.189  13.045  68.168  1.00  0.00    -0.212 A  
HETATM   10  C   UNL     1      -9.965  11.957  67.769  1.00  0.00    -0.186 A  
HETATM   11  C   UNL     1     -11.600  13.515  66.866  1.00  0.00    -0.398 A  
HETATM   12  C   UNL     1     -11.183  12.200  67.131  1.00  0.00    -0.372 A  
BRANCH  10  13
HETATM   13  O   UNL     1      -9.615  10.643  67.969  1.00  0.00    -0.153 OA 
BRANCH  13  14
HETATM   14  C   UNL     1     -10.498   9.925  68.848  1.00  0.00    -0.211 C  
BRANCH  14  15
HETATM   15  C   UNL     1     -10.885   8.564  68.264  1.00  0.00     0.072 C  
HETATM   16  O   UNL     1     -10.274   8.401  66.978  1.00  0.00    -0.250 OA 
HETATM   17  H   UNL     1     -10.514   7.557  66.615  1.00  0.00     0.000 HD 
BRANCH  15  18
HETATM   18  C   UNL     1     -10.490   7.389  69.176  1.00  0.00    -0.213 C  
BRANCH  18  19
HETATM   19  N   UNL     1     -11.664   6.671  69.685  1.00  0.00    -0.657 NA 
HETATM   20  H   UNL     1     -11.953   5.945  69.030  1.00  0.00     0.000 HD 
BRANCH  19  21
HETATM   21  C   UNL     1     -11.478   6.111  71.028  1.00  0.00    -0.248 C  
HETATM   22  C   UNL     1     -10.041   5.658  71.292  1.00  0.00    -0.261 C  
HETATM   23  C   UNL     1     -11.861   7.192  72.043  1.00  0.00    -0.333 C  
ENDBRANCH  19  21
ENDBRANCH  18  19
ENDBRANCH  15  18
ENDBRANCH  14  15
ENDBRANCH  13  14
ENDBRANCH  10  13
ENDBRANCH   6   7
ENDBRANCH   5   6
ENDBRANCH   3   5
ENDBRANCH   2   3
TORSDOF 10
ENDMDL
MODEL      219
REMARK 921   NORMALIZED FREE ENERGY PREDICTED BY IDOCK:   -3.37 KCAL/MOL
REMARK 922        TOTAL FREE ENERGY PREDICTED BY IDOCK:   -6.22 KCAL/MOL
REMARK 923 INTER-LIGAND FREE ENERGY PREDICTED BY IDOCK:   -5.31 KCAL/MOL
REMARK 924 INTRA-LIGAND FREE ENERGY PREDICTED BY IDOCK:   -0.92 KCAL/MOL
REMARK 927      BINDING AFFINITY PREDICTED BY RF-SCORE:    0.00 PKD
ROOT
HETATM    1  C   UNL     1      -8.113   3.557  70.008  1.00  0.00    -0.045 C  
HETATM    2  O   UNL     1      -8.505   4.779  69.389  1.00  0.00    -0.082 OA 
ENDROOT
BRANCH   2   3
HETATM    3  C   UNL     1      -8.138   4.883  68.080  1.00  0.00    -0.086 C  
HETATM    4  O   UNL     1      -7.168   4.333  67.573  1.00  0.00    -0.066 OA 
BRANCH   3   5
HETATM    5  C   UNL     1      -9.098   5.791  67.369  1.00  0.00    -0.110 C  
BRANCH   5   6
HETATM    6  C   UNL     1      -9.409   7.059  68.173  1.00  0.00    -0.125 C  
BRANCH   6   7
HETATM    7  C   UNL     1      -9.620   8.280  67.305  1.00  0.00    -0.215 A  
HETATM    8  C   UNL     1     -10.483   9.301  67.705  1.00  0.00    -0.325 A  
HETATM    9  C   UNL     1     -10.694  10.417  66.903  1.00  0.00    -0.272 A  
HETATM   10  C   UNL     1     -10.033  10.557  65.683  1.00  0.00    -0.270 A  
HETATM   11  C   UNL     1      -8.918   8.436  66.098  1.00  0.00    -0.218 A  
HETATM   12  C   UNL     1      -9.130   9.567  65.292  1.00  0.00    -0.276 A  
BRANCH  10  13
HETATM   13  O   UNL     1     -10.205  11.620  64.828  1.00  0.00    -0.250 OA 
BRANCH  13  14
HETATM   14  C   UNL     1     -11.397  12.387  65.075  1.00  0.00    -0.320 C  
BRANCH  14  15
HETATM   15  C   UNL     1     -11.286  13.797  64.489  1.00  0.00    -0.380 C  
HETATM   16  O   UNL     1     -12.570  14.223  64.015  1.00  0.00    -0.724 OA 
HETATM   17  H   UNL     1     -12.501  15.097  63.651  1.00  0.00     0.000 HD 
BRANCH  15  18
HETATM   18  C   UNL     1     -10.742  14.822  65.499  1.00  0.00    -0.357 C  
BRANCH  18  19
HETATM   19  N   UNL     1      -9.370  14.508  65.913  1.00  0.00    -0.527 NA 
HETATM   20  H   UNL     1      -8.696  14.947  65.286  1.00  0.00     0.000 HD 
BRANCH  19  21
HETATM   21  C   UNL     1      -9.080  14.855  67.309  1.00  0.00    -0.201 C  
HETATM   22  C   UNL     1      -9.345  16.328  67.625  1.00  0.00    -0.218 C  
HETATM   23  C   UNL     1      -9.964  13.980  68.202  1.00  0.00    -0.242 C  
ENDBRANCH  19  21
ENDBRANCH  18  19
ENDBRANCH  15  18
ENDBRANCH  14  15
ENDBRANCH  13  14
ENDBRANCH  10  13
ENDBRANCH   6   7
ENDBRANCH   5   6
ENDBRANCH   3   5
ENDBRANCH   2   3
TORSDOF 10
ENDMDL
MODEL      220
REMARK 921   NORMALIZED FREE ENERGY PREDICTED BY IDOCK:   -3.36 KCAL/MOL
REMARK 922        TOTAL FREE ENERGY PREDICTED BY IDOCK:   -6.20 KCAL/MOL
REMARK 923 INTER-LIGAND FREE ENERGY PREDICTED BY IDOCK:   -4.94 KCAL/MOL
REMARK 924 INTRA-LIGAND FREE ENERGY PREDICTED BY IDOCK:   -1.26 KCAL/MOL
REMARK 927      BINDING AFFINITY PREDICTED BY RF-SCORE:    0.00 PKD
ROOT
HETATM    1  C   UNL     1      -9.589   4.104  64.052  1.00  0.00    -0.142 C  
HETATM    2  O   UNL     1      -8.824   5.302  63.961  1.00  0.00    -0.069 OA 
ENDROOT
BRANCH   2   3
HETATM    3  C   UNL     1      -8.291   5.714  65.147  1.00  0.00    -0.146 C  
HETATM    4  O   UNL     1      -7.098   5.879  65.365  1.00  0.00    -0.062 OA 
BRANCH   3   5
HETATM    5  C   UNL     1      -9.397   5.911  66.142  1.00  0.00    -0.150 C  
BRANCH   5   6
HETATM    6  C   UNL     1      -8.873   6.265  67.538  1.00  0.00    -0.103 C  
BRANCH   6   7
HETATM    7  C   UNL     1      -9.412   7.577  68.064  1.00  0.00    -0.149 A  
HETATM    8  C   UNL     1     -10.436   8.250  67.396  1.00  0.00    -0.353 A  
HETATM    9  C   UNL     1     -10.923   9.464  67.865  1.00  0.00    -0.122 A  
HETATM   10  C   UNL     1     -10.414  10.036  69.031  1.00  0.00    -0.214 A  
HETATM   11  C   UNL     1      -8.925   8.127  69.262  1.00  0.00    -0.148 A  
HETATM   12  C   UNL     1      -9.422   9.352  69.737  1.00  0.00    -0.216 A  
BRANCH  10  13
HETATM   13  O   UNL     1     -10.829  11.242  69.545  1.00  0.00    -0.226 OA 
BRANCH  13  14
HETATM   14  C   UNL     1     -12.222  11.281  69.903  1.00  0.00    -0.288 C  
BRANCH  14  15
HETATM   15  C   UNL     1     -12.443  10.814  71.344  1.00  0.00    -0.373 C  
HETATM   16  O   UNL     1     -13.142  11.828  72.076  1.00  0.00    -0.467 OA 
HETATM   17  H   UNL     1     -13.278  11.538  72.970  1.00  0.00     0.000 HD 
BRANCH  15  18
HETATM   18  C   UNL     1     -13.219   9.487  71.428  1.00  0.00    -0.372 C  
BRANCH  18  19
HETATM   19  N   UNL     1     -12.762   8.656  72.548  1.00  0.00    -0.531 NA 
HETATM   20  H   UNL     1     -13.526   8.483  73.202  1.00  0.00     0.000 HD 
BRANCH  19  21
HETATM   21  C   UNL     1     -12.143   7.393  72.131  1.00  0.00    -0.252 C  
HETATM   22  C   UNL     1     -12.248   7.144  70.625  1.00  0.00    -0.245 C  
HETATM   23  C   UNL     1     -10.665   7.442  72.532  1.00  0.00    -0.315 C  
ENDBRANCH  19  21
ENDBRANCH  18  19
ENDBRANCH  15  18
ENDBRANCH  14  15
ENDBRANCH  13  14
ENDBRANCH  10  13
ENDBRANCH   6   7
ENDBRANCH   5   6
ENDBRANCH   3   5
ENDBRANCH   2   3
TORSDOF 10
ENDMDL
MODEL      221
REMARK 921   NORMALIZED FREE ENERGY PREDICTED BY IDOCK:   -3.35 KCAL/MOL
REMARK 922        TOTAL FREE ENERGY PREDICTED BY IDOCK:   -6.19 KCAL/MOL
REMARK 923 INTER-LIGAND FREE ENERGY PREDICTED BY IDOCK:   -5.48 KCAL/MOL
REMARK 924 INTRA-LIGAND FREE ENERGY PREDICTED BY IDOCK:   -0.71 KCAL/MOL
REMARK 927      BINDING AFFINITY PREDICTED BY RF-SCORE:    0.00 PKD
ROOT
HETATM    1  C   UNL     1      -6.992   3.224  71.688  1.00  0.00    -0.031 C  
HETATM    2  O   UNL     1      -7.853   4.192  72.282  1.00  0.00    -0.078 OA 
ENDROOT
BRANCH   2   3
HETATM    3  C   UNL     1      -9.123   3.746  72.501  1.00  0.00    -0.105 C  
HETATM    4  O   UNL     1      -9.739   2.982  71.769  1.00  0.00    -0.144 OA 
BRANCH   3   5
HETATM    5  C   UNL     1      -9.649   4.358  73.766  1.00  0.00    -0.141 C  
BRANCH   5   6
HETATM    6  C   UNL     1     -11.042   4.972  73.585  1.00  0.00    -0.336 C  
BRANCH   6   7
HETATM    7  C   UNL     1     -11.048   6.184  72.679  1.00  0.00    -0.308 A  
HETATM    8  C   UNL     1     -10.294   7.316  72.993  1.00  0.00    -0.334 A  
HETATM    9  C   UNL     1     -10.309   8.438  72.173  1.00  0.00    -0.397 A  
HETATM   10  C   UNL     1     -11.065   8.458  71.001  1.00  0.00    -0.258 A  
HETATM   11  C   UNL     1     -11.776   6.182  71.478  1.00  0.00    -0.264 A  
HETATM   12  C   UNL     1     -11.786   7.316  70.648  1.00  0.00    -0.290 A  
BRANCH  10  13
HETATM   13  O   UNL     1     -11.146   9.536  70.152  1.00  0.00    -0.239 OA 
BRANCH  13  14
HETATM   14  C   UNL     1      -9.875  10.122  69.820  1.00  0.00    -0.208 C  
BRANCH  14  15
HETATM   15  C   UNL     1      -9.878  10.698  68.401  1.00  0.00    -0.161 C  
HETATM   16  O   UNL     1      -8.895  10.022  67.606  1.00  0.00    -0.122 OA 
HETATM   17  H   UNL     1      -8.897  10.380  66.726  1.00  0.00     0.000 HD 
BRANCH  15  18
HETATM   18  C   UNL     1     -11.254  10.596  67.719  1.00  0.00    -0.313 C  
BRANCH  18  19
HETATM   19  N   UNL     1     -11.738  11.904  67.264  1.00  0.00    -0.577 NA 
HETATM   20  H   UNL     1     -11.514  12.628  67.947  1.00  0.00     0.000 HD 
BRANCH  19  21
HETATM   21  C   UNL     1     -11.253  12.283  65.932  1.00  0.00    -0.340 C  
HETATM   22  C   UNL     1     -12.385  12.523  64.931  1.00  0.00    -0.539 C  
HETATM   23  C   UNL     1     -10.430  13.566  66.081  1.00  0.00    -0.296 C  
ENDBRANCH  19  21
ENDBRANCH  18  19
ENDBRANCH  15  18
ENDBRANCH  14  15
ENDBRANCH  13  14
ENDBRANCH  10  13
ENDBRANCH   6   7
ENDBRANCH   5   6
ENDBRANCH   3   5
ENDBRANCH   2   3
TORSDOF 10
ENDMDL
MODEL      222
REMARK 921   NORMALIZED FREE ENERGY PREDICTED BY IDOCK:   -3.35 KCAL/MOL
REMARK 922        TOTAL FREE ENERGY PREDICTED BY IDOCK:   -6.18 KCAL/MOL
REMARK 923 INTER-LIGAND FREE ENERGY PREDICTED BY IDOCK:   -5.29 KCAL/MOL
REMARK 924 INTRA-LIGAND FREE ENERGY PREDICTED BY IDOCK:   -0.89 KCAL/MOL
REMARK 927      BINDING AFFINITY PREDICTED BY RF-SCORE:    0.00 PKD
ROOT
HETATM    1  C   UNL     1      -6.850  11.418  69.347  1.00  0.00    -0.112 C  
HETATM    2  O   UNL     1      -6.491  10.045  69.479  1.00  0.00    -0.044 OA 
ENDROOT
BRANCH   2   3
HETATM    3  C   UNL     1      -7.464   9.266  70.031  1.00  0.00    -0.094 C  
HETATM    4  O   UNL     1      -7.938   9.414  71.149  1.00  0.00    -0.322 OA 
BRANCH   3   5
HETATM    5  C   UNL     1      -7.843   8.188  69.057  1.00  0.00    -0.108 C  
BRANCH   5   6
HETATM    6  C   UNL     1      -9.360   8.084  68.860  1.00  0.00    -0.150 C  
BRANCH   6   7
HETATM    7  C   UNL     1      -9.927   9.190  67.997  1.00  0.00    -0.213 A  
HETATM    8  C   UNL     1     -10.642  10.245  68.565  1.00  0.00    -0.240 A  
HETATM    9  C   UNL     1     -11.180  11.255  67.775  1.00  0.00    -0.354 A  
HETATM   10  C   UNL     1     -11.005  11.250  66.392  1.00  0.00    -0.227 A  
HETATM   11  C   UNL     1      -9.710   9.204  66.610  1.00  0.00    -0.287 A  
HETATM   12  C   UNL     1     -10.252  10.227  65.814  1.00  0.00    -0.289 A  
BRANCH  10  13
HETATM   13  O   UNL     1     -11.524  12.200  65.544  1.00  0.00    -0.340 OA 
BRANCH  13  14
HETATM   14  C   UNL     1     -10.534  12.907  64.776  1.00  0.00    -0.350 C  
BRANCH  14  15
HETATM   15  C   UNL     1     -10.880  14.394  64.650  1.00  0.00    -0.346 C  
HETATM   16  O   UNL     1     -12.215  14.618  65.122  1.00  0.00    -0.356 OA 
HETATM   17  H   UNL     1     -12.430  15.540  65.043  1.00  0.00     0.000 HD 
BRANCH  15  18
HETATM   18  C   UNL     1      -9.902  15.300  65.417  1.00  0.00    -0.283 C  
BRANCH  18  19
HETATM   19  N   UNL     1      -8.885  14.525  66.137  1.00  0.00    -0.447 NA 
HETATM   20  H   UNL     1      -8.344  13.952  65.488  1.00  0.00     0.000 HD 
BRANCH  19  21
HETATM   21  C   UNL     1      -7.995  15.345  66.967  1.00  0.00    -0.224 C  
HETATM   22  C   UNL     1      -7.892  16.792  66.482  1.00  0.00    -0.338 C  
HETATM   23  C   UNL     1      -8.544  15.329  68.397  1.00  0.00    -0.160 C  
ENDBRANCH  19  21
ENDBRANCH  18  19
ENDBRANCH  15  18
ENDBRANCH  14  15
ENDBRANCH  13  14
ENDBRANCH  10  13
ENDBRANCH   6   7
ENDBRANCH   5   6
ENDBRANCH   3   5
ENDBRANCH   2   3
TORSDOF 10
ENDMDL
MODEL      223
REMARK 921   NORMALIZED FREE ENERGY PREDICTED BY IDOCK:   -3.34 KCAL/MOL
REMARK 922        TOTAL FREE ENERGY PREDICTED BY IDOCK:   -6.17 KCAL/MOL
REMARK 923 INTER-LIGAND FREE ENERGY PREDICTED BY IDOCK:   -5.88 KCAL/MOL
REMARK 924 INTRA-LIGAND FREE ENERGY PREDICTED BY IDOCK:   -0.29 KCAL/MOL
REMARK 927      BINDING AFFINITY PREDICTED BY RF-SCORE:    0.00 PKD
ROOT
HETATM    1  C   UNL     1      -7.164   4.268  65.409  1.00  0.00    -0.071 C  
HETATM    2  O   UNL     1      -8.535   4.572  65.170  1.00  0.00    -0.118 OA 
ENDROOT
BRANCH   2   3
HETATM    3  C   UNL     1      -9.296   4.636  66.300  1.00  0.00    -0.151 C  
HETATM    4  O   UNL     1      -9.536   3.694  67.044  1.00  0.00    -0.190 OA 
BRANCH   3   5
HETATM    5  C   UNL     1      -9.807   6.037  66.471  1.00  0.00    -0.186 C  
BRANCH   5   6
HETATM    6  C   UNL     1      -8.697   7.085  66.340  1.00  0.00    -0.148 C  
BRANCH   6   7
HETATM    7  C   UNL     1      -9.110   8.456  66.829  1.00  0.00    -0.192 A  
HETATM    8  C   UNL     1      -9.852   9.313  66.014  1.00  0.00    -0.363 A  
HETATM    9  C   UNL     1     -10.219  10.580  66.451  1.00  0.00    -0.296 A  
HETATM   10  C   UNL     1      -9.871  11.026  67.726  1.00  0.00    -0.173 A  
HETATM   11  C   UNL     1      -8.795   8.883  68.129  1.00  0.00    -0.134 A  
HETATM   12  C   UNL     1      -9.170  10.163  68.571  1.00  0.00    -0.144 A  
BRANCH  10  13
HETATM   13  O   UNL     1     -10.179  12.271  68.221  1.00  0.00    -0.209 OA 
BRANCH  13  14
HETATM   14  C   UNL     1     -11.582  12.587  68.187  1.00  0.00    -0.340 C  
BRANCH  14  15
HETATM   15  C   UNL     1     -12.135  12.827  69.594  1.00  0.00    -0.222 C  
HETATM   16  O   UNL     1     -11.505  11.931  70.518  1.00  0.00    -0.442 OA 
HETATM   17  H   UNL     1     -11.848  12.080  71.391  1.00  0.00     0.000 HD 
BRANCH  15  18
HETATM   18  C   UNL     1     -11.946  14.278  70.070  1.00  0.00    -0.334 C  
BRANCH  18  19
HETATM   19  N   UNL     1     -11.879  14.372  71.533  1.00  0.00    -0.433 NA 
HETATM   20  H   UNL     1     -10.917  14.512  71.841  1.00  0.00     0.000 HD 
BRANCH  19  21
HETATM   21  C   UNL     1     -12.759  15.400  72.100  1.00  0.00    -0.373 C  
HETATM   22  C   UNL     1     -14.244  15.078  71.924  1.00  0.00    -0.649 C  
HETATM   23  C   UNL     1     -12.441  15.515  73.594  1.00  0.00    -0.713 C  
ENDBRANCH  19  21
ENDBRANCH  18  19
ENDBRANCH  15  18
ENDBRANCH  14  15
ENDBRANCH  13  14
ENDBRANCH  10  13
ENDBRANCH   6   7
ENDBRANCH   5   6
ENDBRANCH   3   5
ENDBRANCH   2   3
TORSDOF 10
ENDMDL
MODEL      224
REMARK 921   NORMALIZED FREE ENERGY PREDICTED BY IDOCK:   -3.32 KCAL/MOL
REMARK 922        TOTAL FREE ENERGY PREDICTED BY IDOCK:   -6.13 KCAL/MOL
REMARK 923 INTER-LIGAND FREE ENERGY PREDICTED BY IDOCK:   -5.32 KCAL/MOL
REMARK 924 INTRA-LIGAND FREE ENERGY PREDICTED BY IDOCK:   -0.81 KCAL/MOL
REMARK 927      BINDING AFFINITY PREDICTED BY RF-SCORE:    0.00 PKD
ROOT
HETATM    1  C   UNL     1     -13.889  13.926  72.312  1.00  0.00    -0.571 C  
HETATM    2  O   UNL     1     -12.736  13.790  71.486  1.00  0.00    -0.343 OA 
ENDROOT
BRANCH   2   3
HETATM    3  C   UNL     1     -12.490  14.871  70.693  1.00  0.00    -0.352 C  
HETATM    4  O   UNL     1     -12.901  16.006  70.897  1.00  0.00    -0.393 OA 
BRANCH   3   5
HETATM    5  C   UNL     1     -11.654  14.443  69.521  1.00  0.00    -0.352 C  
BRANCH   5   6
HETATM    6  C   UNL     1     -11.981  13.020  69.058  1.00  0.00    -0.312 C  
BRANCH   6   7
HETATM    7  C   UNL     1     -10.907  12.414  68.182  1.00  0.00    -0.250 A  
HETATM    8  C   UNL     1      -9.906  11.610  68.729  1.00  0.00    -0.129 A  
HETATM    9  C   UNL     1      -8.907  11.066  67.932  1.00  0.00    -0.134 A  
HETATM   10  C   UNL     1      -8.886  11.293  66.556  1.00  0.00    -0.179 A  
HETATM   11  C   UNL     1     -10.916  12.610  66.791  1.00  0.00    -0.296 A  
HETATM   12  C   UNL     1      -9.907  12.056  65.986  1.00  0.00    -0.258 A  
BRANCH  10  13
HETATM   13  O   UNL     1      -7.921  10.806  65.706  1.00  0.00    -0.161 OA 
BRANCH  13  14
HETATM   14  C   UNL     1      -7.546   9.441  65.961  1.00  0.00    -0.099 C  
BRANCH  14  15
HETATM   15  C   UNL     1      -8.646   8.469  65.527  1.00  0.00    -0.180 C  
HETATM   16  O   UNL     1      -8.293   7.871  64.274  1.00  0.00    -0.334 OA 
HETATM   17  H   UNL     1      -8.975   7.268  64.004  1.00  0.00     0.000 HD 
BRANCH  15  18
HETATM   18  C   UNL     1      -8.913   7.367  66.568  1.00  0.00    -0.159 C  
BRANCH  18  19
HETATM   19  N   UNL     1     -10.077   7.676  67.407  1.00  0.00    -0.198 NA 
HETATM   20  H   UNL     1     -10.943   7.447  66.920  1.00  0.00     0.000 HD 
BRANCH  19  21
HETATM   21  C   UNL     1     -10.041   7.035  68.726  1.00  0.00    -0.170 C  
HETATM   22  C   UNL     1      -9.844   8.033  69.870  1.00  0.00    -0.186 C  
HETATM   23  C   UNL     1     -11.368   6.297  68.924  1.00  0.00    -0.269 C  
ENDBRANCH  19  21
ENDBRANCH  18  19
ENDBRANCH  15  18
ENDBRANCH  14  15
ENDBRANCH  13  14
ENDBRANCH  10  13
ENDBRANCH   6   7
ENDBRANCH   5   6
ENDBRANCH   3   5
ENDBRANCH   2   3
TORSDOF 10
ENDMDL
MODEL      225
REMARK 921   NORMALIZED FREE ENERGY PREDICTED BY IDOCK:   -3.30 KCAL/MOL
REMARK 922        TOTAL FREE ENERGY PREDICTED BY IDOCK:   -6.10 KCAL/MOL
REMARK 923 INTER-LIGAND FREE ENERGY PREDICTED BY IDOCK:   -5.56 KCAL/MOL
REMARK 924 INTRA-LIGAND FREE ENERGY PREDICTED BY IDOCK:   -0.54 KCAL/MOL
REMARK 927      BINDING AFFINITY PREDICTED BY RF-SCORE:    0.00 PKD
ROOT
HETATM    1  C   UNL     1      -7.671   5.207  68.286  1.00  0.00    -0.083 C  
HETATM    2  O   UNL     1      -8.490   6.373  68.314  1.00  0.00    -0.115 OA 
ENDROOT
BRANCH   2   3
HETATM    3  C   UNL     1      -7.869   7.500  67.863  1.00  0.00    -0.117 C  
HETATM    4  O   UNL     1      -6.677   7.594  67.603  1.00  0.00    -0.063 OA 
BRANCH   3   5
HETATM    5  C   UNL     1      -8.876   8.608  67.756  1.00  0.00    -0.137 C  
BRANCH   5   6
HETATM    6  C   UNL     1      -9.428   8.763  66.334  1.00  0.00    -0.291 C  
BRANCH   6   7
HETATM    7  C   UNL     1      -9.747  10.196  65.970  1.00  0.00    -0.285 A  
HETATM    8  C   UNL     1     -10.101  10.540  64.664  1.00  0.00    -0.408 A  
HETATM    9  C   UNL     1     -10.378  11.858  64.320  1.00  0.00    -0.362 A  
HETATM   10  C   UNL     1     -10.329  12.873  65.275  1.00  0.00    -0.300 A  
HETATM   11  C   UNL     1      -9.738  11.207  66.945  1.00  0.00    -0.216 A  
HETATM   12  C   UNL     1     -10.023  12.537  66.595  1.00  0.00    -0.243 A  
BRANCH  10  13
HETATM   13  O   UNL     1     -10.569  14.200  65.007  1.00  0.00    -0.368 OA 
BRANCH  13  14
HETATM   14  C   UNL     1      -9.719  15.109  65.727  1.00  0.00    -0.344 C  
BRANCH  14  15
HETATM   15  C   UNL     1     -10.492  16.345  66.196  1.00  0.00    -0.314 C  
HETATM   16  O   UNL     1     -11.224  16.030  67.387  1.00  0.00    -0.226 OA 
HETATM   17  H   UNL     1     -11.704  16.797  67.678  1.00  0.00     0.000 HD 
BRANCH  15  18
HETATM   18  C   UNL     1      -9.579  17.556  66.455  1.00  0.00    -0.285 C  
BRANCH  18  19
HETATM   19  N   UNL     1      -9.043  17.557  67.821  1.00  0.00    -0.246 NA 
HETATM   20  H   UNL     1      -8.210  16.970  67.881  1.00  0.00     0.000 HD 
BRANCH  19  21
HETATM   21  C   UNL     1      -8.768  18.899  68.348  1.00  0.00    -0.345 C  
HETATM   22  C   UNL     1      -7.282  19.140  68.621  1.00  0.00    -0.356 C  
HETATM   23  C   UNL     1      -9.263  19.917  67.316  1.00  0.00    -0.453 C  
ENDBRANCH  19  21
ENDBRANCH  18  19
ENDBRANCH  15  18
ENDBRANCH  14  15
ENDBRANCH  13  14
ENDBRANCH  10  13
ENDBRANCH   6   7
ENDBRANCH   5   6
ENDBRANCH   3   5
ENDBRANCH   2   3
TORSDOF 10
ENDMDL
MODEL      226
REMARK 921   NORMALIZED FREE ENERGY PREDICTED BY IDOCK:   -3.29 KCAL/MOL
REMARK 922        TOTAL FREE ENERGY PREDICTED BY IDOCK:   -6.08 KCAL/MOL
REMARK 923 INTER-LIGAND FREE ENERGY PREDICTED BY IDOCK:   -5.41 KCAL/MOL
REMARK 924 INTRA-LIGAND FREE ENERGY PREDICTED BY IDOCK:   -0.67 KCAL/MOL
REMARK 927      BINDING AFFINITY PREDICTED BY RF-SCORE:    0.00 PKD
ROOT
HETATM    1  C   UNL     1     -10.151   4.922  69.008  1.00  0.00    -0.140 C  
HETATM    2  O   UNL     1      -8.877   4.284  69.017  1.00  0.00    -0.087 OA 
ENDROOT
BRANCH   2   3
HETATM    3  C   UNL     1      -7.903   4.995  69.654  1.00  0.00    -0.067 C  
HETATM    4  O   UNL     1      -7.393   4.691  70.725  1.00  0.00    -0.050 OA 
BRANCH   3   5
HETATM    5  C   UNL     1      -7.576   6.216  68.846  1.00  0.00    -0.092 C  
BRANCH   5   6
HETATM    6  C   UNL     1      -7.618   7.500  69.681  1.00  0.00    -0.094 C  
BRANCH   6   7
HETATM    7  C   UNL     1      -8.769   8.413  69.316  1.00  0.00    -0.138 A  
HETATM    8  C   UNL     1      -9.281   8.433  68.018  1.00  0.00    -0.143 A  
HETATM    9  C   UNL     1     -10.327   9.282  67.673  1.00  0.00    -0.311 A  
HETATM   10  C   UNL     1     -10.906  10.125  68.620  1.00  0.00    -0.235 A  
HETATM   11  C   UNL     1      -9.377   9.228  70.284  1.00  0.00    -0.277 A  
HETATM   12  C   UNL     1     -10.436  10.082  69.934  1.00  0.00    -0.317 A  
BRANCH  10  13
HETATM   13  O   UNL     1     -11.927  11.006  68.350  1.00  0.00    -0.565 OA 
BRANCH  13  14
HETATM   14  C   UNL     1     -12.039  12.085  69.295  1.00  0.00    -0.190 C  
BRANCH  14  15
HETATM   15  C   UNL     1     -11.734  13.435  68.640  1.00  0.00    -0.349 C  
HETATM   16  O   UNL     1     -10.620  14.049  69.301  1.00  0.00    -0.389 OA 
HETATM   17  H   UNL     1     -10.431  14.887  68.894  1.00  0.00     0.000 HD 
BRANCH  15  18
HETATM   18  C   UNL     1     -11.440  13.314  67.134  1.00  0.00    -0.341 C  
BRANCH  18  19
HETATM   19  N   UNL     1     -12.320  14.172  66.333  1.00  0.00    -0.467 NA 
HETATM   20  H   UNL     1     -12.458  15.073  66.791  1.00  0.00     0.000 HD 
BRANCH  19  21
HETATM   21  C   UNL     1     -11.865  14.360  64.951  1.00  0.00    -0.417 C  
HETATM   22  C   UNL     1     -11.410  15.792  64.662  1.00  0.00    -0.343 C  
HETATM   23  C   UNL     1     -10.695  13.400  64.709  1.00  0.00    -0.403 C  
ENDBRANCH  19  21
ENDBRANCH  18  19
ENDBRANCH  15  18
ENDBRANCH  14  15
ENDBRANCH  13  14
ENDBRANCH  10  13
ENDBRANCH   6   7
ENDBRANCH   5   6
ENDBRANCH   3   5
ENDBRANCH   2   3
TORSDOF 10
ENDMDL
MODEL      227
REMARK 921   NORMALIZED FREE ENERGY PREDICTED BY IDOCK:   -3.28 KCAL/MOL
REMARK 922        TOTAL FREE ENERGY PREDICTED BY IDOCK:   -6.07 KCAL/MOL
REMARK 923 INTER-LIGAND FREE ENERGY PREDICTED BY IDOCK:   -4.58 KCAL/MOL
REMARK 924 INTRA-LIGAND FREE ENERGY PREDICTED BY IDOCK:   -1.50 KCAL/MOL
REMARK 927      BINDING AFFINITY PREDICTED BY RF-SCORE:    0.00 PKD
ROOT
HETATM    1  C   UNL     1      -8.240   8.058  63.417  1.00  0.00    -0.039 C  
HETATM    2  O   UNL     1      -7.830   8.574  64.681  1.00  0.00    -0.115 OA 
ENDROOT
BRANCH   2   3
HETATM    3  C   UNL     1      -7.020   9.668  64.599  1.00  0.00    -0.112 C  
HETATM    4  O   UNL     1      -6.503  10.088  63.572  1.00  0.00    -0.120 OA 
BRANCH   3   5
HETATM    5  C   UNL     1      -6.848  10.258  65.968  1.00  0.00    -0.119 C  
BRANCH   5   6
HETATM    6  C   UNL     1      -6.611   9.189  67.041  1.00  0.00    -0.064 C  
BRANCH   6   7
HETATM    7  C   UNL     1      -7.570   9.291  68.207  1.00  0.00    -0.083 A  
HETATM    8  C   UNL     1      -7.210   8.820  69.471  1.00  0.00    -0.059 A  
HETATM    9  C   UNL     1      -8.093   8.895  70.542  1.00  0.00    -0.145 A  
HETATM   10  C   UNL     1      -9.358   9.461  70.388  1.00  0.00    -0.268 A  
HETATM   11  C   UNL     1      -8.825   9.901  68.057  1.00  0.00    -0.125 A  
HETATM   12  C   UNL     1      -9.714   9.980  69.142  1.00  0.00    -0.217 A  
BRANCH  10  13
HETATM   13  O   UNL     1     -10.292   9.551  71.393  1.00  0.00    -0.302 OA 
BRANCH  13  14
HETATM   14  C   UNL     1     -11.582   9.016  71.048  1.00  0.00    -0.300 C  
BRANCH  14  15
HETATM   15  C   UNL     1     -11.841   7.683  71.755  1.00  0.00    -0.290 C  
HETATM   16  O   UNL     1     -13.091   7.743  72.453  1.00  0.00    -0.514 OA 
HETATM   17  H   UNL     1     -13.252   6.916  72.891  1.00  0.00     0.000 HD 
BRANCH  15  18
HETATM   18  C   UNL     1     -11.847   6.486  70.786  1.00  0.00    -0.332 C  
BRANCH  18  19
HETATM   19  N   UNL     1     -11.663   6.907  69.393  1.00  0.00    -0.567 NA 
HETATM   20  H   UNL     1     -11.329   7.870  69.350  1.00  0.00     0.000 HD 
BRANCH  19  21
HETATM   21  C   UNL     1     -10.787   6.021  68.618  1.00  0.00    -0.307 C  
HETATM   22  C   UNL     1     -10.444   6.581  67.236  1.00  0.00    -0.337 C  
HETATM   23  C   UNL     1      -9.495   5.825  69.418  1.00  0.00    -0.162 C  
ENDBRANCH  19  21
ENDBRANCH  18  19
ENDBRANCH  15  18
ENDBRANCH  14  15
ENDBRANCH  13  14
ENDBRANCH  10  13
ENDBRANCH   6   7
ENDBRANCH   5   6
ENDBRANCH   3   5
ENDBRANCH   2   3
TORSDOF 10
ENDMDL
MODEL      228
REMARK 921   NORMALIZED FREE ENERGY PREDICTED BY IDOCK:   -3.27 KCAL/MOL
REMARK 922        TOTAL FREE ENERGY PREDICTED BY IDOCK:   -6.06 KCAL/MOL
REMARK 923 INTER-LIGAND FREE ENERGY PREDICTED BY IDOCK:   -5.49 KCAL/MOL
REMARK 924 INTRA-LIGAND FREE ENERGY PREDICTED BY IDOCK:   -0.57 KCAL/MOL
REMARK 927      BINDING AFFINITY PREDICTED BY RF-SCORE:    0.00 PKD
ROOT
HETATM    1  C   UNL     1     -12.256  14.876  64.312  1.00  0.00    -0.344 C  
HETATM    2  O   UNL     1     -12.878  13.731  64.889  1.00  0.00    -0.690 OA 
ENDROOT
BRANCH   2   3
HETATM    3  C   UNL     1     -12.493  12.548  64.330  1.00  0.00    -0.446 C  
HETATM    4  O   UNL     1     -13.056  11.991  63.396  1.00  0.00    -0.747 OA 
BRANCH   3   5
HETATM    5  C   UNL     1     -11.285  12.030  65.055  1.00  0.00    -0.374 C  
BRANCH   5   6
HETATM    6  C   UNL     1     -11.287  12.409  66.540  1.00  0.00    -0.392 C  
BRANCH   6   7
HETATM    7  C   UNL     1     -10.620  11.375  67.421  1.00  0.00    -0.257 A  
HETATM    8  C   UNL     1      -9.417  11.658  68.070  1.00  0.00    -0.185 A  
HETATM    9  C   UNL     1      -8.791  10.706  68.867  1.00  0.00    -0.160 A  
HETATM   10  C   UNL     1      -9.357   9.446  69.055  1.00  0.00    -0.153 A  
HETATM   11  C   UNL     1     -11.217  10.124  67.642  1.00  0.00    -0.169 A  
HETATM   12  C   UNL     1     -10.584   9.165  68.451  1.00  0.00    -0.217 A  
BRANCH  10  13
HETATM   13  O   UNL     1      -8.788   8.448  69.810  1.00  0.00    -0.132 OA 
BRANCH  13  14
HETATM   14  C   UNL     1      -9.036   7.121  69.313  1.00  0.00    -0.138 C  
BRANCH  14  15
HETATM   15  C   UNL     1      -9.529   6.190  70.424  1.00  0.00    -0.161 C  
HETATM   16  O   UNL     1     -10.585   6.828  71.152  1.00  0.00    -0.220 OA 
HETATM   17  H   UNL     1     -10.891   6.250  71.842  1.00  0.00     0.000 HD 
BRANCH  15  18
HETATM   18  C   UNL     1     -10.015   4.831  69.891  1.00  0.00    -0.236 C  
BRANCH  18  19
HETATM   19  N   UNL     1      -8.921   3.858  69.787  1.00  0.00    -0.092 NA 
HETATM   20  H   UNL     1      -9.108   3.044  70.372  1.00  0.00     0.000 HD 
BRANCH  19  21
HETATM   21  C   UNL     1      -8.623   3.449  68.410  1.00  0.00    -0.093 C  
HETATM   22  C   UNL     1      -9.612   4.019  67.390  1.00  0.00    -0.222 C  
HETATM   23  C   UNL     1      -7.211   3.937  68.072  1.00  0.00    -0.059 C  
ENDBRANCH  19  21
ENDBRANCH  18  19
ENDBRANCH  15  18
ENDBRANCH  14  15
ENDBRANCH  13  14
ENDBRANCH  10  13
ENDBRANCH   6   7
ENDBRANCH   5   6
ENDBRANCH   3   5
ENDBRANCH   2   3
TORSDOF 10
ENDMDL
MODEL      229
REMARK 921   NORMALIZED FREE ENERGY PREDICTED BY IDOCK:   -3.27 KCAL/MOL
REMARK 922        TOTAL FREE ENERGY PREDICTED BY IDOCK:   -6.05 KCAL/MOL
REMARK 923 INTER-LIGAND FREE ENERGY PREDICTED BY IDOCK:   -5.52 KCAL/MOL
REMARK 924 INTRA-LIGAND FREE ENERGY PREDICTED BY IDOCK:   -0.53 KCAL/MOL
REMARK 927      BINDING AFFINITY PREDICTED BY RF-SCORE:    0.00 PKD
ROOT
HETATM    1  C   UNL     1      -9.703  11.113  65.093  1.00  0.00    -0.250 C  
HETATM    2  O   UNL     1     -11.067  11.490  65.257  1.00  0.00    -0.271 OA 
ENDROOT
BRANCH   2   3
HETATM    3  C   UNL     1     -11.321  12.171  66.411  1.00  0.00    -0.356 C  
HETATM    4  O   UNL     1     -11.876  13.260  66.481  1.00  0.00    -0.360 OA 
BRANCH   3   5
HETATM    5  C   UNL     1     -10.794  11.383  67.575  1.00  0.00    -0.291 C  
BRANCH   5   6
HETATM    6  C   UNL     1     -11.869  11.110  68.632  1.00  0.00    -0.357 C  
BRANCH   6   7
HETATM    7  C   UNL     1     -11.367  10.283  69.795  1.00  0.00    -0.334 A  
HETATM    8  C   UNL     1     -10.001  10.065  69.981  1.00  0.00    -0.273 A  
HETATM    9  C   UNL     1      -9.535   9.292  71.038  1.00  0.00    -0.313 A  
HETATM   10  C   UNL     1     -10.421   8.726  71.956  1.00  0.00    -0.344 A  
HETATM   11  C   UNL     1     -12.260   9.753  70.741  1.00  0.00    -0.342 A  
HETATM   12  C   UNL     1     -11.787   8.976  71.811  1.00  0.00    -0.442 A  
BRANCH  10  13
HETATM   13  O   UNL     1     -10.038   7.935  73.013  1.00  0.00    -0.283 OA 
BRANCH  13  14
HETATM   14  C   UNL     1      -8.649   8.054  73.365  1.00  0.00    -0.246 C  
BRANCH  14  15
HETATM   15  C   UNL     1      -7.854   6.818  72.936  1.00  0.00    -0.098 C  
HETATM   16  O   UNL     1      -7.059   6.353  74.033  1.00  0.00    -0.085 OA 
HETATM   17  H   UNL     1      -6.566   5.585  73.767  1.00  0.00     0.000 HD 
BRANCH  15  18
HETATM   18  C   UNL     1      -8.754   5.677  72.429  1.00  0.00    -0.128 C  
BRANCH  18  19
HETATM   19  N   UNL     1      -8.905   4.612  73.427  1.00  0.00    -0.103 NA 
HETATM   20  H   UNL     1      -8.978   5.006  74.365  1.00  0.00     0.000 HD 
BRANCH  19  21
HETATM   21  C   UNL     1     -10.025   3.704  73.158  1.00  0.00    -0.133 C  
HETATM   22  C   UNL     1     -11.379   4.417  73.139  1.00  0.00    -0.282 C  
HETATM   23  C   UNL     1      -9.781   3.049  71.796  1.00  0.00    -0.231 C  
ENDBRANCH  19  21
ENDBRANCH  18  19
ENDBRANCH  15  18
ENDBRANCH  14  15
ENDBRANCH  13  14
ENDBRANCH  10  13
ENDBRANCH   6   7
ENDBRANCH   5   6
ENDBRANCH   3   5
ENDBRANCH   2   3
TORSDOF 10
ENDMDL
MODEL      230
REMARK 921   NORMALIZED FREE ENERGY PREDICTED BY IDOCK:   -3.25 KCAL/MOL
REMARK 922        TOTAL FREE ENERGY PREDICTED BY IDOCK:   -6.03 KCAL/MOL
REMARK 923 INTER-LIGAND FREE ENERGY PREDICTED BY IDOCK:   -5.33 KCAL/MOL
REMARK 924 INTRA-LIGAND FREE ENERGY PREDICTED BY IDOCK:   -0.69 KCAL/MOL
REMARK 927      BINDING AFFINITY PREDICTED BY RF-SCORE:    0.00 PKD
ROOT
HETATM    1  C   UNL     1      -5.970   8.745  71.114  1.00  0.00    -0.045 C  
HETATM    2  O   UNL     1      -5.840   7.737  72.113  1.00  0.00    -0.036 OA 
ENDROOT
BRANCH   2   3
HETATM    3  C   UNL     1      -6.522   8.002  73.263  1.00  0.00    -0.091 C  
HETATM    4  O   UNL     1      -6.510   9.071  73.861  1.00  0.00    -0.327 OA 
BRANCH   3   5
HETATM    5  C   UNL     1      -7.269   6.772  73.688  1.00  0.00    -0.078 C  
BRANCH   5   6
HETATM    6  C   UNL     1      -8.789   6.958  73.620  1.00  0.00    -0.168 C  
BRANCH   6   7
HETATM    7  C   UNL     1      -9.269   7.470  72.280  1.00  0.00    -0.176 A  
HETATM    8  C   UNL     1      -9.645   8.804  72.117  1.00  0.00    -0.325 A  
HETATM    9  C   UNL     1     -10.103   9.276  70.892  1.00  0.00    -0.373 A  
HETATM   10  C   UNL     1     -10.184   8.432  69.785  1.00  0.00    -0.207 A  
HETATM   11  C   UNL     1      -9.307   6.626  71.158  1.00  0.00    -0.164 A  
HETATM   12  C   UNL     1      -9.767   7.106  69.920  1.00  0.00    -0.170 A  
BRANCH  10  13
HETATM   13  O   UNL     1     -10.646   8.819  68.549  1.00  0.00    -0.200 OA 
BRANCH  13  14
HETATM   14  C   UNL     1     -10.070  10.045  68.064  1.00  0.00    -0.167 C  
BRANCH  14  15
HETATM   15  C   UNL     1     -11.149  11.089  67.765  1.00  0.00    -0.295 C  
HETATM   16  O   UNL     1     -12.348  10.759  68.477  1.00  0.00    -0.825 OA 
HETATM   17  H   UNL     1     -13.018  11.407  68.291  1.00  0.00     0.000 HD 
BRANCH  15  18
HETATM   18  C   UNL     1     -10.711  12.520  68.125  1.00  0.00    -0.227 C  
BRANCH  18  19
HETATM   19  N   UNL     1     -10.212  13.252  66.955  1.00  0.00    -0.242 NA 
HETATM   20  H   UNL     1     -10.125  12.629  66.152  1.00  0.00     0.000 HD 
BRANCH  19  21
HETATM   21  C   UNL     1     -11.013  14.432  66.611  1.00  0.00    -0.318 C  
HETATM   22  C   UNL     1     -10.269  15.412  65.701  1.00  0.00    -0.403 C  
HETATM   23  C   UNL     1     -12.280  13.946  65.901  1.00  0.00    -0.497 C  
ENDBRANCH  19  21
ENDBRANCH  18  19
ENDBRANCH  15  18
ENDBRANCH  14  15
ENDBRANCH  13  14
ENDBRANCH  10  13
ENDBRANCH   6   7
ENDBRANCH   5   6
ENDBRANCH   3   5
ENDBRANCH   2   3
TORSDOF 10
ENDMDL
MODEL      231
REMARK 921   NORMALIZED FREE ENERGY PREDICTED BY IDOCK:   -3.23 KCAL/MOL
REMARK 922        TOTAL FREE ENERGY PREDICTED BY IDOCK:   -5.99 KCAL/MOL
REMARK 923 INTER-LIGAND FREE ENERGY PREDICTED BY IDOCK:   -5.14 KCAL/MOL
REMARK 924 INTRA-LIGAND FREE ENERGY PREDICTED BY IDOCK:   -0.85 KCAL/MOL
REMARK 927      BINDING AFFINITY PREDICTED BY RF-SCORE:    0.00 PKD
ROOT
HETATM    1  C   UNL     1     -10.879   7.122  67.112  1.00  0.00    -0.333 C  
HETATM    2  O   UNL     1     -10.806   5.814  67.673  1.00  0.00    -0.258 OA 
ENDROOT
BRANCH   2   3
HETATM    3  C   UNL     1     -10.650   5.797  69.027  1.00  0.00    -0.281 C  
HETATM    4  O   UNL     1     -11.541   5.995  69.844  1.00  0.00    -0.326 OA 
BRANCH   3   5
HETATM    5  C   UNL     1      -9.212   5.517  69.355  1.00  0.00    -0.145 C  
BRANCH   5   6
HETATM    6  C   UNL     1      -8.612   6.565  70.299  1.00  0.00    -0.136 C  
BRANCH   6   7
HETATM    7  C   UNL     1      -8.690   7.974  69.755  1.00  0.00    -0.136 A  
HETATM    8  C   UNL     1      -7.835   8.395  68.735  1.00  0.00    -0.115 A  
HETATM    9  C   UNL     1      -7.890   9.694  68.243  1.00  0.00    -0.085 A  
HETATM   10  C   UNL     1      -8.815  10.610  68.743  1.00  0.00    -0.161 A  
HETATM   11  C   UNL     1      -9.653   8.879  70.232  1.00  0.00    -0.212 A  
HETATM   12  C   UNL     1      -9.709  10.190  69.730  1.00  0.00    -0.232 A  
BRANCH  10  13
HETATM   13  O   UNL     1      -8.916  11.915  68.323  1.00  0.00    -0.173 OA 
BRANCH  13  14
HETATM   14  C   UNL     1      -9.697  12.090  67.128  1.00  0.00    -0.197 C  
BRANCH  14  15
HETATM   15  C   UNL     1     -11.059  12.717  67.436  1.00  0.00    -0.275 C  
HETATM   16  O   UNL     1     -12.006  11.685  67.737  1.00  0.00    -0.608 OA 
HETATM   17  H   UNL     1     -12.852  12.074  67.928  1.00  0.00     0.000 HD 
BRANCH  15  18
HETATM   18  C   UNL     1     -11.002  13.722  68.600  1.00  0.00    -0.266 C  
BRANCH  18  19
HETATM   19  N   UNL     1     -11.835  13.298  69.732  1.00  0.00    -0.349 NA 
HETATM   20  H   UNL     1     -11.254  13.038  70.529  1.00  0.00     0.000 HD 
BRANCH  19  21
HETATM   21  C   UNL     1     -12.842  14.289  70.128  1.00  0.00    -0.077 C  
HETATM   22  C   UNL     1     -13.322  14.108  71.570  1.00  0.00    -0.424 C  
HETATM   23  C   UNL     1     -12.217  15.679  69.975  1.00  0.00    -0.351 C  
ENDBRANCH  19  21
ENDBRANCH  18  19
ENDBRANCH  15  18
ENDBRANCH  14  15
ENDBRANCH  13  14
ENDBRANCH  10  13
ENDBRANCH   6   7
ENDBRANCH   5   6
ENDBRANCH   3   5
ENDBRANCH   2   3
TORSDOF 10
ENDMDL
MODEL      232
REMARK 921   NORMALIZED FREE ENERGY PREDICTED BY IDOCK:   -3.22 KCAL/MOL
REMARK 922        TOTAL FREE ENERGY PREDICTED BY IDOCK:   -5.98 KCAL/MOL
REMARK 923 INTER-LIGAND FREE ENERGY PREDICTED BY IDOCK:   -5.48 KCAL/MOL
REMARK 924 INTRA-LIGAND FREE ENERGY PREDICTED BY IDOCK:   -0.51 KCAL/MOL
REMARK 927      BINDING AFFINITY PREDICTED BY RF-SCORE:    0.00 PKD
ROOT
HETATM    1  C   UNL     1     -12.284  14.152  66.462  1.00  0.00    -0.433 C  
HETATM    2  O   UNL     1     -13.049  13.549  65.422  1.00  0.00    -0.663 OA 
ENDROOT
BRANCH   2   3
HETATM    3  C   UNL     1     -12.493  13.669  64.182  1.00  0.00    -0.234 C  
HETATM    4  O   UNL     1     -12.499  14.685  63.500  1.00  0.00    -0.681 OA 
BRANCH   3   5
HETATM    5  C   UNL     1     -11.892  12.353  63.783  1.00  0.00    -0.587 C  
BRANCH   5   6
HETATM    6  C   UNL     1     -10.382  12.297  64.037  1.00  0.00    -0.423 C  
BRANCH   6   7
HETATM    7  C   UNL     1      -9.991  11.295  65.101  1.00  0.00    -0.312 A  
HETATM    8  C   UNL     1      -9.768  11.700  66.418  1.00  0.00    -0.236 A  
HETATM    9  C   UNL     1      -9.392  10.786  67.396  1.00  0.00    -0.163 A  
HETATM   10  C   UNL     1      -9.246   9.433  67.092  1.00  0.00    -0.134 A  
HETATM   11  C   UNL     1      -9.888   9.927  64.799  1.00  0.00    -0.239 A  
HETATM   12  C   UNL     1      -9.512   9.005  65.790  1.00  0.00    -0.305 A  
BRANCH  10  13
HETATM   13  O   UNL     1      -8.858   8.475  67.998  1.00  0.00    -0.140 OA 
BRANCH  13  14
HETATM   14  C   UNL     1      -8.592   8.985  69.317  1.00  0.00    -0.136 C  
BRANCH  14  15
HETATM   15  C   UNL     1      -8.935   7.953  70.395  1.00  0.00    -0.147 C  
HETATM   16  O   UNL     1      -9.696   6.887  69.816  1.00  0.00    -0.164 OA 
HETATM   17  H   UNL     1      -9.909   6.247  70.485  1.00  0.00     0.000 HD 
BRANCH  15  18
HETATM   18  C   UNL     1      -7.687   7.380  71.090  1.00  0.00    -0.090 C  
BRANCH  18  19
HETATM   19  N   UNL     1      -7.971   6.959  72.467  1.00  0.00    -0.099 NA 
HETATM   20  H   UNL     1      -8.349   6.012  72.482  1.00  0.00     0.000 HD 
BRANCH  19  21
HETATM   21  C   UNL     1      -6.818   7.069  73.368  1.00  0.00    -0.069 C  
HETATM   22  C   UNL     1      -5.596   7.703  72.699  1.00  0.00    -0.036 C  
HETATM   23  C   UNL     1      -7.240   7.928  74.564  1.00  0.00    -0.187 C  
ENDBRANCH  19  21
ENDBRANCH  18  19
ENDBRANCH  15  18
ENDBRANCH  14  15
ENDBRANCH  13  14
ENDBRANCH  10  13
ENDBRANCH   6   7
ENDBRANCH   5   6
ENDBRANCH   3   5
ENDBRANCH   2   3
TORSDOF 10
ENDMDL
MODEL      233
REMARK 921   NORMALIZED FREE ENERGY PREDICTED BY IDOCK:   -3.21 KCAL/MOL
REMARK 922        TOTAL FREE ENERGY PREDICTED BY IDOCK:   -5.96 KCAL/MOL
REMARK 923 INTER-LIGAND FREE ENERGY PREDICTED BY IDOCK:   -5.40 KCAL/MOL
REMARK 924 INTRA-LIGAND FREE ENERGY PREDICTED BY IDOCK:   -0.56 KCAL/MOL
REMARK 927      BINDING AFFINITY PREDICTED BY RF-SCORE:    0.00 PKD
ROOT
HETATM    1  C   UNL     1     -11.818  13.103  67.521  1.00  0.00    -0.360 C  
HETATM    2  O   UNL     1     -11.945  12.751  68.896  1.00  0.00    -0.300 OA 
ENDROOT
BRANCH   2   3
HETATM    3  C   UNL     1     -11.678  11.441  69.162  1.00  0.00    -0.342 C  
HETATM    4  O   UNL     1     -10.659  10.846  68.834  1.00  0.00    -0.188 OA 
BRANCH   3   5
HETATM    5  C   UNL     1     -12.839  10.841  69.900  1.00  0.00     0.016 C  
BRANCH   5   6
HETATM    6  C   UNL     1     -12.517  10.565  71.372  1.00  0.00    -0.516 C  
BRANCH   6   7
HETATM    7  C   UNL     1     -12.057   9.146  71.628  1.00  0.00    -0.432 A  
HETATM    8  C   UNL     1     -12.945   8.075  71.518  1.00  0.00    -0.326 A  
HETATM    9  C   UNL     1     -12.531   6.772  71.768  1.00  0.00    -0.394 A  
HETATM   10  C   UNL     1     -11.210   6.495  72.119  1.00  0.00    -0.271 A  
HETATM   11  C   UNL     1     -10.715   8.869  71.937  1.00  0.00    -0.426 A  
HETATM   12  C   UNL     1     -10.298   7.551  72.186  1.00  0.00    -0.252 A  
BRANCH  10  13
HETATM   13  O   UNL     1     -10.731   5.237  72.401  1.00  0.00    -0.217 OA 
BRANCH  13  14
HETATM   14  C   UNL     1      -9.304   5.175  72.573  1.00  0.00    -0.135 C  
BRANCH  14  15
HETATM   15  C   UNL     1      -8.579   5.158  71.224  1.00  0.00    -0.127 C  
HETATM   16  O   UNL     1      -7.194   4.853  71.427  1.00  0.00    -0.057 OA 
HETATM   17  H   UNL     1      -6.744   4.843  70.591  1.00  0.00     0.000 HD 
BRANCH  15  18
HETATM   18  C   UNL     1      -9.190   4.153  70.232  1.00  0.00    -0.135 C  
BRANCH  18  19
HETATM   19  N   UNL     1     -10.240   4.764  69.409  1.00  0.00    -0.175 NA 
HETATM   20  H   UNL     1     -10.728   5.492  69.931  1.00  0.00     0.000 HD 
BRANCH  19  21
HETATM   21  C   UNL     1      -9.758   5.284  68.125  1.00  0.00    -0.142 C  
HETATM   22  C   UNL     1      -9.363   4.178  67.144  1.00  0.00    -0.198 C  
HETATM   23  C   UNL     1     -10.879   6.127  67.511  1.00  0.00    -0.422 C  
ENDBRANCH  19  21
ENDBRANCH  18  19
ENDBRANCH  15  18
ENDBRANCH  14  15
ENDBRANCH  13  14
ENDBRANCH  10  13
ENDBRANCH   6   7
ENDBRANCH   5   6
ENDBRANCH   3   5
ENDBRANCH   2   3
TORSDOF 10
ENDMDL
MODEL      234
REMARK 921   NORMALIZED FREE ENERGY PREDICTED BY IDOCK:   -3.21 KCAL/MOL
REMARK 922        TOTAL FREE ENERGY PREDICTED BY IDOCK:   -5.96 KCAL/MOL
REMARK 923 INTER-LIGAND FREE ENERGY PREDICTED BY IDOCK:   -5.04 KCAL/MOL
REMARK 924 INTRA-LIGAND FREE ENERGY PREDICTED BY IDOCK:   -0.92 KCAL/MOL
REMARK 927      BINDING AFFINITY PREDICTED BY RF-SCORE:    0.00 PKD
ROOT
HETATM    1  C   UNL     1      -8.494   3.660  66.736  1.00  0.00    -0.106 C  
HETATM    2  O   UNL     1      -8.373   4.970  66.190  1.00  0.00    -0.111 OA 
ENDROOT
BRANCH   2   3
HETATM    3  C   UNL     1      -7.871   5.892  67.060  1.00  0.00    -0.102 C  
HETATM    4  O   UNL     1      -7.132   6.821  66.757  1.00  0.00    -0.068 OA 
BRANCH   3   5
HETATM    5  C   UNL     1      -8.350   5.573  68.446  1.00  0.00    -0.098 C  
BRANCH   5   6
HETATM    6  C   UNL     1      -7.818   6.560  69.491  1.00  0.00    -0.105 C  
BRANCH   6   7
HETATM    7  C   UNL     1      -8.738   7.740  69.722  1.00  0.00    -0.139 A  
HETATM    8  C   UNL     1      -9.992   7.565  70.307  1.00  0.00    -0.192 A  
HETATM    9  C   UNL     1     -10.848   8.642  70.506  1.00  0.00    -0.257 A  
HETATM   10  C   UNL     1     -10.468   9.934  70.142  1.00  0.00    -0.285 A  
HETATM   11  C   UNL     1      -8.332   9.044  69.394  1.00  0.00    -0.119 A  
HETATM   12  C   UNL     1      -9.197  10.132  69.599  1.00  0.00    -0.206 A  
BRANCH  10  13
HETATM   13  O   UNL     1     -11.266  11.044  70.288  1.00  0.00    -0.256 OA 
BRANCH  13  14
HETATM   14  C   UNL     1     -11.968  11.425  69.092  1.00  0.00    -0.328 C  
BRANCH  14  15
HETATM   15  C   UNL     1     -11.794  12.917  68.792  1.00  0.00    -0.315 C  
HETATM   16  O   UNL     1     -10.834  13.480  69.694  1.00  0.00    -0.451 OA 
HETATM   17  H   UNL     1     -10.726  14.405  69.509  1.00  0.00     0.000 HD 
BRANCH  15  18
HETATM   18  C   UNL     1     -11.360  13.186  67.340  1.00  0.00    -0.306 C  
BRANCH  18  19
HETATM   19  N   UNL     1     -11.915  12.197  66.409  1.00  0.00    -0.621 NA 
HETATM   20  H   UNL     1     -12.758  12.558  65.962  1.00  0.00     0.000 HD 
BRANCH  19  21
HETATM   21  C   UNL     1     -10.956  11.730  65.402  1.00  0.00    -0.297 C  
HETATM   22  C   UNL     1     -11.012  12.538  64.104  1.00  0.00    -0.425 C  
HETATM   23  C   UNL     1      -9.552  11.841  66.006  1.00  0.00    -0.248 C  
ENDBRANCH  19  21
ENDBRANCH  18  19
ENDBRANCH  15  18
ENDBRANCH  14  15
ENDBRANCH  13  14
ENDBRANCH  10  13
ENDBRANCH   6   7
ENDBRANCH   5   6
ENDBRANCH   3   5
ENDBRANCH   2   3
TORSDOF 10
ENDMDL
MODEL      235
REMARK 921   NORMALIZED FREE ENERGY PREDICTED BY IDOCK:   -3.21 KCAL/MOL
REMARK 922        TOTAL FREE ENERGY PREDICTED BY IDOCK:   -5.96 KCAL/MOL
REMARK 923 INTER-LIGAND FREE ENERGY PREDICTED BY IDOCK:   -5.09 KCAL/MOL
REMARK 924 INTRA-LIGAND FREE ENERGY PREDICTED BY IDOCK:   -0.86 KCAL/MOL
REMARK 927      BINDING AFFINITY PREDICTED BY RF-SCORE:    0.00 PKD
ROOT
HETATM    1  C   UNL     1     -11.840  14.588  67.538  1.00  0.00    -0.374 C  
HETATM    2  O   UNL     1     -12.154  13.942  66.307  1.00  0.00    -0.405 OA 
ENDROOT
BRANCH   2   3
HETATM    3  C   UNL     1     -11.298  14.240  65.288  1.00  0.00    -0.336 C  
HETATM    4  O   UNL     1     -10.183  14.726  65.422  1.00  0.00    -0.341 OA 
BRANCH   3   5
HETATM    5  C   UNL     1     -11.950  13.897  63.981  1.00  0.00    -0.425 C  
BRANCH   5   6
HETATM    6  C   UNL     1     -12.306  12.410  63.876  1.00  0.00    -0.602 C  
BRANCH   6   7
HETATM    7  C   UNL     1     -11.098  11.500  63.937  1.00  0.00    -0.458 A  
HETATM    8  C   UNL     1     -10.207  11.422  62.866  1.00  0.00    -0.213 A  
HETATM    9  C   UNL     1      -9.105  10.576  62.909  1.00  0.00    -0.290 A  
HETATM   10  C   UNL     1      -8.849   9.793  64.034  1.00  0.00    -0.231 A  
HETATM   11  C   UNL     1     -10.821  10.747  65.090  1.00  0.00    -0.057 A  
HETATM   12  C   UNL     1      -9.704   9.895  65.133  1.00  0.00    -0.376 A  
BRANCH  10  13
HETATM   13  O   UNL     1      -7.793   8.918  64.144  1.00  0.00    -0.121 OA 
BRANCH  13  14
HETATM   14  C   UNL     1      -7.536   8.154  62.952  1.00  0.00    -0.123 C  
BRANCH  14  15
HETATM   15  C   UNL     1      -7.215   6.694  63.282  1.00  0.00    -0.064 C  
HETATM   16  O   UNL     1      -6.004   6.307  62.620  1.00  0.00    -0.026 OA 
HETATM   17  H   UNL     1      -5.805   5.401  62.824  1.00  0.00     0.000 HD 
BRANCH  15  18
HETATM   18  C   UNL     1      -7.081   6.440  64.794  1.00  0.00    -0.057 C  
BRANCH  18  19
HETATM   19  N   UNL     1      -8.348   5.998  65.389  1.00  0.00    -0.147 NA 
HETATM   20  H   UNL     1      -9.133   6.507  64.983  1.00  0.00     0.000 HD 
BRANCH  19  21
HETATM   21  C   UNL     1      -8.569   4.551  65.301  1.00  0.00    -0.128 C  
HETATM   22  C   UNL     1      -7.570   3.743  66.132  1.00  0.00    -0.088 C  
HETATM   23  C   UNL     1      -9.988   4.263  65.799  1.00  0.00    -0.233 C  
ENDBRANCH  19  21
ENDBRANCH  18  19
ENDBRANCH  15  18
ENDBRANCH  14  15
ENDBRANCH  13  14
ENDBRANCH  10  13
ENDBRANCH   6   7
ENDBRANCH   5   6
ENDBRANCH   3   5
ENDBRANCH   2   3
TORSDOF 10
ENDMDL
MODEL      236
REMARK 921   NORMALIZED FREE ENERGY PREDICTED BY IDOCK:   -3.20 KCAL/MOL
REMARK 922        TOTAL FREE ENERGY PREDICTED BY IDOCK:   -5.95 KCAL/MOL
REMARK 923 INTER-LIGAND FREE ENERGY PREDICTED BY IDOCK:   -5.12 KCAL/MOL
REMARK 924 INTRA-LIGAND FREE ENERGY PREDICTED BY IDOCK:   -0.83 KCAL/MOL
REMARK 927      BINDING AFFINITY PREDICTED BY RF-SCORE:    0.00 PKD
ROOT
HETATM    1  C   UNL     1      -7.795  20.146  67.559  1.00  0.00    -0.309 C  
HETATM    2  O   UNL     1      -9.090  20.599  67.173  1.00  0.00    -0.352 OA 
ENDROOT
BRANCH   2   3
HETATM    3  C   UNL     1     -10.027  19.610  67.103  1.00  0.00    -0.387 C  
HETATM    4  O   UNL     1     -11.065  19.574  67.751  1.00  0.00    -0.286 OA 
BRANCH   3   5
HETATM    5  C   UNL     1      -9.572  18.568  66.123  1.00  0.00    -0.203 C  
BRANCH   5   6
HETATM    6  C   UNL     1     -10.718  17.668  65.650  1.00  0.00    -0.084 C  
BRANCH   6   7
HETATM    7  C   UNL     1     -10.380  16.194  65.696  1.00  0.00    -0.405 A  
HETATM    8  C   UNL     1      -9.452  15.702  66.614  1.00  0.00    -0.282 A  
HETATM    9  C   UNL     1      -9.125  14.351  66.650  1.00  0.00    -0.265 A  
HETATM   10  C   UNL     1      -9.729  13.446  65.778  1.00  0.00    -0.129 A  
HETATM   11  C   UNL     1     -11.024  15.281  64.846  1.00  0.00    -0.445 A  
HETATM   12  C   UNL     1     -10.695  13.916  64.886  1.00  0.00    -0.422 A  
BRANCH  10  13
HETATM   13  O   UNL     1      -9.443  12.101  65.739  1.00  0.00    -0.227 OA 
BRANCH  13  14
HETATM   14  C   UNL     1     -10.543  11.254  66.114  1.00  0.00    -0.258 C  
BRANCH  14  15
HETATM   15  C   UNL     1     -10.202  10.408  67.345  1.00  0.00    -0.214 C  
HETATM   16  O   UNL     1     -11.159   9.350  67.480  1.00  0.00    -0.454 OA 
HETATM   17  H   UNL     1     -10.948   8.826  68.244  1.00  0.00     0.000 HD 
BRANCH  15  18
HETATM   18  C   UNL     1      -8.782   9.818  67.288  1.00  0.00    -0.132 C  
BRANCH  18  19
HETATM   19  N   UNL     1      -7.833  10.595  68.093  1.00  0.00    -0.107 NA 
HETATM   20  H   UNL     1      -7.698  10.162  69.007  1.00  0.00     0.000 HD 
BRANCH  19  21
HETATM   21  C   UNL     1      -6.542  10.819  67.432  1.00  0.00    -0.071 C  
HETATM   22  C   UNL     1      -5.681  11.865  68.144  1.00  0.00    -0.048 C  
HETATM   23  C   UNL     1      -5.793   9.483  67.402  1.00  0.00    -0.045 C  
ENDBRANCH  19  21
ENDBRANCH  18  19
ENDBRANCH  15  18
ENDBRANCH  14  15
ENDBRANCH  13  14
ENDBRANCH  10  13
ENDBRANCH   6   7
ENDBRANCH   5   6
ENDBRANCH   3   5
ENDBRANCH   2   3
TORSDOF 10
ENDMDL
MODEL      237
REMARK 921   NORMALIZED FREE ENERGY PREDICTED BY IDOCK:   -3.19 KCAL/MOL
REMARK 922        TOTAL FREE ENERGY PREDICTED BY IDOCK:   -5.93 KCAL/MOL
REMARK 923 INTER-LIGAND FREE ENERGY PREDICTED BY IDOCK:   -5.26 KCAL/MOL
REMARK 924 INTRA-LIGAND FREE ENERGY PREDICTED BY IDOCK:   -0.67 KCAL/MOL
REMARK 927      BINDING AFFINITY PREDICTED BY RF-SCORE:    0.00 PKD
ROOT
HETATM    1  C   UNL     1     -11.921  15.259  71.609  1.00  0.00    -0.372 C  
HETATM    2  O   UNL     1     -10.785  15.324  70.750  1.00  0.00    -0.276 OA 
ENDROOT
BRANCH   2   3
HETATM    3  C   UNL     1     -11.056  15.814  69.506  1.00  0.00    -0.306 C  
HETATM    4  O   UNL     1     -10.494  16.769  68.986  1.00  0.00    -0.297 OA 
BRANCH   3   5
HETATM    5  C   UNL     1     -12.162  15.009  68.890  1.00  0.00    -0.136 C  
BRANCH   5   6
HETATM    6  C   UNL     1     -11.902  14.690  67.414  1.00  0.00    -0.374 C  
BRANCH   6   7
HETATM    7  C   UNL     1     -11.481  13.256  67.177  1.00  0.00    -0.380 A  
HETATM    8  C   UNL     1     -10.771  12.899  66.029  1.00  0.00    -0.296 A  
HETATM    9  C   UNL     1     -10.396  11.580  65.799  1.00  0.00    -0.295 A  
HETATM   10  C   UNL     1     -10.704  10.578  66.718  1.00  0.00    -0.188 A  
HETATM   11  C   UNL     1     -11.755  12.259  68.127  1.00  0.00    -0.408 A  
HETATM   12  C   UNL     1     -11.371  10.927  67.894  1.00  0.00    -0.380 A  
BRANCH  10  13
HETATM   13  O   UNL     1     -10.386   9.251  66.550  1.00  0.00    -0.258 OA 
BRANCH  13  14
HETATM   14  C   UNL     1      -8.984   8.959  66.691  1.00  0.00    -0.136 C  
BRANCH  14  15
HETATM   15  C   UNL     1      -8.326   8.707  65.332  1.00  0.00    -0.157 C  
HETATM   16  O   UNL     1      -7.073   9.400  65.269  1.00  0.00    -0.087 OA 
HETATM   17  H   UNL     1      -6.665   9.244  64.426  1.00  0.00     0.000 HD 
BRANCH  15  18
HETATM   18  C   UNL     1      -8.105   7.211  65.045  1.00  0.00    -0.119 C  
BRANCH  18  19
HETATM   19  N   UNL     1      -9.050   6.366  65.783  1.00  0.00    -0.343 NA 
HETATM   20  H   UNL     1      -9.988   6.764  65.752  1.00  0.00     0.000 HD 
BRANCH  19  21
HETATM   21  C   UNL     1      -9.066   4.969  65.336  1.00  0.00    -0.154 C  
HETATM   22  C   UNL     1      -7.664   4.387  65.145  1.00  0.00    -0.085 C  
HETATM   23  C   UNL     1      -9.814   4.148  66.391  1.00  0.00    -0.214 C  
ENDBRANCH  19  21
ENDBRANCH  18  19
ENDBRANCH  15  18
ENDBRANCH  14  15
ENDBRANCH  13  14
ENDBRANCH  10  13
ENDBRANCH   6   7
ENDBRANCH   5   6
ENDBRANCH   3   5
ENDBRANCH   2   3
TORSDOF 10
ENDMDL
MODEL      238
REMARK 921   NORMALIZED FREE ENERGY PREDICTED BY IDOCK:   -3.19 KCAL/MOL
REMARK 922        TOTAL FREE ENERGY PREDICTED BY IDOCK:   -5.93 KCAL/MOL
REMARK 923 INTER-LIGAND FREE ENERGY PREDICTED BY IDOCK:   -5.42 KCAL/MOL
REMARK 924 INTRA-LIGAND FREE ENERGY PREDICTED BY IDOCK:   -0.51 KCAL/MOL
REMARK 927      BINDING AFFINITY PREDICTED BY RF-SCORE:    0.00 PKD
ROOT
HETATM    1  C   UNL     1     -14.359  14.349  72.172  1.00  0.00    -0.519 C  
HETATM    2  O   UNL     1     -13.032  13.951  71.835  1.00  0.00    -0.332 OA 
ENDROOT
BRANCH   2   3
HETATM    3  C   UNL     1     -12.593  14.435  70.639  1.00  0.00    -0.357 C  
HETATM    4  O   UNL     1     -12.760  15.580  70.236  1.00  0.00    -0.391 OA 
BRANCH   3   5
HETATM    5  C   UNL     1     -11.893  13.340  69.890  1.00  0.00    -0.380 C  
BRANCH   5   6
HETATM    6  C   UNL     1     -12.191  11.952  70.468  1.00  0.00    -0.426 C  
BRANCH   6   7
HETATM    7  C   UNL     1     -11.350  10.855  69.852  1.00  0.00    -0.381 A  
HETATM    8  C   UNL     1     -10.815   9.836  70.642  1.00  0.00    -0.396 A  
HETATM    9  C   UNL     1     -10.028   8.835  70.084  1.00  0.00    -0.201 A  
HETATM   10  C   UNL     1      -9.766   8.810  68.715  1.00  0.00    -0.165 A  
HETATM   11  C   UNL     1     -11.126  10.811  68.467  1.00  0.00    -0.317 A  
HETATM   12  C   UNL     1     -10.333   9.796  67.905  1.00  0.00    -0.258 A  
BRANCH  10  13
HETATM   13  O   UNL     1      -8.981   7.867  68.095  1.00  0.00    -0.132 OA 
BRANCH  13  14
HETATM   14  C   UNL     1      -9.535   7.352  66.871  1.00  0.00    -0.162 C  
BRANCH  14  15
HETATM   15  C   UNL     1      -9.913   5.875  67.005  1.00  0.00    -0.166 C  
HETATM   16  O   UNL     1     -11.281   5.764  67.416  1.00  0.00    -0.355 OA 
HETATM   17  H   UNL     1     -11.515   4.847  67.500  1.00  0.00     0.000 HD 
BRANCH  15  18
HETATM   18  C   UNL     1      -9.698   5.084  65.703  1.00  0.00    -0.106 C  
BRANCH  18  19
HETATM   19  N   UNL     1      -8.518   4.214  65.778  1.00  0.00    -0.109 NA 
HETATM   20  H   UNL     1      -8.732   3.362  66.297  1.00  0.00     0.000 HD 
BRANCH  19  21
HETATM   21  C   UNL     1      -7.939   3.890  64.469  1.00  0.00    -0.086 C  
HETATM   22  C   UNL     1      -7.382   2.466  64.399  1.00  0.00    -0.058 C  
HETATM   23  C   UNL     1      -9.039   4.054  63.417  1.00  0.00    -0.124 C  
ENDBRANCH  19  21
ENDBRANCH  18  19
ENDBRANCH  15  18
ENDBRANCH  14  15
ENDBRANCH  13  14
ENDBRANCH  10  13
ENDBRANCH   6   7
ENDBRANCH   5   6
ENDBRANCH   3   5
ENDBRANCH   2   3
TORSDOF 10
ENDMDL
MODEL      239
REMARK 921   NORMALIZED FREE ENERGY PREDICTED BY IDOCK:   -3.15 KCAL/MOL
REMARK 922        TOTAL FREE ENERGY PREDICTED BY IDOCK:   -5.87 KCAL/MOL
REMARK 923 INTER-LIGAND FREE ENERGY PREDICTED BY IDOCK:   -4.80 KCAL/MOL
REMARK 924 INTRA-LIGAND FREE ENERGY PREDICTED BY IDOCK:   -1.07 KCAL/MOL
REMARK 927      BINDING AFFINITY PREDICTED BY RF-SCORE:    0.00 PKD
ROOT
HETATM    1  C   UNL     1     -11.902  15.799  70.962  1.00  0.00    -0.420 C  
HETATM    2  O   UNL     1     -10.649  15.948  70.300  1.00  0.00    -0.309 OA 
ENDROOT
BRANCH   2   3
HETATM    3  C   UNL     1     -10.708  16.691  69.158  1.00  0.00    -0.342 C  
HETATM    4  O   UNL     1     -10.268  17.826  69.030  1.00  0.00    -0.367 OA 
BRANCH   3   5
HETATM    5  C   UNL     1     -11.416  15.904  68.094  1.00  0.00    -0.281 C  
BRANCH   5   6
HETATM    6  C   UNL     1     -10.444  15.220  67.127  1.00  0.00    -0.280 C  
BRANCH   6   7
HETATM    7  C   UNL     1     -10.559  13.711  67.131  1.00  0.00    -0.272 A  
HETATM    8  C   UNL     1      -9.749  12.930  66.306  1.00  0.00    -0.268 A  
HETATM    9  C   UNL     1      -9.862  11.544  66.293  1.00  0.00    -0.245 A  
HETATM   10  C   UNL     1     -10.777  10.894  67.120  1.00  0.00    -0.270 A  
HETATM   11  C   UNL     1     -11.451  13.059  67.998  1.00  0.00    -0.348 A  
HETATM   12  C   UNL     1     -11.561  11.658  67.986  1.00  0.00    -0.383 A  
BRANCH  10  13
HETATM   13  O   UNL     1     -10.961   9.531  67.148  1.00  0.00    -0.168 OA 
BRANCH  13  14
HETATM   14  C   UNL     1      -9.749   8.771  67.001  1.00  0.00    -0.198 C  
BRANCH  14  15
HETATM   15  C   UNL     1      -9.534   7.826  68.186  1.00  0.00    -0.146 C  
HETATM   16  O   UNL     1      -9.581   6.467  67.733  1.00  0.00    -0.123 OA 
HETATM   17  H   UNL     1      -9.448   5.881  68.468  1.00  0.00     0.000 HD 
BRANCH  15  18
HETATM   18  C   UNL     1      -8.205   8.081  68.919  1.00  0.00    -0.125 C  
BRANCH  18  19
HETATM   19  N   UNL     1      -7.546   9.305  68.449  1.00  0.00    -0.085 NA 
HETATM   20  H   UNL     1      -8.160   9.826  67.824  1.00  0.00     0.000 HD 
BRANCH  19  21
HETATM   21  C   UNL     1      -7.058  10.166  69.532  1.00  0.00    -0.101 C  
HETATM   22  C   UNL     1      -5.561   9.996  69.801  1.00  0.00    -0.038 C  
HETATM   23  C   UNL     1      -7.338  11.619  69.136  1.00  0.00    -0.032 C  
ENDBRANCH  19  21
ENDBRANCH  18  19
ENDBRANCH  15  18
ENDBRANCH  14  15
ENDBRANCH  13  14
ENDBRANCH  10  13
ENDBRANCH   6   7
ENDBRANCH   5   6
ENDBRANCH   3   5
ENDBRANCH   2   3
TORSDOF 10
ENDMDL
MODEL      240
REMARK 921   NORMALIZED FREE ENERGY PREDICTED BY IDOCK:   -3.13 KCAL/MOL
REMARK 922        TOTAL FREE ENERGY PREDICTED BY IDOCK:   -5.84 KCAL/MOL
REMARK 923 INTER-LIGAND FREE ENERGY PREDICTED BY IDOCK:   -4.93 KCAL/MOL
REMARK 924 INTRA-LIGAND FREE ENERGY PREDICTED BY IDOCK:   -0.91 KCAL/MOL
REMARK 927      BINDING AFFINITY PREDICTED BY RF-SCORE:    0.00 PKD
ROOT
HETATM    1  C   UNL     1     -11.014  16.292  69.657  1.00  0.00    -0.346 C  
HETATM    2  O   UNL     1     -10.620  15.817  68.373  1.00  0.00    -0.247 OA 
ENDROOT
BRANCH   2   3
HETATM    3  C   UNL     1      -9.269  15.744  68.197  1.00  0.00    -0.189 C  
HETATM    4  O   UNL     1      -8.440  16.402  68.813  1.00  0.00    -0.225 OA 
BRANCH   3   5
HETATM    5  C   UNL     1      -8.966  14.745  67.119  1.00  0.00    -0.239 C  
BRANCH   5   6
HETATM    6  C   UNL     1      -8.053  13.615  67.608  1.00  0.00    -0.179 C  
BRANCH   6   7
HETATM    7  C   UNL     1      -8.716  12.255  67.576  1.00  0.00    -0.177 A  
HETATM    8  C   UNL     1      -8.330  11.251  68.466  1.00  0.00    -0.155 A  
HETATM    9  C   UNL     1      -8.924   9.995  68.430  1.00  0.00    -0.121 A  
HETATM   10  C   UNL     1      -9.936   9.707  67.515  1.00  0.00    -0.183 A  
HETATM   11  C   UNL     1      -9.764  11.986  66.682  1.00  0.00    -0.221 A  
HETATM   12  C   UNL     1     -10.366  10.716  66.650  1.00  0.00    -0.297 A  
BRANCH  10  13
HETATM   13  O   UNL     1     -10.555   8.484  67.405  1.00  0.00    -0.277 OA 
BRANCH  13  14
HETATM   14  C   UNL     1      -9.648   7.373  67.303  1.00  0.00    -0.150 C  
BRANCH  14  15
HETATM   15  C   UNL     1      -9.905   6.338  68.401  1.00  0.00    -0.130 C  
HETATM   16  O   UNL     1      -8.871   6.419  69.390  1.00  0.00    -0.131 OA 
HETATM   17  H   UNL     1      -9.030   5.777  70.072  1.00  0.00     0.000 HD 
BRANCH  15  18
HETATM   18  C   UNL     1     -11.279   6.511  69.074  1.00  0.00    -0.284 C  
BRANCH  18  19
HETATM   19  N   UNL     1     -11.241   7.508  70.150  1.00  0.00    -0.385 NA 
HETATM   20  H   UNL     1     -11.630   8.395  69.831  1.00  0.00     0.000 HD 
BRANCH  19  21
HETATM   21  C   UNL     1     -11.900   7.069  71.385  1.00  0.00    -0.320 C  
HETATM   22  C   UNL     1     -11.504   7.908  72.602  1.00  0.00    -0.454 C  
HETATM   23  C   UNL     1     -13.413   7.172  71.171  1.00  0.00    -0.217 C  
ENDBRANCH  19  21
ENDBRANCH  18  19
ENDBRANCH  15  18
ENDBRANCH  14  15
ENDBRANCH  13  14
ENDBRANCH  10  13
ENDBRANCH   6   7
ENDBRANCH   5   6
ENDBRANCH   3   5
ENDBRANCH   2   3
TORSDOF 10
ENDMDL
MODEL      241
REMARK 921   NORMALIZED FREE ENERGY PREDICTED BY IDOCK:   -3.13 KCAL/MOL
REMARK 922        TOTAL FREE ENERGY PREDICTED BY IDOCK:   -5.84 KCAL/MOL
REMARK 923 INTER-LIGAND FREE ENERGY PREDICTED BY IDOCK:   -5.13 KCAL/MOL
REMARK 924 INTRA-LIGAND FREE ENERGY PREDICTED BY IDOCK:   -0.71 KCAL/MOL
REMARK 927      BINDING AFFINITY PREDICTED BY RF-SCORE:    0.00 PKD
ROOT
HETATM    1  C   UNL     1     -13.905  13.305  72.310  1.00  0.00    -0.539 C  
HETATM    2  O   UNL     1     -12.556  13.260  71.852  1.00  0.00    -0.177 OA 
ENDROOT
BRANCH   2   3
HETATM    3  C   UNL     1     -12.392  13.669  70.562  1.00  0.00    -0.355 C  
HETATM    4  O   UNL     1     -12.776  14.738  70.105  1.00  0.00    -0.304 OA 
BRANCH   3   5
HETATM    5  C   UNL     1     -11.687  12.592  69.789  1.00  0.00    -0.354 C  
BRANCH   5   6
HETATM    6  C   UNL     1     -11.771  11.226  70.478  1.00  0.00    -0.345 C  
BRANCH   6   7
HETATM    7  C   UNL     1     -11.212  10.098  69.639  1.00  0.00    -0.310 A  
HETATM    8  C   UNL     1     -10.745   8.926  70.236  1.00  0.00    -0.248 A  
HETATM    9  C   UNL     1     -10.215   7.894  69.472  1.00  0.00    -0.208 A  
HETATM   10  C   UNL     1     -10.152   7.992  68.082  1.00  0.00    -0.197 A  
HETATM   11  C   UNL     1     -11.192  10.184  68.238  1.00  0.00    -0.246 A  
HETATM   12  C   UNL     1     -10.659   9.138  67.467  1.00  0.00    -0.317 A  
BRANCH  10  13
HETATM   13  O   UNL     1      -9.623   7.023  67.262  1.00  0.00    -0.131 OA 
BRANCH  13  14
HETATM   14  C   UNL     1      -8.196   6.875  67.369  1.00  0.00    -0.119 C  
BRANCH  14  15
HETATM   15  C   UNL     1      -7.463   7.815  66.408  1.00  0.00    -0.084 C  
HETATM   16  O   UNL     1      -6.060   7.801  66.700  1.00  0.00    -0.045 OA 
HETATM   17  H   UNL     1      -5.605   8.384  66.103  1.00  0.00     0.000 HD 
BRANCH  15  18
HETATM   18  C   UNL     1      -7.688   7.450  64.930  1.00  0.00    -0.113 C  
BRANCH  18  19
HETATM   19  N   UNL     1      -8.761   8.247  64.326  1.00  0.00    -0.392 NA 
HETATM   20  H   UNL     1      -9.629   8.137  64.850  1.00  0.00     0.000 HD 
BRANCH  19  21
HETATM   21  C   UNL     1      -8.427   9.668  64.171  1.00  0.00    -0.180 C  
HETATM   22  C   UNL     1      -6.978   9.896  63.734  1.00  0.00    -0.124 C  
HETATM   23  C   UNL     1      -9.371  10.259  63.120  1.00  0.00    -0.343 C  
ENDBRANCH  19  21
ENDBRANCH  18  19
ENDBRANCH  15  18
ENDBRANCH  14  15
ENDBRANCH  13  14
ENDBRANCH  10  13
ENDBRANCH   6   7
ENDBRANCH   5   6
ENDBRANCH   3   5
ENDBRANCH   2   3
TORSDOF 10
ENDMDL
MODEL      242
REMARK 921   NORMALIZED FREE ENERGY PREDICTED BY IDOCK:   -3.12 KCAL/MOL
REMARK 922        TOTAL FREE ENERGY PREDICTED BY IDOCK:   -5.82 KCAL/MOL
REMARK 923 INTER-LIGAND FREE ENERGY PREDICTED BY IDOCK:   -5.28 KCAL/MOL
REMARK 924 INTRA-LIGAND FREE ENERGY PREDICTED BY IDOCK:   -0.54 KCAL/MOL
REMARK 927      BINDING AFFINITY PREDICTED BY RF-SCORE:    0.00 PKD
ROOT
HETATM    1  C   UNL     1      -7.477   2.386  68.937  1.00  0.00    -0.044 C  
HETATM    2  O   UNL     1      -7.807   3.376  67.965  1.00  0.00    -0.067 OA 
ENDROOT
BRANCH   2   3
HETATM    3  C   UNL     1      -9.088   3.835  68.052  1.00  0.00    -0.144 C  
HETATM    4  O   UNL     1      -9.864   3.594  68.968  1.00  0.00    -0.069 OA 
BRANCH   3   5
HETATM    5  C   UNL     1      -9.398   4.662  66.839  1.00  0.00    -0.150 C  
BRANCH   5   6
HETATM    6  C   UNL     1      -8.179   5.441  66.334  1.00  0.00    -0.109 C  
BRANCH   6   7
HETATM    7  C   UNL     1      -8.513   6.843  65.875  1.00  0.00    -0.147 A  
HETATM    8  C   UNL     1      -7.862   7.412  64.780  1.00  0.00    -0.126 A  
HETATM    9  C   UNL     1      -8.153   8.706  64.364  1.00  0.00    -0.156 A  
HETATM   10  C   UNL     1      -9.119   9.468  65.021  1.00  0.00    -0.228 A  
HETATM   11  C   UNL     1      -9.518   7.589  66.512  1.00  0.00    -0.237 A  
HETATM   12  C   UNL     1      -9.813   8.896  66.088  1.00  0.00    -0.326 A  
BRANCH  10  13
HETATM   13  O   UNL     1      -9.447  10.760  64.682  1.00  0.00    -0.216 OA 
BRANCH  13  14
HETATM   14  C   UNL     1     -10.858  10.985  64.519  1.00  0.00    -0.187 C  
BRANCH  14  15
HETATM   15  C   UNL     1     -11.132  12.146  63.559  1.00  0.00    -0.452 C  
HETATM   16  O   UNL     1     -12.412  11.967  62.941  1.00  0.00    -0.744 OA 
HETATM   17  H   UNL     1     -12.581  12.686  62.344  1.00  0.00     0.000 HD 
BRANCH  15  18
HETATM   18  C   UNL     1     -11.080  13.519  64.252  1.00  0.00    -0.351 C  
BRANCH  18  19
HETATM   19  N   UNL     1     -12.246  13.742  65.114  1.00  0.00    -0.406 NA 
HETATM   20  H   UNL     1     -12.864  12.930  65.101  1.00  0.00     0.000 HD 
BRANCH  19  21
HETATM   21  C   UNL     1     -11.902  14.108  66.492  1.00  0.00    -0.419 C  
HETATM   22  C   UNL     1     -11.478  12.906  67.340  1.00  0.00    -0.388 C  
HETATM   23  C   UNL     1     -10.750  15.116  66.435  1.00  0.00    -0.317 C  
ENDBRANCH  19  21
ENDBRANCH  18  19
ENDBRANCH  15  18
ENDBRANCH  14  15
ENDBRANCH  13  14
ENDBRANCH  10  13
ENDBRANCH   6   7
ENDBRANCH   5   6
ENDBRANCH   3   5
ENDBRANCH   2   3
TORSDOF 10
ENDMDL
MODEL      243
REMARK 921   NORMALIZED FREE ENERGY PREDICTED BY IDOCK:   -3.12 KCAL/MOL
REMARK 922        TOTAL FREE ENERGY PREDICTED BY IDOCK:   -5.82 KCAL/MOL
REMARK 923 INTER-LIGAND FREE ENERGY PREDICTED BY IDOCK:   -5.21 KCAL/MOL
REMARK 924 INTRA-LIGAND FREE ENERGY PREDICTED BY IDOCK:   -0.61 KCAL/MOL
REMARK 927      BINDING AFFINITY PREDICTED BY RF-SCORE:    0.00 PKD
ROOT
HETATM    1  C   UNL     1     -10.765   6.963  67.638  1.00  0.00    -0.274 C  
HETATM    2  O   UNL     1     -10.462   7.715  66.466  1.00  0.00    -0.215 OA 
ENDROOT
BRANCH   2   3
HETATM    3  C   UNL     1      -9.141   8.029  66.333  1.00  0.00    -0.183 C  
HETATM    4  O   UNL     1      -8.214   7.415  66.846  1.00  0.00    -0.117 OA 
BRANCH   3   5
HETATM    5  C   UNL     1      -9.010   9.254  65.476  1.00  0.00    -0.251 C  
BRANCH   5   6
HETATM    6  C   UNL     1     -10.279  10.112  65.483  1.00  0.00    -0.288 C  
BRANCH   6   7
HETATM    7  C   UNL     1     -10.080  11.470  66.120  1.00  0.00    -0.266 A  
HETATM    8  C   UNL     1      -9.039  11.691  67.023  1.00  0.00    -0.179 A  
HETATM    9  C   UNL     1      -8.861  12.932  67.624  1.00  0.00    -0.187 A  
HETATM   10  C   UNL     1      -9.709  13.999  67.326  1.00  0.00    -0.237 A  
HETATM   11  C   UNL     1     -10.909  12.553  65.783  1.00  0.00    -0.310 A  
HETATM   12  C   UNL     1     -10.725  13.807  66.388  1.00  0.00    -0.281 A  
BRANCH  10  13
HETATM   13  O   UNL     1      -9.609  15.247  67.894  1.00  0.00    -0.198 OA 
BRANCH  13  14
HETATM   14  C   UNL     1      -8.258  15.705  68.076  1.00  0.00    -0.144 C  
BRANCH  14  15
HETATM   15  C   UNL     1      -7.911  16.828  67.096  1.00  0.00    -0.177 C  
HETATM   16  O   UNL     1      -8.981  16.995  66.158  1.00  0.00    -0.400 OA 
HETATM   17  H   UNL     1      -8.765  17.692  65.549  1.00  0.00     0.000 HD 
BRANCH  15  18
HETATM   18  C   UNL     1      -7.627  18.167  67.800  1.00  0.00    -0.222 C  
BRANCH  18  19
HETATM   19  N   UNL     1      -8.027  19.315  66.978  1.00  0.00    -0.252 NA 
HETATM   20  H   UNL     1      -8.359  19.004  66.065  1.00  0.00     0.000 HD 
BRANCH  19  21
HETATM   21  C   UNL     1      -9.018  20.185  67.620  1.00  0.00    -0.315 C  
HETATM   22  C   UNL     1     -10.167  20.572  66.686  1.00  0.00    -0.237 C  
HETATM   23  C   UNL     1      -9.582  19.438  68.832  1.00  0.00    -0.477 C  
ENDBRANCH  19  21
ENDBRANCH  18  19
ENDBRANCH  15  18
ENDBRANCH  14  15
ENDBRANCH  13  14
ENDBRANCH  10  13
ENDBRANCH   6   7
ENDBRANCH   5   6
ENDBRANCH   3   5
ENDBRANCH   2   3
TORSDOF 10
ENDMDL
MODEL      244
REMARK 921   NORMALIZED FREE ENERGY PREDICTED BY IDOCK:   -3.11 KCAL/MOL
REMARK 922        TOTAL FREE ENERGY PREDICTED BY IDOCK:   -5.80 KCAL/MOL
REMARK 923 INTER-LIGAND FREE ENERGY PREDICTED BY IDOCK:   -4.81 KCAL/MOL
REMARK 924 INTRA-LIGAND FREE ENERGY PREDICTED BY IDOCK:   -0.99 KCAL/MOL
REMARK 927      BINDING AFFINITY PREDICTED BY RF-SCORE:    0.00 PKD
ROOT
HETATM    1  C   UNL     1     -12.352   8.481  72.371  1.00  0.00    -0.359 C  
HETATM    2  O   UNL     1     -11.286   7.657  72.837  1.00  0.00    -0.369 OA 
ENDROOT
BRANCH   2   3
HETATM    3  C   UNL     1     -11.254   6.417  72.272  1.00  0.00    -0.276 C  
HETATM    4  O   UNL     1     -10.946   5.384  72.853  1.00  0.00    -0.246 OA 
BRANCH   3   5
HETATM    5  C   UNL     1     -11.634   6.524  70.824  1.00  0.00    -0.437 C  
BRANCH   5   6
HETATM    6  C   UNL     1     -10.881   5.519  69.945  1.00  0.00    -0.298 C  
BRANCH   6   7
HETATM    7  C   UNL     1      -9.999   6.177  68.907  1.00  0.00    -0.185 A  
HETATM    8  C   UNL     1      -9.167   7.245  69.247  1.00  0.00    -0.144 A  
HETATM    9  C   UNL     1      -8.367   7.863  68.294  1.00  0.00    -0.124 A  
HETATM   10  C   UNL     1      -8.359   7.422  66.971  1.00  0.00    -0.121 A  
HETATM   11  C   UNL     1      -9.962   5.700  67.586  1.00  0.00    -0.177 A  
HETATM   12  C   UNL     1      -9.150   6.324  66.625  1.00  0.00    -0.152 A  
BRANCH  10  13
HETATM   13  O   UNL     1      -7.612   7.995  65.969  1.00  0.00    -0.082 OA 
BRANCH  13  14
HETATM   14  C   UNL     1      -8.049   7.654  64.641  1.00  0.00    -0.112 C  
BRANCH  14  15
HETATM   15  C   UNL     1      -7.659   8.735  63.629  1.00  0.00    -0.124 C  
HETATM   16  O   UNL     1      -7.165   8.118  62.434  1.00  0.00    -0.092 OA 
HETATM   17  H   UNL     1      -6.923   8.789  61.806  1.00  0.00     0.000 HD 
BRANCH  15  18
HETATM   18  C   UNL     1      -8.827   9.675  63.282  1.00  0.00    -0.238 C  
BRANCH  18  19
HETATM   19  N   UNL     1      -9.748   9.846  64.411  1.00  0.00    -0.408 NA 
HETATM   20  H   UNL     1      -9.489   9.230  65.182  1.00  0.00     0.000 HD 
BRANCH  19  21
HETATM   21  C   UNL     1      -9.864  11.233  64.874  1.00  0.00    -0.264 C  
HETATM   22  C   UNL     1     -11.222  11.859  64.549  1.00  0.00    -0.380 C  
HETATM   23  C   UNL     1      -9.656  11.239  66.392  1.00  0.00    -0.223 C  
ENDBRANCH  19  21
ENDBRANCH  18  19
ENDBRANCH  15  18
ENDBRANCH  14  15
ENDBRANCH  13  14
ENDBRANCH  10  13
ENDBRANCH   6   7
ENDBRANCH   5   6
ENDBRANCH   3   5
ENDBRANCH   2   3
TORSDOF 10
ENDMDL
MODEL      245
REMARK 921   NORMALIZED FREE ENERGY PREDICTED BY IDOCK:   -3.10 KCAL/MOL
REMARK 922        TOTAL FREE ENERGY PREDICTED BY IDOCK:   -5.79 KCAL/MOL
REMARK 923 INTER-LIGAND FREE ENERGY PREDICTED BY IDOCK:   -5.37 KCAL/MOL
REMARK 924 INTRA-LIGAND FREE ENERGY PREDICTED BY IDOCK:   -0.42 KCAL/MOL
REMARK 927      BINDING AFFINITY PREDICTED BY RF-SCORE:    0.00 PKD
ROOT
HETATM    1  C   UNL     1      -8.810   4.285  62.436  1.00  0.00    -0.103 C  
HETATM    2  O   UNL     1      -9.230   3.140  63.175  1.00  0.00    -0.095 OA 
ENDROOT
BRANCH   2   3
HETATM    3  C   UNL     1     -10.208   3.397  64.090  1.00  0.00    -0.195 C  
HETATM    4  O   UNL     1     -11.360   3.713  63.822  1.00  0.00    -0.207 OA 
BRANCH   3   5
HETATM    5  C   UNL     1      -9.641   3.249  65.472  1.00  0.00    -0.052 C  
BRANCH   5   6
HETATM    6  C   UNL     1      -8.605   4.330  65.798  1.00  0.00    -0.114 C  
BRANCH   6   7
HETATM    7  C   UNL     1      -9.194   5.527  66.511  1.00  0.00    -0.144 A  
HETATM    8  C   UNL     1     -10.024   5.363  67.620  1.00  0.00    -0.195 A  
HETATM    9  C   UNL     1     -10.582   6.459  68.268  1.00  0.00    -0.312 A  
HETATM   10  C   UNL     1     -10.312   7.758  67.838  1.00  0.00    -0.217 A  
HETATM   11  C   UNL     1      -8.883   6.834  66.100  1.00  0.00    -0.161 A  
HETATM   12  C   UNL     1      -9.445   7.941  66.759  1.00  0.00    -0.257 A  
BRANCH  10  13
HETATM   13  O   UNL     1     -10.841   8.889  68.413  1.00  0.00    -0.125 OA 
BRANCH  13  14
HETATM   14  C   UNL     1     -10.748  10.066  67.592  1.00  0.00    -0.284 C  
BRANCH  14  15
HETATM   15  C   UNL     1     -11.357  11.285  68.290  1.00  0.00    -0.289 C  
HETATM   16  O   UNL     1     -10.485  11.724  69.338  1.00  0.00    -0.430 OA 
HETATM   17  H   UNL     1     -10.863  12.480  69.771  1.00  0.00     0.000 HD 
BRANCH  15  18
HETATM   18  C   UNL     1     -11.632  12.450  67.323  1.00  0.00    -0.365 C  
BRANCH  18  19
HETATM   19  N   UNL     1     -12.066  11.977  66.003  1.00  0.00    -0.502 NA 
HETATM   20  H   UNL     1     -12.999  11.567  66.057  1.00  0.00     0.000 HD 
BRANCH  19  21
HETATM   21  C   UNL     1     -12.014  13.007  64.960  1.00  0.00    -0.397 C  
HETATM   22  C   UNL     1     -12.389  12.473  63.575  1.00  0.00    -0.623 C  
HETATM   23  C   UNL     1     -12.989  14.121  65.352  1.00  0.00    -0.300 C  
ENDBRANCH  19  21
ENDBRANCH  18  19
ENDBRANCH  15  18
ENDBRANCH  14  15
ENDBRANCH  13  14
ENDBRANCH  10  13
ENDBRANCH   6   7
ENDBRANCH   5   6
ENDBRANCH   3   5
ENDBRANCH   2   3
TORSDOF 10
ENDMDL
MODEL      246
REMARK 921   NORMALIZED FREE ENERGY PREDICTED BY IDOCK:   -3.07 KCAL/MOL
REMARK 922        TOTAL FREE ENERGY PREDICTED BY IDOCK:   -5.75 KCAL/MOL
REMARK 923 INTER-LIGAND FREE ENERGY PREDICTED BY IDOCK:   -5.40 KCAL/MOL
REMARK 924 INTRA-LIGAND FREE ENERGY PREDICTED BY IDOCK:   -0.35 KCAL/MOL
REMARK 927      BINDING AFFINITY PREDICTED BY RF-SCORE:    0.00 PKD
ROOT
HETATM    1  C   UNL     1      -8.552   8.371  65.581  1.00  0.00    -0.174 C  
HETATM    2  O   UNL     1      -7.389   8.516  64.771  1.00  0.00    -0.086 OA 
ENDROOT
BRANCH   2   3
HETATM    3  C   UNL     1      -6.269   8.868  65.463  1.00  0.00    -0.056 C  
HETATM    4  O   UNL     1      -5.130   8.869  65.012  1.00  0.00    -0.037 OA 
BRANCH   3   5
HETATM    5  C   UNL     1      -6.652   9.232  66.868  1.00  0.00    -0.068 C  
BRANCH   5   6
HETATM    6  C   UNL     1      -6.133  10.615  67.276  1.00  0.00    -0.055 C  
BRANCH   6   7
HETATM    7  C   UNL     1      -7.178  11.704  67.159  1.00  0.00    -0.145 A  
HETATM    8  C   UNL     1      -8.463  11.415  66.699  1.00  0.00    -0.171 A  
HETATM    9  C   UNL     1      -9.422  12.414  66.573  1.00  0.00    -0.242 A  
HETATM   10  C   UNL     1      -9.130  13.733  66.920  1.00  0.00    -0.242 A  
HETATM   11  C   UNL     1      -6.892  13.021  67.551  1.00  0.00    -0.156 A  
HETATM   12  C   UNL     1      -7.863  14.029  67.426  1.00  0.00    -0.188 A  
BRANCH  10  13
HETATM   13  O   UNL     1     -10.017  14.777  66.803  1.00  0.00    -0.241 OA 
BRANCH  13  14
HETATM   14  C   UNL     1     -10.510  15.273  68.060  1.00  0.00    -0.248 C  
BRANCH  14  15
HETATM   15  C   UNL     1     -11.968  14.865  68.289  1.00  0.00    -0.212 C  
HETATM   16  O   UNL     1     -12.417  14.052  67.197  1.00  0.00    -0.533 OA 
HETATM   17  H   UNL     1     -13.322  13.799  67.339  1.00  0.00     0.000 HD 
BRANCH  15  18
HETATM   18  C   UNL     1     -12.175  14.110  69.614  1.00  0.00    -0.326 C  
BRANCH  18  19
HETATM   19  N   UNL     1     -13.013  14.867  70.551  1.00  0.00    -0.562 NA 
HETATM   20  H   UNL     1     -13.998  14.782  70.302  1.00  0.00     0.000 HD 
BRANCH  19  21
HETATM   21  C   UNL     1     -12.802  14.505  71.958  1.00  0.00    -0.337 C  
HETATM   22  C   UNL     1     -13.075  15.664  72.919  1.00  0.00    -0.621 C  
HETATM   23  C   UNL     1     -13.743  13.343  72.287  1.00  0.00    -0.705 C  
ENDBRANCH  19  21
ENDBRANCH  18  19
ENDBRANCH  15  18
ENDBRANCH  14  15
ENDBRANCH  13  14
ENDBRANCH  10  13
ENDBRANCH   6   7
ENDBRANCH   5   6
ENDBRANCH   3   5
ENDBRANCH   2   3
TORSDOF 10
ENDMDL
MODEL      247
REMARK 921   NORMALIZED FREE ENERGY PREDICTED BY IDOCK:   -3.07 KCAL/MOL
REMARK 922        TOTAL FREE ENERGY PREDICTED BY IDOCK:   -5.75 KCAL/MOL
REMARK 923 INTER-LIGAND FREE ENERGY PREDICTED BY IDOCK:   -4.88 KCAL/MOL
REMARK 924 INTRA-LIGAND FREE ENERGY PREDICTED BY IDOCK:   -0.86 KCAL/MOL
REMARK 927      BINDING AFFINITY PREDICTED BY RF-SCORE:    0.00 PKD
ROOT
HETATM    1  C   UNL     1      -9.585  19.890  66.003  1.00  0.00    -0.346 C  
HETATM    2  O   UNL     1      -9.319  20.274  67.350  1.00  0.00    -0.363 OA 
ENDROOT
BRANCH   2   3
HETATM    3  C   UNL     1      -9.841  19.427  68.283  1.00  0.00    -0.410 C  
HETATM    4  O   UNL     1     -10.285  19.764  69.373  1.00  0.00    -0.347 OA 
BRANCH   3   5
HETATM    5  C   UNL     1      -9.763  18.019  67.769  1.00  0.00    -0.292 C  
BRANCH   5   6
HETATM    6  C   UNL     1      -8.538  17.269  68.301  1.00  0.00    -0.247 C  
BRANCH   6   7
HETATM    7  C   UNL     1      -8.658  15.765  68.180  1.00  0.00    -0.164 A  
HETATM    8  C   UNL     1      -9.875  15.124  68.418  1.00  0.00    -0.223 A  
HETATM    9  C   UNL     1      -9.987  13.741  68.325  1.00  0.00    -0.243 A  
HETATM   10  C   UNL     1      -8.889  12.956  67.973  1.00  0.00    -0.195 A  
HETATM   11  C   UNL     1      -7.561  14.984  67.782  1.00  0.00    -0.175 A  
HETATM   12  C   UNL     1      -7.678  13.588  67.685  1.00  0.00    -0.180 A  
BRANCH  10  13
HETATM   13  O   UNL     1      -8.917  11.585  67.881  1.00  0.00    -0.148 OA 
BRANCH  13  14
HETATM   14  C   UNL     1      -7.812  10.929  68.527  1.00  0.00    -0.126 C  
BRANCH  14  15
HETATM   15  C   UNL     1      -8.289   9.804  69.449  1.00  0.00    -0.152 C  
HETATM   16  O   UNL     1      -9.514  10.191  70.084  1.00  0.00    -0.389 OA 
HETATM   17  H   UNL     1      -9.810   9.493  70.657  1.00  0.00     0.000 HD 
BRANCH  15  18
HETATM   18  C   UNL     1      -8.490   8.470  68.708  1.00  0.00    -0.123 C  
BRANCH  18  19
HETATM   19  N   UNL     1      -8.145   8.576  67.286  1.00  0.00    -0.104 NA 
HETATM   20  H   UNL     1      -7.203   8.223  67.117  1.00  0.00     0.000 HD 
BRANCH  19  21
HETATM   21  C   UNL     1      -9.109   7.922  66.393  1.00  0.00    -0.179 C  
HETATM   22  C   UNL     1      -9.060   6.395  66.479  1.00  0.00    -0.162 C  
HETATM   23  C   UNL     1     -10.509   8.406  66.782  1.00  0.00    -0.315 C  
ENDBRANCH  19  21
ENDBRANCH  18  19
ENDBRANCH  15  18
ENDBRANCH  14  15
ENDBRANCH  13  14
ENDBRANCH  10  13
ENDBRANCH   6   7
ENDBRANCH   5   6
ENDBRANCH   3   5
ENDBRANCH   2   3
TORSDOF 10
ENDMDL
MODEL      248
REMARK 921   NORMALIZED FREE ENERGY PREDICTED BY IDOCK:   -3.07 KCAL/MOL
REMARK 922        TOTAL FREE ENERGY PREDICTED BY IDOCK:   -5.74 KCAL/MOL
REMARK 923 INTER-LIGAND FREE ENERGY PREDICTED BY IDOCK:   -4.51 KCAL/MOL
REMARK 924 INTRA-LIGAND FREE ENERGY PREDICTED BY IDOCK:   -1.23 KCAL/MOL
REMARK 927      BINDING AFFINITY PREDICTED BY RF-SCORE:    0.00 PKD
ROOT
HETATM    1  C   UNL     1     -10.746   4.720  71.909  1.00  0.00    -0.009 C  
HETATM    2  O   UNL     1      -9.594   5.510  72.195  1.00  0.00    -0.149 OA 
ENDROOT
BRANCH   2   3
HETATM    3  C   UNL     1      -9.700   6.810  71.799  1.00  0.00    -0.160 C  
HETATM    4  O   UNL     1      -9.480   7.784  72.507  1.00  0.00    -0.152 OA 
BRANCH   3   5
HETATM    5  C   UNL     1     -10.147   6.855  70.367  1.00  0.00    -0.201 C  
BRANCH   5   6
HETATM    6  C   UNL     1      -8.990   6.637  69.385  1.00  0.00    -0.133 C  
BRANCH   6   7
HETATM    7  C   UNL     1      -8.920   7.689  68.300  1.00  0.00    -0.127 A  
HETATM    8  C   UNL     1      -8.201   8.869  68.493  1.00  0.00    -0.116 A  
HETATM    9  C   UNL     1      -8.147   9.846  67.507  1.00  0.00    -0.110 A  
HETATM   10  C   UNL     1      -8.797   9.667  66.286  1.00  0.00    -0.151 A  
HETATM   11  C   UNL     1      -9.540   7.483  67.057  1.00  0.00    -0.221 A  
HETATM   12  C   UNL     1      -9.481   8.471  66.059  1.00  0.00    -0.256 A  
BRANCH  10  13
HETATM   13  O   UNL     1      -8.807  10.595  65.271  1.00  0.00    -0.181 OA 
BRANCH  13  14
HETATM   14  C   UNL     1     -10.048  10.662  64.547  1.00  0.00    -0.353 C  
BRANCH  14  15
HETATM   15  C   UNL     1     -10.705  12.038  64.689  1.00  0.00    -0.309 C  
HETATM   16  O   UNL     1     -11.749  12.174  63.719  1.00  0.00    -0.407 OA 
HETATM   17  H   UNL     1     -12.157  13.028  63.806  1.00  0.00     0.000 HD 
BRANCH  15  18
HETATM   18  C   UNL     1     -11.272  12.285  66.098  1.00  0.00    -0.328 C  
BRANCH  18  19
HETATM   19  N   UNL     1     -10.265  12.850  67.003  1.00  0.00    -0.241 NA 
HETATM   20  H   UNL     1     -10.117  13.840  66.804  1.00  0.00     0.000 HD 
BRANCH  19  21
HETATM   21  C   UNL     1     -10.568  12.649  68.425  1.00  0.00    -0.243 C  
HETATM   22  C   UNL     1     -11.457  13.750  69.007  1.00  0.00    -0.349 C  
HETATM   23  C   UNL     1     -11.279  11.300  68.565  1.00  0.00    -0.311 C  
ENDBRANCH  19  21
ENDBRANCH  18  19
ENDBRANCH  15  18
ENDBRANCH  14  15
ENDBRANCH  13  14
ENDBRANCH  10  13
ENDBRANCH   6   7
ENDBRANCH   5   6
ENDBRANCH   3   5
ENDBRANCH   2   3
TORSDOF 10
ENDMDL
MODEL      249
REMARK 921   NORMALIZED FREE ENERGY PREDICTED BY IDOCK:   -3.05 KCAL/MOL
REMARK 922        TOTAL FREE ENERGY PREDICTED BY IDOCK:   -5.72 KCAL/MOL
REMARK 923 INTER-LIGAND FREE ENERGY PREDICTED BY IDOCK:   -5.19 KCAL/MOL
REMARK 924 INTRA-LIGAND FREE ENERGY PREDICTED BY IDOCK:   -0.53 KCAL/MOL
REMARK 927      BINDING AFFINITY PREDICTED BY RF-SCORE:    0.00 PKD
ROOT
HETATM    1  C   UNL     1      -8.040   3.908  66.237  1.00  0.00    -0.097 C  
HETATM    2  O   UNL     1      -7.849   5.301  66.470  1.00  0.00    -0.098 OA 
ENDROOT
BRANCH   2   3
HETATM    3  C   UNL     1      -7.357   5.595  67.708  1.00  0.00    -0.077 C  
HETATM    4  O   UNL     1      -6.504   6.440  67.947  1.00  0.00    -0.044 OA 
BRANCH   3   5
HETATM    5  C   UNL     1      -8.014   4.705  68.723  1.00  0.00    -0.079 C  
BRANCH   5   6
HETATM    6  C   UNL     1      -7.756   5.168  70.161  1.00  0.00    -0.071 C  
BRANCH   6   7
HETATM    7  C   UNL     1      -8.804   6.131  70.676  1.00  0.00    -0.143 A  
HETATM    8  C   UNL     1     -10.157   5.930  70.401  1.00  0.00    -0.259 A  
HETATM    9  C   UNL     1     -11.122   6.821  70.858  1.00  0.00    -0.322 A  
HETATM   10  C   UNL     1     -10.765   7.933  71.620  1.00  0.00    -0.223 A  
HETATM   11  C   UNL     1      -8.443   7.225  71.480  1.00  0.00    -0.113 A  
HETATM   12  C   UNL     1      -9.420   8.122  71.943  1.00  0.00    -0.260 A  
BRANCH  10  13
HETATM   13  O   UNL     1     -11.658   8.868  72.088  1.00  0.00    -0.363 OA 
BRANCH  13  14
HETATM   14  C   UNL     1     -11.695  10.083  71.320  1.00  0.00    -0.369 C  
BRANCH  14  15
HETATM   15  C   UNL     1     -13.024  10.821  71.503  1.00  0.00    -0.456 C  
HETATM   16  O   UNL     1     -13.867  10.079  72.392  1.00  0.00    -0.544 OA 
HETATM   17  H   UNL     1     -14.692  10.537  72.506  1.00  0.00     0.000 HD 
BRANCH  15  18
HETATM   18  C   UNL     1     -12.842  12.253  72.036  1.00  0.00    -0.155 C  
BRANCH  18  19
HETATM   19  N   UNL     1     -12.880  13.249  70.959  1.00  0.00    -0.275 NA 
HETATM   20  H   UNL     1     -13.836  13.393  70.636  1.00  0.00     0.000 HD 
BRANCH  19  21
HETATM   21  C   UNL     1     -12.255  14.528  71.314  1.00  0.00    -0.355 C  
HETATM   22  C   UNL     1     -11.708  15.282  70.100  1.00  0.00    -0.342 C  
HETATM   23  C   UNL     1     -13.315  15.389  72.007  1.00  0.00    -0.545 C  
ENDBRANCH  19  21
ENDBRANCH  18  19
ENDBRANCH  15  18
ENDBRANCH  14  15
ENDBRANCH  13  14
ENDBRANCH  10  13
ENDBRANCH   6   7
ENDBRANCH   5   6
ENDBRANCH   3   5
ENDBRANCH   2   3
TORSDOF 10
ENDMDL
MODEL      250
REMARK 921   NORMALIZED FREE ENERGY PREDICTED BY IDOCK:   -3.02 KCAL/MOL
REMARK 922        TOTAL FREE ENERGY PREDICTED BY IDOCK:   -5.66 KCAL/MOL
REMARK 923 INTER-LIGAND FREE ENERGY PREDICTED BY IDOCK:   -5.18 KCAL/MOL
REMARK 924 INTRA-LIGAND FREE ENERGY PREDICTED BY IDOCK:   -0.48 KCAL/MOL
REMARK 927      BINDING AFFINITY PREDICTED BY RF-SCORE:    0.00 PKD
ROOT
HETATM    1  C   UNL     1      -9.587  20.180  66.857  1.00  0.00    -0.430 C  
HETATM    2  O   UNL     1      -9.441  18.774  66.674  1.00  0.00    -0.307 OA 
ENDROOT
BRANCH   2   3
HETATM    3  C   UNL     1      -9.311  18.073  67.837  1.00  0.00    -0.264 C  
HETATM    4  O   UNL     1      -8.325  18.085  68.563  1.00  0.00    -0.300 OA 
BRANCH   3   5
HETATM    5  C   UNL     1     -10.558  17.272  68.071  1.00  0.00    -0.394 C  
BRANCH   5   6
HETATM    6  C   UNL     1     -10.475  16.415  69.339  1.00  0.00    -0.309 C  
BRANCH   6   7
HETATM    7  C   UNL     1     -10.645  14.935  69.073  1.00  0.00    -0.245 A  
HETATM    8  C   UNL     1     -11.805  14.267  69.467  1.00  0.00    -0.378 A  
HETATM    9  C   UNL     1     -11.960  12.904  69.241  1.00  0.00    -0.313 A  
HETATM   10  C   UNL     1     -10.965  12.169  68.596  1.00  0.00    -0.245 A  
HETATM   11  C   UNL     1      -9.659  14.209  68.385  1.00  0.00    -0.225 A  
HETATM   12  C   UNL     1      -9.819  12.832  68.154  1.00  0.00    -0.226 A  
BRANCH  10  13
HETATM   13  O   UNL     1     -11.037  10.817  68.356  1.00  0.00    -0.225 OA 
BRANCH  13  14
HETATM   14  C   UNL     1      -9.760  10.189  68.138  1.00  0.00    -0.139 C  
BRANCH  14  15
HETATM   15  C   UNL     1      -9.846   8.671  68.316  1.00  0.00    -0.165 C  
HETATM   16  O   UNL     1     -11.015   8.175  67.653  1.00  0.00    -0.508 OA 
HETATM   17  H   UNL     1     -11.068   7.232  67.764  1.00  0.00     0.000 HD 
BRANCH  15  18
HETATM   18  C   UNL     1      -8.600   7.938  67.786  1.00  0.00    -0.128 C  
BRANCH  18  19
HETATM   19  N   UNL     1      -8.953   6.717  67.053  1.00  0.00    -0.113 NA 
HETATM   20  H   UNL     1      -9.513   6.941  66.231  1.00  0.00     0.000 HD 
BRANCH  19  21
HETATM   21  C   UNL     1      -7.795   5.895  66.682  1.00  0.00    -0.101 C  
HETATM   22  C   UNL     1      -8.129   4.837  65.629  1.00  0.00    -0.111 C  
HETATM   23  C   UNL     1      -6.714   6.831  66.133  1.00  0.00    -0.052 C  
ENDBRANCH  19  21
ENDBRANCH  18  19
ENDBRANCH  15  18
ENDBRANCH  14  15
ENDBRANCH  13  14
ENDBRANCH  10  13
ENDBRANCH   6   7
ENDBRANCH   5   6
ENDBRANCH   3   5
ENDBRANCH   2   3
TORSDOF 10
ENDMDL
MODEL      251
REMARK 921   NORMALIZED FREE ENERGY PREDICTED BY IDOCK:   -3.00 KCAL/MOL
REMARK 922        TOTAL FREE ENERGY PREDICTED BY IDOCK:   -5.63 KCAL/MOL
REMARK 923 INTER-LIGAND FREE ENERGY PREDICTED BY IDOCK:   -4.96 KCAL/MOL
REMARK 924 INTRA-LIGAND FREE ENERGY PREDICTED BY IDOCK:   -0.67 KCAL/MOL
REMARK 927      BINDING AFFINITY PREDICTED BY RF-SCORE:    0.00 PKD
ROOT
HETATM    1  C   UNL     1      -6.516   8.989  63.741  1.00  0.00    -0.088 C  
HETATM    2  O   UNL     1      -7.439   9.634  64.615  1.00  0.00    -0.112 OA 
ENDROOT
BRANCH   2   3
HETATM    3  C   UNL     1      -8.670   9.844  64.067  1.00  0.00    -0.212 C  
HETATM    4  O   UNL     1      -8.903   9.940  62.869  1.00  0.00    -0.202 OA 
BRANCH   3   5
HETATM    5  C   UNL     1      -9.685   9.958  65.166  1.00  0.00    -0.376 C  
BRANCH   5   6
HETATM    6  C   UNL     1      -9.261  10.948  66.256  1.00  0.00    -0.197 C  
BRANCH   6   7
HETATM    7  C   UNL     1      -9.791  10.593  67.627  1.00  0.00    -0.191 A  
HETATM    8  C   UNL     1      -8.954  10.040  68.597  1.00  0.00    -0.136 A  
HETATM    9  C   UNL     1      -9.440   9.695  69.853  1.00  0.00    -0.260 A  
HETATM   10  C   UNL     1     -10.777   9.910  70.186  1.00  0.00    -0.308 A  
HETATM   11  C   UNL     1     -11.128  10.852  67.972  1.00  0.00    -0.351 A  
HETATM   12  C   UNL     1     -11.616  10.506  69.243  1.00  0.00    -0.308 A  
BRANCH  10  13
HETATM   13  O   UNL     1     -11.335   9.577  71.398  1.00  0.00    -0.350 OA 
BRANCH  13  14
HETATM   14  C   UNL     1     -10.460   8.834  72.264  1.00  0.00    -0.247 C  
BRANCH  14  15
HETATM   15  C   UNL     1     -11.208   7.707  72.983  1.00  0.00    -0.333 C  
HETATM   16  O   UNL     1     -12.346   7.315  72.206  1.00  0.00    -0.465 OA 
HETATM   17  H   UNL     1     -12.811   6.616  72.652  1.00  0.00     0.000 HD 
BRANCH  15  18
HETATM   18  C   UNL     1     -10.319   6.480  73.255  1.00  0.00    -0.241 C  
BRANCH  18  19
HETATM   19  N   UNL     1      -9.053   6.546  72.517  1.00  0.00    -0.136 NA 
HETATM   20  H   UNL     1      -8.262   6.558  73.162  1.00  0.00     0.000 HD 
BRANCH  19  21
HETATM   21  C   UNL     1      -8.892   5.480  71.522  1.00  0.00    -0.136 C  
HETATM   22  C   UNL     1      -7.441   5.021  71.368  1.00  0.00    -0.086 C  
HETATM   23  C   UNL     1      -9.753   4.293  71.964  1.00  0.00    -0.227 C  
ENDBRANCH  19  21
ENDBRANCH  18  19
ENDBRANCH  15  18
ENDBRANCH  14  15
ENDBRANCH  13  14
ENDBRANCH  10  13
ENDBRANCH   6   7
ENDBRANCH   5   6
ENDBRANCH   3   5
ENDBRANCH   2   3
TORSDOF 10
ENDMDL
MODEL      252
REMARK 921   NORMALIZED FREE ENERGY PREDICTED BY IDOCK:   -2.97 KCAL/MOL
REMARK 922        TOTAL FREE ENERGY PREDICTED BY IDOCK:   -5.58 KCAL/MOL
REMARK 923 INTER-LIGAND FREE ENERGY PREDICTED BY IDOCK:   -4.94 KCAL/MOL
REMARK 924 INTRA-LIGAND FREE ENERGY PREDICTED BY IDOCK:   -0.64 KCAL/MOL
REMARK 927      BINDING AFFINITY PREDICTED BY RF-SCORE:    0.00 PKD
ROOT
HETATM    1  C   UNL     1     -10.998   3.137  63.227  1.00  0.00    -0.135 C  
HETATM    2  O   UNL     1     -10.577   3.742  64.447  1.00  0.00    -0.246 OA 
ENDROOT
BRANCH   2   3
HETATM    3  C   UNL     1      -9.290   4.193  64.429  1.00  0.00    -0.160 C  
HETATM    4  O   UNL     1      -8.800   4.896  63.554  1.00  0.00    -0.138 OA 
BRANCH   3   5
HETATM    5  C   UNL     1      -8.569   3.673  65.638  1.00  0.00    -0.113 C  
BRANCH   5   6
HETATM    6  C   UNL     1      -9.521   3.053  66.666  1.00  0.00    -0.043 C  
BRANCH   6   7
HETATM    7  C   UNL     1      -9.454   3.722  68.022  1.00  0.00    -0.221 A  
HETATM    8  C   UNL     1      -9.265   5.100  68.132  1.00  0.00    -0.136 A  
HETATM    9  C   UNL     1      -9.186   5.717  69.375  1.00  0.00    -0.145 A  
HETATM   10  C   UNL     1      -9.313   4.977  70.550  1.00  0.00    -0.156 A  
HETATM   11  C   UNL     1      -9.627   2.978  69.201  1.00  0.00    -0.069 A  
HETATM   12  C   UNL     1      -9.551   3.604  70.456  1.00  0.00    -0.256 A  
BRANCH  10  13
HETATM   13  O   UNL     1      -9.225   5.511  71.814  1.00  0.00    -0.141 OA 
BRANCH  13  14
HETATM   14  C   UNL     1      -8.726   6.860  71.849  1.00  0.00    -0.126 C  
BRANCH  14  15
HETATM   15  C   UNL     1      -9.530   7.729  72.819  1.00  0.00    -0.215 C  
HETATM   16  O   UNL     1      -8.662   8.683  73.443  1.00  0.00    -0.333 OA 
HETATM   17  H   UNL     1      -9.161   9.223  74.045  1.00  0.00     0.000 HD 
BRANCH  15  18
HETATM   18  C   UNL     1     -10.698   8.462  72.136  1.00  0.00    -0.337 C  
BRANCH  18  19
HETATM   19  N   UNL     1     -11.999   7.927  72.551  1.00  0.00    -0.532 NA 
HETATM   20  H   UNL     1     -11.990   7.689  73.543  1.00  0.00     0.000 HD 
BRANCH  19  21
HETATM   21  C   UNL     1     -13.128   8.813  72.244  1.00  0.00    -0.409 C  
HETATM   22  C   UNL     1     -12.719  10.036  71.420  1.00  0.00    -0.518 C  
HETATM   23  C   UNL     1     -14.161   7.999  71.459  1.00  0.00    -0.513 C  
ENDBRANCH  19  21
ENDBRANCH  18  19
ENDBRANCH  15  18
ENDBRANCH  14  15
ENDBRANCH  13  14
ENDBRANCH  10  13
ENDBRANCH   6   7
ENDBRANCH   5   6
ENDBRANCH   3   5
ENDBRANCH   2   3
TORSDOF 10
ENDMDL
MODEL      253
REMARK 921   NORMALIZED FREE ENERGY PREDICTED BY IDOCK:   -2.95 KCAL/MOL
REMARK 922        TOTAL FREE ENERGY PREDICTED BY IDOCK:   -5.55 KCAL/MOL
REMARK 923 INTER-LIGAND FREE ENERGY PREDICTED BY IDOCK:   -4.84 KCAL/MOL
REMARK 924 INTRA-LIGAND FREE ENERGY PREDICTED BY IDOCK:   -0.70 KCAL/MOL
REMARK 927      BINDING AFFINITY PREDICTED BY RF-SCORE:    0.00 PKD
ROOT
HETATM    1  C   UNL     1     -10.816   3.614  62.824  1.00  0.00    -0.128 C  
HETATM    2  O   UNL     1     -10.225   3.898  64.089  1.00  0.00    -0.206 OA 
ENDROOT
BRANCH   2   3
HETATM    3  C   UNL     1      -8.901   4.218  64.025  1.00  0.00    -0.138 C  
HETATM    4  O   UNL     1      -8.244   4.307  62.996  1.00  0.00    -0.079 OA 
BRANCH   3   5
HETATM    5  C   UNL     1      -8.376   4.422  65.416  1.00  0.00    -0.111 C  
BRANCH   5   6
HETATM    6  C   UNL     1      -9.381   3.993  66.491  1.00  0.00    -0.192 C  
BRANCH   6   7
HETATM    7  C   UNL     1      -9.837   5.135  67.372  1.00  0.00    -0.193 A  
HETATM    8  C   UNL     1     -10.068   6.404  66.838  1.00  0.00    -0.244 A  
HETATM    9  C   UNL     1     -10.470   7.460  67.646  1.00  0.00    -0.310 A  
HETATM   10  C   UNL     1     -10.673   7.278  69.013  1.00  0.00    -0.166 A  
HETATM   11  C   UNL     1     -10.082   4.935  68.741  1.00  0.00    -0.169 A  
HETATM   12  C   UNL     1     -10.492   6.004  69.555  1.00  0.00    -0.330 A  
BRANCH  10  13
HETATM   13  O   UNL     1     -11.050   8.278  69.879  1.00  0.00    -0.210 OA 
BRANCH  13  14
HETATM   14  C   UNL     1     -10.437   9.551  69.610  1.00  0.00    -0.223 C  
BRANCH  14  15
HETATM   15  C   UNL     1     -11.488  10.632  69.341  1.00  0.00    -0.286 C  
HETATM   16  O   UNL     1     -11.243  11.762  70.187  1.00  0.00    -0.489 OA 
HETATM   17  H   UNL     1     -11.896  12.432  70.020  1.00  0.00     0.000 HD 
BRANCH  15  18
HETATM   18  C   UNL     1     -11.515  11.083  67.870  1.00  0.00    -0.282 C  
BRANCH  18  19
HETATM   19  N   UNL     1     -12.193  12.374  67.705  1.00  0.00    -0.312 NA 
HETATM   20  H   UNL     1     -12.287  12.848  68.603  1.00  0.00     0.000 HD 
BRANCH  19  21
HETATM   21  C   UNL     1     -11.556  13.255  66.720  1.00  0.00    -0.365 C  
HETATM   22  C   UNL     1     -12.288  14.588  66.550  1.00  0.00    -0.167 C  
HETATM   23  C   UNL     1     -10.123  13.522  67.189  1.00  0.00    -0.245 C  
ENDBRANCH  19  21
ENDBRANCH  18  19
ENDBRANCH  15  18
ENDBRANCH  14  15
ENDBRANCH  13  14
ENDBRANCH  10  13
ENDBRANCH   6   7
ENDBRANCH   5   6
ENDBRANCH   3   5
ENDBRANCH   2   3
TORSDOF 10
ENDMDL
MODEL      254
REMARK 921   NORMALIZED FREE ENERGY PREDICTED BY IDOCK:   -2.93 KCAL/MOL
REMARK 922        TOTAL FREE ENERGY PREDICTED BY IDOCK:   -5.51 KCAL/MOL
REMARK 923 INTER-LIGAND FREE ENERGY PREDICTED BY IDOCK:   -4.37 KCAL/MOL
REMARK 924 INTRA-LIGAND FREE ENERGY PREDICTED BY IDOCK:   -1.15 KCAL/MOL
REMARK 927      BINDING AFFINITY PREDICTED BY RF-SCORE:    0.00 PKD
ROOT
HETATM    1  C   UNL     1      -8.678   3.188  67.000  1.00  0.00    -0.124 C  
HETATM    2  O   UNL     1      -7.749   3.999  67.714  1.00  0.00    -0.068 OA 
ENDROOT
BRANCH   2   3
HETATM    3  C   UNL     1      -8.050   4.160  69.034  1.00  0.00    -0.070 C  
HETATM    4  O   UNL     1      -7.244   4.437  69.913  1.00  0.00    -0.048 OA 
BRANCH   3   5
HETATM    5  C   UNL     1      -9.517   3.922  69.238  1.00  0.00    -0.256 C  
BRANCH   5   6
HETATM    6  C   UNL     1     -10.192   5.056  70.016  1.00  0.00    -0.339 C  
BRANCH   6   7
HETATM    7  C   UNL     1     -10.375   6.316  69.199  1.00  0.00    -0.262 A  
HETATM    8  C   UNL     1     -10.786   6.252  67.867  1.00  0.00    -0.417 A  
HETATM    9  C   UNL     1     -10.940   7.405  67.107  1.00  0.00    -0.225 A  
HETATM   10  C   UNL     1     -10.704   8.663  67.660  1.00  0.00    -0.124 A  
HETATM   11  C   UNL     1     -10.179   7.583  69.774  1.00  0.00    -0.211 A  
HETATM   12  C   UNL     1     -10.338   8.747  69.005  1.00  0.00    -0.227 A  
BRANCH  10  13
HETATM   13  O   UNL     1     -10.814   9.846  66.967  1.00  0.00    -0.213 OA 
BRANCH  13  14
HETATM   14  C   UNL     1     -11.165  10.976  67.784  1.00  0.00    -0.308 C  
BRANCH  14  15
HETATM   15  C   UNL     1     -10.288  12.190  67.466  1.00  0.00    -0.205 C  
HETATM   16  O   UNL     1      -9.467  12.500  68.599  1.00  0.00    -0.376 OA 
HETATM   17  H   UNL     1      -8.923  13.254  68.402  1.00  0.00     0.000 HD 
BRANCH  15  18
HETATM   18  C   UNL     1      -9.401  11.977  66.227  1.00  0.00    -0.223 C  
BRANCH  18  19
HETATM   19  N   UNL     1      -7.999  11.739  66.591  1.00  0.00    -0.323 NA 
HETATM   20  H   UNL     1      -7.916  11.531  67.586  1.00  0.00     0.000 HD 
BRANCH  19  21
HETATM   21  C   UNL     1      -7.349  10.695  65.789  1.00  0.00    -0.110 C  
HETATM   22  C   UNL     1      -6.754   9.573  66.642  1.00  0.00    -0.072 C  
HETATM   23  C   UNL     1      -8.402  10.108  64.844  1.00  0.00    -0.166 C  
ENDBRANCH  19  21
ENDBRANCH  18  19
ENDBRANCH  15  18
ENDBRANCH  14  15
ENDBRANCH  13  14
ENDBRANCH  10  13
ENDBRANCH   6   7
ENDBRANCH   5   6
ENDBRANCH   3   5
ENDBRANCH   2   3
TORSDOF 10
ENDMDL
MODEL      255
REMARK 921   NORMALIZED FREE ENERGY PREDICTED BY IDOCK:   -2.92 KCAL/MOL
REMARK 922        TOTAL FREE ENERGY PREDICTED BY IDOCK:   -5.51 KCAL/MOL
REMARK 923 INTER-LIGAND FREE ENERGY PREDICTED BY IDOCK:   -4.81 KCAL/MOL
REMARK 924 INTRA-LIGAND FREE ENERGY PREDICTED BY IDOCK:   -0.70 KCAL/MOL
REMARK 927      BINDING AFFINITY PREDICTED BY RF-SCORE:    0.00 PKD
ROOT
HETATM    1  C   UNL     1     -11.930  14.814  64.552  1.00  0.00    -0.440 C  
HETATM    2  O   UNL     1     -12.861  13.772  64.828  1.00  0.00    -0.685 OA 
ENDROOT
BRANCH   2   3
HETATM    3  C   UNL     1     -12.485  12.550  64.355  1.00  0.00    -0.446 C  
HETATM    4  O   UNL     1     -13.000  11.970  63.407  1.00  0.00    -0.772 OA 
BRANCH   3   5
HETATM    5  C   UNL     1     -11.357  12.023  65.193  1.00  0.00    -0.359 C  
BRANCH   5   6
HETATM    6  C   UNL     1     -11.763  11.810  66.655  1.00  0.00    -0.174 C  
BRANCH   6   7
HETATM    7  C   UNL     1     -10.676  11.169  67.491  1.00  0.00    -0.280 A  
HETATM    8  C   UNL     1      -9.600  11.922  67.963  1.00  0.00    -0.193 A  
HETATM    9  C   UNL     1      -8.590  11.335  68.717  1.00  0.00    -0.109 A  
HETATM   10  C   UNL     1      -8.633   9.979  69.038  1.00  0.00    -0.153 A  
HETATM   11  C   UNL     1     -10.748   9.813  67.848  1.00  0.00    -0.312 A  
HETATM   12  C   UNL     1      -9.728   9.223  68.613  1.00  0.00    -0.158 A  
BRANCH  10  13
HETATM   13  O   UNL     1      -7.664   9.324  69.760  1.00  0.00    -0.079 OA 
BRANCH  13  14
HETATM   14  C   UNL     1      -7.622   7.903  69.536  1.00  0.00    -0.099 C  
BRANCH  14  15
HETATM   15  C   UNL     1      -6.517   7.525  68.545  1.00  0.00    -0.045 C  
HETATM   16  O   UNL     1      -5.250   7.969  69.046  1.00  0.00    -0.022 OA 
HETATM   17  H   UNL     1      -4.565   7.735  68.432  1.00  0.00     0.000 HD 
BRANCH  15  18
HETATM   18  C   UNL     1      -6.461   6.013  68.263  1.00  0.00    -0.046 C  
BRANCH  18  19
HETATM   19  N   UNL     1      -7.639   5.550  67.521  1.00  0.00    -0.088 NA 
HETATM   20  H   UNL     1      -7.375   5.232  66.589  1.00  0.00     0.000 HD 
BRANCH  19  21
HETATM   21  C   UNL     1      -8.410   4.516  68.221  1.00  0.00    -0.090 C  
HETATM   22  C   UNL     1      -7.830   4.167  69.593  1.00  0.00    -0.052 C  
HETATM   23  C   UNL     1      -9.840   5.035  68.394  1.00  0.00    -0.209 C  
ENDBRANCH  19  21
ENDBRANCH  18  19
ENDBRANCH  15  18
ENDBRANCH  14  15
ENDBRANCH  13  14
ENDBRANCH  10  13
ENDBRANCH   6   7
ENDBRANCH   5   6
ENDBRANCH   3   5
ENDBRANCH   2   3
TORSDOF 10
ENDMDL
MODEL      256
REMARK 921   NORMALIZED FREE ENERGY PREDICTED BY IDOCK:   -2.90 KCAL/MOL
REMARK 922        TOTAL FREE ENERGY PREDICTED BY IDOCK:   -5.47 KCAL/MOL
REMARK 923 INTER-LIGAND FREE ENERGY PREDICTED BY IDOCK:   -4.88 KCAL/MOL
REMARK 924 INTRA-LIGAND FREE ENERGY PREDICTED BY IDOCK:   -0.58 KCAL/MOL
REMARK 927      BINDING AFFINITY PREDICTED BY RF-SCORE:    0.00 PKD
ROOT
HETATM    1  C   UNL     1      -9.919  19.776  66.113  1.00  0.00    -0.473 C  
HETATM    2  O   UNL     1      -9.237  18.555  65.838  1.00  0.00    -0.486 OA 
ENDROOT
BRANCH   2   3
HETATM    3  C   UNL     1      -9.351  17.620  66.823  1.00  0.00    -0.278 C  
HETATM    4  O   UNL     1      -9.102  17.808  68.008  1.00  0.00    -0.257 OA 
BRANCH   3   5
HETATM    5  C   UNL     1      -9.808  16.323  66.222  1.00  0.00    -0.334 C  
BRANCH   5   6
HETATM    6  C   UNL     1     -10.970  15.695  67.000  1.00  0.00    -0.261 C  
BRANCH   6   7
HETATM    7  C   UNL     1     -10.893  14.186  67.073  1.00  0.00    -0.295 A  
HETATM    8  C   UNL     1     -11.948  13.393  66.618  1.00  0.00    -0.452 A  
HETATM    9  C   UNL     1     -11.890  12.006  66.698  1.00  0.00    -0.239 A  
HETATM   10  C   UNL     1     -10.766  11.366  67.219  1.00  0.00    -0.241 A  
HETATM   11  C   UNL     1      -9.741  13.545  67.558  1.00  0.00    -0.228 A  
HETATM   12  C   UNL     1      -9.683  12.144  67.634  1.00  0.00    -0.188 A  
BRANCH  10  13
HETATM   13  O   UNL     1     -10.644  10.003  67.350  1.00  0.00    -0.242 OA 
BRANCH  13  14
HETATM   14  C   UNL     1      -9.530   9.441  66.635  1.00  0.00    -0.177 C  
BRANCH  14  15
HETATM   15  C   UNL     1      -8.922   8.255  67.389  1.00  0.00    -0.134 C  
HETATM   16  O   UNL     1      -7.635   7.945  66.841  1.00  0.00    -0.095 OA 
HETATM   17  H   UNL     1      -7.258   7.209  67.308  1.00  0.00     0.000 HD 
BRANCH  15  18
HETATM   18  C   UNL     1      -8.793   8.512  68.900  1.00  0.00    -0.139 C  
BRANCH  18  19
HETATM   19  N   UNL     1      -7.405   8.778  69.295  1.00  0.00    -0.069 NA 
HETATM   20  H   UNL     1      -7.187   9.770  69.196  1.00  0.00     0.000 HD 
BRANCH  19  21
HETATM   21  C   UNL     1      -7.073   8.307  70.644  1.00  0.00    -0.042 C  
HETATM   22  C   UNL     1      -5.797   8.942  71.200  1.00  0.00    -0.046 C  
HETATM   23  C   UNL     1      -8.250   8.652  71.562  1.00  0.00    -0.209 C  
ENDBRANCH  19  21
ENDBRANCH  18  19
ENDBRANCH  15  18
ENDBRANCH  14  15
ENDBRANCH  13  14
ENDBRANCH  10  13
ENDBRANCH   6   7
ENDBRANCH   5   6
ENDBRANCH   3   5
ENDBRANCH   2   3
TORSDOF 10
ENDMDL
MODEL      257
REMARK 921   NORMALIZED FREE ENERGY PREDICTED BY IDOCK:   -2.88 KCAL/MOL
REMARK 922        TOTAL FREE ENERGY PREDICTED BY IDOCK:   -5.45 KCAL/MOL
REMARK 923 INTER-LIGAND FREE ENERGY PREDICTED BY IDOCK:   -4.62 KCAL/MOL
REMARK 924 INTRA-LIGAND FREE ENERGY PREDICTED BY IDOCK:   -0.83 KCAL/MOL
REMARK 927      BINDING AFFINITY PREDICTED BY RF-SCORE:    0.00 PKD
ROOT
HETATM    1  C   UNL     1     -10.892   3.121  63.456  1.00  0.00    -0.206 C  
HETATM    2  O   UNL     1      -9.937   3.812  62.654  1.00  0.00    -0.126 OA 
ENDROOT
BRANCH   2   3
HETATM    3  C   UNL     1      -8.847   4.253  63.344  1.00  0.00    -0.128 C  
HETATM    4  O   UNL     1      -7.712   4.338  62.892  1.00  0.00    -0.062 OA 
BRANCH   3   5
HETATM    5  C   UNL     1      -9.256   4.595  64.747  1.00  0.00    -0.133 C  
BRANCH   5   6
HETATM    6  C   UNL     1      -8.434   5.748  65.332  1.00  0.00    -0.151 C  
BRANCH   6   7
HETATM    7  C   UNL     1      -9.106   6.428  66.504  1.00  0.00    -0.162 A  
HETATM    8  C   UNL     1     -10.395   6.066  66.898  1.00  0.00    -0.303 A  
HETATM    9  C   UNL     1     -11.024   6.698  67.964  1.00  0.00    -0.332 A  
HETATM   10  C   UNL     1     -10.377   7.702  68.683  1.00  0.00    -0.200 A  
HETATM   11  C   UNL     1      -8.432   7.407  67.252  1.00  0.00    -0.118 A  
HETATM   12  C   UNL     1      -9.069   8.043  68.332  1.00  0.00    -0.136 A  
BRANCH  10  13
HETATM   13  O   UNL     1     -10.940   8.387  69.734  1.00  0.00    -0.221 OA 
BRANCH  13  14
HETATM   14  C   UNL     1     -11.734   7.569  70.611  1.00  0.00    -0.215 C  
BRANCH  14  15
HETATM   15  C   UNL     1     -11.901   8.222  71.986  1.00  0.00    -0.347 C  
HETATM   16  O   UNL     1     -13.236   8.009  72.460  1.00  0.00    -0.538 OA 
HETATM   17  H   UNL     1     -13.340   8.415  73.313  1.00  0.00     0.000 HD 
BRANCH  15  18
HETATM   18  C   UNL     1     -10.893   7.696  73.022  1.00  0.00    -0.400 C  
BRANCH  18  19
HETATM   19  N   UNL     1      -9.872   6.840  72.409  1.00  0.00    -0.158 NA 
HETATM   20  H   UNL     1      -8.985   7.339  72.330  1.00  0.00     0.000 HD 
BRANCH  19  21
HETATM   21  C   UNL     1      -9.684   5.557  73.096  1.00  0.00    -0.150 C  
HETATM   22  C   UNL     1     -10.989   4.980  73.648  1.00  0.00    -0.379 C  
HETATM   23  C   UNL     1      -9.082   4.571  72.090  1.00  0.00    -0.153 C  
ENDBRANCH  19  21
ENDBRANCH  18  19
ENDBRANCH  15  18
ENDBRANCH  14  15
ENDBRANCH  13  14
ENDBRANCH  10  13
ENDBRANCH   6   7
ENDBRANCH   5   6
ENDBRANCH   3   5
ENDBRANCH   2   3
TORSDOF 10
ENDMDL
MODEL      258
REMARK 921   NORMALIZED FREE ENERGY PREDICTED BY IDOCK:   -2.87 KCAL/MOL
REMARK 922        TOTAL FREE ENERGY PREDICTED BY IDOCK:   -5.42 KCAL/MOL
REMARK 923 INTER-LIGAND FREE ENERGY PREDICTED BY IDOCK:   -4.79 KCAL/MOL
REMARK 924 INTRA-LIGAND FREE ENERGY PREDICTED BY IDOCK:   -0.63 KCAL/MOL
REMARK 927      BINDING AFFINITY PREDICTED BY RF-SCORE:    0.00 PKD
ROOT
HETATM    1  C   UNL     1      -9.247   2.254  69.199  1.00  0.00    -0.130 C  
HETATM    2  O   UNL     1      -9.046   2.497  67.810  1.00  0.00    -0.150 OA 
ENDROOT
BRANCH   2   3
HETATM    3  C   UNL     1      -9.472   3.723  67.392  1.00  0.00    -0.196 C  
HETATM    4  O   UNL     1      -9.914   3.976  66.278  1.00  0.00    -0.195 OA 
BRANCH   3   5
HETATM    5  C   UNL     1      -9.293   4.713  68.506  1.00  0.00    -0.190 C  
BRANCH   5   6
HETATM    6  C   UNL     1      -8.166   5.712  68.226  1.00  0.00    -0.103 C  
BRANCH   6   7
HETATM    7  C   UNL     1      -8.664   7.113  67.945  1.00  0.00    -0.126 A  
HETATM    8  C   UNL     1      -9.616   7.348  66.952  1.00  0.00    -0.240 A  
HETATM    9  C   UNL     1     -10.065   8.635  66.679  1.00  0.00    -0.364 A  
HETATM   10  C   UNL     1      -9.589   9.728  67.403  1.00  0.00    -0.155 A  
HETATM   11  C   UNL     1      -8.214   8.204  68.707  1.00  0.00    -0.125 A  
HETATM   12  C   UNL     1      -8.672   9.503  68.431  1.00  0.00    -0.124 A  
BRANCH  10  13
HETATM   13  O   UNL     1      -9.969  11.030  67.177  1.00  0.00    -0.181 OA 
BRANCH  13  14
HETATM   14  C   UNL     1     -11.348  11.302  67.484  1.00  0.00    -0.288 C  
BRANCH  14  15
HETATM   15  C   UNL     1     -11.490  12.557  68.350  1.00  0.00    -0.312 C  
HETATM   16  O   UNL     1     -11.408  12.197  69.734  1.00  0.00    -0.455 OA 
HETATM   17  H   UNL     1     -11.497  12.976  70.272  1.00  0.00     0.000 HD 
BRANCH  15  18
HETATM   18  C   UNL     1     -10.431  13.626  68.029  1.00  0.00    -0.248 C  
BRANCH  18  19
HETATM   19  N   UNL     1     -10.814  14.450  66.877  1.00  0.00    -0.296 NA 
HETATM   20  H   UNL     1     -11.749  14.201  66.553  1.00  0.00     0.000 HD 
BRANCH  19  21
HETATM   21  C   UNL     1     -10.719  15.893  67.124  1.00  0.00    -0.301 C  
HETATM   22  C   UNL     1     -10.349  16.227  68.571  1.00  0.00    -0.261 C  
HETATM   23  C   UNL     1      -9.650  16.459  66.185  1.00  0.00    -0.356 C  
ENDBRANCH  19  21
ENDBRANCH  18  19
ENDBRANCH  15  18
ENDBRANCH  14  15
ENDBRANCH  13  14
ENDBRANCH  10  13
ENDBRANCH   6   7
ENDBRANCH   5   6
ENDBRANCH   3   5
ENDBRANCH   2   3
TORSDOF 10
ENDMDL
MODEL      259
REMARK 921   NORMALIZED FREE ENERGY PREDICTED BY IDOCK:   -2.86 KCAL/MOL
REMARK 922        TOTAL FREE ENERGY PREDICTED BY IDOCK:   -5.41 KCAL/MOL
REMARK 923 INTER-LIGAND FREE ENERGY PREDICTED BY IDOCK:   -4.78 KCAL/MOL
REMARK 924 INTRA-LIGAND FREE ENERGY PREDICTED BY IDOCK:   -0.63 KCAL/MOL
REMARK 927      BINDING AFFINITY PREDICTED BY RF-SCORE:    0.00 PKD
ROOT
HETATM    1  C   UNL     1      -8.418   1.538  69.364  1.00  0.00    -0.046 C  
HETATM    2  O   UNL     1      -8.042   2.436  68.323  1.00  0.00    -0.057 OA 
ENDROOT
BRANCH   2   3
HETATM    3  C   UNL     1      -8.914   3.467  68.136  1.00  0.00    -0.138 C  
HETATM    4  O   UNL     1      -9.622   3.623  67.149  1.00  0.00    -0.212 OA 
BRANCH   3   5
HETATM    5  C   UNL     1      -8.853   4.386  69.320  1.00  0.00    -0.133 C  
BRANCH   5   6
HETATM    6  C   UNL     1      -7.956   5.604  69.070  1.00  0.00    -0.096 C  
BRANCH   6   7
HETATM    7  C   UNL     1      -8.716   6.813  68.572  1.00  0.00    -0.124 A  
HETATM    8  C   UNL     1      -9.636   7.469  69.392  1.00  0.00    -0.155 A  
HETATM    9  C   UNL     1     -10.349   8.570  68.934  1.00  0.00    -0.226 A  
HETATM   10  C   UNL     1     -10.152   9.063  67.644  1.00  0.00    -0.216 A  
HETATM   11  C   UNL     1      -8.482   7.332  67.288  1.00  0.00    -0.118 A  
HETATM   12  C   UNL     1      -9.202   8.448  66.828  1.00  0.00    -0.214 A  
BRANCH  10  13
HETATM   13  O   UNL     1     -10.834  10.133  67.113  1.00  0.00    -0.251 OA 
BRANCH  13  14
HETATM   14  C   UNL     1     -10.061  11.343  67.034  1.00  0.00    -0.208 C  
BRANCH  14  15
HETATM   15  C   UNL     1     -10.875  12.558  67.488  1.00  0.00    -0.232 C  
HETATM   16  O   UNL     1     -12.138  12.569  66.813  1.00  0.00    -0.546 OA 
HETATM   17  H   UNL     1     -12.643  13.323  67.094  1.00  0.00     0.000 HD 
BRANCH  15  18
HETATM   18  C   UNL     1     -11.101  12.589  69.010  1.00  0.00    -0.234 C  
BRANCH  18  19
HETATM   19  N   UNL     1     -10.786  13.901  69.585  1.00  0.00    -0.442 NA 
HETATM   20  H   UNL     1     -10.272  14.473  68.915  1.00  0.00     0.000 HD 
BRANCH  19  21
HETATM   21  C   UNL     1     -11.960  14.624  70.088  1.00  0.00    -0.313 C  
HETATM   22  C   UNL     1     -12.870  13.752  70.955  1.00  0.00    -0.376 C  
HETATM   23  C   UNL     1     -11.459  15.811  70.916  1.00  0.00    -0.438 C  
ENDBRANCH  19  21
ENDBRANCH  18  19
ENDBRANCH  15  18
ENDBRANCH  14  15
ENDBRANCH  13  14
ENDBRANCH  10  13
ENDBRANCH   6   7
ENDBRANCH   5   6
ENDBRANCH   3   5
ENDBRANCH   2   3
TORSDOF 10
ENDMDL
MODEL      260
REMARK 921   NORMALIZED FREE ENERGY PREDICTED BY IDOCK:   -2.84 KCAL/MOL
REMARK 922        TOTAL FREE ENERGY PREDICTED BY IDOCK:   -5.38 KCAL/MOL
REMARK 923 INTER-LIGAND FREE ENERGY PREDICTED BY IDOCK:   -4.20 KCAL/MOL
REMARK 924 INTRA-LIGAND FREE ENERGY PREDICTED BY IDOCK:   -1.18 KCAL/MOL
REMARK 927      BINDING AFFINITY PREDICTED BY RF-SCORE:    0.00 PKD
ROOT
HETATM    1  C   UNL     1      -6.375  11.807  69.417  1.00  0.00    -0.114 C  
HETATM    2  O   UNL     1      -7.115  10.834  68.683  1.00  0.00    -0.069 OA 
ENDROOT
BRANCH   2   3
HETATM    3  C   UNL     1      -8.394  10.660  69.122  1.00  0.00    -0.135 C  
HETATM    4  O   UNL     1      -9.360  11.322  68.763  1.00  0.00    -0.182 OA 
BRANCH   3   5
HETATM    5  C   UNL     1      -8.423   9.546  70.126  1.00  0.00    -0.227 C  
BRANCH   5   6
HETATM    6  C   UNL     1      -9.798   8.875  70.217  1.00  0.00    -0.211 C  
BRANCH   6   7
HETATM    7  C   UNL     1     -10.023   7.827  69.149  1.00  0.00    -0.182 A  
HETATM    8  C   UNL     1     -10.528   8.179  67.896  1.00  0.00    -0.259 A  
HETATM    9  C   UNL     1     -10.753   7.218  66.918  1.00  0.00    -0.346 A  
HETATM   10  C   UNL     1     -10.462   5.874  67.154  1.00  0.00    -0.272 A  
HETATM   11  C   UNL     1      -9.687   6.482  69.377  1.00  0.00    -0.155 A  
HETATM   12  C   UNL     1      -9.912   5.513  68.385  1.00  0.00    -0.210 A  
BRANCH  10  13
HETATM   13  O   UNL     1     -10.676   4.865  66.244  1.00  0.00    -0.305 OA 
BRANCH  13  14
HETATM   14  C   UNL     1      -9.650   3.858  66.231  1.00  0.00    -0.185 C  
BRANCH  14  15
HETATM   15  C   UNL     1      -9.450   3.281  64.827  1.00  0.00    -0.150 C  
HETATM   16  O   UNL     1     -10.726   3.050  64.216  1.00  0.00    -0.442 OA 
HETATM   17  H   UNL     1     -10.602   2.692  63.345  1.00  0.00     0.000 HD 
BRANCH  15  18
HETATM   18  C   UNL     1      -8.602   4.193  63.923  1.00  0.00    -0.111 C  
BRANCH  18  19
HETATM   19  N   UNL     1      -8.865   5.614  64.175  1.00  0.00    -0.342 NA 
HETATM   20  H   UNL     1      -9.388   5.734  65.043  1.00  0.00     0.000 HD 
BRANCH  19  21
HETATM   21  C   UNL     1      -7.658   6.447  64.179  1.00  0.00    -0.099 C  
HETATM   22  C   UNL     1      -7.864   7.799  63.493  1.00  0.00    -0.129 C  
HETATM   23  C   UNL     1      -7.253   6.678  65.638  1.00  0.00    -0.070 C  
ENDBRANCH  19  21
ENDBRANCH  18  19
ENDBRANCH  15  18
ENDBRANCH  14  15
ENDBRANCH  13  14
ENDBRANCH  10  13
ENDBRANCH   6   7
ENDBRANCH   5   6
ENDBRANCH   3   5
ENDBRANCH   2   3
TORSDOF 10
ENDMDL
MODEL      261
REMARK 921   NORMALIZED FREE ENERGY PREDICTED BY IDOCK:   -2.84 KCAL/MOL
REMARK 922        TOTAL FREE ENERGY PREDICTED BY IDOCK:   -5.37 KCAL/MOL
REMARK 923 INTER-LIGAND FREE ENERGY PREDICTED BY IDOCK:   -4.58 KCAL/MOL
REMARK 924 INTRA-LIGAND FREE ENERGY PREDICTED BY IDOCK:   -0.79 KCAL/MOL
REMARK 927      BINDING AFFINITY PREDICTED BY RF-SCORE:    0.00 PKD
ROOT
HETATM    1  C   UNL     1      -8.377   5.242  63.921  1.00  0.00    -0.122 C  
HETATM    2  O   UNL     1      -8.741   3.882  64.144  1.00  0.00    -0.105 OA 
ENDROOT
BRANCH   2   3
HETATM    3  C   UNL     1      -9.671   3.708  65.126  1.00  0.00    -0.157 C  
HETATM    4  O   UNL     1     -10.746   4.290  65.191  1.00  0.00    -0.251 OA 
BRANCH   3   5
HETATM    5  C   UNL     1      -9.156   2.709  66.121  1.00  0.00    -0.115 C  
BRANCH   5   6
HETATM    6  C   UNL     1      -8.024   3.273  66.986  1.00  0.00    -0.079 C  
BRANCH   6   7
HETATM    7  C   UNL     1      -8.493   4.314  67.979  1.00  0.00    -0.101 A  
HETATM    8  C   UNL     1      -9.469   4.010  68.928  1.00  0.00    -0.237 A  
HETATM    9  C   UNL     1      -9.915   4.967  69.832  1.00  0.00    -0.322 A  
HETATM   10  C   UNL     1      -9.385   6.257  69.827  1.00  0.00    -0.145 A  
HETATM   11  C   UNL     1      -7.924   5.599  67.998  1.00  0.00    -0.097 A  
HETATM   12  C   UNL     1      -8.374   6.564  68.914  1.00  0.00    -0.122 A  
BRANCH  10  13
HETATM   13  O   UNL     1      -9.790   7.262  70.673  1.00  0.00    -0.180 OA 
BRANCH  13  14
HETATM   14  C   UNL     1     -10.932   8.001  70.206  1.00  0.00    -0.242 C  
BRANCH  14  15
HETATM   15  C   UNL     1     -10.856   9.472  70.624  1.00  0.00    -0.306 C  
HETATM   16  O   UNL     1      -9.516   9.951  70.456  1.00  0.00    -0.356 OA 
HETATM   17  H   UNL     1      -9.469  10.863  70.715  1.00  0.00     0.000 HD 
BRANCH  15  18
HETATM   18  C   UNL     1     -11.828  10.367  69.834  1.00  0.00    -0.238 C  
BRANCH  18  19
HETATM   19  N   UNL     1     -11.342  11.748  69.732  1.00  0.00    -0.462 NA 
HETATM   20  H   UNL     1     -10.353  11.800  69.977  1.00  0.00     0.000 HD 
BRANCH  19  21
HETATM   21  C   UNL     1     -11.583  12.364  68.423  1.00  0.00    -0.324 C  
HETATM   22  C   UNL     1     -10.852  13.696  68.247  1.00  0.00    -0.268 C  
HETATM   23  C   UNL     1     -11.108  11.381  67.348  1.00  0.00    -0.349 C  
ENDBRANCH  19  21
ENDBRANCH  18  19
ENDBRANCH  15  18
ENDBRANCH  14  15
ENDBRANCH  13  14
ENDBRANCH  10  13
ENDBRANCH   6   7
ENDBRANCH   5   6
ENDBRANCH   3   5
ENDBRANCH   2   3
TORSDOF 10
ENDMDL
MODEL      262
REMARK 921   NORMALIZED FREE ENERGY PREDICTED BY IDOCK:   -2.81 KCAL/MOL
REMARK 922        TOTAL FREE ENERGY PREDICTED BY IDOCK:   -5.33 KCAL/MOL
REMARK 923 INTER-LIGAND FREE ENERGY PREDICTED BY IDOCK:   -4.82 KCAL/MOL
REMARK 924 INTRA-LIGAND FREE ENERGY PREDICTED BY IDOCK:   -0.51 KCAL/MOL
REMARK 927      BINDING AFFINITY PREDICTED BY RF-SCORE:    0.00 PKD
ROOT
HETATM    1  C   UNL     1      -8.733   4.069  62.427  1.00  0.00    -0.090 C  
HETATM    2  O   UNL     1      -9.058   3.213  63.519  1.00  0.00    -0.095 OA 
ENDROOT
BRANCH   2   3
HETATM    3  C   UNL     1      -9.884   3.780  64.444  1.00  0.00    -0.188 C  
HETATM    4  O   UNL     1     -11.059   4.072  64.258  1.00  0.00    -0.320 OA 
BRANCH   3   5
HETATM    5  C   UNL     1      -9.119   4.006  65.715  1.00  0.00    -0.142 C  
BRANCH   5   6
HETATM    6  C   UNL     1      -8.205   5.233  65.638  1.00  0.00    -0.121 C  
BRANCH   6   7
HETATM    7  C   UNL     1      -8.895   6.520  66.034  1.00  0.00    -0.154 A  
HETATM    8  C   UNL     1     -10.088   6.498  66.758  1.00  0.00    -0.239 A  
HETATM    9  C   UNL     1     -10.735   7.677  67.110  1.00  0.00    -0.361 A  
HETATM   10  C   UNL     1     -10.200   8.917  66.765  1.00  0.00    -0.278 A  
HETATM   11  C   UNL     1      -8.328   7.767  65.722  1.00  0.00    -0.140 A  
HETATM   12  C   UNL     1      -8.982   8.957  66.082  1.00  0.00    -0.218 A  
BRANCH  10  13
HETATM   13  O   UNL     1     -10.791  10.123  67.059  1.00  0.00    -0.230 OA 
BRANCH  13  14
HETATM   14  C   UNL     1     -10.085  11.266  66.543  1.00  0.00    -0.217 C  
BRANCH  14  15
HETATM   15  C   UNL     1     -10.991  12.498  66.474  1.00  0.00    -0.266 C  
HETATM   16  O   UNL     1     -11.414  12.859  67.795  1.00  0.00    -0.282 OA 
HETATM   17  H   UNL     1     -11.977  13.623  67.752  1.00  0.00     0.000 HD 
BRANCH  15  18
HETATM   18  C   UNL     1     -10.308  13.703  65.803  1.00  0.00    -0.298 C  
BRANCH  18  19
HETATM   19  N   UNL     1      -9.122  14.144  66.545  1.00  0.00    -0.439 NA 
HETATM   20  H   UNL     1      -8.279  13.717  66.161  1.00  0.00     0.000 HD 
BRANCH  19  21
HETATM   21  C   UNL     1      -8.976  15.603  66.614  1.00  0.00    -0.284 C  
HETATM   22  C   UNL     1      -9.860  16.339  65.606  1.00  0.00    -0.255 C  
HETATM   23  C   UNL     1      -9.353  16.043  68.032  1.00  0.00    -0.202 C  
ENDBRANCH  19  21
ENDBRANCH  18  19
ENDBRANCH  15  18
ENDBRANCH  14  15
ENDBRANCH  13  14
ENDBRANCH  10  13
ENDBRANCH   6   7
ENDBRANCH   5   6
ENDBRANCH   3   5
ENDBRANCH   2   3
TORSDOF 10
ENDMDL
MODEL      263
REMARK 921   NORMALIZED FREE ENERGY PREDICTED BY IDOCK:   -2.78 KCAL/MOL
REMARK 922        TOTAL FREE ENERGY PREDICTED BY IDOCK:   -5.29 KCAL/MOL
REMARK 923 INTER-LIGAND FREE ENERGY PREDICTED BY IDOCK:   -4.23 KCAL/MOL
REMARK 924 INTRA-LIGAND FREE ENERGY PREDICTED BY IDOCK:   -1.06 KCAL/MOL
REMARK 927      BINDING AFFINITY PREDICTED BY RF-SCORE:    0.00 PKD
ROOT
HETATM    1  C   UNL     1      -9.569  12.871  68.060  1.00  0.00    -0.221 C  
HETATM    2  O   UNL     1      -9.737  12.193  66.819  1.00  0.00    -0.199 OA 
ENDROOT
BRANCH   2   3
HETATM    3  C   UNL     1     -10.694  11.222  66.841  1.00  0.00    -0.273 C  
HETATM    4  O   UNL     1     -11.850  11.377  67.215  1.00  0.00    -0.594 OA 
BRANCH   3   5
HETATM    5  C   UNL     1     -10.099   9.932  66.355  1.00  0.00    -0.308 C  
BRANCH   5   6
HETATM    6  C   UNL     1      -8.939   9.454  67.234  1.00  0.00    -0.143 C  
BRANCH   6   7
HETATM    7  C   UNL     1      -9.393   8.832  68.536  1.00  0.00    -0.142 A  
HETATM    8  C   UNL     1     -10.531   8.025  68.585  1.00  0.00    -0.196 A  
HETATM    9  C   UNL     1     -10.962   7.464  69.782  1.00  0.00    -0.215 A  
HETATM   10  C   UNL     1     -10.259   7.678  70.966  1.00  0.00    -0.194 A  
HETATM   11  C   UNL     1      -8.656   9.014  69.718  1.00  0.00    -0.138 A  
HETATM   12  C   UNL     1      -9.092   8.444  70.925  1.00  0.00    -0.190 A  
BRANCH  10  13
HETATM   13  O   UNL     1     -10.634   7.175  72.190  1.00  0.00    -0.204 OA 
BRANCH  13  14
HETATM   14  C   UNL     1     -11.070   5.805  72.155  1.00  0.00    -0.271 C  
BRANCH  14  15
HETATM   15  C   UNL     1     -10.873   5.120  73.510  1.00  0.00    -0.303 C  
HETATM   16  O   UNL     1     -11.452   3.810  73.476  1.00  0.00    -0.227 OA 
HETATM   17  H   UNL     1     -11.330   3.385  74.317  1.00  0.00     0.000 HD 
BRANCH  15  18
HETATM   18  C   UNL     1      -9.392   5.020  73.918  1.00  0.00    -0.124 C  
BRANCH  18  19
HETATM   19  N   UNL     1      -8.505   4.959  72.750  1.00  0.00    -0.115 NA 
HETATM   20  H   UNL     1      -8.908   5.470  71.965  1.00  0.00     0.000 HD 
BRANCH  19  21
HETATM   21  C   UNL     1      -7.139   5.420  73.021  1.00  0.00    -0.089 C  
HETATM   22  C   UNL     1      -6.220   4.304  73.521  1.00  0.00    -0.032 C  
HETATM   23  C   UNL     1      -6.573   5.996  71.720  1.00  0.00    -0.055 C  
ENDBRANCH  19  21
ENDBRANCH  18  19
ENDBRANCH  15  18
ENDBRANCH  14  15
ENDBRANCH  13  14
ENDBRANCH  10  13
ENDBRANCH   6   7
ENDBRANCH   5   6
ENDBRANCH   3   5
ENDBRANCH   2   3
TORSDOF 10
ENDMDL
MODEL      264
REMARK 921   NORMALIZED FREE ENERGY PREDICTED BY IDOCK:   -2.70 KCAL/MOL
REMARK 922        TOTAL FREE ENERGY PREDICTED BY IDOCK:   -5.15 KCAL/MOL
REMARK 923 INTER-LIGAND FREE ENERGY PREDICTED BY IDOCK:   -4.69 KCAL/MOL
REMARK 924 INTRA-LIGAND FREE ENERGY PREDICTED BY IDOCK:   -0.47 KCAL/MOL
REMARK 927      BINDING AFFINITY PREDICTED BY RF-SCORE:    0.00 PKD
ROOT
HETATM    1  C   UNL     1      -8.764   2.807  70.371  1.00  0.00    -0.070 C  
HETATM    2  O   UNL     1      -8.379   3.411  69.139  1.00  0.00    -0.059 OA 
ENDROOT
BRANCH   2   3
HETATM    3  C   UNL     1      -9.417   3.936  68.428  1.00  0.00    -0.147 C  
HETATM    4  O   UNL     1      -9.680   3.672  67.261  1.00  0.00    -0.198 OA 
BRANCH   3   5
HETATM    5  C   UNL     1     -10.171   4.901  69.296  1.00  0.00    -0.205 C  
BRANCH   5   6
HETATM    6  C   UNL     1      -9.436   6.235  69.462  1.00  0.00    -0.151 C  
BRANCH   6   7
HETATM    7  C   UNL     1      -9.192   6.951  68.152  1.00  0.00    -0.126 A  
HETATM    8  C   UNL     1     -10.247   7.525  67.443  1.00  0.00    -0.318 A  
HETATM    9  C   UNL     1     -10.031   8.169  66.230  1.00  0.00    -0.148 A  
HETATM   10  C   UNL     1      -8.747   8.275  65.696  1.00  0.00    -0.156 A  
HETATM   11  C   UNL     1      -7.891   7.093  67.641  1.00  0.00    -0.113 A  
HETATM   12  C   UNL     1      -7.674   7.747  66.417  1.00  0.00    -0.093 A  
BRANCH  10  13
HETATM   13  O   UNL     1      -8.457   8.878  64.494  1.00  0.00    -0.170 OA 
BRANCH  13  14
HETATM   14  C   UNL     1      -8.049  10.252  64.608  1.00  0.00    -0.154 C  
BRANCH  14  15
HETATM   15  C   UNL     1      -9.128  11.102  65.284  1.00  0.00    -0.167 C  
HETATM   16  O   UNL     1      -8.514  12.039  66.177  1.00  0.00    -0.392 OA 
HETATM   17  H   UNL     1      -9.184  12.566  66.597  1.00  0.00     0.000 HD 
BRANCH  15  18
HETATM   18  C   UNL     1     -10.015  11.853  64.275  1.00  0.00    -0.246 C  
BRANCH  18  19
HETATM   19  N   UNL     1     -10.286  13.230  64.703  1.00  0.00    -0.566 NA 
HETATM   20  H   UNL     1     -10.056  13.889  63.958  1.00  0.00     0.000 HD 
BRANCH  19  21
HETATM   21  C   UNL     1     -11.658  13.443  65.176  1.00  0.00    -0.308 C  
HETATM   22  C   UNL     1     -11.726  13.827  66.656  1.00  0.00    -0.421 C  
HETATM   23  C   UNL     1     -12.275  14.564  64.335  1.00  0.00    -0.480 C  
ENDBRANCH  19  21
ENDBRANCH  18  19
ENDBRANCH  15  18
ENDBRANCH  14  15
ENDBRANCH  13  14
ENDBRANCH  10  13
ENDBRANCH   6   7
ENDBRANCH   5   6
ENDBRANCH   3   5
ENDBRANCH   2   3
TORSDOF 10
ENDMDL
MODEL      265
REMARK 921   NORMALIZED FREE ENERGY PREDICTED BY IDOCK:   -2.67 KCAL/MOL
REMARK 922        TOTAL FREE ENERGY PREDICTED BY IDOCK:   -5.11 KCAL/MOL
REMARK 923 INTER-LIGAND FREE ENERGY PREDICTED BY IDOCK:   -4.12 KCAL/MOL
REMARK 924 INTRA-LIGAND FREE ENERGY PREDICTED BY IDOCK:   -0.99 KCAL/MOL
REMARK 927      BINDING AFFINITY PREDICTED BY RF-SCORE:    0.00 PKD
ROOT
HETATM    1  C   UNL     1     -12.191  13.851  68.000  1.00  0.00    -0.153 C  
HETATM    2  O   UNL     1     -11.395  13.077  67.106  1.00  0.00    -0.277 OA 
ENDROOT
BRANCH   2   3
HETATM    3  C   UNL     1     -10.319  12.480  67.694  1.00  0.00    -0.218 C  
HETATM    4  O   UNL     1      -9.385  13.070  68.223  1.00  0.00    -0.212 OA 
BRANCH   3   5
HETATM    5  C   UNL     1     -10.453  10.991  67.570  1.00  0.00    -0.244 C  
BRANCH   5   6
HETATM    6  C   UNL     1      -9.115  10.265  67.748  1.00  0.00    -0.138 C  
BRANCH   6   7
HETATM    7  C   UNL     1      -8.978   9.585  69.092  1.00  0.00    -0.148 A  
HETATM    8  C   UNL     1      -9.942   9.762  70.085  1.00  0.00    -0.315 A  
HETATM    9  C   UNL     1      -9.812   9.153  71.328  1.00  0.00    -0.363 A  
HETATM   10  C   UNL     1      -8.721   8.331  71.611  1.00  0.00    -0.163 A  
HETATM   11  C   UNL     1      -7.900   8.723  69.356  1.00  0.00    -0.095 A  
HETATM   12  C   UNL     1      -7.773   8.106  70.612  1.00  0.00    -0.085 A  
BRANCH  10  13
HETATM   13  O   UNL     1      -8.513   7.712  72.821  1.00  0.00    -0.112 OA 
BRANCH  13  14
HETATM   14  C   UNL     1      -9.606   6.884  73.255  1.00  0.00    -0.166 C  
BRANCH  14  15
HETATM   15  C   UNL     1      -9.378   5.416  72.881  1.00  0.00    -0.137 C  
HETATM   16  O   UNL     1      -9.303   4.623  74.072  1.00  0.00    -0.116 OA 
HETATM   17  H   UNL     1      -9.161   3.713  73.840  1.00  0.00     0.000 HD 
BRANCH  15  18
HETATM   18  C   UNL     1     -10.476   4.859  71.957  1.00  0.00    -0.176 C  
BRANCH  18  19
HETATM   19  N   UNL     1      -9.998   4.689  70.580  1.00  0.00    -0.226 NA 
HETATM   20  H   UNL     1      -9.966   3.700  70.330  1.00  0.00     0.000 HD 
BRANCH  19  21
HETATM   21  C   UNL     1     -10.770   5.447  69.589  1.00  0.00    -0.196 C  
HETATM   22  C   UNL     1     -11.664   6.517  70.220  1.00  0.00    -0.430 C  
HETATM   23  C   UNL     1      -9.776   6.118  68.636  1.00  0.00    -0.145 C  
ENDBRANCH  19  21
ENDBRANCH  18  19
ENDBRANCH  15  18
ENDBRANCH  14  15
ENDBRANCH  13  14
ENDBRANCH  10  13
ENDBRANCH   6   7
ENDBRANCH   5   6
ENDBRANCH   3   5
ENDBRANCH   2   3
TORSDOF 10
ENDMDL
MODEL      266
REMARK 921   NORMALIZED FREE ENERGY PREDICTED BY IDOCK:   -2.62 KCAL/MOL
REMARK 922        TOTAL FREE ENERGY PREDICTED BY IDOCK:   -5.03 KCAL/MOL
REMARK 923 INTER-LIGAND FREE ENERGY PREDICTED BY IDOCK:   -4.50 KCAL/MOL
REMARK 924 INTRA-LIGAND FREE ENERGY PREDICTED BY IDOCK:   -0.53 KCAL/MOL
REMARK 927      BINDING AFFINITY PREDICTED BY RF-SCORE:    0.00 PKD
ROOT
HETATM    1  C   UNL     1     -10.775   2.972  63.470  1.00  0.00    -0.236 C  
HETATM    2  O   UNL     1      -9.581   3.713  63.232  1.00  0.00    -0.116 OA 
ENDROOT
BRANCH   2   3
HETATM    3  C   UNL     1      -8.855   3.975  64.356  1.00  0.00    -0.129 C  
HETATM    4  O   UNL     1      -7.635   4.069  64.404  1.00  0.00    -0.074 OA 
BRANCH   3   5
HETATM    5  C   UNL     1      -9.788   4.108  65.525  1.00  0.00    -0.210 C  
BRANCH   5   6
HETATM    6  C   UNL     1      -9.044   4.357  66.841  1.00  0.00    -0.136 C  
BRANCH   6   7
HETATM    7  C   UNL     1      -8.927   5.823  67.194  1.00  0.00    -0.113 A  
HETATM    8  C   UNL     1      -9.918   6.731  66.817  1.00  0.00    -0.242 A  
HETATM    9  C   UNL     1      -9.807   8.083  67.123  1.00  0.00    -0.274 A  
HETATM   10  C   UNL     1      -8.710   8.567  67.835  1.00  0.00    -0.138 A  
HETATM   11  C   UNL     1      -7.842   6.298  67.949  1.00  0.00    -0.103 A  
HETATM   12  C   UNL     1      -7.734   7.664  68.261  1.00  0.00    -0.120 A  
BRANCH  10  13
HETATM   13  O   UNL     1      -8.520   9.890  68.157  1.00  0.00    -0.113 OA 
BRANCH  13  14
HETATM   14  C   UNL     1      -8.284  10.744  67.023  1.00  0.00    -0.126 C  
BRANCH  14  15
HETATM   15  C   UNL     1      -9.319  11.869  66.945  1.00  0.00    -0.196 C  
HETATM   16  O   UNL     1      -8.754  12.996  66.263  1.00  0.00    -0.418 OA 
HETATM   17  H   UNL     1      -9.396  13.694  66.215  1.00  0.00     0.000 HD 
BRANCH  15  18
HETATM   18  C   UNL     1     -10.618  11.437  66.242  1.00  0.00    -0.263 C  
BRANCH  18  19
HETATM   19  N   UNL     1     -11.804  12.036  66.865  1.00  0.00    -0.616 NA 
HETATM   20  H   UNL     1     -12.468  11.314  67.143  1.00  0.00     0.000 HD 
BRANCH  19  21
HETATM   21  C   UNL     1     -11.496  12.918  67.996  1.00  0.00    -0.319 C  
HETATM   22  C   UNL     1     -12.240  14.254  67.931  1.00  0.00    -0.185 C  
HETATM   23  C   UNL     1     -11.888  12.184  69.282  1.00  0.00    -0.370 C  
ENDBRANCH  19  21
ENDBRANCH  18  19
ENDBRANCH  15  18
ENDBRANCH  14  15
ENDBRANCH  13  14
ENDBRANCH  10  13
ENDBRANCH   6   7
ENDBRANCH   5   6
ENDBRANCH   3   5
ENDBRANCH   2   3
TORSDOF 10
ENDMDL
MODEL      267
REMARK 921   NORMALIZED FREE ENERGY PREDICTED BY IDOCK:   -2.62 KCAL/MOL
REMARK 922        TOTAL FREE ENERGY PREDICTED BY IDOCK:   -5.02 KCAL/MOL
REMARK 923 INTER-LIGAND FREE ENERGY PREDICTED BY IDOCK:   -3.97 KCAL/MOL
REMARK 924 INTRA-LIGAND FREE ENERGY PREDICTED BY IDOCK:   -1.06 KCAL/MOL
REMARK 927      BINDING AFFINITY PREDICTED BY RF-SCORE:    0.00 PKD
ROOT
HETATM    1  C   UNL     1     -10.655   3.475  63.847  1.00  0.00    -0.265 C  
HETATM    2  O   UNL     1      -9.711   4.363  63.254  1.00  0.00    -0.107 OA 
ENDROOT
BRANCH   2   3
HETATM    3  C   UNL     1      -8.648   4.658  64.055  1.00  0.00    -0.136 C  
HETATM    4  O   UNL     1      -7.471   4.563  63.729  1.00  0.00    -0.054 OA 
BRANCH   3   5
HETATM    5  C   UNL     1      -9.149   5.099  65.399  1.00  0.00    -0.145 C  
BRANCH   5   6
HETATM    6  C   UNL     1      -8.060   5.778  66.236  1.00  0.00    -0.107 C  
BRANCH   6   7
HETATM    7  C   UNL     1      -8.246   7.275  66.357  1.00  0.00    -0.120 A  
HETATM    8  C   UNL     1      -9.370   7.902  65.818  1.00  0.00     0.027 A  
HETATM    9  C   UNL     1      -9.538   9.279  65.911  1.00  0.00    -0.345 A  
HETATM   10  C   UNL     1      -8.594  10.072  66.564  1.00  0.00    -0.125 A  
HETATM   11  C   UNL     1      -7.315   8.062  67.054  1.00  0.00    -0.091 A  
HETATM   12  C   UNL     1      -7.488   9.453  67.151  1.00  0.00    -0.091 A  
BRANCH  10  13
HETATM   13  O   UNL     1      -8.680  11.439  66.679  1.00  0.00    -0.167 OA 
BRANCH  13  14
HETATM   14  C   UNL     1     -10.018  11.931  66.873  1.00  0.00    -0.200 C  
BRANCH  14  15
HETATM   15  C   UNL     1     -10.343  12.097  68.360  1.00  0.00    -0.229 C  
HETATM   16  O   UNL     1     -10.932  13.384  68.583  1.00  0.00    -0.244 OA 
HETATM   17  H   UNL     1     -11.133  13.487  69.505  1.00  0.00     0.000 HD 
BRANCH  15  18
HETATM   18  C   UNL     1     -11.282  11.000  68.892  1.00  0.00    -0.265 C  
BRANCH  18  19
HETATM   19  N   UNL     1     -11.023  10.693  70.303  1.00  0.00    -0.448 NA 
HETATM   20  H   UNL     1     -11.669  11.203  70.906  1.00  0.00     0.000 HD 
BRANCH  19  21
HETATM   21  C   UNL     1     -11.052   9.259  70.611  1.00  0.00    -0.276 C  
HETATM   22  C   UNL     1     -10.585   8.388  69.442  1.00  0.00    -0.204 C  
HETATM   23  C   UNL     1     -10.136   9.020  71.815  1.00  0.00    -0.373 C  
ENDBRANCH  19  21
ENDBRANCH  18  19
ENDBRANCH  15  18
ENDBRANCH  14  15
ENDBRANCH  13  14
ENDBRANCH  10  13
ENDBRANCH   6   7
ENDBRANCH   5   6
ENDBRANCH   3   5
ENDBRANCH   2   3
TORSDOF 10
ENDMDL
MODEL      268
REMARK 921   NORMALIZED FREE ENERGY PREDICTED BY IDOCK:   -2.62 KCAL/MOL
REMARK 922        TOTAL FREE ENERGY PREDICTED BY IDOCK:   -5.02 KCAL/MOL
REMARK 923 INTER-LIGAND FREE ENERGY PREDICTED BY IDOCK:   -4.41 KCAL/MOL
REMARK 924 INTRA-LIGAND FREE ENERGY PREDICTED BY IDOCK:   -0.61 KCAL/MOL
REMARK 927      BINDING AFFINITY PREDICTED BY RF-SCORE:    0.00 PKD
ROOT
HETATM    1  C   UNL     1      -9.516   9.789  69.629  1.00  0.00    -0.219 C  
HETATM    2  O   UNL     1     -10.525   9.373  70.546  1.00  0.00    -0.232 OA 
ENDROOT
BRANCH   2   3
HETATM    3  C   UNL     1     -10.058   8.618  71.581  1.00  0.00    -0.294 C  
HETATM    4  O   UNL     1      -9.061   8.870  72.246  1.00  0.00    -0.381 OA 
BRANCH   3   5
HETATM    5  C   UNL     1     -10.948   7.423  71.760  1.00  0.00    -0.264 C  
BRANCH   5   6
HETATM    6  C   UNL     1     -11.731   7.080  70.488  1.00  0.00    -0.359 C  
BRANCH   6   7
HETATM    7  C   UNL     1     -10.948   6.223  69.517  1.00  0.00    -0.445 A  
HETATM    8  C   UNL     1     -10.117   5.200  69.975  1.00  0.00    -0.345 A  
HETATM    9  C   UNL     1      -9.383   4.421  69.089  1.00  0.00    -0.221 A  
HETATM   10  C   UNL     1      -9.470   4.628  67.712  1.00  0.00    -0.152 A  
HETATM   11  C   UNL     1     -11.074   6.408  68.131  1.00  0.00    -0.358 A  
HETATM   12  C   UNL     1     -10.334   5.617  67.236  1.00  0.00    -0.295 A  
BRANCH  10  13
HETATM   13  O   UNL     1      -8.761   3.914  66.776  1.00  0.00    -0.108 OA 
BRANCH  13  14
HETATM   14  C   UNL     1      -9.540   3.493  65.642  1.00  0.00    -0.115 C  
BRANCH  14  15
HETATM   15  C   UNL     1      -8.904   3.949  64.326  1.00  0.00    -0.124 C  
HETATM   16  O   UNL     1      -9.816   4.798  63.620  1.00  0.00    -0.360 OA 
HETATM   17  H   UNL     1      -9.422   5.081  62.803  1.00  0.00     0.000 HD 
BRANCH  15  18
HETATM   18  C   UNL     1      -7.568   4.684  64.533  1.00  0.00    -0.073 C  
BRANCH  18  19
HETATM   19  N   UNL     1      -6.563   4.287  63.540  1.00  0.00    -0.034 NA 
HETATM   20  H   UNL     1      -6.178   5.106  63.070  1.00  0.00     0.000 HD 
BRANCH  19  21
HETATM   21  C   UNL     1      -5.488   3.452  64.089  1.00  0.00    -0.009 C  
HETATM   22  C   UNL     1      -5.856   2.808  65.427  1.00  0.00    -0.018 C  
HETATM   23  C   UNL     1      -5.181   2.353  63.067  1.00  0.00    -0.007 C  
ENDBRANCH  19  21
ENDBRANCH  18  19
ENDBRANCH  15  18
ENDBRANCH  14  15
ENDBRANCH  13  14
ENDBRANCH  10  13
ENDBRANCH   6   7
ENDBRANCH   5   6
ENDBRANCH   3   5
ENDBRANCH   2   3
TORSDOF 10
ENDMDL
MODEL      269
REMARK 921   NORMALIZED FREE ENERGY PREDICTED BY IDOCK:   -2.57 KCAL/MOL
REMARK 922        TOTAL FREE ENERGY PREDICTED BY IDOCK:   -4.95 KCAL/MOL
REMARK 923 INTER-LIGAND FREE ENERGY PREDICTED BY IDOCK:   -4.48 KCAL/MOL
REMARK 924 INTRA-LIGAND FREE ENERGY PREDICTED BY IDOCK:   -0.47 KCAL/MOL
REMARK 927      BINDING AFFINITY PREDICTED BY RF-SCORE:    0.00 PKD
ROOT
HETATM    1  C   UNL     1     -10.003   4.616  65.755  1.00  0.00    -0.230 C  
HETATM    2  O   UNL     1     -10.107   4.194  67.112  1.00  0.00    -0.132 OA 
ENDROOT
BRANCH   2   3
HETATM    3  C   UNL     1      -9.166   3.280  67.484  1.00  0.00    -0.193 C  
HETATM    4  O   UNL     1      -9.399   2.136  67.851  1.00  0.00    -0.186 OA 
BRANCH   3   5
HETATM    5  C   UNL     1      -7.806   3.909  67.393  1.00  0.00    -0.087 C  
BRANCH   5   6
HETATM    6  C   UNL     1      -7.532   4.882  68.544  1.00  0.00    -0.070 C  
BRANCH   6   7
HETATM    7  C   UNL     1      -7.950   6.303  68.239  1.00  0.00    -0.108 A  
HETATM    8  C   UNL     1      -7.641   6.891  67.011  1.00  0.00    -0.102 A  
HETATM    9  C   UNL     1      -8.007   8.203  66.732  1.00  0.00    -0.103 A  
HETATM   10  C   UNL     1      -8.712   8.963  67.664  1.00  0.00    -0.124 A  
HETATM   11  C   UNL     1      -8.697   7.049  69.165  1.00  0.00    -0.132 A  
HETATM   12  C   UNL     1      -9.070   8.373  68.878  1.00  0.00    -0.147 A  
BRANCH  10  13
HETATM   13  O   UNL     1      -9.090  10.270  67.469  1.00  0.00    -0.137 OA 
BRANCH  13  14
HETATM   14  C   UNL     1     -10.249  10.429  66.630  1.00  0.00    -0.234 C  
BRANCH  14  15
HETATM   15  C   UNL     1      -9.987  11.426  65.498  1.00  0.00    -0.239 C  
HETATM   16  O   UNL     1     -10.411  10.860  64.252  1.00  0.00    -0.362 OA 
HETATM   17  H   UNL     1     -10.249  11.478  63.549  1.00  0.00     0.000 HD 
BRANCH  15  18
HETATM   18  C   UNL     1     -10.691  12.776  65.719  1.00  0.00    -0.272 C  
BRANCH  18  19
HETATM   19  N   UNL     1      -9.982  13.878  65.057  1.00  0.00    -0.603 NA 
HETATM   20  H   UNL     1     -10.169  13.874  64.054  1.00  0.00     0.000 HD 
BRANCH  19  21
HETATM   21  C   UNL     1     -10.273  15.197  65.632  1.00  0.00    -0.361 C  
HETATM   22  C   UNL     1     -11.235  15.131  66.820  1.00  0.00    -0.285 C  
HETATM   23  C   UNL     1      -8.946  15.810  66.090  1.00  0.00    -0.372 C  
ENDBRANCH  19  21
ENDBRANCH  18  19
ENDBRANCH  15  18
ENDBRANCH  14  15
ENDBRANCH  13  14
ENDBRANCH  10  13
ENDBRANCH   6   7
ENDBRANCH   5   6
ENDBRANCH   3   5
ENDBRANCH   2   3
TORSDOF 10
ENDMDL
MODEL      270
REMARK 921   NORMALIZED FREE ENERGY PREDICTED BY IDOCK:   -2.52 KCAL/MOL
REMARK 922        TOTAL FREE ENERGY PREDICTED BY IDOCK:   -4.88 KCAL/MOL
REMARK 923 INTER-LIGAND FREE ENERGY PREDICTED BY IDOCK:   -3.67 KCAL/MOL
REMARK 924 INTRA-LIGAND FREE ENERGY PREDICTED BY IDOCK:   -1.21 KCAL/MOL
REMARK 927      BINDING AFFINITY PREDICTED BY RF-SCORE:    0.00 PKD
ROOT
HETATM    1  C   UNL     1     -10.042   4.871  65.958  1.00  0.00    -0.239 C  
HETATM    2  O   UNL     1     -10.093   3.485  66.282  1.00  0.00     0.090 OA 
ENDROOT
BRANCH   2   3
HETATM    3  C   UNL     1      -9.014   2.772  65.848  1.00  0.00    -0.142 C  
HETATM    4  O   UNL     1      -8.567   2.793  64.708  1.00  0.00    -0.091 OA 
BRANCH   3   5
HETATM    5  C   UNL     1      -8.480   1.946  66.981  1.00  0.00    -0.099 C  
BRANCH   5   6
HETATM    6  C   UNL     1      -9.442   1.895  68.173  1.00  0.00    -0.215 C  
BRANCH   6   7
HETATM    7  C   UNL     1      -9.015   2.778  69.324  1.00  0.00    -0.171 A  
HETATM    8  C   UNL     1      -8.080   3.797  69.136  1.00  0.00    -0.066 A  
HETATM    9  C   UNL     1      -7.672   4.601  70.194  1.00  0.00    -0.054 A  
HETATM   10  C   UNL     1      -8.200   4.423  71.473  1.00  0.00    -0.092 A  
HETATM   11  C   UNL     1      -9.583   2.623  70.600  1.00  0.00    -0.167 A  
HETATM   12  C   UNL     1      -9.171   3.439  71.667  1.00  0.00    -0.190 A  
BRANCH  10  13
HETATM   13  O   UNL     1      -7.830   5.162  72.572  1.00  0.00    -0.098 OA 
BRANCH  13  14
HETATM   14  C   UNL     1      -7.504   6.532  72.277  1.00  0.00    -0.095 C  
BRANCH  14  15
HETATM   15  C   UNL     1      -8.699   7.457  72.525  1.00  0.00    -0.123 C  
HETATM   16  O   UNL     1      -8.249   8.664  73.153  1.00  0.00    -0.409 OA 
HETATM   17  H   UNL     1      -8.991   9.238  73.307  1.00  0.00     0.000 HD 
BRANCH  15  18
HETATM   18  C   UNL     1      -9.466   7.799  71.236  1.00  0.00    -0.153 C  
BRANCH  18  19
HETATM   19  N   UNL     1     -10.888   8.050  71.494  1.00  0.00    -0.228 NA 
HETATM   20  H   UNL     1     -11.183   8.925  71.061  1.00  0.00     0.000 HD 
BRANCH  19  21
HETATM   21  C   UNL     1     -11.767   6.949  71.085  1.00  0.00    -0.336 C  
HETATM   22  C   UNL     1     -11.230   6.174  69.880  1.00  0.00    -0.484 C  
HETATM   23  C   UNL     1     -11.909   5.996  72.276  1.00  0.00    -0.305 C  
ENDBRANCH  19  21
ENDBRANCH  18  19
ENDBRANCH  15  18
ENDBRANCH  14  15
ENDBRANCH  13  14
ENDBRANCH  10  13
ENDBRANCH   6   7
ENDBRANCH   5   6
ENDBRANCH   3   5
ENDBRANCH   2   3
TORSDOF 10
ENDMDL
MODEL      271
REMARK 921   NORMALIZED FREE ENERGY PREDICTED BY IDOCK:   -2.51 KCAL/MOL
REMARK 922        TOTAL FREE ENERGY PREDICTED BY IDOCK:   -4.85 KCAL/MOL
REMARK 923 INTER-LIGAND FREE ENERGY PREDICTED BY IDOCK:   -4.25 KCAL/MOL
REMARK 924 INTRA-LIGAND FREE ENERGY PREDICTED BY IDOCK:   -0.61 KCAL/MOL
REMARK 927      BINDING AFFINITY PREDICTED BY RF-SCORE:    0.00 PKD
ROOT
HETATM    1  C   UNL     1      -6.232   8.088  70.859  1.00  0.00    -0.033 C  
HETATM    2  O   UNL     1      -5.460   7.083  71.511  1.00  0.00    -0.034 OA 
ENDROOT
BRANCH   2   3
HETATM    3  C   UNL     1      -5.433   7.196  72.870  1.00  0.00    -0.038 C  
HETATM    4  O   UNL     1      -5.336   8.248  73.490  1.00  0.00    -0.045 OA 
BRANCH   3   5
HETATM    5  C   UNL     1      -5.522   5.828  73.480  1.00  0.00    -0.024 C  
BRANCH   5   6
HETATM    6  C   UNL     1      -6.773   5.653  74.347  1.00  0.00    -0.080 C  
BRANCH   6   7
HETATM    7  C   UNL     1      -8.048   6.071  73.648  1.00  0.00    -0.105 A  
HETATM    8  C   UNL     1      -8.766   7.188  74.076  1.00  0.00    -0.220 A  
HETATM    9  C   UNL     1      -9.947   7.567  73.448  1.00  0.00    -0.378 A  
HETATM   10  C   UNL     1     -10.439   6.850  72.358  1.00  0.00    -0.208 A  
HETATM   11  C   UNL     1      -8.515   5.371  72.523  1.00  0.00    -0.118 A  
HETATM   12  C   UNL     1      -9.707   5.758  71.887  1.00  0.00    -0.184 A  
BRANCH  10  13
HETATM   13  O   UNL     1     -11.608   7.150  71.699  1.00  0.00    -0.256 OA 
BRANCH  13  14
HETATM   14  C   UNL     1     -11.421   7.617  70.352  1.00  0.00    -0.174 C  
BRANCH  14  15
HETATM   15  C   UNL     1     -11.755   9.106  70.225  1.00  0.00    -0.017 C  
HETATM   16  O   UNL     1     -11.450   9.773  71.455  1.00  0.00    -0.378 OA 
HETATM   17  H   UNL     1     -11.657  10.697  71.376  1.00  0.00     0.000 HD 
BRANCH  15  18
HETATM   18  C   UNL     1     -11.005   9.788  69.066  1.00  0.00    -0.163 C  
BRANCH  18  19
HETATM   19  N   UNL     1     -11.857  10.744  68.349  1.00  0.00    -0.747 NA 
HETATM   20  H   UNL     1     -12.706  10.937  68.881  1.00  0.00     0.000 HD 
BRANCH  19  21
HETATM   21  C   UNL     1     -11.174  11.992  67.993  1.00  0.00    -0.258 C  
HETATM   22  C   UNL     1     -11.725  12.630  66.716  1.00  0.00    -0.460 C  
HETATM   23  C   UNL     1     -11.345  12.969  69.160  1.00  0.00    -0.328 C  
ENDBRANCH  19  21
ENDBRANCH  18  19
ENDBRANCH  15  18
ENDBRANCH  14  15
ENDBRANCH  13  14
ENDBRANCH  10  13
ENDBRANCH   6   7
ENDBRANCH   5   6
ENDBRANCH   3   5
ENDBRANCH   2   3
TORSDOF 10
ENDMDL
MODEL      272
REMARK 921   NORMALIZED FREE ENERGY PREDICTED BY IDOCK:   -2.46 KCAL/MOL
REMARK 922        TOTAL FREE ENERGY PREDICTED BY IDOCK:   -4.77 KCAL/MOL
REMARK 923 INTER-LIGAND FREE ENERGY PREDICTED BY IDOCK:   -4.02 KCAL/MOL
REMARK 924 INTRA-LIGAND FREE ENERGY PREDICTED BY IDOCK:   -0.75 KCAL/MOL
REMARK 927      BINDING AFFINITY PREDICTED BY RF-SCORE:    0.00 PKD
ROOT
HETATM    1  C   UNL     1      -7.923   6.955  63.058  1.00  0.00    -0.081 C  
HETATM    2  O   UNL     1      -6.981   6.633  64.078  1.00  0.00    -0.047 OA 
ENDROOT
BRANCH   2   3
HETATM    3  C   UNL     1      -5.871   7.424  64.080  1.00  0.00    -0.037 C  
HETATM    4  O   UNL     1      -5.159   7.645  63.109  1.00  0.00    -0.036 OA 
BRANCH   3   5
HETATM    5  C   UNL     1      -5.650   7.961  65.464  1.00  0.00    -0.037 C  
BRANCH   5   6
HETATM    6  C   UNL     1      -6.844   7.703  66.390  1.00  0.00    -0.062 C  
BRANCH   6   7
HETATM    7  C   UNL     1      -7.443   8.969  66.961  1.00  0.00    -0.087 A  
HETATM    8  C   UNL     1      -8.638   8.934  67.680  1.00  0.00    -0.124 A  
HETATM    9  C   UNL     1      -9.202  10.097  68.192  1.00  0.00    -0.137 A  
HETATM   10  C   UNL     1      -8.578  11.332  68.017  1.00  0.00    -0.140 A  
HETATM   11  C   UNL     1      -6.787  10.203  66.819  1.00  0.00    -0.086 A  
HETATM   12  C   UNL     1      -7.357  11.377  67.341  1.00  0.00    -0.119 A  
BRANCH  10  13
HETATM   13  O   UNL     1      -9.083  12.526  68.475  1.00  0.00    -0.162 OA 
BRANCH  13  14
HETATM   14  C   UNL     1      -9.242  13.528  67.455  1.00  0.00    -0.219 C  
BRANCH  14  15
HETATM   15  C   UNL     1     -10.713  13.704  67.069  1.00  0.00    -0.278 C  
HETATM   16  O   UNL     1     -10.940  15.054  66.647  1.00  0.00    -0.318 OA 
HETATM   17  H   UNL     1     -11.853  15.164  66.408  1.00  0.00     0.000 HD 
BRANCH  15  18
HETATM   18  C   UNL     1     -11.160  12.734  65.962  1.00  0.00    -0.285 C  
BRANCH  18  19
HETATM   19  N   UNL     1     -11.447  13.432  64.704  1.00  0.00    -0.334 NA 
HETATM   20  H   UNL     1     -10.849  14.252  64.603  1.00  0.00     0.000 HD 
BRANCH  19  21
HETATM   21  C   UNL     1     -11.354  12.574  63.517  1.00  0.00    -0.486 C  
HETATM   22  C   UNL     1     -10.248  11.522  63.627  1.00  0.00    -0.450 C  
HETATM   23  C   UNL     1     -12.703  11.871  63.340  1.00  0.00    -0.496 C  
ENDBRANCH  19  21
ENDBRANCH  18  19
ENDBRANCH  15  18
ENDBRANCH  14  15
ENDBRANCH  13  14
ENDBRANCH  10  13
ENDBRANCH   6   7
ENDBRANCH   5   6
ENDBRANCH   3   5
ENDBRANCH   2   3
TORSDOF 10
ENDMDL
MODEL      273
REMARK 921   NORMALIZED FREE ENERGY PREDICTED BY IDOCK:   -2.46 KCAL/MOL
REMARK 922        TOTAL FREE ENERGY PREDICTED BY IDOCK:   -4.77 KCAL/MOL
REMARK 923 INTER-LIGAND FREE ENERGY PREDICTED BY IDOCK:   -3.63 KCAL/MOL
REMARK 924 INTRA-LIGAND FREE ENERGY PREDICTED BY IDOCK:   -1.14 KCAL/MOL
REMARK 927      BINDING AFFINITY PREDICTED BY RF-SCORE:    0.00 PKD
ROOT
HETATM    1  C   UNL     1      -8.983   9.374  69.917  1.00  0.00    -0.200 C  
HETATM    2  O   UNL     1     -10.056   9.246  70.846  1.00  0.00    -0.258 OA 
ENDROOT
BRANCH   2   3
HETATM    3  C   UNL     1      -9.736   8.548  71.973  1.00  0.00    -0.307 C  
HETATM    4  O   UNL     1      -8.756   8.754  72.677  1.00  0.00    -0.408 OA 
BRANCH   3   5
HETATM    5  C   UNL     1     -10.764   7.479  72.199  1.00  0.00    -0.275 C  
BRANCH   5   6
HETATM    6  C   UNL     1     -11.496   7.088  70.910  1.00  0.00    -0.349 C  
BRANCH   6   7
HETATM    7  C   UNL     1     -10.860   5.918  70.193  1.00  0.00    -0.402 A  
HETATM    8  C   UNL     1     -10.352   4.832  70.907  1.00  0.00    -0.187 A  
HETATM    9  C   UNL     1      -9.751   3.761  70.254  1.00  0.00    -0.222 A  
HETATM   10  C   UNL     1      -9.656   3.734  68.863  1.00  0.00    -0.113 A  
HETATM   11  C   UNL     1     -10.807   5.875  68.790  1.00  0.00    -0.353 A  
HETATM   12  C   UNL     1     -10.203   4.791  68.132  1.00  0.00    -0.058 A  
BRANCH  10  13
HETATM   13  O   UNL     1      -9.059   2.722  68.148  1.00  0.00    -0.140 OA 
BRANCH  13  14
HETATM   14  C   UNL     1      -8.141   3.178  67.139  1.00  0.00    -0.082 C  
BRANCH  14  15
HETATM   15  C   UNL     1      -6.760   3.473  67.731  1.00  0.00    -0.042 C  
HETATM   16  O   UNL     1      -5.998   2.262  67.800  1.00  0.00    -0.022 OA 
HETATM   17  H   UNL     1      -5.141   2.445  68.168  1.00  0.00     0.000 HD 
BRANCH  15  18
HETATM   18  C   UNL     1      -5.981   4.530  66.928  1.00  0.00    -0.027 C  
BRANCH  18  19
HETATM   19  N   UNL     1      -5.485   5.613  67.784  1.00  0.00    -0.011 NA 
HETATM   20  H   UNL     1      -4.919   6.268  67.243  1.00  0.00     0.000 HD 
BRANCH  19  21
HETATM   21  C   UNL     1      -6.542   6.322  68.512  1.00  0.00    -0.059 C  
HETATM   22  C   UNL     1      -6.040   6.984  69.798  1.00  0.00    -0.027 C  
HETATM   23  C   UNL     1      -7.113   7.396  67.581  1.00  0.00    -0.085 C  
ENDBRANCH  19  21
ENDBRANCH  18  19
ENDBRANCH  15  18
ENDBRANCH  14  15
ENDBRANCH  13  14
ENDBRANCH  10  13
ENDBRANCH   6   7
ENDBRANCH   5   6
ENDBRANCH   3   5
ENDBRANCH   2   3
TORSDOF 10
ENDMDL
MODEL      274
REMARK 921   NORMALIZED FREE ENERGY PREDICTED BY IDOCK:   -2.43 KCAL/MOL
REMARK 922        TOTAL FREE ENERGY PREDICTED BY IDOCK:   -4.73 KCAL/MOL
REMARK 923 INTER-LIGAND FREE ENERGY PREDICTED BY IDOCK:   -4.20 KCAL/MOL
REMARK 924 INTRA-LIGAND FREE ENERGY PREDICTED BY IDOCK:   -0.53 KCAL/MOL
REMARK 927      BINDING AFFINITY PREDICTED BY RF-SCORE:    0.00 PKD
ROOT
HETATM    1  C   UNL     1     -12.020  14.250  67.598  1.00  0.00    -0.365 C  
HETATM    2  O   UNL     1     -12.011  13.528  66.370  1.00  0.00    -0.374 OA 
ENDROOT
BRANCH   2   3
HETATM    3  C   UNL     1     -10.828  12.908  66.097  1.00  0.00    -0.279 C  
HETATM    4  O   UNL     1      -9.796  13.473  65.757  1.00  0.00    -0.268 OA 
BRANCH   3   5
HETATM    5  C   UNL     1     -10.998  11.426  66.260  1.00  0.00    -0.303 C  
BRANCH   5   6
HETATM    6  C   UNL     1      -9.969  10.625  65.456  1.00  0.00    -0.333 C  
BRANCH   6   7
HETATM    7  C   UNL     1      -9.027   9.820  66.323  1.00  0.00    -0.180 A  
HETATM    8  C   UNL     1      -8.848  10.136  67.671  1.00  0.00    -0.125 A  
HETATM    9  C   UNL     1      -7.971   9.410  68.469  1.00  0.00    -0.093 A  
HETATM   10  C   UNL     1      -7.257   8.331  67.948  1.00  0.00    -0.095 A  
HETATM   11  C   UNL     1      -8.344   8.707  65.805  1.00  0.00    -0.148 A  
HETATM   12  C   UNL     1      -7.461   7.973  66.614  1.00  0.00    -0.089 A  
BRANCH  10  13
HETATM   13  O   UNL     1      -6.358   7.580  68.668  1.00  0.00    -0.037 OA 
BRANCH  13  14
HETATM   14  C   UNL     1      -6.964   6.699  69.629  1.00  0.00    -0.067 C  
BRANCH  14  15
HETATM   15  C   UNL     1      -8.252   6.076  69.084  1.00  0.00    -0.111 C  
HETATM   16  O   UNL     1      -7.966   4.786  68.530  1.00  0.00    -0.083 OA 
HETATM   17  H   UNL     1      -8.765   4.400  68.191  1.00  0.00     0.000 HD 
BRANCH  15  18
HETATM   18  C   UNL     1      -9.352   5.948  70.153  1.00  0.00    -0.156 C  
BRANCH  18  19
HETATM   19  N   UNL     1     -10.346   7.022  70.049  1.00  0.00    -0.198 NA 
HETATM   20  H   UNL     1     -11.109   6.747  69.431  1.00  0.00     0.000 HD 
BRANCH  19  21
HETATM   21  C   UNL     1     -10.867   7.472  71.345  1.00  0.00    -0.229 C  
HETATM   22  C   UNL     1     -11.148   6.317  72.309  1.00  0.00    -0.311 C  
HETATM   23  C   UNL     1      -9.828   8.408  71.968  1.00  0.00    -0.354 C  
ENDBRANCH  19  21
ENDBRANCH  18  19
ENDBRANCH  15  18
ENDBRANCH  14  15
ENDBRANCH  13  14
ENDBRANCH  10  13
ENDBRANCH   6   7
ENDBRANCH   5   6
ENDBRANCH   3   5
ENDBRANCH   2   3
TORSDOF 10
ENDMDL
MODEL      275
REMARK 921   NORMALIZED FREE ENERGY PREDICTED BY IDOCK:   -2.40 KCAL/MOL
REMARK 922        TOTAL FREE ENERGY PREDICTED BY IDOCK:   -4.68 KCAL/MOL
REMARK 923 INTER-LIGAND FREE ENERGY PREDICTED BY IDOCK:   -3.85 KCAL/MOL
REMARK 924 INTRA-LIGAND FREE ENERGY PREDICTED BY IDOCK:   -0.82 KCAL/MOL
REMARK 927      BINDING AFFINITY PREDICTED BY RF-SCORE:    0.00 PKD
ROOT
HETATM    1  C   UNL     1     -10.817  12.568  63.604  1.00  0.00    -0.441 C  
HETATM    2  O   UNL     1     -10.424  12.609  64.973  1.00  0.00    -0.293 OA 
ENDROOT
BRANCH   2   3
HETATM    3  C   UNL     1     -11.124  11.761  65.779  1.00  0.00    -0.297 C  
HETATM    4  O   UNL     1     -12.164  12.039  66.362  1.00  0.00    -0.551 OA 
BRANCH   3   5
HETATM    5  C   UNL     1     -10.407  10.445  65.852  1.00  0.00    -0.261 C  
BRANCH   5   6
HETATM    6  C   UNL     1      -8.923  10.605  66.201  1.00  0.00    -0.184 C  
BRANCH   6   7
HETATM    7  C   UNL     1      -8.341   9.400  66.906  1.00  0.00    -0.127 A  
HETATM    8  C   UNL     1      -7.337   8.637  66.308  1.00  0.00    -0.086 A  
HETATM    9  C   UNL     1      -6.811   7.519  66.944  1.00  0.00    -0.070 A  
HETATM   10  C   UNL     1      -7.259   7.138  68.209  1.00  0.00    -0.091 A  
HETATM   11  C   UNL     1      -8.766   9.047  68.198  1.00  0.00    -0.130 A  
HETATM   12  C   UNL     1      -8.229   7.918  68.840  1.00  0.00    -0.126 A  
BRANCH  10  13
HETATM   13  O   UNL     1      -6.803   6.034  68.891  1.00  0.00    -0.061 OA 
BRANCH  13  14
HETATM   14  C   UNL     1      -7.845   5.168  69.373  1.00  0.00    -0.080 C  
BRANCH  14  15
HETATM   15  C   UNL     1      -7.397   4.392  70.614  1.00  0.00    -0.048 C  
HETATM   16  O   UNL     1      -6.051   3.933  70.435  1.00  0.00    -0.017 OA 
HETATM   17  H   UNL     1      -5.774   3.451  71.206  1.00  0.00     0.000 HD 
BRANCH  15  18
HETATM   18  C   UNL     1      -7.493   5.225  71.905  1.00  0.00    -0.096 C  
BRANCH  18  19
HETATM   19  N   UNL     1      -8.462   6.319  71.781  1.00  0.00    -0.128 NA 
HETATM   20  H   UNL     1      -8.637   6.535  70.800  1.00  0.00     0.000 HD 
BRANCH  19  21
HETATM   21  C   UNL     1      -9.725   6.073  72.488  1.00  0.00    -0.157 C  
HETATM   22  C   UNL     1      -9.893   6.949  73.731  1.00  0.00    -0.313 C  
HETATM   23  C   UNL     1     -10.870   6.355  71.512  1.00  0.00    -0.299 C  
ENDBRANCH  19  21
ENDBRANCH  18  19
ENDBRANCH  15  18
ENDBRANCH  14  15
ENDBRANCH  13  14
ENDBRANCH  10  13
ENDBRANCH   6   7
ENDBRANCH   5   6
ENDBRANCH   3   5
ENDBRANCH   2   3
TORSDOF 10
ENDMDL
MODEL      276
REMARK 921   NORMALIZED FREE ENERGY PREDICTED BY IDOCK:   -2.30 KCAL/MOL
REMARK 922        TOTAL FREE ENERGY PREDICTED BY IDOCK:   -4.51 KCAL/MOL
REMARK 923 INTER-LIGAND FREE ENERGY PREDICTED BY IDOCK:   -4.03 KCAL/MOL
REMARK 924 INTRA-LIGAND FREE ENERGY PREDICTED BY IDOCK:   -0.48 KCAL/MOL
REMARK 927      BINDING AFFINITY PREDICTED BY RF-SCORE:    0.00 PKD
ROOT
HETATM    1  C   UNL     1     -10.267  19.485  67.951  1.00  0.00    -0.431 C  
HETATM    2  O   UNL     1     -10.777  18.184  68.228  1.00  0.00    -0.303 OA 
ENDROOT
BRANCH   2   3
HETATM    3  C   UNL     1      -9.865  17.183  68.066  1.00  0.00    -0.283 C  
HETATM    4  O   UNL     1      -8.989  16.890  68.869  1.00  0.00    -0.259 OA 
BRANCH   3   5
HETATM    5  C   UNL     1     -10.096  16.515  66.742  1.00  0.00    -0.290 C  
BRANCH   5   6
HETATM    6  C   UNL     1     -11.130  15.387  66.828  1.00  0.00    -0.244 C  
BRANCH   6   7
HETATM    7  C   UNL     1     -10.601  14.140  67.503  1.00  0.00    -0.257 A  
HETATM    8  C   UNL     1      -9.251  13.797  67.414  1.00  0.00    -0.221 A  
HETATM    9  C   UNL     1      -8.763  12.644  68.017  1.00  0.00    -0.190 A  
HETATM   10  C   UNL     1      -9.606  11.806  68.746  1.00  0.00    -0.042 A  
HETATM   11  C   UNL     1     -11.446  13.324  68.272  1.00  0.00    -0.351 A  
HETATM   12  C   UNL     1     -10.950  12.161  68.884  1.00  0.00    -0.269 A  
BRANCH  10  13
HETATM   13  O   UNL     1      -9.202  10.640  69.353  1.00  0.00    -0.158 OA 
BRANCH  13  14
HETATM   14  C   UNL     1      -8.742   9.630  68.438  1.00  0.00    -0.120 C  
BRANCH  14  15
HETATM   15  C   UNL     1      -7.507   8.905  68.980  1.00  0.00    -0.074 C  
HETATM   16  O   UNL     1      -7.100   9.507  70.215  1.00  0.00    -0.079 OA 
HETATM   17  H   UNL     1      -6.334   9.057  70.551  1.00  0.00     0.000 HD 
BRANCH  15  18
HETATM   18  C   UNL     1      -7.746   7.399  69.193  1.00  0.00    -0.111 C  
BRANCH  18  19
HETATM   19  N   UNL     1      -7.247   6.600  68.068  1.00  0.00    -0.088 NA 
HETATM   20  H   UNL     1      -6.234   6.690  67.984  1.00  0.00     0.000 HD 
BRANCH  19  21
HETATM   21  C   UNL     1      -7.638   5.188  68.127  1.00  0.00    -0.080 C  
HETATM   22  C   UNL     1      -6.749   4.361  69.058  1.00  0.00    -0.046 C  
HETATM   23  C   UNL     1      -9.086   5.123  68.621  1.00  0.00    -0.135 C  
ENDBRANCH  19  21
ENDBRANCH  18  19
ENDBRANCH  15  18
ENDBRANCH  14  15
ENDBRANCH  13  14
ENDBRANCH  10  13
ENDBRANCH   6   7
ENDBRANCH   5   6
ENDBRANCH   3   5
ENDBRANCH   2   3
TORSDOF 10
ENDMDL
MODEL      277
REMARK 921   NORMALIZED FREE ENERGY PREDICTED BY IDOCK:   -2.28 KCAL/MOL
REMARK 922        TOTAL FREE ENERGY PREDICTED BY IDOCK:   -4.50 KCAL/MOL
REMARK 923 INTER-LIGAND FREE ENERGY PREDICTED BY IDOCK:   -3.64 KCAL/MOL
REMARK 924 INTRA-LIGAND FREE ENERGY PREDICTED BY IDOCK:   -0.86 KCAL/MOL
REMARK 927      BINDING AFFINITY PREDICTED BY RF-SCORE:    0.00 PKD
ROOT
HETATM    1  C   UNL     1      -7.930   6.969  62.968  1.00  0.00    -0.080 C  
HETATM    2  O   UNL     1      -7.041   6.659  64.037  1.00  0.00    -0.045 OA 
ENDROOT
BRANCH   2   3
HETATM    3  C   UNL     1      -5.908   7.418  64.056  1.00  0.00    -0.041 C  
HETATM    4  O   UNL     1      -5.266   7.753  63.069  1.00  0.00    -0.047 OA 
BRANCH   3   5
HETATM    5  C   UNL     1      -5.565   7.756  65.478  1.00  0.00    -0.037 C  
BRANCH   5   6
HETATM    6  C   UNL     1      -6.455   7.020  66.486  1.00  0.00    -0.051 C  
BRANCH   6   7
HETATM    7  C   UNL     1      -7.312   7.949  67.316  1.00  0.00    -0.092 A  
HETATM    8  C   UNL     1      -7.768   7.565  68.578  1.00  0.00    -0.120 A  
HETATM    9  C   UNL     1      -8.571   8.408  69.339  1.00  0.00    -0.129 A  
HETATM   10  C   UNL     1      -8.928   9.671  68.869  1.00  0.00    -0.144 A  
HETATM   11  C   UNL     1      -7.632   9.237  66.857  1.00  0.00    -0.091 A  
HETATM   12  C   UNL     1      -8.440  10.089  67.629  1.00  0.00    -0.114 A  
BRANCH  10  13
HETATM   13  O   UNL     1      -9.733  10.551  69.553  1.00  0.00    -0.202 OA 
BRANCH  13  14
HETATM   14  C   UNL     1     -10.865  11.021  68.798  1.00  0.00    -0.210 C  
BRANCH  14  15
HETATM   15  C   UNL     1     -12.184  10.651  69.480  1.00  0.00    -0.159 C  
HETATM   16  O   UNL     1     -11.997   9.481  70.287  1.00  0.00    -0.450 OA 
HETATM   17  H   UNL     1     -12.816   9.251  70.709  1.00  0.00     0.000 HD 
BRANCH  15  18
HETATM   18  C   UNL     1     -12.749  11.791  70.345  1.00  0.00     0.007 C  
BRANCH  18  19
HETATM   19  N   UNL     1     -11.759  12.849  70.573  1.00  0.00    -0.507 NA 
HETATM   20  H   UNL     1     -10.967  12.742  69.939  1.00  0.00     0.000 HD 
BRANCH  19  21
HETATM   21  C   UNL     1     -12.312  14.205  70.484  1.00  0.00    -0.364 C  
HETATM   22  C   UNL     1     -11.740  15.153  71.541  1.00  0.00    -0.447 C  
HETATM   23  C   UNL     1     -11.992  14.752  69.090  1.00  0.00    -0.317 C  
ENDBRANCH  19  21
ENDBRANCH  18  19
ENDBRANCH  15  18
ENDBRANCH  14  15
ENDBRANCH  13  14
ENDBRANCH  10  13
ENDBRANCH   6   7
ENDBRANCH   5   6
ENDBRANCH   3   5
ENDBRANCH   2   3
TORSDOF 10
ENDMDL
MODEL      278
REMARK 921   NORMALIZED FREE ENERGY PREDICTED BY IDOCK:   -2.28 KCAL/MOL
REMARK 922        TOTAL FREE ENERGY PREDICTED BY IDOCK:   -4.49 KCAL/MOL
REMARK 923 INTER-LIGAND FREE ENERGY PREDICTED BY IDOCK:   -3.89 KCAL/MOL
REMARK 924 INTRA-LIGAND FREE ENERGY PREDICTED BY IDOCK:   -0.59 KCAL/MOL
REMARK 927      BINDING AFFINITY PREDICTED BY RF-SCORE:    0.00 PKD
ROOT
HETATM    1  C   UNL     1      -6.248   8.635  63.829  1.00  0.00    -0.073 C  
HETATM    2  O   UNL     1      -7.022   9.090  64.936  1.00  0.00    -0.076 OA 
ENDROOT
BRANCH   2   3
HETATM    3  C   UNL     1      -8.349   9.242  64.661  1.00  0.00    -0.161 C  
HETATM    4  O   UNL     1      -8.835   9.307  63.539  1.00  0.00    -0.205 OA 
BRANCH   3   5
HETATM    5  C   UNL     1      -9.112   9.338  65.950  1.00  0.00    -0.246 C  
BRANCH   5   6
HETATM    6  C   UNL     1      -8.326  10.070  67.042  1.00  0.00    -0.121 C  
BRANCH   6   7
HETATM    7  C   UNL     1      -8.624   9.562  68.436  1.00  0.00    -0.120 A  
HETATM    8  C   UNL     1      -7.743   8.698  69.087  1.00  0.00    -0.097 A  
HETATM    9  C   UNL     1      -8.020   8.215  70.360  1.00  0.00    -0.099 A  
HETATM   10  C   UNL     1      -9.181   8.595  71.032  1.00  0.00    -0.203 A  
HETATM   11  C   UNL     1      -9.774   9.983  69.125  1.00  0.00    -0.217 A  
HETATM   12  C   UNL     1     -10.050   9.496  70.414  1.00  0.00    -0.329 A  
BRANCH  10  13
HETATM   13  O   UNL     1      -9.534   8.144  72.282  1.00  0.00    -0.194 OA 
BRANCH  13  14
HETATM   14  C   UNL     1      -8.759   7.024  72.744  1.00  0.00    -0.119 C  
BRANCH  14  15
HETATM   15  C   UNL     1      -9.251   6.526  74.106  1.00  0.00    -0.177 C  
HETATM   16  O   UNL     1     -10.558   7.053  74.367  1.00  0.00    -0.519 OA 
HETATM   17  H   UNL     1     -10.863   6.745  75.212  1.00  0.00     0.000 HD 
BRANCH  15  18
HETATM   18  C   UNL     1      -9.284   4.991  74.203  1.00  0.00    -0.117 C  
BRANCH  18  19
HETATM   19  N   UNL     1      -8.973   4.353  72.918  1.00  0.00    -0.117 NA 
HETATM   20  H   UNL     1      -8.144   3.765  73.000  1.00  0.00     0.000 HD 
BRANCH  19  21
HETATM   21  C   UNL     1     -10.092   3.592  72.350  1.00  0.00    -0.163 C  
HETATM   22  C   UNL     1      -9.634   2.428  71.469  1.00  0.00    -0.219 C  
HETATM   23  C   UNL     1     -10.926   3.048  73.513  1.00  0.00    -0.323 C  
ENDBRANCH  19  21
ENDBRANCH  18  19
ENDBRANCH  15  18
ENDBRANCH  14  15
ENDBRANCH  13  14
ENDBRANCH  10  13
ENDBRANCH   6   7
ENDBRANCH   5   6
ENDBRANCH   3   5
ENDBRANCH   2   3
TORSDOF 10
ENDMDL
MODEL      279
REMARK 921   NORMALIZED FREE ENERGY PREDICTED BY IDOCK:   -2.23 KCAL/MOL
REMARK 922        TOTAL FREE ENERGY PREDICTED BY IDOCK:   -4.41 KCAL/MOL
REMARK 923 INTER-LIGAND FREE ENERGY PREDICTED BY IDOCK:   -3.96 KCAL/MOL
REMARK 924 INTRA-LIGAND FREE ENERGY PREDICTED BY IDOCK:   -0.45 KCAL/MOL
REMARK 927      BINDING AFFINITY PREDICTED BY RF-SCORE:    0.00 PKD
ROOT
HETATM    1  C   UNL     1      -9.870  20.185  66.796  1.00  0.00    -0.456 C  
HETATM    2  O   UNL     1      -9.554  18.802  66.658  1.00  0.00    -0.310 OA 
ENDROOT
BRANCH   2   3
HETATM    3  C   UNL     1      -9.863  18.050  67.753  1.00  0.00    -0.305 C  
HETATM    4  O   UNL     1      -9.507  18.291  68.899  1.00  0.00    -0.296 OA 
BRANCH   3   5
HETATM    5  C   UNL     1     -10.689  16.872  67.324  1.00  0.00    -0.208 C  
BRANCH   5   6
HETATM    6  C   UNL     1     -10.847  15.832  68.438  1.00  0.00    -0.297 C  
BRANCH   6   7
HETATM    7  C   UNL     1     -10.269  14.480  68.080  1.00  0.00    -0.233 A  
HETATM    8  C   UNL     1     -11.103  13.397  67.797  1.00  0.00    -0.292 A  
HETATM    9  C   UNL     1     -10.577  12.149  67.484  1.00  0.00    -0.240 A  
HETATM   10  C   UNL     1      -9.199  11.948  67.427  1.00  0.00    -0.177 A  
HETATM   11  C   UNL     1      -8.880  14.294  67.980  1.00  0.00    -0.178 A  
HETATM   12  C   UNL     1      -8.351  13.032  67.660  1.00  0.00    -0.181 A  
BRANCH  10  13
HETATM   13  O   UNL     1      -8.605  10.740  67.145  1.00  0.00    -0.127 OA 
BRANCH  13  14
HETATM   14  C   UNL     1      -8.285  10.551  65.756  1.00  0.00    -0.160 C  
BRANCH  14  15
HETATM   15  C   UNL     1      -7.537   9.234  65.528  1.00  0.00    -0.091 C  
HETATM   16  O   UNL     1      -8.202   8.176  66.228  1.00  0.00    -0.106 OA 
HETATM   17  H   UNL     1      -7.737   7.359  66.087  1.00  0.00     0.000 HD 
BRANCH  15  18
HETATM   18  C   UNL     1      -7.411   8.870  64.038  1.00  0.00    -0.112 C  
BRANCH  18  19
HETATM   19  N   UNL     1      -7.483   7.421  63.820  1.00  0.00    -0.097 NA 
HETATM   20  H   UNL     1      -7.980   7.211  62.954  1.00  0.00     0.000 HD 
BRANCH  19  21
HETATM   21  C   UNL     1      -6.175   6.755  63.839  1.00  0.00    -0.035 C  
HETATM   22  C   UNL     1      -6.280   5.232  63.736  1.00  0.00    -0.022 C  
HETATM   23  C   UNL     1      -5.363   7.286  62.654  1.00  0.00    -0.037 C  
ENDBRANCH  19  21
ENDBRANCH  18  19
ENDBRANCH  15  18
ENDBRANCH  14  15
ENDBRANCH  13  14
ENDBRANCH  10  13
ENDBRANCH   6   7
ENDBRANCH   5   6
ENDBRANCH   3   5
ENDBRANCH   2   3
TORSDOF 10
ENDMDL
MODEL      280
REMARK 921   NORMALIZED FREE ENERGY PREDICTED BY IDOCK:   -2.16 KCAL/MOL
REMARK 922        TOTAL FREE ENERGY PREDICTED BY IDOCK:   -4.29 KCAL/MOL
REMARK 923 INTER-LIGAND FREE ENERGY PREDICTED BY IDOCK:   -3.36 KCAL/MOL
REMARK 924 INTRA-LIGAND FREE ENERGY PREDICTED BY IDOCK:   -0.94 KCAL/MOL
REMARK 927      BINDING AFFINITY PREDICTED BY RF-SCORE:    0.00 PKD
ROOT
HETATM    1  C   UNL     1      -8.607  10.593  65.495  1.00  0.00    -0.185 C  
HETATM    2  O   UNL     1      -9.697  11.211  66.175  1.00  0.00    -0.204 OA 
ENDROOT
BRANCH   2   3
HETATM    3  C   UNL     1      -9.375  11.708  67.403  1.00  0.00    -0.168 C  
HETATM    4  O   UNL     1      -9.424  12.890  67.722  1.00  0.00    -0.188 OA 
BRANCH   3   5
HETATM    5  C   UNL     1      -8.936  10.582  68.292  1.00  0.00    -0.139 C  
BRANCH   5   6
HETATM    6  C   UNL     1     -10.112   9.902  69.001  1.00  0.00    -0.199 C  
BRANCH   6   7
HETATM    7  C   UNL     1      -9.680   8.861  70.011  1.00  0.00    -0.187 A  
HETATM    8  C   UNL     1      -8.678   9.140  70.942  1.00  0.00    -0.277 A  
HETATM    9  C   UNL     1      -8.266   8.182  71.861  1.00  0.00    -0.180 A  
HETATM   10  C   UNL     1      -8.856   6.918  71.890  1.00  0.00    -0.126 A  
HETATM   11  C   UNL     1     -10.308   7.606  70.065  1.00  0.00    -0.223 A  
HETATM   12  C   UNL     1      -9.892   6.640  70.997  1.00  0.00    -0.196 A  
BRANCH  10  13
HETATM   13  O   UNL     1      -8.489   5.913  72.754  1.00  0.00    -0.122 OA 
BRANCH  13  14
HETATM   14  C   UNL     1      -7.067   5.773  72.923  1.00  0.00    -0.085 C  
BRANCH  14  15
HETATM   15  C   UNL     1      -6.672   4.311  73.150  1.00  0.00    -0.052 C  
HETATM   16  O   UNL     1      -6.393   4.099  74.540  1.00  0.00    -0.039 OA 
HETATM   17  H   UNL     1      -6.148   3.192  74.681  1.00  0.00     0.000 HD 
BRANCH  15  18
HETATM   18  C   UNL     1      -7.754   3.322  72.683  1.00  0.00    -0.062 C  
BRANCH  18  19
HETATM   19  N   UNL     1      -8.815   3.156  73.683  1.00  0.00    -0.076 NA 
HETATM   20  H   UNL     1      -8.786   3.913  74.366  1.00  0.00     0.000 HD 
BRANCH  19  21
HETATM   21  C   UNL     1     -10.158   3.032  73.105  1.00  0.00    -0.133 C  
HETATM   22  C   UNL     1     -11.096   4.163  73.529  1.00  0.00    -0.359 C  
HETATM   23  C   UNL     1     -10.014   3.040  71.580  1.00  0.00    -0.158 C  
ENDBRANCH  19  21
ENDBRANCH  18  19
ENDBRANCH  15  18
ENDBRANCH  14  15
ENDBRANCH  13  14
ENDBRANCH  10  13
ENDBRANCH   6   7
ENDBRANCH   5   6
ENDBRANCH   3   5
ENDBRANCH   2   3
TORSDOF 10
ENDMDL
MODEL      281
REMARK 921   NORMALIZED FREE ENERGY PREDICTED BY IDOCK:   -2.12 KCAL/MOL
REMARK 922        TOTAL FREE ENERGY PREDICTED BY IDOCK:   -4.24 KCAL/MOL
REMARK 923 INTER-LIGAND FREE ENERGY PREDICTED BY IDOCK:   -3.30 KCAL/MOL
REMARK 924 INTRA-LIGAND FREE ENERGY PREDICTED BY IDOCK:   -0.95 KCAL/MOL
REMARK 927      BINDING AFFINITY PREDICTED BY RF-SCORE:    0.00 PKD
ROOT
HETATM    1  C   UNL     1     -10.886  12.594  63.578  1.00  0.00    -0.329 C  
HETATM    2  O   UNL     1     -10.783  12.874  64.972  1.00  0.00    -0.286 OA 
ENDROOT
BRANCH   2   3
HETATM    3  C   UNL     1     -11.735  12.264  65.734  1.00  0.00    -0.385 C  
HETATM    4  O   UNL     1     -12.840  12.728  65.988  1.00  0.00    -0.210 OA 
BRANCH   3   5
HETATM    5  C   UNL     1     -11.206  10.949  66.225  1.00  0.00     0.086 C  
BRANCH   5   6
HETATM    6  C   UNL     1      -9.971  11.111  67.118  1.00  0.00    -0.215 C  
BRANCH   6   7
HETATM    7  C   UNL     1      -9.751   9.941  68.051  1.00  0.00    -0.160 A  
HETATM    8  C   UNL     1      -8.540   9.247  68.055  1.00  0.00    -0.121 A  
HETATM    9  C   UNL     1      -8.338   8.161  68.898  1.00  0.00    -0.125 A  
HETATM   10  C   UNL     1      -9.336   7.744  69.780  1.00  0.00    -0.153 A  
HETATM   11  C   UNL     1     -10.742   9.554  68.968  1.00  0.00    -0.224 A  
HETATM   12  C   UNL     1     -10.535   8.458  69.822  1.00  0.00    -0.220 A  
BRANCH  10  13
HETATM   13  O   UNL     1      -9.218   6.668  70.628  1.00  0.00    -0.158 OA 
BRANCH  13  14
HETATM   14  C   UNL     1      -7.923   6.042  70.608  1.00  0.00    -0.111 C  
BRANCH  14  15
HETATM   15  C   UNL     1      -7.994   4.596  71.106  1.00  0.00    -0.087 C  
HETATM   16  O   UNL     1      -9.052   4.469  72.064  1.00  0.00    -0.126 OA 
HETATM   17  H   UNL     1      -9.095   3.571  72.373  1.00  0.00     0.000 HD 
BRANCH  15  18
HETATM   18  C   UNL     1      -8.202   3.582  69.967  1.00  0.00    -0.052 C  
BRANCH  18  19
HETATM   19  N   UNL     1      -8.989   4.149  68.866  1.00  0.00    -0.103 NA 
HETATM   20  H   UNL     1      -9.326   5.081  69.107  1.00  0.00     0.000 HD 
BRANCH  19  21
HETATM   21  C   UNL     1      -8.277   4.173  67.583  1.00  0.00    -0.095 C  
HETATM   22  C   UNL     1      -8.575   2.950  66.713  1.00  0.00    -0.112 C  
HETATM   23  C   UNL     1      -8.703   5.440  66.835  1.00  0.00    -0.112 C  
ENDBRANCH  19  21
ENDBRANCH  18  19
ENDBRANCH  15  18
ENDBRANCH  14  15
ENDBRANCH  13  14
ENDBRANCH  10  13
ENDBRANCH   6   7
ENDBRANCH   5   6
ENDBRANCH   3   5
ENDBRANCH   2   3
TORSDOF 10
ENDMDL
MODEL      282
REMARK 921   NORMALIZED FREE ENERGY PREDICTED BY IDOCK:   -2.12 KCAL/MOL
REMARK 922        TOTAL FREE ENERGY PREDICTED BY IDOCK:   -4.24 KCAL/MOL
REMARK 923 INTER-LIGAND FREE ENERGY PREDICTED BY IDOCK:   -3.54 KCAL/MOL
REMARK 924 INTRA-LIGAND FREE ENERGY PREDICTED BY IDOCK:   -0.69 KCAL/MOL
REMARK 927      BINDING AFFINITY PREDICTED BY RF-SCORE:    0.00 PKD
ROOT
HETATM    1  C   UNL     1      -9.165   9.767  70.060  1.00  0.00    -0.229 C  
HETATM    2  O   UNL     1      -9.142   9.332  68.703  1.00  0.00    -0.132 OA 
ENDROOT
BRANCH   2   3
HETATM    3  C   UNL     1     -10.280   9.617  68.008  1.00  0.00    -0.194 C  
HETATM    4  O   UNL     1     -11.041  10.545  68.249  1.00  0.00    -0.249 OA 
BRANCH   3   5
HETATM    5  C   UNL     1     -10.459   8.600  66.919  1.00  0.00    -0.329 C  
BRANCH   5   6
HETATM    6  C   UNL     1      -9.181   7.798  66.651  1.00  0.00    -0.220 C  
BRANCH   6   7
HETATM    7  C   UNL     1      -9.188   6.430  67.298  1.00  0.00    -0.122 A  
HETATM    8  C   UNL     1      -9.821   5.350  66.681  1.00  0.00    -0.193 A  
HETATM    9  C   UNL     1      -9.844   4.095  67.279  1.00  0.00    -0.171 A  
HETATM   10  C   UNL     1      -9.219   3.875  68.506  1.00  0.00    -0.155 A  
HETATM   11  C   UNL     1      -8.519   6.204  68.512  1.00  0.00    -0.114 A  
HETATM   12  C   UNL     1      -8.541   4.934  69.113  1.00  0.00    -0.091 A  
BRANCH  10  13
HETATM   13  O   UNL     1      -9.218   2.670  69.168  1.00  0.00    -0.123 OA 
BRANCH  13  14
HETATM   14  C   UNL     1      -8.039   2.435  69.959  1.00  0.00    -0.041 C  
BRANCH  14  15
HETATM   15  C   UNL     1      -8.389   2.229  71.436  1.00  0.00    -0.057 C  
HETATM   16  O   UNL     1      -7.507   3.008  72.252  1.00  0.00    -0.049 OA 
HETATM   17  H   UNL     1      -7.723   2.879  73.168  1.00  0.00     0.000 HD 
BRANCH  15  18
HETATM   18  C   UNL     1      -9.849   2.593  71.759  1.00  0.00    -0.153 C  
BRANCH  18  19
HETATM   19  N   UNL     1     -10.010   4.026  72.031  1.00  0.00    -0.175 NA 
HETATM   20  H   UNL     1     -10.276   4.525  71.183  1.00  0.00     0.000 HD 
BRANCH  19  21
HETATM   21  C   UNL     1     -10.949   4.319  73.120  1.00  0.00    -0.211 C  
HETATM   22  C   UNL     1     -10.337   4.112  74.507  1.00  0.00    -0.282 C  
HETATM   23  C   UNL     1     -11.392   5.778  72.976  1.00  0.00    -0.254 C  
ENDBRANCH  19  21
ENDBRANCH  18  19
ENDBRANCH  15  18
ENDBRANCH  14  15
ENDBRANCH  13  14
ENDBRANCH  10  13
ENDBRANCH   6   7
ENDBRANCH   5   6
ENDBRANCH   3   5
ENDBRANCH   2   3
TORSDOF 10
ENDMDL
MODEL      283
REMARK 921   NORMALIZED FREE ENERGY PREDICTED BY IDOCK:   -1.97 KCAL/MOL
REMARK 922        TOTAL FREE ENERGY PREDICTED BY IDOCK:   -4.00 KCAL/MOL
REMARK 923 INTER-LIGAND FREE ENERGY PREDICTED BY IDOCK:   -3.03 KCAL/MOL
REMARK 924 INTRA-LIGAND FREE ENERGY PREDICTED BY IDOCK:   -0.96 KCAL/MOL
REMARK 927      BINDING AFFINITY PREDICTED BY RF-SCORE:    0.00 PKD
ROOT
HETATM    1  C   UNL     1     -10.831  12.606  63.592  1.00  0.00    -0.395 C  
HETATM    2  O   UNL     1     -10.587  13.051  64.924  1.00  0.00    -0.306 OA 
ENDROOT
BRANCH   2   3
HETATM    3  C   UNL     1     -11.347  12.426  65.867  1.00  0.00    -0.356 C  
HETATM    4  O   UNL     1     -12.503  12.714  66.148  1.00  0.00    -0.520 OA 
BRANCH   3   5
HETATM    5  C   UNL     1     -10.533  11.345  66.518  1.00  0.00    -0.292 C  
BRANCH   5   6
HETATM    6  C   UNL     1     -11.244   9.988  66.504  1.00  0.00     0.523 C  
BRANCH   6   7
HETATM    7  C   UNL     1     -10.298   8.816  66.645  1.00  0.00    -0.298 A  
HETATM    8  C   UNL     1     -10.482   7.866  67.651  1.00  0.00    -0.303 A  
HETATM    9  C   UNL     1      -9.606   6.796  67.796  1.00  0.00    -0.133 A  
HETATM   10  C   UNL     1      -8.527   6.632  66.928  1.00  0.00    -0.115 A  
HETATM   11  C   UNL     1      -9.239   8.632  65.741  1.00  0.00    -0.245 A  
HETATM   12  C   UNL     1      -8.357   7.548  65.887  1.00  0.00    -0.140 A  
BRANCH  10  13
HETATM   13  O   UNL     1      -7.607   5.614  67.020  1.00  0.00    -0.093 OA 
BRANCH  13  14
HETATM   14  C   UNL     1      -7.896   4.652  68.050  1.00  0.00    -0.081 C  
BRANCH  14  15
HETATM   15  C   UNL     1      -6.638   3.889  68.472  1.00  0.00    -0.045 C  
HETATM   16  O   UNL     1      -5.740   3.790  67.359  1.00  0.00    -0.021 OA 
HETATM   17  H   UNL     1      -4.960   3.316  67.621  1.00  0.00     0.000 HD 
BRANCH  15  18
HETATM   18  C   UNL     1      -5.915   4.542  69.663  1.00  0.00    -0.018 C  
BRANCH  18  19
HETATM   19  N   UNL     1      -6.075   6.001  69.668  1.00  0.00    -0.025 NA 
HETATM   20  H   UNL     1      -6.569   6.311  68.831  1.00  0.00     0.000 HD 
BRANCH  19  21
HETATM   21  C   UNL     1      -6.728   6.519  70.875  1.00  0.00    -0.054 C  
HETATM   22  C   UNL     1      -5.732   6.959  71.950  1.00  0.00    -0.037 C  
HETATM   23  C   UNL     1      -7.589   7.718  70.463  1.00  0.00    -0.079 C  
ENDBRANCH  19  21
ENDBRANCH  18  19
ENDBRANCH  15  18
ENDBRANCH  14  15
ENDBRANCH  13  14
ENDBRANCH  10  13
ENDBRANCH   6   7
ENDBRANCH   5   6
ENDBRANCH   3   5
ENDBRANCH   2   3
TORSDOF 10
ENDMDL
MODEL      284
REMARK 921   NORMALIZED FREE ENERGY PREDICTED BY IDOCK:   -1.93 KCAL/MOL
REMARK 922        TOTAL FREE ENERGY PREDICTED BY IDOCK:   -3.94 KCAL/MOL
REMARK 923 INTER-LIGAND FREE ENERGY PREDICTED BY IDOCK:   -3.86 KCAL/MOL
REMARK 924 INTRA-LIGAND FREE ENERGY PREDICTED BY IDOCK:   -0.08 KCAL/MOL
REMARK 927      BINDING AFFINITY PREDICTED BY RF-SCORE:    0.00 PKD
ROOT
HETATM    1  C   UNL     1      -6.291  20.625  67.998  1.00  0.00    -0.316 C  
HETATM    2  O   UNL     1      -7.517  20.056  67.546  1.00  0.00    -0.266 OA 
ENDROOT
BRANCH   2   3
HETATM    3  C   UNL     1      -7.744  18.791  68.002  1.00  0.00    -0.263 C  
HETATM    4  O   UNL     1      -8.504  18.495  68.916  1.00  0.00    -0.269 OA 
BRANCH   3   5
HETATM    5  C   UNL     1      -6.902  17.826  67.220  1.00  0.00    -0.190 C  
BRANCH   5   6
HETATM    6  C   UNL     1      -7.734  16.956  66.272  1.00  0.00    -0.332 C  
BRANCH   6   7
HETATM    7  C   UNL     1      -8.061  15.594  66.843  1.00  0.00    -0.290 A  
HETATM    8  C   UNL     1      -7.183  14.957  67.722  1.00  0.00    -0.190 A  
HETATM    9  C   UNL     1      -7.470  13.698  68.236  1.00  0.00    -0.124 A  
HETATM   10  C   UNL     1      -8.655  13.042  67.903  1.00  0.00    -0.189 A  
HETATM   11  C   UNL     1      -9.275  14.957  66.539  1.00  0.00    -0.314 A  
HETATM   12  C   UNL     1      -9.565  13.686  67.063  1.00  0.00    -0.251 A  
BRANCH  10  13
HETATM   13  O   UNL     1      -8.998  11.789  68.354  1.00  0.00    -0.178 OA 
BRANCH  13  14
HETATM   14  C   UNL     1      -7.894  10.871  68.438  1.00  0.00    -0.123 C  
BRANCH  14  15
HETATM   15  C   UNL     1      -7.987   9.785  67.362  1.00  0.00    -0.102 C  
HETATM   16  O   UNL     1      -9.133  10.023  66.536  1.00  0.00    -0.145 OA 
HETATM   17  H   UNL     1      -9.191   9.350  65.869  1.00  0.00     0.000 HD 
BRANCH  15  18
HETATM   18  C   UNL     1      -6.725   9.706  66.485  1.00  0.00    -0.079 C  
BRANCH  18  19
HETATM   19  N   UNL     1      -6.655   8.446  65.737  1.00  0.00    -0.052 NA 
HETATM   20  H   UNL     1      -5.957   8.506  64.996  1.00  0.00     0.000 HD 
BRANCH  19  21
HETATM   21  C   UNL     1      -6.412   7.270  66.581  1.00  0.00    -0.052 C  
HETATM   22  C   UNL     1      -5.828   7.628  67.949  1.00  0.00    -0.036 C  
HETATM   23  C   UNL     1      -7.749   6.550  66.776  1.00  0.00    -0.099 C  
ENDBRANCH  19  21
ENDBRANCH  18  19
ENDBRANCH  15  18
ENDBRANCH  14  15
ENDBRANCH  13  14
ENDBRANCH  10  13
ENDBRANCH   6   7
ENDBRANCH   5   6
ENDBRANCH   3   5
ENDBRANCH   2   3
TORSDOF 10
ENDMDL
MODEL      285
REMARK 921   NORMALIZED FREE ENERGY PREDICTED BY IDOCK:   -1.91 KCAL/MOL
REMARK 922        TOTAL FREE ENERGY PREDICTED BY IDOCK:   -3.90 KCAL/MOL
REMARK 923 INTER-LIGAND FREE ENERGY PREDICTED BY IDOCK:   -3.25 KCAL/MOL
REMARK 924 INTRA-LIGAND FREE ENERGY PREDICTED BY IDOCK:   -0.65 KCAL/MOL
REMARK 927      BINDING AFFINITY PREDICTED BY RF-SCORE:    0.00 PKD
ROOT
HETATM    1  C   UNL     1      -7.910   6.931  63.038  1.00  0.00    -0.108 C  
HETATM    2  O   UNL     1      -6.955   6.544  64.023  1.00  0.00    -0.043 OA 
ENDROOT
BRANCH   2   3
HETATM    3  C   UNL     1      -5.816   7.294  64.019  1.00  0.00    -0.037 C  
HETATM    4  O   UNL     1      -5.125   7.524  63.035  1.00  0.00    -0.033 OA 
BRANCH   3   5
HETATM    5  C   UNL     1      -5.537   7.773  65.414  1.00  0.00    -0.037 C  
BRANCH   5   6
HETATM    6  C   UNL     1      -6.707   7.511  66.368  1.00  0.00    -0.057 C  
BRANCH   6   7
HETATM    7  C   UNL     1      -7.282   8.774  66.971  1.00  0.00    -0.079 A  
HETATM    8  C   UNL     1      -8.466   8.740  67.708  1.00  0.00    -0.125 A  
HETATM    9  C   UNL     1      -9.008   9.899  68.250  1.00  0.00    -0.119 A  
HETATM   10  C   UNL     1      -8.372  11.130  68.087  1.00  0.00    -0.136 A  
HETATM   11  C   UNL     1      -6.614  10.002  66.841  1.00  0.00    -0.071 A  
HETATM   12  C   UNL     1      -7.161  11.173  67.393  1.00  0.00    -0.107 A  
BRANCH  10  13
HETATM   13  O   UNL     1      -8.856  12.321  68.575  1.00  0.00    -0.156 OA 
BRANCH  13  14
HETATM   14  C   UNL     1      -8.989  13.353  67.581  1.00  0.00    -0.202 C  
BRANCH  14  15
HETATM   15  C   UNL     1     -10.453  13.565  67.188  1.00  0.00    -0.256 C  
HETATM   16  O   UNL     1     -11.094  12.295  67.017  1.00  0.00    -0.258 OA 
HETATM   17  H   UNL     1     -12.003  12.427  66.773  1.00  0.00     0.000 HD 
BRANCH  15  18
HETATM   18  C   UNL     1     -11.232  14.402  68.219  1.00  0.00    -0.275 C  
BRANCH  18  19
HETATM   19  N   UNL     1     -10.523  14.492  69.501  1.00  0.00    -0.422 NA 
HETATM   20  H   UNL     1      -9.514  14.451  69.357  1.00  0.00     0.000 HD 
BRANCH  19  21
HETATM   21  C   UNL     1     -10.885  15.671  70.295  1.00  0.00    -0.350 C  
HETATM   22  C   UNL     1     -11.149  16.910  69.437  1.00  0.00     0.031 C  
HETATM   23  C   UNL     1     -12.148  15.329  71.091  1.00  0.00    -0.405 C  
ENDBRANCH  19  21
ENDBRANCH  18  19
ENDBRANCH  15  18
ENDBRANCH  14  15
ENDBRANCH  13  14
ENDBRANCH  10  13
ENDBRANCH   6   7
ENDBRANCH   5   6
ENDBRANCH   3   5
ENDBRANCH   2   3
TORSDOF 10
ENDMDL
MODEL      286
REMARK 921   NORMALIZED FREE ENERGY PREDICTED BY IDOCK:   -1.58 KCAL/MOL
REMARK 922        TOTAL FREE ENERGY PREDICTED BY IDOCK:   -3.38 KCAL/MOL
REMARK 923 INTER-LIGAND FREE ENERGY PREDICTED BY IDOCK:   -3.56 KCAL/MOL
REMARK 924 INTRA-LIGAND FREE ENERGY PREDICTED BY IDOCK:    0.18 KCAL/MOL
REMARK 927      BINDING AFFINITY PREDICTED BY RF-SCORE:    0.00 PKD
ROOT
HETATM    1  C   UNL     1     -11.750  15.759  72.888  1.00  0.00    -0.384 C  
HETATM    2  O   UNL     1     -12.387  16.430  71.804  1.00  0.00    -0.309 OA 
ENDROOT
BRANCH   2   3
HETATM    3  C   UNL     1     -12.894  15.594  70.853  1.00  0.00    -0.442 C  
HETATM    4  O   UNL     1     -13.276  15.937  69.742  1.00  0.00     0.232 OA 
BRANCH   3   5
HETATM    5  C   UNL     1     -12.925  14.194  71.394  1.00  0.00    -0.422 C  
BRANCH   5   6
HETATM    6  C   UNL     1     -13.149  13.148  70.297  1.00  0.00     0.489 C  
BRANCH   6   7
HETATM    7  C   UNL     1     -11.981  13.024  69.342  1.00  0.00    -0.338 A  
HETATM    8  C   UNL     1     -10.867  12.250  69.671  1.00  0.00     0.212 A  
HETATM    9  C   UNL     1      -9.785  12.147  68.805  1.00  0.00    -0.001 A  
HETATM   10  C   UNL     1      -9.790  12.799  67.573  1.00  0.00    -0.211 A  
HETATM   11  C   UNL     1     -12.010  13.648  68.084  1.00  0.00    -0.390 A  
HETATM   12  C   UNL     1     -10.917  13.539  67.209  1.00  0.00    -0.293 A  
BRANCH  10  13
HETATM   13  O   UNL     1      -8.750  12.762  66.674  1.00  0.00    -0.167 OA 
BRANCH  13  14
HETATM   14  C   UNL     1      -7.450  12.662  67.282  1.00  0.00    -0.109 C  
BRANCH  14  15
HETATM   15  C   UNL     1      -7.069  13.957  68.005  1.00  0.00    -0.144 C  
HETATM   16  O   UNL     1      -5.663  14.191  67.864  1.00  0.00    -0.141 OA 
HETATM   17  H   UNL     1      -5.427  14.994  68.312  1.00  0.00     0.000 HD 
BRANCH  15  18
HETATM   18  C   UNL     1      -7.851  15.179  67.490  1.00  0.00    -0.181 C  
BRANCH  18  19
HETATM   19  N   UNL     1      -7.961  16.228  68.509  1.00  0.00    -0.174 NA 
HETATM   20  H   UNL     1      -7.126  16.251  69.094  1.00  0.00     0.000 HD 
BRANCH  19  21
HETATM   21  C   UNL     1      -8.244  17.559  67.959  1.00  0.00    -0.239 C  
HETATM   22  C   UNL     1      -7.542  17.814  66.624  1.00  0.00    -0.271 C  
HETATM   23  C   UNL     1      -9.758  17.673  67.763  1.00  0.00    -0.280 C  
ENDBRANCH  19  21
ENDBRANCH  18  19
ENDBRANCH  15  18
ENDBRANCH  14  15
ENDBRANCH  13  14
ENDBRANCH  10  13
ENDBRANCH   6   7
ENDBRANCH   5   6
ENDBRANCH   3   5
ENDBRANCH   2   3
TORSDOF 10
ENDMDL
MODEL      287
REMARK 921   NORMALIZED FREE ENERGY PREDICTED BY IDOCK:    5.41 KCAL/MOL
REMARK 922        TOTAL FREE ENERGY PREDICTED BY IDOCK:    7.70 KCAL/MOL
REMARK 923 INTER-LIGAND FREE ENERGY PREDICTED BY IDOCK:   -0.69 KCAL/MOL
REMARK 924 INTRA-LIGAND FREE ENERGY PREDICTED BY IDOCK:    8.39 KCAL/MOL
REMARK 927      BINDING AFFINITY PREDICTED BY RF-SCORE:    0.00 PKD
ROOT
HETATM    1  C   UNL     1      -6.444   8.498  63.724  1.00  0.00    -0.076 C  
HETATM    2  O   UNL     1      -7.606   8.751  64.509  1.00  0.00    -0.102 OA 
ENDROOT
BRANCH   2   3
HETATM    3  C   UNL     1      -8.774   8.383  63.909  1.00  0.00     0.259 C  
HETATM    4  O   UNL     1      -8.887   8.027  62.743  1.00  0.00     0.169 OA 
BRANCH   3   5
HETATM    5  C   UNL     1      -9.896   8.505  64.898  1.00  0.00     1.569 C  
BRANCH   5   6
HETATM    6  C   UNL     1      -9.807   9.789  65.730  1.00  0.00    -0.360 C  
BRANCH   6   7
HETATM    7  C   UNL     1      -9.485   9.538  67.186  1.00  0.00    -0.187 A  
HETATM    8  C   UNL     1      -8.183   9.684  67.666  1.00  0.00    -0.114 A  
HETATM    9  C   UNL     1      -7.878   9.438  69.000  1.00  0.00    -0.079 A  
HETATM   10  C   UNL     1      -8.870   9.054  69.902  1.00  0.00    -0.158 A  
HETATM   11  C   UNL     1     -10.496   9.195  68.099  1.00  0.00    -0.260 A  
HETATM   12  C   UNL     1     -10.186   8.950  69.447  1.00  0.00    -0.210 A  
BRANCH  10  13
HETATM   13  O   UNL     1      -8.643   8.773  71.228  1.00  0.00    -0.172 OA 
BRANCH  13  14
HETATM   14  C   UNL     1      -7.258   8.565  71.557  1.00  0.00    -0.095 C  
BRANCH  14  15
HETATM   15  C   UNL     1      -7.041   8.531  73.072  1.00  0.00    -0.010 C  
HETATM   16  O   UNL     1      -8.306   8.421  73.736  1.00  0.00    -0.319 OA 
HETATM   17  H   UNL     1      -8.172   8.400  74.677  1.00  0.00     0.000 HD 
BRANCH  15  18
HETATM   18  C   UNL     1      -6.122   7.381  73.517  1.00  0.00    -0.060 C  
BRANCH  18  19
HETATM   19  N   UNL     1      -6.598   6.079  73.035  1.00  0.00    -0.064 NA 
HETATM   20  H   UNL     1      -6.096   5.320  73.495  1.00  0.00     0.000 HD 
BRANCH  19  21
HETATM   21  C   UNL     1      -8.048   5.895  73.165  1.00  0.00    -0.116 C  
HETATM   22  C   UNL     1      -8.797   7.208  73.404  1.00  0.00    -0.175 C  
HETATM   23  C   UNL     1      -8.556   5.251  71.872  1.00  0.00    -0.130 C  
ENDBRANCH  19  21
ENDBRANCH  18  19
ENDBRANCH  15  18
ENDBRANCH  14  15
ENDBRANCH  13  14
ENDBRANCH  10  13
ENDBRANCH   6   7
ENDBRANCH   5   6
ENDBRANCH   3   5
ENDBRANCH   2   3
TORSDOF 10
ENDMDL
