MODEL        1
REMARK 921   NORMALIZED FREE ENERGY PREDICTED BY IDOCK:   -6.78 KCAL/MOL
REMARK 922        TOTAL FREE ENERGY PREDICTED BY IDOCK:   -9.40 KCAL/MOL
REMARK 923 INTER-LIGAND FREE ENERGY PREDICTED BY IDOCK:   -8.76 KCAL/MOL
REMARK 924 INTRA-LIGAND FREE ENERGY PREDICTED BY IDOCK:   -0.64 KCAL/MOL
REMARK 927      BINDING AFFINITY PREDICTED BY RF-SCORE:    0.00 PKD
ROOT
HETATM    1  C   UNL     1     -12.087  17.006  74.557  1.00  0.00     0.028 C  
HETATM    2  O   UNL     1     -12.906  15.900  74.197  1.00  0.00    -0.581 OA 
ENDROOT
BRANCH   2   3
HETATM    3  C   UNL     1     -12.716  15.406  72.929  1.00  0.00    -0.427 A  
HETATM    4  C   UNL     1     -12.060  16.087  71.892  1.00  0.00    -0.590 A  
HETATM    5  C   UNL     1     -11.984  15.479  70.625  1.00  0.00    -0.378 A  
HETATM    6  C   UNL     1     -12.561  14.227  70.451  1.00  0.00    -0.343 A  
HETATM    7  C   UNL     1     -13.212  13.520  71.462  1.00  0.00    -0.402 A  
HETATM    8  N   UNL     1     -12.329  13.931  69.137  1.00  0.00    -0.439 NA 
HETATM    9  C   UNL     1     -13.290  14.150  72.708  1.00  0.00    -0.618 A  
HETATM   10  C   UNL     1     -11.640  14.969  68.566  1.00  0.00    -0.326 A  
HETATM   11  H   UNL     1     -12.620  13.078  68.660  1.00  0.00     0.000 HD 
HETATM   12  N   UNL     1     -11.418  15.932  69.443  1.00  0.00    -0.340 NA 
BRANCH  10  13
HETATM   13  S   UNL     1     -11.135  14.903  66.902  1.00  0.00    -0.336 S  
HETATM   14  O   UNL     1      -9.701  14.452  66.956  1.00  0.00    -0.241 OA 
BRANCH  13  15
HETATM   15  C   UNL     1     -12.206  13.600  66.242  1.00  0.00    -0.436 C  
BRANCH  15  16
HETATM   16  C   UNL     1     -11.516  12.244  66.278  1.00  0.00    -0.380 A  
HETATM   17  N   UNL     1     -11.674  11.565  67.445  1.00  0.00    -0.609 NA 
HETATM   18  C   UNL     1     -11.097  10.348  67.557  1.00  0.00    -0.267 A  
HETATM   19  C   UNL     1     -10.328   9.754  66.570  1.00  0.00    -0.262 A  
HETATM   20  C   UNL     1     -10.165  10.456  65.368  1.00  0.00    -0.259 A  
HETATM   21  C   UNL     1      -9.687   8.419  66.813  1.00  0.00    -0.309 C  
HETATM   22  C   UNL     1     -10.703  12.473  63.898  1.00  0.00    -0.473 C  
HETATM   23  C   UNL     1     -10.792  11.711  65.187  1.00  0.00    -0.346 A  
BRANCH  20  24
HETATM   24  O   UNL     1      -9.501   9.760  64.386  1.00  0.00    -0.274 OA 
HETATM   25  C   UNL     1      -8.139  10.099  64.145  1.00  0.00    -0.158 C  
ENDBRANCH  20  24
ENDBRANCH  15  16
ENDBRANCH  13  15
ENDBRANCH  10  13
ENDBRANCH   2   3
TORSDOF 5
ENDMDL
MODEL        2
REMARK 921   NORMALIZED FREE ENERGY PREDICTED BY IDOCK:   -6.48 KCAL/MOL
REMARK 922        TOTAL FREE ENERGY PREDICTED BY IDOCK:   -9.02 KCAL/MOL
REMARK 923 INTER-LIGAND FREE ENERGY PREDICTED BY IDOCK:   -8.66 KCAL/MOL
REMARK 924 INTRA-LIGAND FREE ENERGY PREDICTED BY IDOCK:   -0.35 KCAL/MOL
REMARK 927      BINDING AFFINITY PREDICTED BY RF-SCORE:    0.00 PKD
ROOT
HETATM    1  C   UNL     1     -13.283  11.442  71.951  1.00  0.00    -0.380 C  
HETATM    2  O   UNL     1     -13.557  12.739  72.468  1.00  0.00    -0.538 OA 
ENDROOT
BRANCH   2   3
HETATM    3  C   UNL     1     -12.981  13.785  71.788  1.00  0.00    -0.355 A  
HETATM    4  C   UNL     1     -12.753  13.814  70.404  1.00  0.00    -0.245 A  
HETATM    5  C   UNL     1     -12.105  14.932  69.848  1.00  0.00    -0.332 A  
HETATM    6  C   UNL     1     -11.715  15.964  70.693  1.00  0.00    -0.384 A  
HETATM    7  C   UNL     1     -11.933  15.971  72.071  1.00  0.00    -0.622 A  
HETATM    8  N   UNL     1     -11.117  16.870  69.862  1.00  0.00    -0.348 NA 
HETATM    9  C   UNL     1     -12.565  14.842  72.603  1.00  0.00    -0.456 A  
HETATM   10  C   UNL     1     -11.158  16.386  68.581  1.00  0.00    -0.352 A  
HETATM   11  H   UNL     1     -10.707  17.759  70.148  1.00  0.00     0.000 HD 
HETATM   12  N   UNL     1     -11.748  15.206  68.536  1.00  0.00    -0.336 NA 
BRANCH  10  13
HETATM   13  S   UNL     1     -10.523  17.314  67.251  1.00  0.00    -0.287 S  
HETATM   14  O   UNL     1      -9.753  18.432  67.900  1.00  0.00    -0.288 OA 
BRANCH  13  15
HETATM   15  C   UNL     1      -9.409  16.121  66.467  1.00  0.00    -0.268 C  
BRANCH  15  16
HETATM   16  C   UNL     1     -10.187  15.013  65.769  1.00  0.00    -0.338 A  
HETATM   17  N   UNL     1     -11.118  15.455  64.883  1.00  0.00    -0.425 NA 
HETATM   18  C   UNL     1     -11.849  14.535  64.216  1.00  0.00    -0.348 A  
HETATM   19  C   UNL     1     -11.733  13.166  64.394  1.00  0.00    -0.429 A  
HETATM   20  C   UNL     1     -10.772  12.712  65.309  1.00  0.00    -0.289 A  
HETATM   21  C   UNL     1     -12.629  12.227  63.640  1.00  0.00    -0.599 C  
HETATM   22  C   UNL     1      -8.865  13.203  66.933  1.00  0.00    -0.184 C  
HETATM   23  C   UNL     1      -9.950  13.638  65.993  1.00  0.00    -0.313 A  
BRANCH  20  24
HETATM   24  O   UNL     1     -10.619  11.347  65.345  1.00  0.00    -0.272 OA 
HETATM   25  C   UNL     1      -9.628  10.772  64.500  1.00  0.00    -0.270 C  
ENDBRANCH  20  24
ENDBRANCH  15  16
ENDBRANCH  13  15
ENDBRANCH  10  13
ENDBRANCH   2   3
TORSDOF 5
ENDMDL
MODEL        3
REMARK 921   NORMALIZED FREE ENERGY PREDICTED BY IDOCK:   -6.42 KCAL/MOL
REMARK 922        TOTAL FREE ENERGY PREDICTED BY IDOCK:   -8.93 KCAL/MOL
REMARK 923 INTER-LIGAND FREE ENERGY PREDICTED BY IDOCK:   -8.69 KCAL/MOL
REMARK 924 INTRA-LIGAND FREE ENERGY PREDICTED BY IDOCK:   -0.24 KCAL/MOL
REMARK 927      BINDING AFFINITY PREDICTED BY RF-SCORE:    0.00 PKD
ROOT
HETATM    1  C   UNL     1     -12.268   6.748  71.460  1.00  0.00    -0.366 C  
HETATM    2  O   UNL     1     -12.918   7.869  72.046  1.00  0.00    -0.302 OA 
ENDROOT
BRANCH   2   3
HETATM    3  C   UNL     1     -12.560   9.096  71.543  1.00  0.00    -0.343 A  
HETATM    4  C   UNL     1     -13.121  10.320  71.939  1.00  0.00    -0.568 A  
HETATM    5  C   UNL     1     -12.694  11.499  71.298  1.00  0.00    -0.364 A  
HETATM    6  C   UNL     1     -11.734  11.403  70.299  1.00  0.00    -0.306 A  
HETATM    7  C   UNL     1     -11.151  10.204  69.887  1.00  0.00    -0.346 A  
HETATM    8  N   UNL     1     -11.554  12.693  69.883  1.00  0.00    -0.511 NA 
HETATM    9  C   UNL     1     -11.602   9.045  70.526  1.00  0.00    -0.209 A  
HETATM   10  C   UNL     1     -12.377  13.510  70.614  1.00  0.00    -0.358 A  
HETATM   11  H   UNL     1     -10.914  12.997  69.149  1.00  0.00     0.000 HD 
HETATM   12  N   UNL     1     -13.089  12.815  71.482  1.00  0.00    -0.344 NA 
BRANCH  10  13
HETATM   13  S   UNL     1     -12.369  15.234  70.375  1.00  0.00    -0.390 S  
HETATM   14  O   UNL     1     -12.643  15.809  71.737  1.00  0.00    -0.415 OA 
BRANCH  13  15
HETATM   15  C   UNL     1     -10.654  15.530  69.872  1.00  0.00    -0.313 C  
BRANCH  15  16
HETATM   16  C   UNL     1     -10.580  16.502  68.703  1.00  0.00    -0.316 A  
HETATM   17  N   UNL     1     -10.499  17.810  69.065  1.00  0.00    -0.267 NA 
HETATM   18  C   UNL     1     -10.422  18.738  68.087  1.00  0.00    -0.315 A  
HETATM   19  C   UNL     1     -10.451  18.450  66.732  1.00  0.00    -0.415 A  
HETATM   20  C   UNL     1     -10.536  17.101  66.360  1.00  0.00    -0.255 A  
HETATM   21  C   UNL     1     -10.413  19.560  65.722  1.00  0.00    -0.518 C  
HETATM   22  C   UNL     1     -10.593  14.633  67.006  1.00  0.00    -0.280 C  
HETATM   23  C   UNL     1     -10.567  16.092  67.350  1.00  0.00    -0.316 A  
BRANCH  20  24
HETATM   24  O   UNL     1     -10.431  16.874  65.008  1.00  0.00    -0.675 OA 
HETATM   25  C   UNL     1     -11.500  16.183  64.372  1.00  0.00    -0.193 C  
ENDBRANCH  20  24
ENDBRANCH  15  16
ENDBRANCH  13  15
ENDBRANCH  10  13
ENDBRANCH   2   3
TORSDOF 5
ENDMDL
MODEL        4
REMARK 921   NORMALIZED FREE ENERGY PREDICTED BY IDOCK:   -6.35 KCAL/MOL
REMARK 922        TOTAL FREE ENERGY PREDICTED BY IDOCK:   -8.85 KCAL/MOL
REMARK 923 INTER-LIGAND FREE ENERGY PREDICTED BY IDOCK:   -8.41 KCAL/MOL
REMARK 924 INTRA-LIGAND FREE ENERGY PREDICTED BY IDOCK:   -0.44 KCAL/MOL
REMARK 927      BINDING AFFINITY PREDICTED BY RF-SCORE:    0.00 PKD
ROOT
HETATM    1  C   UNL     1     -12.622  15.586  74.125  1.00  0.00    -0.595 C  
HETATM    2  O   UNL     1     -11.917  16.245  73.079  1.00  0.00    -0.509 OA 
ENDROOT
BRANCH   2   3
HETATM    3  C   UNL     1     -11.958  15.628  71.852  1.00  0.00    -0.447 A  
HETATM    4  C   UNL     1     -11.511  16.200  70.651  1.00  0.00    -0.386 A  
HETATM    5  C   UNL     1     -11.662  15.471  69.457  1.00  0.00    -0.365 A  
HETATM    6  C   UNL     1     -12.247  14.212  69.515  1.00  0.00    -0.305 A  
HETATM    7  C   UNL     1     -12.693  13.611  70.692  1.00  0.00    -0.303 A  
HETATM    8  N   UNL     1     -12.257  13.787  68.215  1.00  0.00    -0.444 NA 
HETATM    9  C   UNL     1     -12.548  14.360  71.863  1.00  0.00    -0.413 A  
HETATM   10  C   UNL     1     -11.697  14.760  67.430  1.00  0.00    -0.350 A  
HETATM   11  H   UNL     1     -12.621  12.894  67.885  1.00  0.00     0.000 HD 
HETATM   12  N   UNL     1     -11.328  15.802  68.152  1.00  0.00    -0.353 NA 
BRANCH  10  13
HETATM   13  S   UNL     1     -11.505  14.528  65.715  1.00  0.00    -0.337 S  
HETATM   14  O   UNL     1     -10.018  14.534  65.493  1.00  0.00    -0.342 OA 
BRANCH  13  15
HETATM   15  C   UNL     1     -12.194  12.869  65.488  1.00  0.00    -0.474 C  
BRANCH  15  16
HETATM   16  C   UNL     1     -11.141  11.898  64.971  1.00  0.00    -0.305 A  
HETATM   17  N   UNL     1     -10.911  11.979  63.634  1.00  0.00    -0.413 NA 
HETATM   18  C   UNL     1      -9.985  11.156  63.096  1.00  0.00    -0.356 A  
HETATM   19  C   UNL     1      -9.271  10.210  63.812  1.00  0.00    -0.321 A  
HETATM   20  C   UNL     1      -9.509  10.127  65.191  1.00  0.00    -0.260 A  
HETATM   21  C   UNL     1      -8.299   9.306  63.109  1.00  0.00    -0.196 C  
HETATM   22  C   UNL     1     -10.678  10.999  67.285  1.00  0.00    -0.312 C  
HETATM   23  C   UNL     1     -10.433  11.003  65.806  1.00  0.00    -0.290 A  
BRANCH  20  24
HETATM   24  O   UNL     1      -8.680   9.260  65.862  1.00  0.00    -0.139 OA 
HETATM   25  C   UNL     1      -9.249   8.052  66.355  1.00  0.00    -0.194 C  
ENDBRANCH  20  24
ENDBRANCH  15  16
ENDBRANCH  13  15
ENDBRANCH  10  13
ENDBRANCH   2   3
TORSDOF 5
ENDMDL
MODEL        5
REMARK 921   NORMALIZED FREE ENERGY PREDICTED BY IDOCK:   -6.26 KCAL/MOL
REMARK 922        TOTAL FREE ENERGY PREDICTED BY IDOCK:   -8.72 KCAL/MOL
REMARK 923 INTER-LIGAND FREE ENERGY PREDICTED BY IDOCK:   -8.27 KCAL/MOL
REMARK 924 INTRA-LIGAND FREE ENERGY PREDICTED BY IDOCK:   -0.46 KCAL/MOL
REMARK 927      BINDING AFFINITY PREDICTED BY RF-SCORE:    0.00 PKD
ROOT
HETATM    1  C   UNL     1     -11.124   6.039  69.914  1.00  0.00    -0.399 C  
HETATM    2  O   UNL     1     -11.403   6.629  71.178  1.00  0.00    -0.274 OA 
ENDROOT
BRANCH   2   3
HETATM    3  C   UNL     1     -11.783   7.949  71.149  1.00  0.00    -0.285 A  
HETATM    4  C   UNL     1     -11.209   8.931  70.326  1.00  0.00    -0.219 A  
HETATM    5  C   UNL     1     -11.663  10.258  70.439  1.00  0.00    -0.319 A  
HETATM    6  C   UNL     1     -12.663  10.544  71.360  1.00  0.00    -0.442 A  
HETATM    7  C   UNL     1     -13.260   9.591  72.187  1.00  0.00    -0.539 A  
HETATM    8  N   UNL     1     -12.862  11.890  71.232  1.00  0.00    -0.351 NA 
HETATM    9  C   UNL     1     -12.782   8.282  72.069  1.00  0.00    -0.376 A  
HETATM   10  C   UNL     1     -12.012  12.371  70.271  1.00  0.00    -0.289 A  
HETATM   11  H   UNL     1     -13.532  12.445  71.765  1.00  0.00     0.000 HD 
HETATM   12  N   UNL     1     -11.264  11.405  69.770  1.00  0.00    -0.230 NA 
BRANCH  10  13
HETATM   13  S   UNL     1     -12.033  14.051  69.816  1.00  0.00    -0.349 S  
HETATM   14  O   UNL     1     -11.768  14.796  71.095  1.00  0.00    -0.318 OA 
BRANCH  13  15
HETATM   15  C   UNL     1     -10.614  14.148  68.695  1.00  0.00    -0.249 C  
BRANCH  15  16
HETATM   16  C   UNL     1     -10.967  13.626  67.309  1.00  0.00    -0.287 A  
HETATM   17  N   UNL     1     -12.177  14.037  66.846  1.00  0.00    -0.426 NA 
HETATM   18  C   UNL     1     -12.563  13.623  65.619  1.00  0.00    -0.484 A  
HETATM   19  C   UNL     1     -11.820  12.781  64.809  1.00  0.00    -0.423 A  
HETATM   20  C   UNL     1     -10.572  12.358  65.288  1.00  0.00    -0.290 A  
HETATM   21  C   UNL     1     -12.363  12.337  63.481  1.00  0.00    -0.670 C  
HETATM   22  C   UNL     1      -8.752  12.435  67.075  1.00  0.00    -0.207 C  
HETATM   23  C   UNL     1     -10.105  12.806  66.545  1.00  0.00    -0.264 A  
BRANCH  20  24
HETATM   24  O   UNL     1      -9.832  11.631  64.386  1.00  0.00    -0.244 OA 
HETATM   25  C   UNL     1      -9.682  10.236  64.629  1.00  0.00    -0.333 C  
ENDBRANCH  20  24
ENDBRANCH  15  16
ENDBRANCH  13  15
ENDBRANCH  10  13
ENDBRANCH   2   3
TORSDOF 5
ENDMDL
MODEL        6
REMARK 921   NORMALIZED FREE ENERGY PREDICTED BY IDOCK:   -6.24 KCAL/MOL
REMARK 922        TOTAL FREE ENERGY PREDICTED BY IDOCK:   -8.70 KCAL/MOL
REMARK 923 INTER-LIGAND FREE ENERGY PREDICTED BY IDOCK:   -8.38 KCAL/MOL
REMARK 924 INTRA-LIGAND FREE ENERGY PREDICTED BY IDOCK:   -0.32 KCAL/MOL
REMARK 927      BINDING AFFINITY PREDICTED BY RF-SCORE:    0.00 PKD
ROOT
HETATM    1  C   UNL     1     -13.926   7.115  71.360  1.00  0.00    -0.255 C  
HETATM    2  O   UNL     1     -13.151   7.896  72.261  1.00  0.00    -0.203 OA 
ENDROOT
BRANCH   2   3
HETATM    3  C   UNL     1     -12.798   9.147  71.815  1.00  0.00    -0.377 A  
HETATM    4  C   UNL     1     -13.396  10.346  72.233  1.00  0.00    -0.255 A  
HETATM    5  C   UNL     1     -12.968  11.554  71.651  1.00  0.00    -0.394 A  
HETATM    6  C   UNL     1     -11.969  11.511  70.686  1.00  0.00    -0.292 A  
HETATM    7  C   UNL     1     -11.349  10.338  70.254  1.00  0.00    -0.398 A  
HETATM    8  N   UNL     1     -11.799  12.818  70.322  1.00  0.00    -0.537 NA 
HETATM    9  C   UNL     1     -11.801   9.149  70.834  1.00  0.00    -0.327 A  
HETATM   10  C   UNL     1     -12.663  13.594  71.050  1.00  0.00    -0.332 A  
HETATM   11  H   UNL     1     -11.137  13.159  69.625  1.00  0.00     0.000 HD 
HETATM   12  N   UNL     1     -13.394  12.856  71.865  1.00  0.00    -0.469 NA 
BRANCH  10  13
HETATM   13  S   UNL     1     -12.678  15.326  70.873  1.00  0.00    -0.463 S  
HETATM   14  O   UNL     1     -12.869  15.850  72.269  1.00  0.00    -0.437 OA 
BRANCH  13  15
HETATM   15  C   UNL     1     -11.000  15.651  70.274  1.00  0.00    -0.348 C  
BRANCH  15  16
HETATM   16  C   UNL     1     -10.964  15.750  68.756  1.00  0.00    -0.291 A  
HETATM   17  N   UNL     1     -11.595  14.734  68.112  1.00  0.00    -0.321 NA 
HETATM   18  C   UNL     1     -11.615  14.750  66.761  1.00  0.00    -0.324 A  
HETATM   19  C   UNL     1     -11.008  15.721  65.982  1.00  0.00    -0.177 A  
HETATM   20  C   UNL     1     -10.356  16.769  66.648  1.00  0.00    -0.297 A  
HETATM   21  C   UNL     1     -11.043  15.620  64.485  1.00  0.00    -0.303 C  
HETATM   22  C   UNL     1      -9.727  17.951  68.820  1.00  0.00    -0.326 C  
HETATM   23  C   UNL     1     -10.353  16.820  68.061  1.00  0.00    -0.317 A  
BRANCH  20  24
HETATM   24  O   UNL     1      -9.886  17.763  65.823  1.00  0.00    -0.541 OA 
HETATM   25  C   UNL     1     -10.554  19.020  65.860  1.00  0.00    -0.393 C  
ENDBRANCH  20  24
ENDBRANCH  15  16
ENDBRANCH  13  15
ENDBRANCH  10  13
ENDBRANCH   2   3
TORSDOF 5
ENDMDL
MODEL        7
REMARK 921   NORMALIZED FREE ENERGY PREDICTED BY IDOCK:   -6.22 KCAL/MOL
REMARK 922        TOTAL FREE ENERGY PREDICTED BY IDOCK:   -8.68 KCAL/MOL
REMARK 923 INTER-LIGAND FREE ENERGY PREDICTED BY IDOCK:   -8.03 KCAL/MOL
REMARK 924 INTRA-LIGAND FREE ENERGY PREDICTED BY IDOCK:   -0.65 KCAL/MOL
REMARK 927      BINDING AFFINITY PREDICTED BY RF-SCORE:    0.00 PKD
ROOT
HETATM    1  C   UNL     1      -9.373  10.212  63.392  1.00  0.00    -0.294 C  
HETATM    2  O   UNL     1     -10.533  10.969  63.071  1.00  0.00    -0.238 OA 
ENDROOT
BRANCH   2   3
HETATM    3  C   UNL     1     -10.955  11.852  64.035  1.00  0.00    -0.381 A  
HETATM    4  C   UNL     1     -10.517  11.853  65.369  1.00  0.00    -0.312 A  
HETATM    5  C   UNL     1     -11.075  12.786  66.263  1.00  0.00    -0.288 A  
HETATM    6  C   UNL     1     -12.036  13.669  65.790  1.00  0.00    -0.428 A  
HETATM    7  C   UNL     1     -12.488  13.701  64.470  1.00  0.00    -0.335 A  
HETATM    8  N   UNL     1     -12.375  14.414  66.886  1.00  0.00    -0.547 NA 
HETATM    9  C   UNL     1     -11.932  12.755  63.604  1.00  0.00    -0.616 A  
HETATM   10  C   UNL     1     -11.636  13.983  67.957  1.00  0.00    -0.337 A  
HETATM   11  H   UNL     1     -13.063  15.166  66.904  1.00  0.00     0.000 HD 
HETATM   12  N   UNL     1     -10.837  12.989  67.615  1.00  0.00    -0.236 NA 
BRANCH  10  13
HETATM   13  S   UNL     1     -11.781  14.750  69.512  1.00  0.00    -0.341 S  
HETATM   14  O   UNL     1     -11.966  13.615  70.482  1.00  0.00    -0.322 OA 
BRANCH  13  15
HETATM   15  C   UNL     1     -10.149  15.514  69.701  1.00  0.00    -0.293 C  
BRANCH  15  16
HETATM   16  C   UNL     1      -9.931  16.614  68.672  1.00  0.00    -0.261 A  
HETATM   17  N   UNL     1     -10.621  17.758  68.919  1.00  0.00    -0.197 NA 
HETATM   18  C   UNL     1     -10.478  18.788  68.057  1.00  0.00    -0.352 A  
HETATM   19  C   UNL     1      -9.693  18.747  66.916  1.00  0.00    -0.344 A  
HETATM   20  C   UNL     1      -8.982  17.566  66.662  1.00  0.00    -0.263 A  
HETATM   21  C   UNL     1      -9.641  19.930  65.992  1.00  0.00    -0.435 C  
HETATM   22  C   UNL     1      -8.274  15.220  67.373  1.00  0.00    -0.207 C  
HETATM   23  C   UNL     1      -9.063  16.481  67.564  1.00  0.00    -0.200 A  
BRANCH  20  24
HETATM   24  O   UNL     1      -8.127  17.635  65.588  1.00  0.00    -0.518 OA 
HETATM   25  C   UNL     1      -6.775  17.999  65.845  1.00  0.00    -0.288 C  
ENDBRANCH  20  24
ENDBRANCH  15  16
ENDBRANCH  13  15
ENDBRANCH  10  13
ENDBRANCH   2   3
TORSDOF 5
ENDMDL
MODEL        8
REMARK 921   NORMALIZED FREE ENERGY PREDICTED BY IDOCK:   -6.20 KCAL/MOL
REMARK 922        TOTAL FREE ENERGY PREDICTED BY IDOCK:   -8.65 KCAL/MOL
REMARK 923 INTER-LIGAND FREE ENERGY PREDICTED BY IDOCK:   -8.35 KCAL/MOL
REMARK 924 INTRA-LIGAND FREE ENERGY PREDICTED BY IDOCK:   -0.30 KCAL/MOL
REMARK 927      BINDING AFFINITY PREDICTED BY RF-SCORE:    0.00 PKD
ROOT
HETATM    1  C   UNL     1     -14.369   8.008  71.932  1.00  0.00    -0.457 C  
HETATM    2  O   UNL     1     -13.639   8.974  72.678  1.00  0.00    -0.465 OA 
ENDROOT
BRANCH   2   3
HETATM    3  C   UNL     1     -12.992   9.934  71.939  1.00  0.00    -0.448 A  
HETATM    4  C   UNL     1     -13.372  11.283  71.868  1.00  0.00    -0.413 A  
HETATM    5  C   UNL     1     -12.647  12.147  71.026  1.00  0.00    -0.263 A  
HETATM    6  C   UNL     1     -11.583  11.630  70.298  1.00  0.00    -0.163 A  
HETATM    7  C   UNL     1     -11.174  10.297  70.351  1.00  0.00    -0.407 A  
HETATM    8  N   UNL     1     -11.111  12.699  69.589  1.00  0.00    -0.467 NA 
HETATM    9  C   UNL     1     -11.919   9.454  71.182  1.00  0.00    -0.413 A  
HETATM   10  C   UNL     1     -11.869  13.799  69.894  1.00  0.00    -0.327 A  
HETATM   11  H   UNL     1     -10.324  12.681  68.940  1.00  0.00     0.000 HD 
HETATM   12  N   UNL     1     -12.817  13.498  70.763  1.00  0.00    -0.222 NA 
BRANCH  10  13
HETATM   13  S   UNL     1     -11.510  15.355  69.200  1.00  0.00    -0.357 S  
HETATM   14  O   UNL     1     -11.005  16.180  70.352  1.00  0.00    -0.341 OA 
BRANCH  13  15
HETATM   15  C   UNL     1     -10.172  14.947  68.050  1.00  0.00    -0.228 C  
BRANCH  15  16
HETATM   16  C   UNL     1     -10.690  14.164  66.853  1.00  0.00    -0.286 A  
HETATM   17  N   UNL     1     -11.860  14.631  66.341  1.00  0.00    -0.338 NA 
HETATM   18  C   UNL     1     -12.385  13.996  65.271  1.00  0.00    -0.465 A  
HETATM   19  C   UNL     1     -11.827  12.877  64.674  1.00  0.00    -0.422 A  
HETATM   20  C   UNL     1     -10.622  12.396  65.204  1.00  0.00    -0.292 A  
HETATM   21  C   UNL     1     -12.519  12.212  63.519  1.00  0.00    -0.666 C  
HETATM   22  C   UNL     1      -8.689  12.624  66.854  1.00  0.00    -0.175 C  
HETATM   23  C   UNL     1     -10.009  13.059  66.292  1.00  0.00    -0.283 A  
BRANCH  20  24
HETATM   24  O   UNL     1     -10.056  11.366  64.490  1.00  0.00    -0.250 OA 
HETATM   25  C   UNL     1     -10.067  10.071  65.082  1.00  0.00    -0.198 C  
ENDBRANCH  20  24
ENDBRANCH  15  16
ENDBRANCH  13  15
ENDBRANCH  10  13
ENDBRANCH   2   3
TORSDOF 5
ENDMDL
MODEL        9
REMARK 921   NORMALIZED FREE ENERGY PREDICTED BY IDOCK:   -6.13 KCAL/MOL
REMARK 922        TOTAL FREE ENERGY PREDICTED BY IDOCK:   -8.56 KCAL/MOL
REMARK 923 INTER-LIGAND FREE ENERGY PREDICTED BY IDOCK:   -8.07 KCAL/MOL
REMARK 924 INTRA-LIGAND FREE ENERGY PREDICTED BY IDOCK:   -0.49 KCAL/MOL
REMARK 927      BINDING AFFINITY PREDICTED BY RF-SCORE:    0.00 PKD
ROOT
HETATM    1  C   UNL     1      -9.732  20.517  67.218  1.00  0.00    -0.460 C  
HETATM    2  O   UNL     1      -8.928  19.357  67.399  1.00  0.00    -0.290 OA 
ENDROOT
BRANCH   2   3
HETATM    3  C   UNL     1      -9.599  18.158  67.381  1.00  0.00    -0.275 A  
HETATM    4  C   UNL     1      -9.804  17.370  66.238  1.00  0.00    -0.291 A  
HETATM    5  C   UNL     1     -10.557  16.187  66.358  1.00  0.00    -0.269 A  
HETATM    6  C   UNL     1     -11.067  15.846  67.605  1.00  0.00    -0.266 A  
HETATM    7  C   UNL     1     -10.875  16.602  68.762  1.00  0.00    -0.331 A  
HETATM    8  N   UNL     1     -11.742  14.678  67.382  1.00  0.00    -0.392 NA 
HETATM    9  C   UNL     1     -10.138  17.781  68.615  1.00  0.00    -0.384 A  
HETATM   10  C   UNL     1     -11.628  14.350  66.056  1.00  0.00    -0.363 A  
HETATM   11  H   UNL     1     -12.248  14.141  68.086  1.00  0.00     0.000 HD 
HETATM   12  N   UNL     1     -10.917  15.250  65.402  1.00  0.00    -0.356 NA 
BRANCH  10  13
HETATM   13  S   UNL     1     -12.334  12.886  65.432  1.00  0.00    -0.445 S  
HETATM   14  O   UNL     1     -12.586  13.174  63.977  1.00  0.00    -0.635 OA 
BRANCH  13  15
HETATM   15  C   UNL     1     -10.979  11.704  65.640  1.00  0.00    -0.266 C  
BRANCH  15  16
HETATM   16  C   UNL     1     -11.031  11.038  67.008  1.00  0.00    -0.272 A  
HETATM   17  N   UNL     1     -11.820  11.676  67.913  1.00  0.00    -0.596 NA 
HETATM   18  C   UNL     1     -11.926  11.146  69.151  1.00  0.00    -0.343 A  
HETATM   19  C   UNL     1     -11.261  10.007  69.573  1.00  0.00    -0.254 A  
HETATM   20  C   UNL     1     -10.447   9.350  68.639  1.00  0.00    -0.209 A  
HETATM   21  C   UNL     1     -11.406   9.527  70.988  1.00  0.00    -0.423 C  
HETATM   22  C   UNL     1      -9.540   9.141  66.263  1.00  0.00    -0.321 C  
HETATM   23  C   UNL     1     -10.345   9.841  67.317  1.00  0.00    -0.308 A  
BRANCH  20  24
HETATM   24  O   UNL     1      -9.917   8.161  69.080  1.00  0.00    -0.182 OA 
HETATM   25  C   UNL     1      -8.571   8.170  69.542  1.00  0.00    -0.134 C  
ENDBRANCH  20  24
ENDBRANCH  15  16
ENDBRANCH  13  15
ENDBRANCH  10  13
ENDBRANCH   2   3
TORSDOF 5
ENDMDL
MODEL       10
REMARK 921   NORMALIZED FREE ENERGY PREDICTED BY IDOCK:   -6.12 KCAL/MOL
REMARK 922        TOTAL FREE ENERGY PREDICTED BY IDOCK:   -8.54 KCAL/MOL
REMARK 923 INTER-LIGAND FREE ENERGY PREDICTED BY IDOCK:   -8.11 KCAL/MOL
REMARK 924 INTRA-LIGAND FREE ENERGY PREDICTED BY IDOCK:   -0.43 KCAL/MOL
REMARK 927      BINDING AFFINITY PREDICTED BY RF-SCORE:    0.00 PKD
ROOT
HETATM    1  C   UNL     1     -12.726  14.987  73.610  1.00  0.00    -0.512 C  
HETATM    2  O   UNL     1     -13.500  14.527  72.509  1.00  0.00    -0.411 OA 
ENDROOT
BRANCH   2   3
HETATM    3  C   UNL     1     -12.845  14.471  71.302  1.00  0.00    -0.332 A  
HETATM    4  C   UNL     1     -12.485  15.587  70.532  1.00  0.00    -0.472 A  
HETATM    5  C   UNL     1     -11.862  15.378  69.287  1.00  0.00    -0.343 A  
HETATM    6  C   UNL     1     -11.628  14.074  68.870  1.00  0.00    -0.315 A  
HETATM    7  C   UNL     1     -11.965  12.943  69.615  1.00  0.00    -0.358 A  
HETATM    8  N   UNL     1     -11.037  14.214  67.646  1.00  0.00    -0.274 NA 
HETATM    9  C   UNL     1     -12.597  13.174  70.840  1.00  0.00    -0.377 A  
HETATM   10  C   UNL     1     -10.928  15.550  67.360  1.00  0.00    -0.306 A  
HETATM   11  H   UNL     1     -10.728  13.451  67.044  1.00  0.00     0.000 HD 
HETATM   12  N   UNL     1     -11.426  16.288  68.335  1.00  0.00    -0.318 NA 
BRANCH  10  13
HETATM   13  S   UNL     1     -10.173  16.093  65.889  1.00  0.00    -0.372 S  
HETATM   14  O   UNL     1     -10.615  17.523  65.738  1.00  0.00    -0.473 OA 
BRANCH  13  15
HETATM   15  C   UNL     1      -8.416  15.992  66.316  1.00  0.00    -0.302 C  
BRANCH  15  16
HETATM   16  C   UNL     1      -7.863  17.355  66.710  1.00  0.00    -0.238 A  
HETATM   17  N   UNL     1      -7.614  18.184  65.663  1.00  0.00    -0.535 NA 
HETATM   18  C   UNL     1      -7.128  19.416  65.927  1.00  0.00    -0.286 A  
HETATM   19  C   UNL     1      -6.837  19.885  67.197  1.00  0.00    -0.240 A  
HETATM   20  C   UNL     1      -7.094  19.029  68.277  1.00  0.00    -0.268 A  
HETATM   21  C   UNL     1      -6.250  21.255  67.381  1.00  0.00    -0.428 C  
HETATM   22  C   UNL     1      -8.003  16.820  69.174  1.00  0.00    -0.126 C  
HETATM   23  C   UNL     1      -7.650  17.749  68.051  1.00  0.00    -0.236 A  
BRANCH  20  24
HETATM   24  O   UNL     1      -6.905  19.598  69.514  1.00  0.00    -0.342 OA 
HETATM   25  C   UNL     1      -5.665  19.354  70.169  1.00  0.00    -0.251 C  
ENDBRANCH  20  24
ENDBRANCH  15  16
ENDBRANCH  13  15
ENDBRANCH  10  13
ENDBRANCH   2   3
TORSDOF 5
ENDMDL
MODEL       11
REMARK 921   NORMALIZED FREE ENERGY PREDICTED BY IDOCK:   -6.11 KCAL/MOL
REMARK 922        TOTAL FREE ENERGY PREDICTED BY IDOCK:   -8.53 KCAL/MOL
REMARK 923 INTER-LIGAND FREE ENERGY PREDICTED BY IDOCK:   -8.25 KCAL/MOL
REMARK 924 INTRA-LIGAND FREE ENERGY PREDICTED BY IDOCK:   -0.29 KCAL/MOL
REMARK 927      BINDING AFFINITY PREDICTED BY RF-SCORE:    0.00 PKD
ROOT
HETATM    1  C   UNL     1     -10.080   7.564  73.417  1.00  0.00    -0.338 C  
HETATM    2  O   UNL     1     -11.412   7.781  72.970  1.00  0.00    -0.372 OA 
ENDROOT
BRANCH   2   3
HETATM    3  C   UNL     1     -11.561   8.711  71.970  1.00  0.00    -0.370 A  
HETATM    4  C   UNL     1     -10.574   9.043  71.029  1.00  0.00    -0.341 A  
HETATM    5  C   UNL     1     -10.847  10.055  70.090  1.00  0.00    -0.311 A  
HETATM    6  C   UNL     1     -12.084  10.686  70.131  1.00  0.00    -0.333 A  
HETATM    7  C   UNL     1     -13.090  10.376  71.047  1.00  0.00    -0.450 A  
HETATM    8  N   UNL     1     -12.026  11.604  69.120  1.00  0.00    -0.327 NA 
HETATM    9  C   UNL     1     -12.790   9.378  71.981  1.00  0.00    -0.496 A  
HETATM   10  C   UNL     1     -10.802  11.510  68.510  1.00  0.00    -0.215 A  
HETATM   11  H   UNL     1     -12.770  12.252  68.862  1.00  0.00     0.000 HD 
HETATM   12  N   UNL     1     -10.057  10.580  69.078  1.00  0.00    -0.207 NA 
BRANCH  10  13
HETATM   13  S   UNL     1     -10.405  12.508  67.140  1.00  0.00    -0.220 S  
HETATM   14  O   UNL     1     -10.557  11.602  65.950  1.00  0.00    -0.255 OA 
BRANCH  13  15
HETATM   15  C   UNL     1     -11.723  13.749  67.192  1.00  0.00    -0.385 C  
BRANCH  15  16
HETATM   16  C   UNL     1     -11.170  15.131  67.509  1.00  0.00    -0.330 A  
HETATM   17  N   UNL     1     -11.085  15.411  68.837  1.00  0.00    -0.258 NA 
HETATM   18  C   UNL     1     -10.597  16.616  69.204  1.00  0.00    -0.340 A  
HETATM   19  C   UNL     1     -10.202  17.603  68.316  1.00  0.00    -0.374 A  
HETATM   20  C   UNL     1     -10.290  17.313  66.947  1.00  0.00    -0.310 A  
HETATM   21  C   UNL     1      -9.722  18.930  68.826  1.00  0.00    -0.454 C  
HETATM   22  C   UNL     1     -10.801  15.663  65.068  1.00  0.00    -0.468 C  
HETATM   23  C   UNL     1     -10.748  16.046  66.517  1.00  0.00    -0.238 A  
BRANCH  20  24
HETATM   24  O   UNL     1      -9.765  18.281  66.124  1.00  0.00    -0.455 OA 
HETATM   25  C   UNL     1     -10.624  19.344  65.726  1.00  0.00    -0.400 C  
ENDBRANCH  20  24
ENDBRANCH  15  16
ENDBRANCH  13  15
ENDBRANCH  10  13
ENDBRANCH   2   3
TORSDOF 5
ENDMDL
MODEL       12
REMARK 921   NORMALIZED FREE ENERGY PREDICTED BY IDOCK:   -6.07 KCAL/MOL
REMARK 922        TOTAL FREE ENERGY PREDICTED BY IDOCK:   -8.49 KCAL/MOL
REMARK 923 INTER-LIGAND FREE ENERGY PREDICTED BY IDOCK:   -8.12 KCAL/MOL
REMARK 924 INTRA-LIGAND FREE ENERGY PREDICTED BY IDOCK:   -0.37 KCAL/MOL
REMARK 927      BINDING AFFINITY PREDICTED BY RF-SCORE:    0.00 PKD
ROOT
HETATM    1  C   UNL     1      -6.358  20.705  67.692  1.00  0.00    -0.282 C  
HETATM    2  O   UNL     1      -7.696  20.848  67.229  1.00  0.00    -0.344 OA 
ENDROOT
BRANCH   2   3
HETATM    3  C   UNL     1      -8.468  19.713  67.281  1.00  0.00    -0.307 A  
HETATM    4  C   UNL     1      -8.332  18.610  66.423  1.00  0.00    -0.292 A  
HETATM    5  C   UNL     1      -9.229  17.534  66.557  1.00  0.00    -0.267 A  
HETATM    6  C   UNL     1     -10.215  17.606  67.533  1.00  0.00    -0.348 A  
HETATM    7  C   UNL     1     -10.373  18.683  68.406  1.00  0.00    -0.356 A  
HETATM    8  N   UNL     1     -10.910  16.437  67.395  1.00  0.00    -0.269 NA 
HETATM    9  C   UNL     1      -9.481  19.747  68.245  1.00  0.00    -0.440 A  
HETATM   10  C   UNL     1     -10.349  15.709  66.378  1.00  0.00    -0.296 A  
HETATM   11  H   UNL     1     -11.713  16.153  67.956  1.00  0.00     0.000 HD 
HETATM   12  N   UNL     1      -9.327  16.350  65.842  1.00  0.00    -0.471 NA 
BRANCH  10  13
HETATM   13  S   UNL     1     -10.961  14.134  65.961  1.00  0.00    -0.310 S  
HETATM   14  O   UNL     1     -10.458  13.887  64.565  1.00  0.00    -0.431 OA 
BRANCH  13  15
HETATM   15  C   UNL     1     -10.110  13.077  67.161  1.00  0.00    -0.244 C  
BRANCH  15  16
HETATM   16  C   UNL     1     -10.950  12.876  68.414  1.00  0.00    -0.258 A  
HETATM   17  N   UNL     1     -11.390  14.028  68.985  1.00  0.00    -0.265 NA 
HETATM   18  C   UNL     1     -12.149  13.937  70.099  1.00  0.00    -0.349 A  
HETATM   19  C   UNL     1     -12.487  12.746  70.719  1.00  0.00    -0.357 A  
HETATM   20  C   UNL     1     -12.031  11.558  70.130  1.00  0.00    -0.369 A  
HETATM   21  C   UNL     1     -13.293  12.755  71.986  1.00  0.00    -0.565 C  
HETATM   22  C   UNL     1     -10.820  10.361  68.230  1.00  0.00    -0.299 C  
HETATM   23  C   UNL     1     -11.276  11.603  68.935  1.00  0.00    -0.306 A  
BRANCH  20  24
HETATM   24  O   UNL     1     -12.506  10.410  70.719  1.00  0.00    -0.316 OA 
HETATM   25  C   UNL     1     -11.555   9.536  71.317  1.00  0.00    -0.374 C  
ENDBRANCH  20  24
ENDBRANCH  15  16
ENDBRANCH  13  15
ENDBRANCH  10  13
ENDBRANCH   2   3
TORSDOF 5
ENDMDL
MODEL       13
REMARK 921   NORMALIZED FREE ENERGY PREDICTED BY IDOCK:   -6.07 KCAL/MOL
REMARK 922        TOTAL FREE ENERGY PREDICTED BY IDOCK:   -8.48 KCAL/MOL
REMARK 923 INTER-LIGAND FREE ENERGY PREDICTED BY IDOCK:   -8.05 KCAL/MOL
REMARK 924 INTRA-LIGAND FREE ENERGY PREDICTED BY IDOCK:   -0.43 KCAL/MOL
REMARK 927      BINDING AFFINITY PREDICTED BY RF-SCORE:    0.00 PKD
ROOT
HETATM    1  C   UNL     1     -12.572   9.236  72.050  1.00  0.00    -0.390 C  
HETATM    2  O   UNL     1     -11.270   9.537  71.563  1.00  0.00    -0.372 OA 
ENDROOT
BRANCH   2   3
HETATM    3  C   UNL     1     -11.203   9.938  70.250  1.00  0.00    -0.301 A  
HETATM    4  C   UNL     1     -11.753  11.127  69.746  1.00  0.00    -0.419 A  
HETATM    5  C   UNL     1     -11.654  11.387  68.367  1.00  0.00    -0.315 A  
HETATM    6  C   UNL     1     -11.014  10.455  67.558  1.00  0.00    -0.295 A  
HETATM    7  C   UNL     1     -10.450   9.269  68.028  1.00  0.00    -0.275 A  
HETATM    8  N   UNL     1     -11.098  10.989  66.302  1.00  0.00    -0.117 NA 
HETATM    9  C   UNL     1     -10.575   9.024  69.399  1.00  0.00    -0.231 A  
HETATM   10  C   UNL     1     -11.759  12.187  66.376  1.00  0.00    -0.324 A  
HETATM   11  H   UNL     1     -10.730  10.565  65.450  1.00  0.00     0.000 HD 
HETATM   12  N   UNL     1     -12.116  12.458  67.617  1.00  0.00    -0.449 NA 
BRANCH  10  13
HETATM   13  S   UNL     1     -12.001  13.165  64.956  1.00  0.00    -0.410 S  
HETATM   14  O   UNL     1     -13.010  14.200  65.373  1.00  0.00    -0.706 OA 
BRANCH  13  15
HETATM   15  C   UNL     1     -10.362  13.902  64.731  1.00  0.00    -0.394 C  
BRANCH  15  16
HETATM   16  C   UNL     1     -10.202  15.162  65.571  1.00  0.00    -0.376 A  
HETATM   17  N   UNL     1     -10.769  16.272  65.031  1.00  0.00    -0.656 NA 
HETATM   18  C   UNL     1     -10.678  17.432  65.717  1.00  0.00    -0.120 A  
HETATM   19  C   UNL     1     -10.017  17.575  66.926  1.00  0.00    -0.313 A  
HETATM   20  C   UNL     1      -9.431  16.429  67.482  1.00  0.00    -0.224 A  
HETATM   21  C   UNL     1      -9.928  18.921  67.584  1.00  0.00    -0.404 C  
HETATM   22  C   UNL     1      -8.994  13.916  67.405  1.00  0.00    -0.211 C  
HETATM   23  C   UNL     1      -9.545  15.183  66.823  1.00  0.00    -0.260 A  
BRANCH  20  24
HETATM   24  O   UNL     1      -8.904  16.609  68.738  1.00  0.00    -0.249 OA 
HETATM   25  C   UNL     1      -7.494  16.771  68.844  1.00  0.00    -0.240 C  
ENDBRANCH  20  24
ENDBRANCH  15  16
ENDBRANCH  13  15
ENDBRANCH  10  13
ENDBRANCH   2   3
TORSDOF 5
ENDMDL
MODEL       14
REMARK 921   NORMALIZED FREE ENERGY PREDICTED BY IDOCK:   -6.04 KCAL/MOL
REMARK 922        TOTAL FREE ENERGY PREDICTED BY IDOCK:   -8.45 KCAL/MOL
REMARK 923 INTER-LIGAND FREE ENERGY PREDICTED BY IDOCK:   -8.10 KCAL/MOL
REMARK 924 INTRA-LIGAND FREE ENERGY PREDICTED BY IDOCK:   -0.35 KCAL/MOL
REMARK 927      BINDING AFFINITY PREDICTED BY RF-SCORE:    0.00 PKD
ROOT
HETATM    1  C   UNL     1     -12.731   9.084  71.767  1.00  0.00    -0.366 C  
HETATM    2  O   UNL     1     -13.288  10.308  72.228  1.00  0.00    -0.407 OA 
ENDROOT
BRANCH   2   3
HETATM    3  C   UNL     1     -12.930  11.430  71.521  1.00  0.00    -0.399 A  
HETATM    4  C   UNL     1     -12.156  11.428  70.351  1.00  0.00    -0.473 A  
HETATM    5  C   UNL     1     -11.820  12.660  69.758  1.00  0.00    -0.309 A  
HETATM    6  C   UNL     1     -12.270  13.830  70.356  1.00  0.00    -0.363 A  
HETATM    7  C   UNL     1     -13.048  13.868  71.514  1.00  0.00    -0.441 A  
HETATM    8  N   UNL     1     -11.773  14.825  69.560  1.00  0.00    -0.302 NA 
HETATM    9  C   UNL     1     -13.355  12.633  72.094  1.00  0.00    -0.570 A  
HETATM   10  C   UNL     1     -11.063  14.256  68.536  1.00  0.00    -0.257 A  
HETATM   11  H   UNL     1     -11.909  15.825  69.705  1.00  0.00     0.000 HD 
HETATM   12  N   UNL     1     -11.067  12.939  68.628  1.00  0.00    -0.257 NA 
BRANCH  10  13
HETATM   13  S   UNL     1     -10.329  15.238  67.300  1.00  0.00    -0.269 S  
HETATM   14  O   UNL     1     -11.220  15.071  66.100  1.00  0.00    -0.342 OA 
BRANCH  13  15
HETATM   15  C   UNL     1     -10.487  16.899  68.006  1.00  0.00    -0.347 C  
BRANCH  15  16
HETATM   16  C   UNL     1      -9.130  17.463  68.402  1.00  0.00    -0.274 A  
HETATM   17  N   UNL     1      -8.235  16.530  68.822  1.00  0.00    -0.238 NA 
HETATM   18  C   UNL     1      -7.003  16.948  69.185  1.00  0.00    -0.234 A  
HETATM   19  C   UNL     1      -6.595  18.271  69.186  1.00  0.00    -0.265 A  
HETATM   20  C   UNL     1      -7.519  19.233  68.753  1.00  0.00    -0.352 A  
HETATM   21  C   UNL     1      -5.218  18.637  69.659  1.00  0.00    -0.188 C  
HETATM   22  C   UNL     1      -9.806  19.816  67.784  1.00  0.00    -0.520 C  
HETATM   23  C   UNL     1      -8.804  18.836  68.316  1.00  0.00    -0.363 A  
BRANCH  20  24
HETATM   24  O   UNL     1      -7.013  20.507  68.657  1.00  0.00    -0.179 OA 
HETATM   25  C   UNL     1      -6.690  20.992  67.358  1.00  0.00    -0.383 C  
ENDBRANCH  20  24
ENDBRANCH  15  16
ENDBRANCH  13  15
ENDBRANCH  10  13
ENDBRANCH   2   3
TORSDOF 5
ENDMDL
MODEL       15
REMARK 921   NORMALIZED FREE ENERGY PREDICTED BY IDOCK:   -6.04 KCAL/MOL
REMARK 922        TOTAL FREE ENERGY PREDICTED BY IDOCK:   -8.44 KCAL/MOL
REMARK 923 INTER-LIGAND FREE ENERGY PREDICTED BY IDOCK:   -8.06 KCAL/MOL
REMARK 924 INTRA-LIGAND FREE ENERGY PREDICTED BY IDOCK:   -0.38 KCAL/MOL
REMARK 927      BINDING AFFINITY PREDICTED BY RF-SCORE:    0.00 PKD
ROOT
HETATM    1  C   UNL     1     -14.278   8.597  72.301  1.00  0.00    -0.417 C  
HETATM    2  O   UNL     1     -12.933   8.919  72.629  1.00  0.00    -0.407 OA 
ENDROOT
BRANCH   2   3
HETATM    3  C   UNL     1     -12.190   9.478  71.617  1.00  0.00    -0.398 A  
HETATM    4  C   UNL     1     -12.692  10.355  70.643  1.00  0.00    -0.417 A  
HETATM    5  C   UNL     1     -11.826  10.811  69.632  1.00  0.00    -0.320 A  
HETATM    6  C   UNL     1     -10.507  10.374  69.638  1.00  0.00    -0.243 A  
HETATM    7  C   UNL     1      -9.974   9.510  70.595  1.00  0.00    -0.342 A  
HETATM    8  N   UNL     1      -9.951  10.976  68.543  1.00  0.00    -0.186 NA 
HETATM    9  C   UNL     1     -10.857   9.058  71.580  1.00  0.00    -0.437 A  
HETATM   10  C   UNL     1     -10.908  11.736  67.924  1.00  0.00    -0.211 A  
HETATM   11  H   UNL     1      -8.982  10.875  68.238  1.00  0.00     0.000 HD 
HETATM   12  N   UNL     1     -12.064  11.655  68.557  1.00  0.00    -0.499 NA 
BRANCH  10  13
HETATM   13  S   UNL     1     -10.526  12.683  66.514  1.00  0.00    -0.250 S  
HETATM   14  O   UNL     1     -10.945  11.824  65.353  1.00  0.00    -0.299 OA 
BRANCH  13  15
HETATM   15  C   UNL     1     -11.633  14.103  66.712  1.00  0.00    -0.391 C  
BRANCH  15  16
HETATM   16  C   UNL     1     -10.861  15.358  67.091  1.00  0.00    -0.321 A  
HETATM   17  N   UNL     1     -10.389  15.363  68.366  1.00  0.00    -0.226 NA 
HETATM   18  C   UNL     1      -9.686  16.439  68.781  1.00  0.00    -0.250 A  
HETATM   19  C   UNL     1      -9.436  17.557  68.002  1.00  0.00    -0.280 A  
HETATM   20  C   UNL     1      -9.923  17.551  66.687  1.00  0.00    -0.314 A  
HETATM   21  C   UNL     1      -8.687  18.725  68.575  1.00  0.00    -0.380 C  
HETATM   22  C   UNL     1     -11.107  16.341  64.778  1.00  0.00    -0.293 C  
HETATM   23  C   UNL     1     -10.622  16.425  66.194  1.00  0.00    -0.259 A  
BRANCH  20  24
HETATM   24  O   UNL     1      -9.533  18.629  65.929  1.00  0.00    -0.477 OA 
HETATM   25  C   UNL     1     -10.458  19.702  65.785  1.00  0.00    -0.444 C  
ENDBRANCH  20  24
ENDBRANCH  15  16
ENDBRANCH  13  15
ENDBRANCH  10  13
ENDBRANCH   2   3
TORSDOF 5
ENDMDL
MODEL       16
REMARK 921   NORMALIZED FREE ENERGY PREDICTED BY IDOCK:   -6.04 KCAL/MOL
REMARK 922        TOTAL FREE ENERGY PREDICTED BY IDOCK:   -8.44 KCAL/MOL
REMARK 923 INTER-LIGAND FREE ENERGY PREDICTED BY IDOCK:   -8.13 KCAL/MOL
REMARK 924 INTRA-LIGAND FREE ENERGY PREDICTED BY IDOCK:   -0.30 KCAL/MOL
REMARK 927      BINDING AFFINITY PREDICTED BY RF-SCORE:    0.00 PKD
ROOT
HETATM    1  C   UNL     1     -14.316   7.766  71.676  1.00  0.00    -0.481 C  
HETATM    2  O   UNL     1     -13.544   8.640  72.490  1.00  0.00    -0.359 OA 
ENDROOT
BRANCH   2   3
HETATM    3  C   UNL     1     -12.992   9.721  71.847  1.00  0.00    -0.440 A  
HETATM    4  C   UNL     1     -13.381  11.056  72.043  1.00  0.00    -0.393 A  
HETATM    5  C   UNL     1     -12.763  12.060  71.275  1.00  0.00    -0.279 A  
HETATM    6  C   UNL     1     -11.790  11.691  70.354  1.00  0.00    -0.293 A  
HETATM    7  C   UNL     1     -11.375  10.376  70.141  1.00  0.00    -0.397 A  
HETATM    8  N   UNL     1     -11.408  12.871  69.779  1.00  0.00    -0.497 NA 
HETATM    9  C   UNL     1     -12.014   9.394  70.903  1.00  0.00    -0.351 A  
HETATM   10  C   UNL     1     -12.128  13.890  70.346  1.00  0.00    -0.351 A  
HETATM   11  H   UNL     1     -10.703  12.976  69.049  1.00  0.00     0.000 HD 
HETATM   12  N   UNL     1     -12.966  13.432  71.257  1.00  0.00    -0.318 NA 
BRANCH  10  13
HETATM   13  S   UNL     1     -11.858  15.545  69.878  1.00  0.00    -0.376 S  
HETATM   14  O   UNL     1     -11.529  16.256  71.162  1.00  0.00    -0.420 OA 
BRANCH  13  15
HETATM   15  C   UNL     1     -10.397  15.397  68.819  1.00  0.00    -0.229 C  
BRANCH  15  16
HETATM   16  C   UNL     1      -9.872  16.764  68.405  1.00  0.00    -0.253 A  
HETATM   17  N   UNL     1     -10.802  17.571  67.829  1.00  0.00    -0.326 NA 
HETATM   18  C   UNL     1     -10.420  18.806  67.438  1.00  0.00    -0.431 A  
HETATM   19  C   UNL     1      -9.131  19.300  67.558  1.00  0.00    -0.349 A  
HETATM   20  C   UNL     1      -8.173  18.466  68.152  1.00  0.00    -0.287 A  
HETATM   21  C   UNL     1      -8.796  20.670  67.045  1.00  0.00    -0.291 C  
HETATM   22  C   UNL     1      -7.569  16.279  69.321  1.00  0.00    -0.203 C  
HETATM   23  C   UNL     1      -8.540  17.184  68.621  1.00  0.00    -0.260 A  
BRANCH  20  24
HETATM   24  O   UNL     1      -6.950  19.060  68.357  1.00  0.00    -0.244 OA 
HETATM   25  C   UNL     1      -6.726  19.691  69.613  1.00  0.00    -0.305 C  
ENDBRANCH  20  24
ENDBRANCH  15  16
ENDBRANCH  13  15
ENDBRANCH  10  13
ENDBRANCH   2   3
TORSDOF 5
ENDMDL
MODEL       17
REMARK 921   NORMALIZED FREE ENERGY PREDICTED BY IDOCK:   -6.01 KCAL/MOL
REMARK 922        TOTAL FREE ENERGY PREDICTED BY IDOCK:   -8.41 KCAL/MOL
REMARK 923 INTER-LIGAND FREE ENERGY PREDICTED BY IDOCK:   -8.11 KCAL/MOL
REMARK 924 INTRA-LIGAND FREE ENERGY PREDICTED BY IDOCK:   -0.31 KCAL/MOL
REMARK 927      BINDING AFFINITY PREDICTED BY RF-SCORE:    0.00 PKD
ROOT
HETATM    1  C   UNL     1     -13.593  14.025  72.546  1.00  0.00    -0.566 C  
HETATM    2  O   UNL     1     -12.695  12.956  72.274  1.00  0.00    -0.105 OA 
ENDROOT
BRANCH   2   3
HETATM    3  C   UNL     1     -12.414  12.737  70.947  1.00  0.00    -0.283 A  
HETATM    4  C   UNL     1     -12.471  13.717  69.943  1.00  0.00    -0.226 A  
HETATM    5  C   UNL     1     -12.208  13.338  68.613  1.00  0.00    -0.080 A  
HETATM    6  C   UNL     1     -11.902  12.009  68.346  1.00  0.00    -0.300 A  
HETATM    7  C   UNL     1     -11.829  11.013  69.321  1.00  0.00    -0.411 A  
HETATM    8  N   UNL     1     -11.718  11.973  66.992  1.00  0.00    -0.571 NA 
HETATM    9  C   UNL     1     -12.110  11.409  70.632  1.00  0.00    -0.469 A  
HETATM   10  C   UNL     1     -11.906  13.233  66.488  1.00  0.00    -0.398 A  
HETATM   11  H   UNL     1     -11.479  11.144  66.447  1.00  0.00     0.000 HD 
HETATM   12  N   UNL     1     -12.211  14.089  67.447  1.00  0.00    -0.336 NA 
BRANCH  10  13
HETATM   13  S   UNL     1     -11.701  13.559  64.791  1.00  0.00    -0.390 S  
HETATM   14  O   UNL     1     -12.775  14.559  64.461  1.00  0.00    -0.653 OA 
BRANCH  13  15
HETATM   15  C   UNL     1     -10.060  14.325  64.757  1.00  0.00    -0.133 C  
BRANCH  15  16
HETATM   16  C   UNL     1     -10.042  15.630  65.542  1.00  0.00    -0.362 A  
HETATM   17  N   UNL     1     -10.780  16.627  64.987  1.00  0.00    -0.694 NA 
HETATM   18  C   UNL     1     -10.824  17.818  65.625  1.00  0.00     0.050 A  
HETATM   19  C   UNL     1     -10.141  18.102  66.796  1.00  0.00    -0.367 A  
HETATM   20  C   UNL     1      -9.379  17.072  67.366  1.00  0.00    -0.239 A  
HETATM   21  C   UNL     1     -10.213  19.475  67.399  1.00  0.00    -0.550 C  
HETATM   22  C   UNL     1      -8.599  14.642  67.363  1.00  0.00    -0.212 C  
HETATM   23  C   UNL     1      -9.345  15.795  66.760  1.00  0.00    -0.264 A  
BRANCH  20  24
HETATM   24  O   UNL     1      -8.831  17.378  68.589  1.00  0.00    -0.271 OA 
HETATM   25  C   UNL     1      -7.450  17.722  68.625  1.00  0.00    -0.274 C  
ENDBRANCH  20  24
ENDBRANCH  15  16
ENDBRANCH  13  15
ENDBRANCH  10  13
ENDBRANCH   2   3
TORSDOF 5
ENDMDL
MODEL       18
REMARK 921   NORMALIZED FREE ENERGY PREDICTED BY IDOCK:   -6.01 KCAL/MOL
REMARK 922        TOTAL FREE ENERGY PREDICTED BY IDOCK:   -8.40 KCAL/MOL
REMARK 923 INTER-LIGAND FREE ENERGY PREDICTED BY IDOCK:   -7.82 KCAL/MOL
REMARK 924 INTRA-LIGAND FREE ENERGY PREDICTED BY IDOCK:   -0.59 KCAL/MOL
REMARK 927      BINDING AFFINITY PREDICTED BY RF-SCORE:    0.00 PKD
ROOT
HETATM    1  C   UNL     1     -14.329   7.798  71.602  1.00  0.00    -0.481 C  
HETATM    2  O   UNL     1     -13.268   8.466  72.273  1.00  0.00    -0.321 OA 
ENDROOT
BRANCH   2   3
HETATM    3  C   UNL     1     -12.854   9.647  71.706  1.00  0.00    -0.421 A  
HETATM    4  C   UNL     1     -13.351  10.916  72.042  1.00  0.00    -0.394 A  
HETATM    5  C   UNL     1     -12.871  12.038  71.340  1.00  0.00    -0.288 A  
HETATM    6  C   UNL     1     -11.923  11.845  70.343  1.00  0.00    -0.311 A  
HETATM    7  C   UNL     1     -11.403  10.599  69.990  1.00  0.00    -0.400 A  
HETATM    8  N   UNL     1     -11.683  13.101  69.861  1.00  0.00    -0.469 NA 
HETATM    9  C   UNL     1     -11.905   9.497  70.689  1.00  0.00    -0.301 A  
HETATM   10  C   UNL     1     -12.459  13.994  70.553  1.00  0.00    -0.359 A  
HETATM   11  H   UNL     1     -11.034  13.336  69.110  1.00  0.00     0.000 HD 
HETATM   12  N   UNL     1     -13.199  13.380  71.458  1.00  0.00    -0.342 NA 
BRANCH  10  13
HETATM   13  S   UNL     1     -12.368  15.701  70.226  1.00  0.00    -0.297 S  
HETATM   14  O   UNL     1     -11.459  16.246  71.294  1.00  0.00    -0.423 OA 
BRANCH  13  15
HETATM   15  C   UNL     1     -11.562  15.725  68.605  1.00  0.00    -0.386 C  
BRANCH  15  16
HETATM   16  C   UNL     1     -10.114  16.181  68.713  1.00  0.00    -0.237 A  
HETATM   17  N   UNL     1      -9.255  15.220  69.146  1.00  0.00    -0.222 NA 
HETATM   18  C   UNL     1      -7.948  15.541  69.264  1.00  0.00    -0.238 A  
HETATM   19  C   UNL     1      -7.424  16.795  69.000  1.00  0.00    -0.228 A  
HETATM   20  C   UNL     1      -8.311  17.785  68.554  1.00  0.00    -0.297 A  
HETATM   21  C   UNL     1      -5.962  17.064  69.212  1.00  0.00    -0.204 C  
HETATM   22  C   UNL     1     -10.657  18.484  67.832  1.00  0.00    -0.385 C  
HETATM   23  C   UNL     1      -9.680  17.481  68.368  1.00  0.00    -0.316 A  
BRANCH  20  24
HETATM   24  O   UNL     1      -7.711  18.967  68.188  1.00  0.00    -0.269 OA 
HETATM   25  C   UNL     1      -7.446  19.170  66.804  1.00  0.00    -0.224 C  
ENDBRANCH  20  24
ENDBRANCH  15  16
ENDBRANCH  13  15
ENDBRANCH  10  13
ENDBRANCH   2   3
TORSDOF 5
ENDMDL
MODEL       19
REMARK 921   NORMALIZED FREE ENERGY PREDICTED BY IDOCK:   -6.00 KCAL/MOL
REMARK 922        TOTAL FREE ENERGY PREDICTED BY IDOCK:   -8.39 KCAL/MOL
REMARK 923 INTER-LIGAND FREE ENERGY PREDICTED BY IDOCK:   -7.91 KCAL/MOL
REMARK 924 INTRA-LIGAND FREE ENERGY PREDICTED BY IDOCK:   -0.48 KCAL/MOL
REMARK 927      BINDING AFFINITY PREDICTED BY RF-SCORE:    0.00 PKD
ROOT
HETATM    1  C   UNL     1     -10.634  19.674  66.533  1.00  0.00    -0.482 C  
HETATM    2  O   UNL     1     -10.331  18.554  65.710  1.00  0.00    -0.590 OA 
ENDROOT
BRANCH   2   3
HETATM    3  C   UNL     1     -10.407  17.327  66.323  1.00  0.00    -0.322 A  
HETATM    4  C   UNL     1     -10.355  16.093  65.657  1.00  0.00    -0.405 A  
HETATM    5  C   UNL     1     -10.498  14.911  66.409  1.00  0.00    -0.299 A  
HETATM    6  C   UNL     1     -10.684  15.014  67.782  1.00  0.00    -0.278 A  
HETATM    7  C   UNL     1     -10.732  16.224  68.476  1.00  0.00    -0.307 A  
HETATM    8  N   UNL     1     -10.798  13.719  68.203  1.00  0.00    -0.240 NA 
HETATM    9  C   UNL     1     -10.604  17.384  67.707  1.00  0.00    -0.371 A  
HETATM   10  C   UNL     1     -10.680  12.891  67.117  1.00  0.00    -0.253 A  
HETATM   11  H   UNL     1     -10.946  13.417  69.166  1.00  0.00     0.000 HD 
HETATM   12  N   UNL     1     -10.502  13.584  66.007  1.00  0.00    -0.293 NA 
BRANCH  10  13
HETATM   13  S   UNL     1     -10.730  11.161  67.299  1.00  0.00    -0.274 S  
HETATM   14  O   UNL     1      -9.843  10.636  66.204  1.00  0.00    -0.200 OA 
BRANCH  13  15
HETATM   15  C   UNL     1      -9.964  10.938  68.925  1.00  0.00    -0.196 C  
BRANCH  15  16
HETATM   16  C   UNL     1     -10.961  10.388  69.936  1.00  0.00    -0.305 A  
HETATM   17  N   UNL     1     -12.182  10.985  69.901  1.00  0.00    -0.339 NA 
HETATM   18  C   UNL     1     -13.128  10.550  70.762  1.00  0.00    -0.257 A  
HETATM   19  C   UNL     1     -12.930   9.553  71.702  1.00  0.00    -0.483 A  
HETATM   20  C   UNL     1     -11.670   8.940  71.738  1.00  0.00    -0.362 A  
HETATM   21  C   UNL     1     -14.033   9.179  72.650  1.00  0.00    -0.367 C  
HETATM   22  C   UNL     1      -9.323   8.659  70.775  1.00  0.00    -0.231 C  
HETATM   23  C   UNL     1     -10.665   9.327  70.822  1.00  0.00    -0.350 A  
BRANCH  20  24
HETATM   24  O   UNL     1     -11.578   7.875  72.604  1.00  0.00    -0.376 OA 
HETATM   25  C   UNL     1     -11.829   6.576  72.079  1.00  0.00    -0.329 C  
ENDBRANCH  20  24
ENDBRANCH  15  16
ENDBRANCH  13  15
ENDBRANCH  10  13
ENDBRANCH   2   3
TORSDOF 5
ENDMDL
MODEL       20
REMARK 921   NORMALIZED FREE ENERGY PREDICTED BY IDOCK:   -5.95 KCAL/MOL
REMARK 922        TOTAL FREE ENERGY PREDICTED BY IDOCK:   -8.33 KCAL/MOL
REMARK 923 INTER-LIGAND FREE ENERGY PREDICTED BY IDOCK:   -8.05 KCAL/MOL
REMARK 924 INTRA-LIGAND FREE ENERGY PREDICTED BY IDOCK:   -0.28 KCAL/MOL
REMARK 927      BINDING AFFINITY PREDICTED BY RF-SCORE:    0.00 PKD
ROOT
HETATM    1  C   UNL     1      -9.747   7.628  73.412  1.00  0.00    -0.304 C  
HETATM    2  O   UNL     1     -11.132   7.703  73.095  1.00  0.00    -0.404 OA 
ENDROOT
BRANCH   2   3
HETATM    3  C   UNL     1     -11.470   8.597  72.109  1.00  0.00    -0.373 A  
HETATM    4  C   UNL     1     -10.589   9.084  71.131  1.00  0.00    -0.361 A  
HETATM    5  C   UNL     1     -11.060  10.039  70.211  1.00  0.00    -0.318 A  
HETATM    6  C   UNL     1     -12.380  10.462  70.307  1.00  0.00    -0.250 A  
HETATM    7  C   UNL     1     -13.283   9.993  71.262  1.00  0.00    -0.469 A  
HETATM    8  N   UNL     1     -12.513  11.379  69.302  1.00  0.00    -0.253 NA 
HETATM    9  C   UNL     1     -12.789   9.057  72.175  1.00  0.00    -0.478 A  
HETATM   10  C   UNL     1     -11.316  11.484  68.641  1.00  0.00    -0.269 A  
HETATM   11  H   UNL     1     -13.362  11.898  69.079  1.00  0.00     0.000 HD 
HETATM   12  N   UNL     1     -10.408  10.686  69.172  1.00  0.00    -0.212 NA 
BRANCH  10  13
HETATM   13  S   UNL     1     -11.142  12.534  67.264  1.00  0.00    -0.291 S  
HETATM   14  O   UNL     1     -12.080  11.969  66.232  1.00  0.00    -0.596 OA 
BRANCH  13  15
HETATM   15  C   UNL     1     -11.758  14.106  67.918  1.00  0.00    -0.367 C  
BRANCH  15  16
HETATM   16  C   UNL     1     -10.799  15.247  67.609  1.00  0.00    -0.295 A  
HETATM   17  N   UNL     1     -10.287  15.225  66.351  1.00  0.00    -0.279 NA 
HETATM   18  C   UNL     1      -9.431  16.207  65.993  1.00  0.00    -0.339 A  
HETATM   19  C   UNL     1      -9.016  17.226  66.835  1.00  0.00    -0.256 A  
HETATM   20  C   UNL     1      -9.545  17.248  68.133  1.00  0.00    -0.283 A  
HETATM   21  C   UNL     1      -8.020  18.242  66.357  1.00  0.00    -0.290 C  
HETATM   22  C   UNL     1     -11.126  16.284  69.889  1.00  0.00    -0.347 C  
HETATM   23  C   UNL     1     -10.482  16.268  68.535  1.00  0.00    -0.278 A  
BRANCH  20  24
HETATM   24  O   UNL     1      -9.193  18.351  68.874  1.00  0.00    -0.278 OA 
HETATM   25  C   UNL     1     -10.012  19.510  68.759  1.00  0.00    -0.463 C  
ENDBRANCH  20  24
ENDBRANCH  15  16
ENDBRANCH  13  15
ENDBRANCH  10  13
ENDBRANCH   2   3
TORSDOF 5
ENDMDL
MODEL       21
REMARK 921   NORMALIZED FREE ENERGY PREDICTED BY IDOCK:   -5.93 KCAL/MOL
REMARK 922        TOTAL FREE ENERGY PREDICTED BY IDOCK:   -8.31 KCAL/MOL
REMARK 923 INTER-LIGAND FREE ENERGY PREDICTED BY IDOCK:   -8.08 KCAL/MOL
REMARK 924 INTRA-LIGAND FREE ENERGY PREDICTED BY IDOCK:   -0.23 KCAL/MOL
REMARK 927      BINDING AFFINITY PREDICTED BY RF-SCORE:    0.00 PKD
ROOT
HETATM    1  C   UNL     1     -13.285  16.217  73.679  1.00  0.00    -0.349 C  
HETATM    2  O   UNL     1     -14.025  15.649  72.605  1.00  0.00    -0.566 OA 
ENDROOT
BRANCH   2   3
HETATM    3  C   UNL     1     -13.431  14.587  71.968  1.00  0.00    -0.384 A  
HETATM    4  C   UNL     1     -12.634  14.685  70.816  1.00  0.00    -0.415 A  
HETATM    5  C   UNL     1     -12.131  13.505  70.238  1.00  0.00    -0.355 A  
HETATM    6  C   UNL     1     -12.443  12.288  70.832  1.00  0.00    -0.276 A  
HETATM    7  C   UNL     1     -13.225  12.155  71.980  1.00  0.00    -0.496 A  
HETATM    8  N   UNL     1     -11.826  11.361  70.038  1.00  0.00    -0.333 NA 
HETATM    9  C   UNL     1     -13.727  13.340  72.527  1.00  0.00    -0.613 A  
HETATM   10  C   UNL     1     -11.177  12.012  69.023  1.00  0.00    -0.258 A  
HETATM   11  H   UNL     1     -11.846  10.350  70.179  1.00  0.00     0.000 HD 
HETATM   12  N   UNL     1     -11.346  13.319  69.111  1.00  0.00    -0.278 NA 
BRANCH  10  13
HETATM   13  S   UNL     1     -10.242  11.133  67.847  1.00  0.00    -0.186 S  
HETATM   14  O   UNL     1     -10.918   9.793  67.747  1.00  0.00    -0.274 OA 
BRANCH  13  15
HETATM   15  C   UNL     1     -10.512  12.115  66.350  1.00  0.00    -0.230 C  
BRANCH  15  16
HETATM   16  C   UNL     1      -9.755  13.434  66.409  1.00  0.00    -0.277 A  
HETATM   17  N   UNL     1      -8.538  13.356  67.011  1.00  0.00    -0.192 NA 
HETATM   18  C   UNL     1      -7.797  14.482  67.099  1.00  0.00    -0.101 A  
HETATM   19  C   UNL     1      -8.206  15.724  66.642  1.00  0.00    -0.305 A  
HETATM   20  C   UNL     1      -9.461  15.803  66.022  1.00  0.00    -0.357 A  
HETATM   21  C   UNL     1      -7.328  16.926  66.835  1.00  0.00    -0.251 C  
HETATM   22  C   UNL     1     -11.569  14.659  65.150  1.00  0.00    -0.371 C  
HETATM   23  C   UNL     1     -10.249  14.640  65.863  1.00  0.00    -0.344 A  
BRANCH  20  24
HETATM   24  O   UNL     1      -9.752  17.032  65.478  1.00  0.00    -0.534 OA 
HETATM   25  C   UNL     1     -10.440  17.969  66.299  1.00  0.00    -0.335 C  
ENDBRANCH  20  24
ENDBRANCH  15  16
ENDBRANCH  13  15
ENDBRANCH  10  13
ENDBRANCH   2   3
TORSDOF 5
ENDMDL
MODEL       22
REMARK 921   NORMALIZED FREE ENERGY PREDICTED BY IDOCK:   -5.93 KCAL/MOL
REMARK 922        TOTAL FREE ENERGY PREDICTED BY IDOCK:   -8.31 KCAL/MOL
REMARK 923 INTER-LIGAND FREE ENERGY PREDICTED BY IDOCK:   -7.93 KCAL/MOL
REMARK 924 INTRA-LIGAND FREE ENERGY PREDICTED BY IDOCK:   -0.37 KCAL/MOL
REMARK 927      BINDING AFFINITY PREDICTED BY RF-SCORE:    0.00 PKD
ROOT
HETATM    1  C   UNL     1     -13.353   9.967  71.905  1.00  0.00    -0.415 C  
HETATM    2  O   UNL     1     -13.046  11.356  71.930  1.00  0.00    -0.492 OA 
ENDROOT
BRANCH   2   3
HETATM    3  C   UNL     1     -12.464  11.857  70.791  1.00  0.00    -0.291 A  
HETATM    4  C   UNL     1     -12.254  13.221  70.531  1.00  0.00    -0.416 A  
HETATM    5  C   UNL     1     -11.692  13.596  69.296  1.00  0.00    -0.325 A  
HETATM    6  C   UNL     1     -11.367  12.600  68.383  1.00  0.00    -0.290 A  
HETATM    7  C   UNL     1     -11.555  11.237  68.613  1.00  0.00    -0.384 A  
HETATM    8  N   UNL     1     -10.867  13.282  67.309  1.00  0.00    -0.262 NA 
HETATM    9  C   UNL     1     -12.128  10.889  69.840  1.00  0.00    -0.428 A  
HETATM   10  C   UNL     1     -10.897  14.624  67.586  1.00  0.00    -0.284 A  
HETATM   11  H   UNL     1     -10.528  12.861  66.443  1.00  0.00     0.000 HD 
HETATM   12  N   UNL     1     -11.399  14.851  68.786  1.00  0.00    -0.272 NA 
BRANCH  10  13
HETATM   13  S   UNL     1     -10.285  15.788  66.445  1.00  0.00    -0.309 S  
HETATM   14  O   UNL     1     -11.098  15.565  65.199  1.00  0.00    -0.376 OA 
BRANCH  13  15
HETATM   15  C   UNL     1     -10.725  17.353  67.243  1.00  0.00    -0.219 C  
BRANCH  15  16
HETATM   16  C   UNL     1      -9.487  18.097  67.722  1.00  0.00    -0.268 A  
HETATM   17  N   UNL     1      -8.779  17.448  68.683  1.00  0.00    -0.277 NA 
HETATM   18  C   UNL     1      -7.660  18.037  69.158  1.00  0.00    -0.042 A  
HETATM   19  C   UNL     1      -7.198  19.278  68.752  1.00  0.00    -0.380 A  
HETATM   20  C   UNL     1      -7.929  19.947  67.761  1.00  0.00    -0.291 A  
HETATM   21  C   UNL     1      -5.970  19.871  69.381  1.00  0.00    -0.325 C  
HETATM   22  C   UNL     1      -9.859  19.989  66.091  1.00  0.00    -0.553 C  
HETATM   23  C   UNL     1      -9.079  19.346  67.198  1.00  0.00    -0.359 A  
BRANCH  20  24
HETATM   24  O   UNL     1      -7.350  21.111  67.312  1.00  0.00    -0.430 OA 
HETATM   25  C   UNL     1      -6.392  21.008  66.264  1.00  0.00    -0.246 C  
ENDBRANCH  20  24
ENDBRANCH  15  16
ENDBRANCH  13  15
ENDBRANCH  10  13
ENDBRANCH   2   3
TORSDOF 5
ENDMDL
MODEL       23
REMARK 921   NORMALIZED FREE ENERGY PREDICTED BY IDOCK:   -5.93 KCAL/MOL
REMARK 922        TOTAL FREE ENERGY PREDICTED BY IDOCK:   -8.30 KCAL/MOL
REMARK 923 INTER-LIGAND FREE ENERGY PREDICTED BY IDOCK:   -7.96 KCAL/MOL
REMARK 924 INTRA-LIGAND FREE ENERGY PREDICTED BY IDOCK:   -0.34 KCAL/MOL
REMARK 927      BINDING AFFINITY PREDICTED BY RF-SCORE:    0.00 PKD
ROOT
HETATM    1  C   UNL     1     -10.488  18.087  65.739  1.00  0.00    -0.198 C  
HETATM    2  O   UNL     1     -10.945  17.274  64.665  1.00  0.00    -1.013 OA 
ENDROOT
BRANCH   2   3
HETATM    3  C   UNL     1     -11.027  15.928  64.929  1.00  0.00    -0.411 A  
HETATM    4  C   UNL     1     -10.271  15.254  65.900  1.00  0.00    -0.353 A  
HETATM    5  C   UNL     1     -10.420  13.860  66.027  1.00  0.00    -0.298 A  
HETATM    6  C   UNL     1     -11.311  13.207  65.185  1.00  0.00    -0.296 A  
HETATM    7  C   UNL     1     -12.083  13.847  64.214  1.00  0.00    -0.477 A  
HETATM    8  N   UNL     1     -11.212  11.892  65.547  1.00  0.00    -0.317 NA 
HETATM    9  C   UNL     1     -11.906  15.229  64.096  1.00  0.00    -0.138 A  
HETATM   10  C   UNL     1     -10.301  11.784  66.565  1.00  0.00    -0.223 A  
HETATM   11  H   UNL     1     -11.732  11.120  65.130  1.00  0.00     0.000 HD 
HETATM   12  N   UNL     1      -9.795  12.962  66.879  1.00  0.00    -0.230 NA 
BRANCH  10  13
HETATM   13  S   UNL     1      -9.963  10.245  67.305  1.00  0.00    -0.199 S  
HETATM   14  O   UNL     1      -8.744   9.735  66.587  1.00  0.00    -0.130 OA 
BRANCH  13  15
HETATM   15  C   UNL     1      -9.567  10.731  69.004  1.00  0.00    -0.180 C  
BRANCH  15  16
HETATM   16  C   UNL     1     -10.607  10.209  69.986  1.00  0.00    -0.287 A  
HETATM   17  N   UNL     1     -11.846  10.743  69.826  1.00  0.00    -0.312 NA 
HETATM   18  C   UNL     1     -12.830  10.328  70.654  1.00  0.00    -0.285 A  
HETATM   19  C   UNL     1     -12.655   9.412  71.677  1.00  0.00    -0.460 A  
HETATM   20  C   UNL     1     -11.376   8.861  71.841  1.00  0.00    -0.376 A  
HETATM   21  C   UNL     1     -13.803   9.054  72.577  1.00  0.00    -0.491 C  
HETATM   22  C   UNL     1      -8.959   8.623  71.057  1.00  0.00    -0.242 C  
HETATM   23  C   UNL     1     -10.328   9.229  70.966  1.00  0.00    -0.388 A  
BRANCH  20  24
HETATM   24  O   UNL     1     -11.299   7.868  72.788  1.00  0.00    -0.382 OA 
HETATM   25  C   UNL     1     -11.345   6.519  72.333  1.00  0.00    -0.279 C  
ENDBRANCH  20  24
ENDBRANCH  15  16
ENDBRANCH  13  15
ENDBRANCH  10  13
ENDBRANCH   2   3
TORSDOF 5
ENDMDL
MODEL       24
REMARK 921   NORMALIZED FREE ENERGY PREDICTED BY IDOCK:   -5.92 KCAL/MOL
REMARK 922        TOTAL FREE ENERGY PREDICTED BY IDOCK:   -8.29 KCAL/MOL
REMARK 923 INTER-LIGAND FREE ENERGY PREDICTED BY IDOCK:   -8.03 KCAL/MOL
REMARK 924 INTRA-LIGAND FREE ENERGY PREDICTED BY IDOCK:   -0.26 KCAL/MOL
REMARK 927      BINDING AFFINITY PREDICTED BY RF-SCORE:    0.00 PKD
ROOT
HETATM    1  C   UNL     1     -10.353   8.144  66.855  1.00  0.00    -0.331 C  
HETATM    2  O   UNL     1     -10.741   9.327  67.542  1.00  0.00    -0.277 OA 
ENDROOT
BRANCH   2   3
HETATM    3  C   UNL     1     -10.527  10.505  66.869  1.00  0.00    -0.246 A  
HETATM    4  C   UNL     1     -10.702  11.786  67.416  1.00  0.00    -0.277 A  
HETATM    5  C   UNL     1     -10.496  12.908  66.593  1.00  0.00    -0.263 A  
HETATM    6  C   UNL     1     -10.126  12.704  65.269  1.00  0.00    -0.253 A  
HETATM    7  C   UNL     1      -9.935  11.446  64.696  1.00  0.00    -0.315 A  
HETATM    8  N   UNL     1     -10.021  13.965  64.752  1.00  0.00    -0.602 NA 
HETATM    9  C   UNL     1     -10.161  10.345  65.529  1.00  0.00    -0.316 A  
HETATM   10  C   UNL     1     -10.316  14.870  65.737  1.00  0.00    -0.332 A  
HETATM   11  H   UNL     1      -9.765  14.194  63.792  1.00  0.00     0.000 HD 
HETATM   12  N   UNL     1     -10.615  14.262  66.870  1.00  0.00    -0.272 NA 
BRANCH  10  13
HETATM   13  S   UNL     1     -10.232  16.583  65.435  1.00  0.00    -0.037 S  
HETATM   14  O   UNL     1     -11.386  16.865  64.514  1.00  0.00    -1.006 OA 
BRANCH  13  15
HETATM   15  C   UNL     1     -10.529  17.265  67.086  1.00  0.00    -0.297 C  
BRANCH  15  16
HETATM   16  C   UNL     1      -9.307  18.009  67.606  1.00  0.00    -0.259 A  
HETATM   17  N   UNL     1      -8.550  17.299  68.483  1.00  0.00    -0.264 NA 
HETATM   18  C   UNL     1      -7.442  17.884  68.988  1.00  0.00    -0.166 A  
HETATM   19  C   UNL     1      -7.037  19.175  68.693  1.00  0.00    -0.353 A  
HETATM   20  C   UNL     1      -7.819  19.907  67.788  1.00  0.00    -0.294 A  
HETATM   21  C   UNL     1      -5.816  19.753  69.348  1.00  0.00    -0.298 C  
HETATM   22  C   UNL     1      -9.793  20.032  66.175  1.00  0.00    -0.553 C  
HETATM   23  C   UNL     1      -8.960  19.317  67.197  1.00  0.00    -0.338 A  
BRANCH  20  24
HETATM   24  O   UNL     1      -7.296  21.130  67.441  1.00  0.00    -0.427 OA 
HETATM   25  C   UNL     1      -6.399  21.173  66.336  1.00  0.00    -0.254 C  
ENDBRANCH  20  24
ENDBRANCH  15  16
ENDBRANCH  13  15
ENDBRANCH  10  13
ENDBRANCH   2   3
TORSDOF 5
ENDMDL
MODEL       25
REMARK 921   NORMALIZED FREE ENERGY PREDICTED BY IDOCK:   -5.91 KCAL/MOL
REMARK 922        TOTAL FREE ENERGY PREDICTED BY IDOCK:   -8.27 KCAL/MOL
REMARK 923 INTER-LIGAND FREE ENERGY PREDICTED BY IDOCK:   -7.92 KCAL/MOL
REMARK 924 INTRA-LIGAND FREE ENERGY PREDICTED BY IDOCK:   -0.35 KCAL/MOL
REMARK 927      BINDING AFFINITY PREDICTED BY RF-SCORE:    0.00 PKD
ROOT
HETATM    1  C   UNL     1      -6.286  21.220  67.685  1.00  0.00    -0.343 C  
HETATM    2  O   UNL     1      -7.549  20.849  67.147  1.00  0.00    -0.327 OA 
ENDROOT
BRANCH   2   3
HETATM    3  C   UNL     1      -7.868  19.516  67.238  1.00  0.00    -0.261 A  
HETATM    4  C   UNL     1      -8.553  18.786  66.254  1.00  0.00    -0.247 A  
HETATM    5  C   UNL     1      -8.859  17.435  66.505  1.00  0.00    -0.263 A  
HETATM    6  C   UNL     1      -8.471  16.878  67.717  1.00  0.00    -0.196 A  
HETATM    7  C   UNL     1      -7.783  17.573  68.712  1.00  0.00    -0.252 A  
HETATM    8  N   UNL     1      -8.920  15.588  67.652  1.00  0.00    -0.182 NA 
HETATM    9  C   UNL     1      -7.504  18.917  68.448  1.00  0.00    -0.331 A  
HETATM   10  C   UNL     1      -9.544  15.400  66.446  1.00  0.00    -0.293 A  
HETATM   11  H   UNL     1      -8.809  14.883  68.380  1.00  0.00     0.000 HD 
HETATM   12  N   UNL     1      -9.530  16.505  65.724  1.00  0.00    -0.513 NA 
BRANCH  10  13
HETATM   13  S   UNL     1     -10.196  13.846  66.008  1.00  0.00    -0.318 S  
HETATM   14  O   UNL     1      -9.360  12.853  66.767  1.00  0.00    -0.232 OA 
BRANCH  13  15
HETATM   15  C   UNL     1     -11.873  13.945  66.686  1.00  0.00    -0.420 C  
BRANCH  15  16
HETATM   16  C   UNL     1     -11.993  13.154  67.981  1.00  0.00    -0.304 A  
HETATM   17  N   UNL     1     -11.941  11.805  67.822  1.00  0.00    -0.600 NA 
HETATM   18  C   UNL     1     -12.034  11.029  68.923  1.00  0.00    -0.262 A  
HETATM   19  C   UNL     1     -12.208  11.515  70.209  1.00  0.00    -0.415 A  
HETATM   20  C   UNL     1     -12.263  12.906  70.372  1.00  0.00    -0.304 A  
HETATM   21  C   UNL     1     -12.353  10.565  71.362  1.00  0.00    -0.477 C  
HETATM   22  C   UNL     1     -12.106  15.253  69.381  1.00  0.00    -0.301 C  
HETATM   23  C   UNL     1     -12.120  13.759  69.253  1.00  0.00    -0.374 A  
BRANCH  20  24
HETATM   24  O   UNL     1     -12.309  13.326  71.680  1.00  0.00    -0.139 OA 
HETATM   25  C   UNL     1     -13.588  13.609  72.236  1.00  0.00    -0.571 C  
ENDBRANCH  20  24
ENDBRANCH  15  16
ENDBRANCH  13  15
ENDBRANCH  10  13
ENDBRANCH   2   3
TORSDOF 5
ENDMDL
MODEL       26
REMARK 921   NORMALIZED FREE ENERGY PREDICTED BY IDOCK:   -5.90 KCAL/MOL
REMARK 922        TOTAL FREE ENERGY PREDICTED BY IDOCK:   -8.26 KCAL/MOL
REMARK 923 INTER-LIGAND FREE ENERGY PREDICTED BY IDOCK:   -7.84 KCAL/MOL
REMARK 924 INTRA-LIGAND FREE ENERGY PREDICTED BY IDOCK:   -0.42 KCAL/MOL
REMARK 927      BINDING AFFINITY PREDICTED BY RF-SCORE:    0.00 PKD
ROOT
HETATM    1  C   UNL     1     -12.951  15.724  73.229  1.00  0.00    -0.565 C  
HETATM    2  O   UNL     1     -13.182  14.383  72.814  1.00  0.00    -0.463 OA 
ENDROOT
BRANCH   2   3
HETATM    3  C   UNL     1     -12.749  14.068  71.548  1.00  0.00    -0.363 A  
HETATM    4  C   UNL     1     -12.547  14.997  70.516  1.00  0.00    -0.420 A  
HETATM    5  C   UNL     1     -12.151  14.525  69.250  1.00  0.00    -0.290 A  
HETATM    6  C   UNL     1     -11.976  13.158  69.073  1.00  0.00    -0.285 A  
HETATM    7  C   UNL     1     -12.160  12.210  70.080  1.00  0.00    -0.368 A  
HETATM    8  N   UNL     1     -11.612  13.034  67.761  1.00  0.00    -0.319 NA 
HETATM    9  C   UNL     1     -12.569  12.700  71.324  1.00  0.00    -0.339 A  
HETATM   10  C   UNL     1     -11.574  14.281  67.195  1.00  0.00    -0.380 A  
HETATM   11  H   UNL     1     -11.404  12.158  67.283  1.00  0.00     0.000 HD 
HETATM   12  N   UNL     1     -11.902  15.213  68.071  1.00  0.00    -0.283 NA 
BRANCH  10  13
HETATM   13  S   UNL     1     -11.098  14.497  65.534  1.00  0.00    -0.355 S  
HETATM   14  O   UNL     1     -12.351  14.243  64.742  1.00  0.00    -0.450 OA 
BRANCH  13  15
HETATM   15  C   UNL     1     -10.649  16.251  65.504  1.00  0.00    -0.353 C  
BRANCH  15  16
HETATM   16  C   UNL     1      -9.445  16.530  66.393  1.00  0.00    -0.288 A  
HETATM   17  N   UNL     1      -8.453  15.605  66.301  1.00  0.00    -0.247 NA 
HETATM   18  C   UNL     1      -7.345  15.782  67.053  1.00  0.00    -0.191 A  
HETATM   19  C   UNL     1      -7.162  16.830  67.939  1.00  0.00    -0.159 A  
HETATM   20  C   UNL     1      -8.186  17.783  68.035  1.00  0.00    -0.248 A  
HETATM   21  C   UNL     1      -5.913  16.908  68.770  1.00  0.00    -0.150 C  
HETATM   22  C   UNL     1     -10.437  18.690  67.245  1.00  0.00    -0.468 C  
HETATM   23  C   UNL     1      -9.342  17.666  67.229  1.00  0.00    -0.249 A  
BRANCH  20  24
HETATM   24  O   UNL     1      -7.889  18.862  68.833  1.00  0.00    -0.329 OA 
HETATM   25  C   UNL     1      -7.345  20.017  68.203  1.00  0.00    -0.280 C  
ENDBRANCH  20  24
ENDBRANCH  15  16
ENDBRANCH  13  15
ENDBRANCH  10  13
ENDBRANCH   2   3
TORSDOF 5
ENDMDL
MODEL       27
REMARK 921   NORMALIZED FREE ENERGY PREDICTED BY IDOCK:   -5.86 KCAL/MOL
REMARK 922        TOTAL FREE ENERGY PREDICTED BY IDOCK:   -8.21 KCAL/MOL
REMARK 923 INTER-LIGAND FREE ENERGY PREDICTED BY IDOCK:   -7.92 KCAL/MOL
REMARK 924 INTRA-LIGAND FREE ENERGY PREDICTED BY IDOCK:   -0.30 KCAL/MOL
REMARK 927      BINDING AFFINITY PREDICTED BY RF-SCORE:    0.00 PKD
ROOT
HETATM    1  C   UNL     1     -12.089  14.248  64.338  1.00  0.00    -0.468 C  
HETATM    2  O   UNL     1     -11.636  15.033  65.434  1.00  0.00    -0.318 OA 
ENDROOT
BRANCH   2   3
HETATM    3  C   UNL     1     -11.624  14.402  66.654  1.00  0.00    -0.384 A  
HETATM    4  C   UNL     1     -11.852  13.031  66.851  1.00  0.00    -0.442 A  
HETATM    5  C   UNL     1     -11.862  12.529  68.166  1.00  0.00    -0.317 A  
HETATM    6  C   UNL     1     -11.645  13.410  69.217  1.00  0.00    -0.310 A  
HETATM    7  C   UNL     1     -11.408  14.776  69.056  1.00  0.00    -0.295 A  
HETATM    8  N   UNL     1     -11.729  12.627  70.334  1.00  0.00    -0.542 NA 
HETATM    9  C   UNL     1     -11.419  15.256  67.743  1.00  0.00    -0.312 A  
HETATM   10  C   UNL     1     -11.982  11.336  69.949  1.00  0.00    -0.365 A  
HETATM   11  H   UNL     1     -11.622  12.949  71.296  1.00  0.00     0.000 HD 
HETATM   12  N   UNL     1     -12.074  11.241  68.635  1.00  0.00    -0.570 NA 
BRANCH  10  13
HETATM   13  S   UNL     1     -12.103  10.058  71.124  1.00  0.00    -0.407 S  
HETATM   14  O   UNL     1     -13.531   9.593  71.036  1.00  0.00    -0.328 OA 
BRANCH  13  15
HETATM   15  C   UNL     1     -10.969   8.821  70.443  1.00  0.00    -0.235 C  
BRANCH  15  16
HETATM   16  C   UNL     1     -10.792   7.647  71.396  1.00  0.00    -0.225 A  
HETATM   17  N   UNL     1     -10.798   7.988  72.712  1.00  0.00    -0.368 NA 
HETATM   18  C   UNL     1     -10.654   7.003  73.625  1.00  0.00    -0.345 A  
HETATM   19  C   UNL     1     -10.471   5.667  73.311  1.00  0.00    -0.256 A  
HETATM   20  C   UNL     1     -10.465   5.317  71.953  1.00  0.00    -0.219 A  
HETATM   21  C   UNL     1     -10.268   4.655  74.401  1.00  0.00    -0.288 C  
HETATM   22  C   UNL     1     -10.728   5.978  69.502  1.00  0.00    -0.405 C  
HETATM   23  C   UNL     1     -10.662   6.308  70.964  1.00  0.00    -0.313 A  
BRANCH  20  24
HETATM   24  O   UNL     1     -10.407   3.965  71.713  1.00  0.00    -0.100 OA 
HETATM   25  C   UNL     1      -9.157   3.421  71.302  1.00  0.00    -0.107 C  
ENDBRANCH  20  24
ENDBRANCH  15  16
ENDBRANCH  13  15
ENDBRANCH  10  13
ENDBRANCH   2   3
TORSDOF 5
ENDMDL
MODEL       28
REMARK 921   NORMALIZED FREE ENERGY PREDICTED BY IDOCK:   -5.86 KCAL/MOL
REMARK 922        TOTAL FREE ENERGY PREDICTED BY IDOCK:   -8.21 KCAL/MOL
REMARK 923 INTER-LIGAND FREE ENERGY PREDICTED BY IDOCK:   -8.02 KCAL/MOL
REMARK 924 INTRA-LIGAND FREE ENERGY PREDICTED BY IDOCK:   -0.20 KCAL/MOL
REMARK 927      BINDING AFFINITY PREDICTED BY RF-SCORE:    0.00 PKD
ROOT
HETATM    1  C   UNL     1     -12.583  15.722  74.123  1.00  0.00    -0.619 C  
HETATM    2  O   UNL     1     -12.961  14.473  73.558  1.00  0.00    -0.551 OA 
ENDROOT
BRANCH   2   3
HETATM    3  C   UNL     1     -12.792  14.358  72.199  1.00  0.00    -0.342 A  
HETATM    4  C   UNL     1     -12.438  13.174  71.532  1.00  0.00    -0.199 A  
HETATM    5  C   UNL     1     -12.247  13.215  70.138  1.00  0.00    -0.290 A  
HETATM    6  C   UNL     1     -12.418  14.425  69.477  1.00  0.00    -0.125 A  
HETATM    7  C   UNL     1     -12.777  15.617  70.108  1.00  0.00    -0.165 A  
HETATM    8  N   UNL     1     -12.153  14.132  68.168  1.00  0.00    -0.539 NA 
HETATM    9  C   UNL     1     -12.945  15.556  71.495  1.00  0.00    -0.545 A  
HETATM   10  C   UNL     1     -11.843  12.801  68.069  1.00  0.00    -0.336 A  
HETATM   11  H   UNL     1     -12.182  14.795  67.393  1.00  0.00     0.000 HD 
HETATM   12  N   UNL     1     -11.885  12.213  69.250  1.00  0.00    -0.318 NA 
BRANCH  10  13
HETATM   13  S   UNL     1     -11.496  12.075  66.525  1.00  0.00    -0.307 S  
HETATM   14  O   UNL     1     -12.554  12.614  65.603  1.00  0.00    -0.611 OA 
BRANCH  13  15
HETATM   15  C   UNL     1      -9.872  12.778  66.142  1.00  0.00    -0.267 C  
BRANCH  15  16
HETATM   16  C   UNL     1      -9.884  14.296  66.263  1.00  0.00    -0.307 A  
HETATM   17  N   UNL     1     -10.632  14.928  65.320  1.00  0.00    -0.369 NA 
HETATM   18  C   UNL     1     -10.701  16.276  65.361  1.00  0.00    -0.327 A  
HETATM   19  C   UNL     1     -10.036  17.065  66.284  1.00  0.00    -0.324 A  
HETATM   20  C   UNL     1      -9.264  16.412  67.255  1.00  0.00    -0.215 A  
HETATM   21  C   UNL     1     -10.137  18.562  66.212  1.00  0.00    -0.422 C  
HETATM   22  C   UNL     1      -8.445  14.251  68.337  1.00  0.00    -0.166 C  
HETATM   23  C   UNL     1      -9.203  15.000  67.282  1.00  0.00    -0.210 A  
BRANCH  20  24
HETATM   24  O   UNL     1      -8.734  17.241  68.216  1.00  0.00    -0.235 OA 
HETATM   25  C   UNL     1      -7.360  17.593  68.097  1.00  0.00    -0.228 C  
ENDBRANCH  20  24
ENDBRANCH  15  16
ENDBRANCH  13  15
ENDBRANCH  10  13
ENDBRANCH   2   3
TORSDOF 5
ENDMDL
MODEL       29
REMARK 921   NORMALIZED FREE ENERGY PREDICTED BY IDOCK:   -5.86 KCAL/MOL
REMARK 922        TOTAL FREE ENERGY PREDICTED BY IDOCK:   -8.21 KCAL/MOL
REMARK 923 INTER-LIGAND FREE ENERGY PREDICTED BY IDOCK:   -7.87 KCAL/MOL
REMARK 924 INTRA-LIGAND FREE ENERGY PREDICTED BY IDOCK:   -0.34 KCAL/MOL
REMARK 927      BINDING AFFINITY PREDICTED BY RF-SCORE:    0.00 PKD
ROOT
HETATM    1  C   UNL     1     -13.014  11.899  63.379  1.00  0.00    -0.115 C  
HETATM    2  O   UNL     1     -13.082  12.479  64.676  1.00  0.00    -0.845 OA 
ENDROOT
BRANCH   2   3
HETATM    3  C   UNL     1     -11.962  13.164  65.082  1.00  0.00    -0.394 A  
HETATM    4  C   UNL     1     -11.015  12.681  65.999  1.00  0.00    -0.313 A  
HETATM    5  C   UNL     1      -9.941  13.514  66.364  1.00  0.00    -0.295 A  
HETATM    6  C   UNL     1      -9.860  14.782  65.801  1.00  0.00    -0.342 A  
HETATM    7  C   UNL     1     -10.779  15.289  64.881  1.00  0.00    -0.423 A  
HETATM    8  N   UNL     1      -8.737  15.326  66.360  1.00  0.00    -0.424 NA 
HETATM    9  C   UNL     1     -11.846  14.450  64.546  1.00  0.00    -0.463 A  
HETATM   10  C   UNL     1      -8.183  14.409  67.214  1.00  0.00    -0.203 A  
HETATM   11  H   UNL     1      -8.373  16.260  66.172  1.00  0.00     0.000 HD 
HETATM   12  N   UNL     1      -8.893  13.296  67.245  1.00  0.00    -0.207 NA 
BRANCH  10  13
HETATM   13  S   UNL     1      -6.704  14.757  68.065  1.00  0.00    -0.160 S  
HETATM   14  O   UNL     1      -5.872  15.533  67.082  1.00  0.00    -0.320 OA 
BRANCH  13  15
HETATM   15  C   UNL     1      -7.292  15.819  69.409  1.00  0.00    -0.217 C  
BRANCH  15  16
HETATM   16  C   UNL     1      -7.879  17.117  68.872  1.00  0.00    -0.217 A  
HETATM   17  N   UNL     1      -9.217  17.072  68.637  1.00  0.00    -0.261 NA 
HETATM   18  C   UNL     1      -9.819  18.186  68.165  1.00  0.00    -0.343 A  
HETATM   19  C   UNL     1      -9.157  19.368  67.876  1.00  0.00    -0.377 A  
HETATM   20  C   UNL     1      -7.777  19.413  68.119  1.00  0.00    -0.307 A  
HETATM   21  C   UNL     1      -9.910  20.535  67.306  1.00  0.00    -0.581 C  
HETATM   22  C   UNL     1      -5.654  18.303  68.998  1.00  0.00    -0.202 C  
HETATM   23  C   UNL     1      -7.115  18.286  68.659  1.00  0.00    -0.285 A  
BRANCH  20  24
HETATM   24  O   UNL     1      -7.205  20.649  67.933  1.00  0.00    -0.280 OA 
HETATM   25  C   UNL     1      -6.486  20.867  66.724  1.00  0.00    -0.296 C  
ENDBRANCH  20  24
ENDBRANCH  15  16
ENDBRANCH  13  15
ENDBRANCH  10  13
ENDBRANCH   2   3
TORSDOF 5
ENDMDL
MODEL       30
REMARK 921   NORMALIZED FREE ENERGY PREDICTED BY IDOCK:   -5.85 KCAL/MOL
REMARK 922        TOTAL FREE ENERGY PREDICTED BY IDOCK:   -8.20 KCAL/MOL
REMARK 923 INTER-LIGAND FREE ENERGY PREDICTED BY IDOCK:   -7.92 KCAL/MOL
REMARK 924 INTRA-LIGAND FREE ENERGY PREDICTED BY IDOCK:   -0.28 KCAL/MOL
REMARK 927      BINDING AFFINITY PREDICTED BY RF-SCORE:    0.00 PKD
ROOT
HETATM    1  C   UNL     1     -12.205   6.726  71.604  1.00  0.00    -0.365 C  
HETATM    2  O   UNL     1     -11.508   7.552  70.679  1.00  0.00    -0.283 OA 
ENDROOT
BRANCH   2   3
HETATM    3  C   UNL     1     -11.824   8.888  70.718  1.00  0.00    -0.194 A  
HETATM    4  C   UNL     1     -11.295   9.863  69.858  1.00  0.00    -0.273 A  
HETATM    5  C   UNL     1     -11.668  11.207  70.047  1.00  0.00    -0.356 A  
HETATM    6  C   UNL     1     -12.547  11.515  71.078  1.00  0.00    -0.357 A  
HETATM    7  C   UNL     1     -13.097  10.570  71.945  1.00  0.00    -0.567 A  
HETATM    8  N   UNL     1     -12.692  12.872  71.000  1.00  0.00    -0.305 NA 
HETATM    9  C   UNL     1     -12.699   9.244  71.749  1.00  0.00    -0.462 A  
HETATM   10  C   UNL     1     -11.929  13.338  69.962  1.00  0.00    -0.329 A  
HETATM   11  H   UNL     1     -13.272  13.444  71.614  1.00  0.00     0.000 HD 
HETATM   12  N   UNL     1     -11.288  12.351  69.362  1.00  0.00    -0.246 NA 
BRANCH  10  13
HETATM   13  S   UNL     1     -11.916  15.028  69.546  1.00  0.00    -0.300 S  
HETATM   14  O   UNL     1     -12.650  15.704  70.672  1.00  0.00    -0.437 OA 
BRANCH  13  15
HETATM   15  C   UNL     1     -10.146  15.408  69.597  1.00  0.00    -0.269 C  
BRANCH  15  16
HETATM   16  C   UNL     1      -9.810  16.598  68.708  1.00  0.00    -0.252 A  
HETATM   17  N   UNL     1     -10.331  17.779  69.133  1.00  0.00    -0.281 NA 
HETATM   18  C   UNL     1     -10.074  18.887  68.404  1.00  0.00    -0.392 A  
HETATM   19  C   UNL     1      -9.336  18.898  67.232  1.00  0.00    -0.324 A  
HETATM   20  C   UNL     1      -8.800  17.678  66.795  1.00  0.00    -0.258 A  
HETATM   21  C   UNL     1      -9.150  20.176  66.466  1.00  0.00    -0.411 C  
HETATM   22  C   UNL     1      -8.396  15.185  67.165  1.00  0.00    -0.247 C  
HETATM   23  C   UNL     1      -9.001  16.502  67.553  1.00  0.00    -0.201 A  
BRANCH  20  24
HETATM   24  O   UNL     1      -7.974  17.777  65.700  1.00  0.00    -0.532 OA 
HETATM   25  C   UNL     1      -6.584  17.968  65.938  1.00  0.00    -0.284 C  
ENDBRANCH  20  24
ENDBRANCH  15  16
ENDBRANCH  13  15
ENDBRANCH  10  13
ENDBRANCH   2   3
TORSDOF 5
ENDMDL
MODEL       31
REMARK 921   NORMALIZED FREE ENERGY PREDICTED BY IDOCK:   -5.78 KCAL/MOL
REMARK 922        TOTAL FREE ENERGY PREDICTED BY IDOCK:   -8.11 KCAL/MOL
REMARK 923 INTER-LIGAND FREE ENERGY PREDICTED BY IDOCK:   -7.81 KCAL/MOL
REMARK 924 INTRA-LIGAND FREE ENERGY PREDICTED BY IDOCK:   -0.30 KCAL/MOL
REMARK 927      BINDING AFFINITY PREDICTED BY RF-SCORE:    0.00 PKD
ROOT
HETATM    1  C   UNL     1     -10.999  16.363  70.154  1.00  0.00    -0.285 C  
HETATM    2  O   UNL     1     -12.293  15.827  69.907  1.00  0.00    -0.338 OA 
ENDROOT
BRANCH   2   3
HETATM    3  C   UNL     1     -12.584  14.650  70.553  1.00  0.00    -0.350 A  
HETATM    4  C   UNL     1     -12.109  13.386  70.170  1.00  0.00    -0.415 A  
HETATM    5  C   UNL     1     -12.531  12.256  70.895  1.00  0.00    -0.276 A  
HETATM    6  C   UNL     1     -13.403  12.436  71.962  1.00  0.00    -0.407 A  
HETATM    7  C   UNL     1     -13.887  13.678  72.373  1.00  0.00    -0.691 A  
HETATM    8  N   UNL     1     -13.622  11.172  72.433  1.00  0.00    -0.394 NA 
HETATM    9  C   UNL     1     -13.467  14.785  71.629  1.00  0.00    -0.468 A  
HETATM   10  C   UNL     1     -12.904  10.288  71.671  1.00  0.00    -0.463 A  
HETATM   11  H   UNL     1     -14.222  10.927  73.221  1.00  0.00     0.000 HD 
HETATM   12  N   UNL     1     -12.232  10.913  70.722  1.00  0.00    -0.353 NA 
BRANCH  10  13
HETATM   13  S   UNL     1     -12.915   8.584  72.027  1.00  0.00    -0.378 S  
HETATM   14  O   UNL     1     -14.346   8.163  71.836  1.00  0.00    -0.425 OA 
BRANCH  13  15
HETATM   15  C   UNL     1     -11.857   7.924  70.713  1.00  0.00    -0.176 C  
BRANCH  15  16
HETATM   16  C   UNL     1     -11.267   6.576  71.102  1.00  0.00    -0.302 A  
HETATM   17  N   UNL     1     -11.348   6.290  72.428  1.00  0.00    -0.280 NA 
HETATM   18  C   UNL     1     -10.853   5.108  72.856  1.00  0.00    -0.268 A  
HETATM   19  C   UNL     1     -10.239   4.176  72.036  1.00  0.00    -0.200 A  
HETATM   20  C   UNL     1     -10.155   4.472  70.669  1.00  0.00    -0.162 A  
HETATM   21  C   UNL     1      -9.674   2.913  72.619  1.00  0.00    -0.191 C  
HETATM   22  C   UNL     1     -10.700   6.011  68.707  1.00  0.00    -0.375 C  
HETATM   23  C   UNL     1     -10.705   5.675  70.168  1.00  0.00    -0.376 A  
BRANCH  20  24
HETATM   24  O   UNL     1      -9.652   3.454  69.894  1.00  0.00    -0.183 OA 
HETATM   25  C   UNL     1      -8.308   3.574  69.441  1.00  0.00    -0.059 C  
ENDBRANCH  20  24
ENDBRANCH  15  16
ENDBRANCH  13  15
ENDBRANCH  10  13
ENDBRANCH   2   3
TORSDOF 5
ENDMDL
MODEL       32
REMARK 921   NORMALIZED FREE ENERGY PREDICTED BY IDOCK:   -5.78 KCAL/MOL
REMARK 922        TOTAL FREE ENERGY PREDICTED BY IDOCK:   -8.11 KCAL/MOL
REMARK 923 INTER-LIGAND FREE ENERGY PREDICTED BY IDOCK:   -8.04 KCAL/MOL
REMARK 924 INTRA-LIGAND FREE ENERGY PREDICTED BY IDOCK:   -0.06 KCAL/MOL
REMARK 927      BINDING AFFINITY PREDICTED BY RF-SCORE:    0.00 PKD
ROOT
HETATM    1  C   UNL     1     -11.867   9.504  71.225  1.00  0.00    -0.373 C  
HETATM    2  O   UNL     1     -12.412  10.790  71.493  1.00  0.00    -0.369 OA 
ENDROOT
BRANCH   2   3
HETATM    3  C   UNL     1     -12.316  11.702  70.470  1.00  0.00    -0.321 A  
HETATM    4  C   UNL     1     -12.024  11.383  69.135  1.00  0.00    -0.395 A  
HETATM    5  C   UNL     1     -11.905  12.428  68.200  1.00  0.00    -0.315 A  
HETATM    6  C   UNL     1     -12.083  13.736  68.636  1.00  0.00    -0.298 A  
HETATM    7  C   UNL     1     -12.382  14.086  69.953  1.00  0.00    -0.367 A  
HETATM    8  N   UNL     1     -11.893  14.492  67.514  1.00  0.00    -0.452 NA 
HETATM    9  C   UNL     1     -12.480  13.033  70.868  1.00  0.00    -0.396 A  
HETATM   10  C   UNL     1     -11.618  13.658  66.462  1.00  0.00    -0.366 A  
HETATM   11  H   UNL     1     -11.948  15.510  67.466  1.00  0.00     0.000 HD 
HETATM   12  N   UNL     1     -11.612  12.394  66.845  1.00  0.00    -0.381 NA 
BRANCH  10  13
HETATM   13  S   UNL     1     -11.368  14.289  64.859  1.00  0.00    -0.391 S  
HETATM   14  O   UNL     1     -12.624  13.936  64.110  1.00  0.00    -0.675 OA 
BRANCH  13  15
HETATM   15  C   UNL     1     -11.272  16.070  65.174  1.00  0.00    -0.189 C  
BRANCH  15  16
HETATM   16  C   UNL     1     -10.001  16.430  65.929  1.00  0.00    -0.332 A  
HETATM   17  N   UNL     1      -9.160  15.384  66.143  1.00  0.00    -0.321 NA 
HETATM   18  C   UNL     1      -8.004  15.620  66.802  1.00  0.00    -0.211 A  
HETATM   19  C   UNL     1      -7.629  16.856  67.302  1.00  0.00    -0.199 A  
HETATM   20  C   UNL     1      -8.498  17.934  67.081  1.00  0.00    -0.233 A  
HETATM   21  C   UNL     1      -6.345  17.004  68.067  1.00  0.00    -0.147 C  
HETATM   22  C   UNL     1     -10.626  18.875  66.034  1.00  0.00    -0.470 C  
HETATM   23  C   UNL     1      -9.695  17.744  66.353  1.00  0.00    -0.315 A  
BRANCH  20  24
HETATM   24  O   UNL     1      -8.010  19.153  67.489  1.00  0.00    -0.253 OA 
HETATM   25  C   UNL     1      -7.418  19.990  66.501  1.00  0.00    -0.276 C  
ENDBRANCH  20  24
ENDBRANCH  15  16
ENDBRANCH  13  15
ENDBRANCH  10  13
ENDBRANCH   2   3
TORSDOF 5
ENDMDL
MODEL       33
REMARK 921   NORMALIZED FREE ENERGY PREDICTED BY IDOCK:   -5.77 KCAL/MOL
REMARK 922        TOTAL FREE ENERGY PREDICTED BY IDOCK:   -8.09 KCAL/MOL
REMARK 923 INTER-LIGAND FREE ENERGY PREDICTED BY IDOCK:   -7.64 KCAL/MOL
REMARK 924 INTRA-LIGAND FREE ENERGY PREDICTED BY IDOCK:   -0.46 KCAL/MOL
REMARK 927      BINDING AFFINITY PREDICTED BY RF-SCORE:    0.00 PKD
ROOT
HETATM    1  C   UNL     1      -7.251  20.792  67.208  1.00  0.00    -0.360 C  
HETATM    2  O   UNL     1      -8.662  20.744  67.380  1.00  0.00    -0.296 OA 
ENDROOT
BRANCH   2   3
HETATM    3  C   UNL     1      -9.230  19.495  67.304  1.00  0.00    -0.315 A  
HETATM    4  C   UNL     1      -9.586  18.847  66.111  1.00  0.00    -0.266 A  
HETATM    5  C   UNL     1     -10.209  17.587  66.186  1.00  0.00    -0.335 A  
HETATM    6  C   UNL     1     -10.446  17.034  67.438  1.00  0.00    -0.322 A  
HETATM    7  C   UNL     1     -10.097  17.647  68.642  1.00  0.00    -0.377 A  
HETATM    8  N   UNL     1     -11.059  15.842  67.168  1.00  0.00    -0.217 NA 
HETATM    9  C   UNL     1      -9.494  18.905  68.544  1.00  0.00    -0.416 A  
HETATM   10  C   UNL     1     -11.174  15.704  65.810  1.00  0.00    -0.080 A  
HETATM   11  H   UNL     1     -11.379  15.168  67.863  1.00  0.00     0.000 HD 
HETATM   12  N   UNL     1     -10.671  16.751  65.181  1.00  0.00    -0.654 NA 
BRANCH  10  13
HETATM   13  S   UNL     1     -11.870  14.270  65.110  1.00  0.00    -0.402 S  
HETATM   14  O   UNL     1     -12.512  14.741  63.835  1.00  0.00    -0.811 OA 
BRANCH  13  15
HETATM   15  C   UNL     1     -10.398  13.271  64.772  1.00  0.00    -0.363 C  
BRANCH  15  16
HETATM   16  C   UNL     1     -10.087  12.334  65.931  1.00  0.00    -0.251 A  
HETATM   17  N   UNL     1     -10.142  12.920  67.157  1.00  0.00    -0.240 NA 
HETATM   18  C   UNL     1      -9.886  12.156  68.241  1.00  0.00    -0.212 A  
HETATM   19  C   UNL     1      -9.540  10.816  68.187  1.00  0.00    -0.167 A  
HETATM   20  C   UNL     1      -9.482  10.213  66.923  1.00  0.00    -0.169 A  
HETATM   21  C   UNL     1      -9.223  10.066  69.449  1.00  0.00    -0.229 C  
HETATM   22  C   UNL     1      -9.808  10.350  64.395  1.00  0.00    -0.395 C  
HETATM   23  C   UNL     1      -9.792  10.962  65.764  1.00  0.00    -0.286 A  
BRANCH  20  24
HETATM   24  O   UNL     1      -9.260   8.857  66.947  1.00  0.00    -0.138 OA 
HETATM   25  C   UNL     1     -10.397   8.002  66.908  1.00  0.00    -0.338 C  
ENDBRANCH  20  24
ENDBRANCH  15  16
ENDBRANCH  13  15
ENDBRANCH  10  13
ENDBRANCH   2   3
TORSDOF 5
ENDMDL
MODEL       34
REMARK 921   NORMALIZED FREE ENERGY PREDICTED BY IDOCK:   -5.77 KCAL/MOL
REMARK 922        TOTAL FREE ENERGY PREDICTED BY IDOCK:   -8.09 KCAL/MOL
REMARK 923 INTER-LIGAND FREE ENERGY PREDICTED BY IDOCK:   -7.82 KCAL/MOL
REMARK 924 INTRA-LIGAND FREE ENERGY PREDICTED BY IDOCK:   -0.27 KCAL/MOL
REMARK 927      BINDING AFFINITY PREDICTED BY RF-SCORE:    0.00 PKD
ROOT
HETATM    1  C   UNL     1     -10.359   8.017  66.831  1.00  0.00    -0.338 C  
HETATM    2  O   UNL     1     -10.766   9.227  67.458  1.00  0.00    -0.277 OA 
ENDROOT
BRANCH   2   3
HETATM    3  C   UNL     1     -10.603  10.369  66.711  1.00  0.00    -0.205 A  
HETATM    4  C   UNL     1     -10.900  11.667  67.155  1.00  0.00    -0.306 A  
HETATM    5  C   UNL     1     -10.734  12.742  66.262  1.00  0.00    -0.270 A  
HETATM    6  C   UNL     1     -10.282  12.476  64.976  1.00  0.00    -0.279 A  
HETATM    7  C   UNL     1      -9.970  11.200  64.506  1.00  0.00    -0.350 A  
HETATM    8  N   UNL     1     -10.242  13.702  64.374  1.00  0.00    -0.712 NA 
HETATM    9  C   UNL     1     -10.158  10.145  65.405  1.00  0.00    -0.342 A  
HETATM   10  C   UNL     1     -10.653  14.649  65.276  1.00  0.00    -0.391 A  
HETATM   11  H   UNL     1      -9.954  13.884  63.412  1.00  0.00     0.000 HD 
HETATM   12  N   UNL     1     -10.966  14.099  66.435  1.00  0.00    -0.307 NA 
BRANCH  10  13
HETATM   13  S   UNL     1     -10.679  16.338  64.853  1.00  0.00    -0.057 S  
HETATM   14  O   UNL     1     -11.859  16.483  63.933  1.00  0.00    -1.059 OA 
BRANCH  13  15
HETATM   15  C   UNL     1     -10.999  17.115  66.457  1.00  0.00     0.202 C  
BRANCH  15  16
HETATM   16  C   UNL     1      -9.881  18.075  66.840  1.00  0.00    -0.330 A  
HETATM   17  N   UNL     1      -9.764  19.154  66.023  1.00  0.00    -0.462 NA 
HETATM   18  C   UNL     1      -8.800  20.060  66.297  1.00  0.00    -0.292 A  
HETATM   19  C   UNL     1      -7.898  19.948  67.342  1.00  0.00    -0.321 A  
HETATM   20  C   UNL     1      -8.019  18.834  68.184  1.00  0.00    -0.290 A  
HETATM   21  C   UNL     1      -6.828  20.985  67.531  1.00  0.00    -0.409 C  
HETATM   22  C   UNL     1      -9.259  16.713  68.873  1.00  0.00    -0.244 C  
HETATM   23  C   UNL     1      -9.046  17.887  67.965  1.00  0.00    -0.267 A  
BRANCH  20  24
HETATM   24  O   UNL     1      -7.180  18.848  69.273  1.00  0.00    -0.275 OA 
HETATM   25  C   UNL     1      -6.278  17.757  69.424  1.00  0.00    -0.244 C  
ENDBRANCH  20  24
ENDBRANCH  15  16
ENDBRANCH  13  15
ENDBRANCH  10  13
ENDBRANCH   2   3
TORSDOF 5
ENDMDL
MODEL       35
REMARK 921   NORMALIZED FREE ENERGY PREDICTED BY IDOCK:   -5.72 KCAL/MOL
REMARK 922        TOTAL FREE ENERGY PREDICTED BY IDOCK:   -8.03 KCAL/MOL
REMARK 923 INTER-LIGAND FREE ENERGY PREDICTED BY IDOCK:   -7.77 KCAL/MOL
REMARK 924 INTRA-LIGAND FREE ENERGY PREDICTED BY IDOCK:   -0.26 KCAL/MOL
REMARK 927      BINDING AFFINITY PREDICTED BY RF-SCORE:    0.00 PKD
ROOT
HETATM    1  C   UNL     1      -7.864  20.489  67.224  1.00  0.00    -0.323 C  
HETATM    2  O   UNL     1      -9.179  20.051  67.541  1.00  0.00    -0.336 OA 
ENDROOT
BRANCH   2   3
HETATM    3  C   UNL     1      -9.427  18.714  67.340  1.00  0.00    -0.297 A  
HETATM    4  C   UNL     1     -10.478  17.995  67.930  1.00  0.00    -0.408 A  
HETATM    5  C   UNL     1     -10.580  16.615  67.674  1.00  0.00    -0.321 A  
HETATM    6  C   UNL     1      -9.637  16.019  66.847  1.00  0.00    -0.226 A  
HETATM    7  C   UNL     1      -8.585  16.706  66.238  1.00  0.00    -0.359 A  
HETATM    8  N   UNL     1     -10.003  14.702  66.814  1.00  0.00    -0.255 NA 
HETATM    9  C   UNL     1      -8.494  18.072  66.519  1.00  0.00    -0.285 A  
HETATM   10  C   UNL     1     -11.120  14.537  67.591  1.00  0.00    -0.304 A  
HETATM   11  H   UNL     1      -9.525  13.965  66.297  1.00  0.00     0.000 HD 
HETATM   12  N   UNL     1     -11.496  15.680  68.134  1.00  0.00    -0.347 NA 
BRANCH  10  13
HETATM   13  S   UNL     1     -11.888  12.982  67.736  1.00  0.00    -0.313 S  
HETATM   14  O   UNL     1     -12.120  12.536  66.319  1.00  0.00    -0.574 OA 
BRANCH  13  15
HETATM   15  C   UNL     1     -10.589  12.000  68.528  1.00  0.00    -0.231 C  
BRANCH  15  16
HETATM   16  C   UNL     1     -11.167  11.054  69.570  1.00  0.00    -0.279 A  
HETATM   17  N   UNL     1     -12.167  11.589  70.320  1.00  0.00    -0.339 NA 
HETATM   18  C   UNL     1     -12.740  10.812  71.265  1.00  0.00    -0.441 A  
HETATM   19  C   UNL     1     -12.358   9.511  71.544  1.00  0.00    -0.465 A  
HETATM   20  C   UNL     1     -11.326   8.960  70.771  1.00  0.00    -0.278 A  
HETATM   21  C   UNL     1     -13.025   8.748  72.652  1.00  0.00    -0.305 C  
HETATM   22  C   UNL     1      -9.669   9.157  68.840  1.00  0.00    -0.165 C  
HETATM   23  C   UNL     1     -10.731   9.719  69.737  1.00  0.00    -0.283 A  
BRANCH  20  24
HETATM   24  O   UNL     1     -11.082   7.629  71.010  1.00  0.00    -0.248 OA 
HETATM   25  C   UNL     1     -11.642   6.683  70.105  1.00  0.00    -0.386 C  
ENDBRANCH  20  24
ENDBRANCH  15  16
ENDBRANCH  13  15
ENDBRANCH  10  13
ENDBRANCH   2   3
TORSDOF 5
ENDMDL
MODEL       36
REMARK 921   NORMALIZED FREE ENERGY PREDICTED BY IDOCK:   -5.72 KCAL/MOL
REMARK 922        TOTAL FREE ENERGY PREDICTED BY IDOCK:   -8.03 KCAL/MOL
REMARK 923 INTER-LIGAND FREE ENERGY PREDICTED BY IDOCK:   -7.42 KCAL/MOL
REMARK 924 INTRA-LIGAND FREE ENERGY PREDICTED BY IDOCK:   -0.61 KCAL/MOL
REMARK 927      BINDING AFFINITY PREDICTED BY RF-SCORE:    0.00 PKD
ROOT
HETATM    1  C   UNL     1     -14.013   8.302  71.652  1.00  0.00    -0.396 C  
HETATM    2  O   UNL     1     -13.714   9.510  72.340  1.00  0.00    -0.438 OA 
ENDROOT
BRANCH   2   3
HETATM    3  C   UNL     1     -13.134  10.499  71.583  1.00  0.00    -0.446 A  
HETATM    4  C   UNL     1     -12.294  10.277  70.480  1.00  0.00    -0.371 A  
HETATM    5  C   UNL     1     -11.726  11.387  69.828  1.00  0.00    -0.344 A  
HETATM    6  C   UNL     1     -12.021  12.660  70.300  1.00  0.00    -0.284 A  
HETATM    7  C   UNL     1     -12.857  12.916  71.387  1.00  0.00    -0.377 A  
HETATM    8  N   UNL     1     -11.319  13.494  69.475  1.00  0.00    -0.417 NA 
HETATM    9  C   UNL     1     -13.397  11.798  72.030  1.00  0.00    -0.417 A  
HETATM   10  C   UNL     1     -10.643  12.737  68.554  1.00  0.00    -0.252 A  
HETATM   11  H   UNL     1     -11.301  14.512  69.535  1.00  0.00     0.000 HD 
HETATM   12  N   UNL     1     -10.864  11.449  68.743  1.00  0.00    -0.197 NA 
BRANCH  10  13
HETATM   13  S   UNL     1      -9.681  13.485  67.312  1.00  0.00    -0.242 S  
HETATM   14  O   UNL     1     -10.652  14.326  66.531  1.00  0.00    -0.281 OA 
BRANCH  13  15
HETATM   15  C   UNL     1      -8.556  14.517  68.287  1.00  0.00    -0.171 C  
BRANCH  15  16
HETATM   16  C   UNL     1      -8.947  15.987  68.208  1.00  0.00    -0.183 A  
HETATM   17  N   UNL     1     -10.003  16.329  68.992  1.00  0.00    -0.243 NA 
HETATM   18  C   UNL     1     -10.410  17.617  68.986  1.00  0.00    -0.272 A  
HETATM   19  C   UNL     1      -9.839  18.613  68.210  1.00  0.00    -0.410 A  
HETATM   20  C   UNL     1      -8.750  18.258  67.402  1.00  0.00    -0.256 A  
HETATM   21  C   UNL     1     -10.399  20.006  68.236  1.00  0.00    -0.494 C  
HETATM   22  C   UNL     1      -7.057  16.516  66.618  1.00  0.00    -0.220 C  
HETATM   23  C   UNL     1      -8.258  16.932  67.414  1.00  0.00    -0.199 A  
BRANCH  20  24
HETATM   24  O   UNL     1      -8.150  19.314  66.757  1.00  0.00    -0.255 OA 
HETATM   25  C   UNL     1      -7.077  19.970  67.423  1.00  0.00    -0.251 C  
ENDBRANCH  20  24
ENDBRANCH  15  16
ENDBRANCH  13  15
ENDBRANCH  10  13
ENDBRANCH   2   3
TORSDOF 5
ENDMDL
MODEL       37
REMARK 921   NORMALIZED FREE ENERGY PREDICTED BY IDOCK:   -5.70 KCAL/MOL
REMARK 922        TOTAL FREE ENERGY PREDICTED BY IDOCK:   -8.01 KCAL/MOL
REMARK 923 INTER-LIGAND FREE ENERGY PREDICTED BY IDOCK:   -7.60 KCAL/MOL
REMARK 924 INTRA-LIGAND FREE ENERGY PREDICTED BY IDOCK:   -0.41 KCAL/MOL
REMARK 927      BINDING AFFINITY PREDICTED BY RF-SCORE:    0.00 PKD
ROOT
HETATM    1  C   UNL     1     -10.550  19.564  65.939  1.00  0.00    -0.476 C  
HETATM    2  O   UNL     1      -9.824  18.352  65.771  1.00  0.00    -0.503 OA 
ENDROOT
BRANCH   2   3
HETATM    3  C   UNL     1     -10.338  17.255  66.417  1.00  0.00    -0.316 A  
HETATM    4  C   UNL     1     -10.603  17.185  67.794  1.00  0.00    -0.360 A  
HETATM    5  C   UNL     1     -11.081  15.975  68.331  1.00  0.00    -0.351 A  
HETATM    6  C   UNL     1     -11.274  14.897  67.476  1.00  0.00    -0.328 A  
HETATM    7  C   UNL     1     -11.029  14.935  66.103  1.00  0.00    -0.334 A  
HETATM    8  N   UNL     1     -11.721  13.897  68.294  1.00  0.00    -0.341 NA 
HETATM    9  C   UNL     1     -10.538  16.142  65.594  1.00  0.00    -0.377 A  
HETATM   10  C   UNL     1     -11.790  14.375  69.576  1.00  0.00    -0.329 A  
HETATM   11  H   UNL     1     -11.964  12.952  67.998  1.00  0.00     0.000 HD 
HETATM   12  N   UNL     1     -11.403  15.636  69.636  1.00  0.00    -0.302 NA 
BRANCH  10  13
HETATM   13  S   UNL     1     -12.371  13.373  70.876  1.00  0.00    -0.275 S  
HETATM   14  O   UNL     1     -13.615  14.063  71.363  1.00  0.00    -0.324 OA 
BRANCH  13  15
HETATM   15  C   UNL     1     -12.773  11.836  70.006  1.00  0.00     0.199 C  
BRANCH  15  16
HETATM   16  C   UNL     1     -12.213  10.624  70.736  1.00  0.00    -0.375 A  
HETATM   17  N   UNL     1     -13.024  10.130  71.708  1.00  0.00    -0.434 NA 
HETATM   18  C   UNL     1     -12.604   9.049  72.401  1.00  0.00    -0.333 A  
HETATM   19  C   UNL     1     -11.384   8.423  72.207  1.00  0.00    -0.448 A  
HETATM   20  C   UNL     1     -10.547   8.934  71.205  1.00  0.00    -0.265 A  
HETATM   21  C   UNL     1     -10.987   7.257  73.067  1.00  0.00    -0.388 C  
HETATM   22  C   UNL     1     -10.140  10.577  69.295  1.00  0.00    -0.244 C  
HETATM   23  C   UNL     1     -10.968  10.033  70.421  1.00  0.00    -0.384 A  
BRANCH  20  24
HETATM   24  O   UNL     1      -9.412   8.193  70.977  1.00  0.00    -0.150 OA 
HETATM   25  C   UNL     1      -8.197   8.654  71.560  1.00  0.00    -0.159 C  
ENDBRANCH  20  24
ENDBRANCH  15  16
ENDBRANCH  13  15
ENDBRANCH  10  13
ENDBRANCH   2   3
TORSDOF 5
ENDMDL
MODEL       38
REMARK 921   NORMALIZED FREE ENERGY PREDICTED BY IDOCK:   -5.67 KCAL/MOL
REMARK 922        TOTAL FREE ENERGY PREDICTED BY IDOCK:   -7.97 KCAL/MOL
REMARK 923 INTER-LIGAND FREE ENERGY PREDICTED BY IDOCK:   -7.70 KCAL/MOL
REMARK 924 INTRA-LIGAND FREE ENERGY PREDICTED BY IDOCK:   -0.26 KCAL/MOL
REMARK 927      BINDING AFFINITY PREDICTED BY RF-SCORE:    0.00 PKD
ROOT
HETATM    1  C   UNL     1      -8.876  19.712  66.350  1.00  0.00    -0.376 C  
HETATM    2  O   UNL     1     -10.105  19.071  66.031  1.00  0.00    -0.424 OA 
ENDROOT
BRANCH   2   3
HETATM    3  C   UNL     1     -10.316  17.854  66.633  1.00  0.00    -0.361 A  
HETATM    4  C   UNL     1     -10.404  16.628  65.955  1.00  0.00    -0.352 A  
HETATM    5  C   UNL     1     -10.676  15.463  66.697  1.00  0.00    -0.309 A  
HETATM    6  C   UNL     1     -10.845  15.573  68.072  1.00  0.00    -0.300 A  
HETATM    7  C   UNL     1     -10.756  16.774  68.777  1.00  0.00    -0.341 A  
HETATM    8  N   UNL     1     -11.102  14.294  68.481  1.00  0.00    -0.247 NA 
HETATM    9  C   UNL     1     -10.501  17.920  68.018  1.00  0.00    -0.390 A  
HETATM   10  C   UNL     1     -11.080  13.469  67.387  1.00  0.00    -0.281 A  
HETATM   11  H   UNL     1     -11.280  14.002  69.442  1.00  0.00     0.000 HD 
HETATM   12  N   UNL     1     -10.829  14.148  66.283  1.00  0.00    -0.297 NA 
BRANCH  10  13
HETATM   13  S   UNL     1     -11.323  11.753  67.553  1.00  0.00    -0.310 S  
HETATM   14  O   UNL     1     -10.781  11.166  66.279  1.00  0.00    -0.266 OA 
BRANCH  13  15
HETATM   15  C   UNL     1     -10.252  11.364  68.961  1.00  0.00    -0.117 C  
BRANCH  15  16
HETATM   16  C   UNL     1     -10.718  10.106  69.680  1.00  0.00    -0.264 A  
HETATM   17  N   UNL     1     -10.019   8.985  69.359  1.00  0.00    -0.186 NA 
HETATM   18  C   UNL     1     -10.365   7.825  69.958  1.00  0.00    -0.221 A  
HETATM   19  C   UNL     1     -11.408   7.692  70.861  1.00  0.00    -0.291 A  
HETATM   20  C   UNL     1     -12.129   8.849  71.190  1.00  0.00    -0.277 A  
HETATM   21  C   UNL     1     -11.746   6.346  71.433  1.00  0.00    -0.364 C  
HETATM   22  C   UNL     1     -12.465  11.371  70.992  1.00  0.00    -0.486 C  
HETATM   23  C   UNL     1     -11.769  10.094  70.625  1.00  0.00    -0.425 A  
BRANCH  20  24
HETATM   24  O   UNL     1     -13.064   8.675  72.183  1.00  0.00    -0.346 OA 
HETATM   25  C   UNL     1     -14.408   8.430  71.786  1.00  0.00    -0.472 C  
ENDBRANCH  20  24
ENDBRANCH  15  16
ENDBRANCH  13  15
ENDBRANCH  10  13
ENDBRANCH   2   3
TORSDOF 5
ENDMDL
MODEL       39
REMARK 921   NORMALIZED FREE ENERGY PREDICTED BY IDOCK:   -5.66 KCAL/MOL
REMARK 922        TOTAL FREE ENERGY PREDICTED BY IDOCK:   -7.96 KCAL/MOL
REMARK 923 INTER-LIGAND FREE ENERGY PREDICTED BY IDOCK:   -7.63 KCAL/MOL
REMARK 924 INTRA-LIGAND FREE ENERGY PREDICTED BY IDOCK:   -0.33 KCAL/MOL
REMARK 927      BINDING AFFINITY PREDICTED BY RF-SCORE:    0.00 PKD
ROOT
HETATM    1  C   UNL     1     -10.293   4.869  74.536  1.00  0.00    -0.285 C  
HETATM    2  O   UNL     1     -10.194   6.288  74.514  1.00  0.00    -0.330 OA 
ENDROOT
BRANCH   2   3
HETATM    3  C   UNL     1     -10.334   6.876  73.281  1.00  0.00    -0.287 A  
HETATM    4  C   UNL     1      -9.541   7.929  72.799  1.00  0.00    -0.311 A  
HETATM    5  C   UNL     1      -9.832   8.471  71.533  1.00  0.00    -0.239 A  
HETATM    6  C   UNL     1     -10.892   7.941  70.809  1.00  0.00    -0.232 A  
HETATM    7  C   UNL     1     -11.695   6.890  71.255  1.00  0.00    -0.371 A  
HETATM    8  N   UNL     1     -10.915   8.679  69.659  1.00  0.00    -0.398 NA 
HETATM    9  C   UNL     1     -11.398   6.378  72.521  1.00  0.00    -0.299 A  
HETATM   10  C   UNL     1      -9.904   9.603  69.709  1.00  0.00    -0.229 A  
HETATM   11  H   UNL     1     -11.575   8.562  68.890  1.00  0.00     0.000 HD 
HETATM   12  N   UNL     1      -9.227   9.508  70.839  1.00  0.00    -0.199 NA 
BRANCH  10  13
HETATM   13  S   UNL     1      -9.613  10.685  68.377  1.00  0.00    -0.175 S  
HETATM   14  O   UNL     1      -9.108   9.800  67.270  1.00  0.00    -0.134 OA 
BRANCH  13  15
HETATM   15  C   UNL     1     -11.281  11.291  68.021  1.00  0.00    -0.287 C  
BRANCH  15  16
HETATM   16  C   UNL     1     -11.841  12.090  69.190  1.00  0.00    -0.311 A  
HETATM   17  N   UNL     1     -12.224  11.334  70.253  1.00  0.00    -0.337 NA 
HETATM   18  C   UNL     1     -12.726  11.966  71.336  1.00  0.00    -0.290 A  
HETATM   19  C   UNL     1     -12.905  13.337  71.427  1.00  0.00    -0.411 A  
HETATM   20  C   UNL     1     -12.510  14.115  70.330  1.00  0.00    -0.357 A  
HETATM   21  C   UNL     1     -13.521  13.938  72.658  1.00  0.00    -0.652 C  
HETATM   22  C   UNL     1     -11.436  14.292  68.022  1.00  0.00    -0.342 C  
HETATM   23  C   UNL     1     -11.933  13.500  69.195  1.00  0.00    -0.378 A  
BRANCH  20  24
HETATM   24  O   UNL     1     -12.595  15.472  70.533  1.00  0.00    -0.418 OA 
HETATM   25  C   UNL     1     -11.403  16.159  70.896  1.00  0.00    -0.359 C  
ENDBRANCH  20  24
ENDBRANCH  15  16
ENDBRANCH  13  15
ENDBRANCH  10  13
ENDBRANCH   2   3
TORSDOF 5
ENDMDL
MODEL       40
REMARK 921   NORMALIZED FREE ENERGY PREDICTED BY IDOCK:   -5.66 KCAL/MOL
REMARK 922        TOTAL FREE ENERGY PREDICTED BY IDOCK:   -7.96 KCAL/MOL
REMARK 923 INTER-LIGAND FREE ENERGY PREDICTED BY IDOCK:   -7.61 KCAL/MOL
REMARK 924 INTRA-LIGAND FREE ENERGY PREDICTED BY IDOCK:   -0.35 KCAL/MOL
REMARK 927      BINDING AFFINITY PREDICTED BY RF-SCORE:    0.00 PKD
ROOT
HETATM    1  C   UNL     1     -10.841  16.326  69.799  1.00  0.00    -0.356 C  
HETATM    2  O   UNL     1     -12.074  15.702  69.464  1.00  0.00    -0.360 OA 
ENDROOT
BRANCH   2   3
HETATM    3  C   UNL     1     -12.415  14.609  70.223  1.00  0.00    -0.346 A  
HETATM    4  C   UNL     1     -12.015  13.290  69.956  1.00  0.00    -0.399 A  
HETATM    5  C   UNL     1     -12.483  12.259  70.792  1.00  0.00    -0.265 A  
HETATM    6  C   UNL     1     -13.323  12.587  71.849  1.00  0.00    -0.368 A  
HETATM    7  C   UNL     1     -13.733  13.887  72.146  1.00  0.00    -0.619 A  
HETATM    8  N   UNL     1     -13.601  11.387  72.441  1.00  0.00    -0.398 NA 
HETATM    9  C   UNL     1     -13.269  14.893  71.294  1.00  0.00    -0.476 A  
HETATM   10  C   UNL     1     -12.945  10.396  71.758  1.00  0.00    -0.475 A  
HETATM   11  H   UNL     1     -14.197  11.251  73.258  1.00  0.00     0.000 HD 
HETATM   12  N   UNL     1     -12.259  10.891  70.744  1.00  0.00    -0.353 NA 
BRANCH  10  13
HETATM   13  S   UNL     1     -13.040   8.737  72.275  1.00  0.00    -0.398 S  
HETATM   14  O   UNL     1     -13.649   8.008  71.109  1.00  0.00    -0.173 OA 
BRANCH  13  15
HETATM   15  C   UNL     1     -11.291   8.311  72.473  1.00  0.00    -0.385 C  
BRANCH  15  16
HETATM   16  C   UNL     1     -10.849   7.290  71.434  1.00  0.00    -0.230 A  
HETATM   17  N   UNL     1     -10.597   7.814  70.205  1.00  0.00    -0.226 NA 
HETATM   18  C   UNL     1     -10.192   6.976  69.226  1.00  0.00    -0.186 A  
HETATM   19  C   UNL     1     -10.045   5.607  69.381  1.00  0.00    -0.290 A  
HETATM   20  C   UNL     1     -10.306   5.068  70.648  1.00  0.00    -0.208 A  
HETATM   21  C   UNL     1      -9.639   4.754  68.214  1.00  0.00    -0.204 C  
HETATM   22  C   UNL     1     -10.912   5.398  73.105  1.00  0.00    -0.353 C  
HETATM   23  C   UNL     1     -10.683   5.915  71.716  1.00  0.00    -0.299 A  
BRANCH  20  24
HETATM   24  O   UNL     1     -10.019   3.729  70.769  1.00  0.00    -0.161 OA 
HETATM   25  C   UNL     1      -8.764   3.374  71.340  1.00  0.00    -0.078 C  
ENDBRANCH  20  24
ENDBRANCH  15  16
ENDBRANCH  13  15
ENDBRANCH  10  13
ENDBRANCH   2   3
TORSDOF 5
ENDMDL
MODEL       41
REMARK 921   NORMALIZED FREE ENERGY PREDICTED BY IDOCK:   -5.64 KCAL/MOL
REMARK 922        TOTAL FREE ENERGY PREDICTED BY IDOCK:   -7.93 KCAL/MOL
REMARK 923 INTER-LIGAND FREE ENERGY PREDICTED BY IDOCK:   -7.54 KCAL/MOL
REMARK 924 INTRA-LIGAND FREE ENERGY PREDICTED BY IDOCK:   -0.39 KCAL/MOL
REMARK 927      BINDING AFFINITY PREDICTED BY RF-SCORE:    0.00 PKD
ROOT
HETATM    1  C   UNL     1     -11.401  10.359  70.087  1.00  0.00    -0.323 C  
HETATM    2  O   UNL     1     -11.513  10.123  68.689  1.00  0.00    -0.167 OA 
ENDROOT
BRANCH   2   3
HETATM    3  C   UNL     1     -11.097  11.149  67.876  1.00  0.00    -0.273 A  
HETATM    4  C   UNL     1     -11.320  12.512  68.127  1.00  0.00    -0.343 A  
HETATM    5  C   UNL     1     -10.883  13.455  67.178  1.00  0.00    -0.276 A  
HETATM    6  C   UNL     1     -10.247  12.999  66.030  1.00  0.00    -0.287 A  
HETATM    7  C   UNL     1     -10.004  11.653  65.753  1.00  0.00    -0.270 A  
HETATM    8  N   UNL     1      -9.967  14.137  65.327  1.00  0.00    -0.552 NA 
HETATM    9  C   UNL     1     -10.461  10.733  66.702  1.00  0.00    -0.302 A  
HETATM   10  C   UNL     1     -10.420  15.217  66.040  1.00  0.00    -0.317 A  
HETATM   11  H   UNL     1      -9.499  14.177  64.422  1.00  0.00     0.000 HD 
HETATM   12  N   UNL     1     -10.987  14.838  67.170  1.00  0.00    -0.312 NA 
BRANCH  10  13
HETATM   13  S   UNL     1     -10.183  16.840  65.455  1.00  0.00    -0.073 S  
HETATM   14  O   UNL     1     -11.331  17.077  64.513  1.00  0.00    -1.035 OA 
BRANCH  13  15
HETATM   15  C   UNL     1     -10.369  17.810  66.973  1.00  0.00    -0.344 C  
BRANCH  15  16
HETATM   16  C   UNL     1      -9.115  18.622  67.267  1.00  0.00    -0.277 A  
HETATM   17  N   UNL     1      -9.159  19.905  66.820  1.00  0.00    -0.348 NA 
HETATM   18  C   UNL     1      -8.088  20.696  67.047  1.00  0.00    -0.212 A  
HETATM   19  C   UNL     1      -6.930  20.280  67.682  1.00  0.00    -0.317 A  
HETATM   20  C   UNL     1      -6.886  18.956  68.143  1.00  0.00    -0.241 A  
HETATM   21  C   UNL     1      -5.773  21.224  67.840  1.00  0.00    -0.394 C  
HETATM   22  C   UNL     1      -8.031  16.704  68.502  1.00  0.00    -0.224 C  
HETATM   23  C   UNL     1      -8.003  18.107  67.972  1.00  0.00    -0.269 A  
BRANCH  20  24
HETATM   24  O   UNL     1      -5.764  18.644  68.875  1.00  0.00    -0.199 OA 
HETATM   25  C   UNL     1      -5.847  18.765  70.291  1.00  0.00    -0.184 C  
ENDBRANCH  20  24
ENDBRANCH  15  16
ENDBRANCH  13  15
ENDBRANCH  10  13
ENDBRANCH   2   3
TORSDOF 5
ENDMDL
MODEL       42
REMARK 921   NORMALIZED FREE ENERGY PREDICTED BY IDOCK:   -5.61 KCAL/MOL
REMARK 922        TOTAL FREE ENERGY PREDICTED BY IDOCK:   -7.89 KCAL/MOL
REMARK 923 INTER-LIGAND FREE ENERGY PREDICTED BY IDOCK:   -7.33 KCAL/MOL
REMARK 924 INTRA-LIGAND FREE ENERGY PREDICTED BY IDOCK:   -0.56 KCAL/MOL
REMARK 927      BINDING AFFINITY PREDICTED BY RF-SCORE:    0.00 PKD
ROOT
HETATM    1  C   UNL     1     -11.210  16.016  68.452  1.00  0.00    -0.364 C  
HETATM    2  O   UNL     1     -12.070  15.593  69.503  1.00  0.00    -0.360 OA 
ENDROOT
BRANCH   2   3
HETATM    3  C   UNL     1     -12.184  14.234  69.669  1.00  0.00    -0.323 A  
HETATM    4  C   UNL     1     -12.652  13.605  70.834  1.00  0.00    -0.421 A  
HETATM    5  C   UNL     1     -12.665  12.198  70.884  1.00  0.00    -0.189 A  
HETATM    6  C   UNL     1     -12.215  11.488  69.778  1.00  0.00    -0.244 A  
HETATM    7  C   UNL     1     -11.751  12.082  68.603  1.00  0.00    -0.380 A  
HETATM    8  N   UNL     1     -12.343  10.178  70.146  1.00  0.00    -0.504 NA 
HETATM    9  C   UNL     1     -11.732  13.480  68.582  1.00  0.00    -0.389 A  
HETATM   10  C   UNL     1     -12.852  10.126  71.418  1.00  0.00    -0.428 A  
HETATM   11  H   UNL     1     -12.100   9.372  69.570  1.00  0.00     0.000 HD 
HETATM   12  N   UNL     1     -13.055  11.338  71.899  1.00  0.00    -0.477 NA 
BRANCH  10  13
HETATM   13  S   UNL     1     -13.189   8.601  72.186  1.00  0.00    -0.383 S  
HETATM   14  O   UNL     1     -13.807   7.757  71.105  1.00  0.00    -0.238 OA 
BRANCH  13  15
HETATM   15  C   UNL     1     -11.525   8.019  72.600  1.00  0.00    -0.402 C  
BRANCH  15  16
HETATM   16  C   UNL     1     -11.010   7.030  71.564  1.00  0.00    -0.234 A  
HETATM   17  N   UNL     1     -10.746   7.578  70.349  1.00  0.00    -0.234 NA 
HETATM   18  C   UNL     1     -10.278   6.770  69.373  1.00  0.00    -0.187 A  
HETATM   19  C   UNL     1     -10.076   5.407  69.518  1.00  0.00    -0.310 A  
HETATM   20  C   UNL     1     -10.350   4.843  70.772  1.00  0.00    -0.158 A  
HETATM   21  C   UNL     1      -9.601   4.585  68.354  1.00  0.00    -0.207 C  
HETATM   22  C   UNL     1     -11.039   5.118  73.213  1.00  0.00    -0.392 C  
HETATM   23  C   UNL     1     -10.793   5.660  71.837  1.00  0.00    -0.302 A  
BRANCH  20  24
HETATM   24  O   UNL     1     -10.008   3.516  70.887  1.00  0.00    -0.131 OA 
HETATM   25  C   UNL     1      -8.735   3.210  71.444  1.00  0.00    -0.074 C  
ENDBRANCH  20  24
ENDBRANCH  15  16
ENDBRANCH  13  15
ENDBRANCH  10  13
ENDBRANCH   2   3
TORSDOF 5
ENDMDL
MODEL       43
REMARK 921   NORMALIZED FREE ENERGY PREDICTED BY IDOCK:   -5.60 KCAL/MOL
REMARK 922        TOTAL FREE ENERGY PREDICTED BY IDOCK:   -7.88 KCAL/MOL
REMARK 923 INTER-LIGAND FREE ENERGY PREDICTED BY IDOCK:   -7.40 KCAL/MOL
REMARK 924 INTRA-LIGAND FREE ENERGY PREDICTED BY IDOCK:   -0.49 KCAL/MOL
REMARK 927      BINDING AFFINITY PREDICTED BY RF-SCORE:    0.00 PKD
ROOT
HETATM    1  C   UNL     1     -12.158  11.203  69.408  1.00  0.00    -0.326 C  
HETATM    2  O   UNL     1     -12.111  11.290  67.989  1.00  0.00    -0.638 OA 
ENDROOT
BRANCH   2   3
HETATM    3  C   UNL     1     -11.726  12.506  67.479  1.00  0.00    -0.374 A  
HETATM    4  C   UNL     1     -11.512  13.665  68.242  1.00  0.00    -0.348 A  
HETATM    5  C   UNL     1     -11.170  14.858  67.579  1.00  0.00    -0.328 A  
HETATM    6  C   UNL     1     -11.056  14.842  66.194  1.00  0.00    -0.339 A  
HETATM    7  C   UNL     1     -11.253  13.707  65.407  1.00  0.00    -0.306 A  
HETATM    8  N   UNL     1     -10.733  16.130  65.869  1.00  0.00    -0.292 NA 
HETATM    9  C   UNL     1     -11.608  12.537  66.086  1.00  0.00    -0.448 A  
HETATM   10  C   UNL     1     -10.659  16.869  67.021  1.00  0.00    -0.230 A  
HETATM   11  H   UNL     1     -10.574  16.483  64.926  1.00  0.00     0.000 HD 
HETATM   12  N   UNL     1     -10.924  16.127  68.081  1.00  0.00    -0.334 NA 
BRANCH  10  13
HETATM   13  S   UNL     1     -10.218  18.553  66.978  1.00  0.00    -0.402 S  
HETATM   14  O   UNL     1     -10.340  19.015  68.404  1.00  0.00    -0.374 OA 
BRANCH  13  15
HETATM   15  C   UNL     1      -8.484  18.468  66.463  1.00  0.00    -0.277 C  
BRANCH  15  16
HETATM   16  C   UNL     1      -7.571  18.160  67.641  1.00  0.00    -0.219 A  
HETATM   17  N   UNL     1      -7.462  16.837  67.935  1.00  0.00    -0.157 NA 
HETATM   18  C   UNL     1      -6.665  16.477  68.964  1.00  0.00    -0.200 A  
HETATM   19  C   UNL     1      -5.969  17.370  69.763  1.00  0.00    -0.245 A  
HETATM   20  C   UNL     1      -6.083  18.733  69.459  1.00  0.00    -0.268 A  
HETATM   21  C   UNL     1      -5.149  16.870  70.918  1.00  0.00    -0.209 C  
HETATM   22  C   UNL     1      -6.970  20.593  67.953  1.00  0.00    -0.312 C  
HETATM   23  C   UNL     1      -6.867  19.153  68.360  1.00  0.00    -0.296 A  
BRANCH  20  24
HETATM   24  O   UNL     1      -5.270  19.554  70.205  1.00  0.00    -0.190 OA 
HETATM   25  C   UNL     1      -5.880  20.322  71.238  1.00  0.00    -0.284 C  
ENDBRANCH  20  24
ENDBRANCH  15  16
ENDBRANCH  13  15
ENDBRANCH  10  13
ENDBRANCH   2   3
TORSDOF 5
ENDMDL
MODEL       44
REMARK 921   NORMALIZED FREE ENERGY PREDICTED BY IDOCK:   -5.60 KCAL/MOL
REMARK 922        TOTAL FREE ENERGY PREDICTED BY IDOCK:   -7.88 KCAL/MOL
REMARK 923 INTER-LIGAND FREE ENERGY PREDICTED BY IDOCK:   -7.44 KCAL/MOL
REMARK 924 INTRA-LIGAND FREE ENERGY PREDICTED BY IDOCK:   -0.44 KCAL/MOL
REMARK 927      BINDING AFFINITY PREDICTED BY RF-SCORE:    0.00 PKD
ROOT
HETATM    1  C   UNL     1     -10.221   4.030  73.507  1.00  0.00    -0.146 C  
HETATM    2  O   UNL     1     -10.759   5.308  73.823  1.00  0.00    -0.268 OA 
ENDROOT
BRANCH   2   3
HETATM    3  C   UNL     1     -10.862   6.188  72.773  1.00  0.00    -0.250 A  
HETATM    4  C   UNL     1     -11.144   7.557  72.898  1.00  0.00    -0.426 A  
HETATM    5  C   UNL     1     -11.273   8.331  71.729  1.00  0.00    -0.283 A  
HETATM    6  C   UNL     1     -11.115   7.708  70.497  1.00  0.00    -0.255 A  
HETATM    7  C   UNL     1     -10.826   6.352  70.338  1.00  0.00    -0.343 A  
HETATM    8  N   UNL     1     -11.310   8.710  69.588  1.00  0.00    -0.434 NA 
HETATM    9  C   UNL     1     -10.719   5.600  71.512  1.00  0.00    -0.306 A  
HETATM   10  C   UNL     1     -11.569   9.874  70.264  1.00  0.00    -0.250 A  
HETATM   11  H   UNL     1     -11.269   8.608  68.574  1.00  0.00     0.000 HD 
HETATM   12  N   UNL     1     -11.559   9.678  71.569  1.00  0.00    -0.387 NA 
BRANCH  10  13
HETATM   13  S   UNL     1     -11.820  11.369  69.409  1.00  0.00    -0.360 S  
HETATM   14  O   UNL     1     -12.195  12.360  70.476  1.00  0.00    -0.361 OA 
BRANCH  13  15
HETATM   15  C   UNL     1     -10.164  11.705  68.757  1.00  0.00    -0.177 C  
BRANCH  15  16
HETATM   16  C   UNL     1     -10.106  11.482  67.252  1.00  0.00    -0.199 A  
HETATM   17  N   UNL     1      -9.670  10.249  66.884  1.00  0.00    -0.179 NA 
HETATM   18  C   UNL     1      -9.595   9.966  65.565  1.00  0.00    -0.277 A  
HETATM   19  C   UNL     1      -9.908  10.862  64.555  1.00  0.00    -0.356 A  
HETATM   20  C   UNL     1     -10.358  12.134  64.936  1.00  0.00    -0.289 A  
HETATM   21  C   UNL     1      -9.742  10.467  63.116  1.00  0.00    -0.351 C  
HETATM   22  C   UNL     1     -11.036  13.779  66.766  1.00  0.00    -0.307 C  
HETATM   23  C   UNL     1     -10.499  12.457  66.306  1.00  0.00    -0.271 A  
BRANCH  20  24
HETATM   24  O   UNL     1     -10.771  12.929  63.894  1.00  0.00    -0.406 OA 
HETATM   25  C   UNL     1     -12.142  12.860  63.517  1.00  0.00    -0.555 C  
ENDBRANCH  20  24
ENDBRANCH  15  16
ENDBRANCH  13  15
ENDBRANCH  10  13
ENDBRANCH   2   3
TORSDOF 5
ENDMDL
MODEL       45
REMARK 921   NORMALIZED FREE ENERGY PREDICTED BY IDOCK:   -5.59 KCAL/MOL
REMARK 922        TOTAL FREE ENERGY PREDICTED BY IDOCK:   -7.86 KCAL/MOL
REMARK 923 INTER-LIGAND FREE ENERGY PREDICTED BY IDOCK:   -7.43 KCAL/MOL
REMARK 924 INTRA-LIGAND FREE ENERGY PREDICTED BY IDOCK:   -0.43 KCAL/MOL
REMARK 927      BINDING AFFINITY PREDICTED BY RF-SCORE:    0.00 PKD
ROOT
HETATM    1  C   UNL     1     -11.254   6.500  72.587  1.00  0.00    -0.249 C  
HETATM    2  O   UNL     1     -11.387   7.875  72.925  1.00  0.00    -0.406 OA 
ENDROOT
BRANCH   2   3
HETATM    3  C   UNL     1     -11.110   8.766  71.917  1.00  0.00    -0.364 A  
HETATM    4  C   UNL     1     -11.992   9.757  71.456  1.00  0.00    -0.488 A  
HETATM    5  C   UNL     1     -11.594  10.568  70.377  1.00  0.00    -0.342 A  
HETATM    6  C   UNL     1     -10.342  10.357  69.811  1.00  0.00    -0.208 A  
HETATM    7  C   UNL     1      -9.439   9.388  70.249  1.00  0.00    -0.294 A  
HETATM    8  N   UNL     1     -10.271  11.279  68.804  1.00  0.00    -0.203 NA 
HETATM    9  C   UNL     1      -9.863   8.583  71.311  1.00  0.00    -0.279 A  
HETATM   10  C   UNL     1     -11.435  12.002  68.785  1.00  0.00    -0.300 A  
HETATM   11  H   UNL     1      -9.481  11.407  68.171  1.00  0.00     0.000 HD 
HETATM   12  N   UNL     1     -12.265  11.592  69.727  1.00  0.00    -0.253 NA 
BRANCH  10  13
HETATM   13  S   UNL     1     -11.664  13.302  67.650  1.00  0.00    -0.366 S  
HETATM   14  O   UNL     1     -12.098  14.470  68.491  1.00  0.00    -0.304 OA 
BRANCH  13  15
HETATM   15  C   UNL     1      -9.984  13.539  67.016  1.00  0.00    -0.247 C  
BRANCH  15  16
HETATM   16  C   UNL     1      -9.480  14.947  67.300  1.00  0.00    -0.213 A  
HETATM   17  N   UNL     1      -8.811  15.077  68.476  1.00  0.00    -0.173 NA 
HETATM   18  C   UNL     1      -8.324  16.294  68.801  1.00  0.00    -0.235 A  
HETATM   19  C   UNL     1      -8.484  17.431  68.027  1.00  0.00    -0.235 A  
HETATM   20  C   UNL     1      -9.174  17.296  66.814  1.00  0.00    -0.255 A  
HETATM   21  C   UNL     1      -7.948  18.751  68.503  1.00  0.00    -0.377 C  
HETATM   22  C   UNL     1     -10.345  15.820  65.094  1.00  0.00    -0.331 C  
HETATM   23  C   UNL     1      -9.658  16.031  66.410  1.00  0.00    -0.309 A  
BRANCH  20  24
HETATM   24  O   UNL     1      -9.187  18.430  66.036  1.00  0.00    -0.505 OA 
HETATM   25  C   UNL     1     -10.336  19.267  66.112  1.00  0.00    -0.494 C  
ENDBRANCH  20  24
ENDBRANCH  15  16
ENDBRANCH  13  15
ENDBRANCH  10  13
ENDBRANCH   2   3
TORSDOF 5
ENDMDL
MODEL       46
REMARK 921   NORMALIZED FREE ENERGY PREDICTED BY IDOCK:   -5.58 KCAL/MOL
REMARK 922        TOTAL FREE ENERGY PREDICTED BY IDOCK:   -7.85 KCAL/MOL
REMARK 923 INTER-LIGAND FREE ENERGY PREDICTED BY IDOCK:   -7.70 KCAL/MOL
REMARK 924 INTRA-LIGAND FREE ENERGY PREDICTED BY IDOCK:   -0.15 KCAL/MOL
REMARK 927      BINDING AFFINITY PREDICTED BY RF-SCORE:    0.00 PKD
ROOT
HETATM    1  C   UNL     1     -11.600   6.032  71.731  1.00  0.00    -0.226 C  
HETATM    2  O   UNL     1     -11.192   7.085  70.867  1.00  0.00    -0.258 OA 
ENDROOT
BRANCH   2   3
HETATM    3  C   UNL     1     -11.775   8.307  71.100  1.00  0.00    -0.280 A  
HETATM    4  C   UNL     1     -11.397   9.508  70.480  1.00  0.00    -0.343 A  
HETATM    5  C   UNL     1     -12.048  10.698  70.855  1.00  0.00    -0.385 A  
HETATM    6  C   UNL     1     -13.042  10.636  71.824  1.00  0.00    -0.466 A  
HETATM    7  C   UNL     1     -13.447   9.459  72.454  1.00  0.00    -0.506 A  
HETATM    8  N   UNL     1     -13.454  11.932  71.965  1.00  0.00    -0.422 NA 
HETATM    9  C   UNL     1     -12.775   8.292  72.078  1.00  0.00    -0.376 A  
HETATM   10  C   UNL     1     -12.731  12.720  71.107  1.00  0.00    -0.263 A  
HETATM   11  H   UNL     1     -14.180  12.259  72.602  1.00  0.00     0.000 HD 
HETATM   12  N   UNL     1     -11.862  12.002  70.420  1.00  0.00    -0.286 NA 
BRANCH  10  13
HETATM   13  S   UNL     1     -13.034  14.430  70.990  1.00  0.00    -0.343 S  
HETATM   14  O   UNL     1     -13.453  14.839  72.375  1.00  0.00    -0.360 OA 
BRANCH  13  15
HETATM   15  C   UNL     1     -11.388  15.070  70.589  1.00  0.00    -0.271 C  
BRANCH  15  16
HETATM   16  C   UNL     1     -11.093  14.945  69.101  1.00  0.00    -0.269 A  
HETATM   17  N   UNL     1     -12.164  14.585  68.345  1.00  0.00    -0.196 NA 
HETATM   18  C   UNL     1     -11.989  14.458  67.012  1.00  0.00    -0.395 A  
HETATM   19  C   UNL     1     -10.780  14.643  66.361  1.00  0.00    -0.309 A  
HETATM   20  C   UNL     1      -9.676  15.013  67.142  1.00  0.00    -0.226 A  
HETATM   21  C   UNL     1     -10.679  14.427  64.879  1.00  0.00    -0.444 C  
HETATM   22  C   UNL     1      -8.692  15.665  69.404  1.00  0.00    -0.249 C  
HETATM   23  C   UNL     1      -9.824  15.207  68.535  1.00  0.00    -0.220 A  
BRANCH  20  24
HETATM   24  O   UNL     1      -8.541  15.305  66.423  1.00  0.00    -0.276 OA 
HETATM   25  C   UNL     1      -8.225  16.678  66.220  1.00  0.00    -0.330 C  
ENDBRANCH  20  24
ENDBRANCH  15  16
ENDBRANCH  13  15
ENDBRANCH  10  13
ENDBRANCH   2   3
TORSDOF 5
ENDMDL
MODEL       47
REMARK 921   NORMALIZED FREE ENERGY PREDICTED BY IDOCK:   -5.58 KCAL/MOL
REMARK 922        TOTAL FREE ENERGY PREDICTED BY IDOCK:   -7.85 KCAL/MOL
REMARK 923 INTER-LIGAND FREE ENERGY PREDICTED BY IDOCK:   -7.66 KCAL/MOL
REMARK 924 INTRA-LIGAND FREE ENERGY PREDICTED BY IDOCK:   -0.19 KCAL/MOL
REMARK 927      BINDING AFFINITY PREDICTED BY RF-SCORE:    0.00 PKD
ROOT
HETATM    1  C   UNL     1     -13.034  11.854  63.336  1.00  0.00    -0.115 C  
HETATM    2  O   UNL     1     -13.128  12.480  64.609  1.00  0.00    -0.845 OA 
ENDROOT
BRANCH   2   3
HETATM    3  C   UNL     1     -12.007  13.156  65.026  1.00  0.00    -0.383 A  
HETATM    4  C   UNL     1     -11.113  12.701  66.007  1.00  0.00    -0.321 A  
HETATM    5  C   UNL     1     -10.031  13.524  66.372  1.00  0.00    -0.295 A  
HETATM    6  C   UNL     1      -9.891  14.756  65.746  1.00  0.00    -0.342 A  
HETATM    7  C   UNL     1     -10.756  15.235  64.761  1.00  0.00    -0.342 A  
HETATM    8  N   UNL     1      -8.777  15.300  66.322  1.00  0.00    -0.455 NA 
HETATM    9  C   UNL     1     -11.832  14.408  64.426  1.00  0.00    -0.433 A  
HETATM   10  C   UNL     1      -8.285  14.417  67.248  1.00  0.00    -0.203 A  
HETATM   11  H   UNL     1      -8.378  16.212  66.100  1.00  0.00     0.000 HD 
HETATM   12  N   UNL     1      -9.027  13.327  67.308  1.00  0.00    -0.208 NA 
BRANCH  10  13
HETATM   13  S   UNL     1      -6.833  14.773  68.141  1.00  0.00    -0.142 S  
HETATM   14  O   UNL     1      -5.906  15.392  67.132  1.00  0.00    -0.305 OA 
BRANCH  13  15
HETATM   15  C   UNL     1      -7.424  16.004  69.331  1.00  0.00    -0.201 C  
BRANCH  15  16
HETATM   16  C   UNL     1      -7.388  17.406  68.740  1.00  0.00    -0.257 A  
HETATM   17  N   UNL     1      -6.137  17.885  68.506  1.00  0.00    -0.181 NA 
HETATM   18  C   UNL     1      -6.017  19.121  67.975  1.00  0.00    -0.211 A  
HETATM   19  C   UNL     1      -7.086  19.951  67.677  1.00  0.00    -0.297 A  
HETATM   20  C   UNL     1      -8.375  19.456  67.919  1.00  0.00    -0.308 A  
HETATM   21  C   UNL     1      -6.844  21.330  67.137  1.00  0.00    -0.322 C  
HETATM   22  C   UNL     1      -9.907  17.548  68.644  1.00  0.00    -0.338 C  
HETATM   23  C   UNL     1      -8.550  18.148  68.428  1.00  0.00    -0.310 A  
BRANCH  20  24
HETATM   24  O   UNL     1      -9.391  20.275  67.486  1.00  0.00    -0.363 OA 
HETATM   25  C   UNL     1     -10.001  19.963  66.238  1.00  0.00    -0.486 C  
ENDBRANCH  20  24
ENDBRANCH  15  16
ENDBRANCH  13  15
ENDBRANCH  10  13
ENDBRANCH   2   3
TORSDOF 5
ENDMDL
MODEL       48
REMARK 921   NORMALIZED FREE ENERGY PREDICTED BY IDOCK:   -5.57 KCAL/MOL
REMARK 922        TOTAL FREE ENERGY PREDICTED BY IDOCK:   -7.84 KCAL/MOL
REMARK 923 INTER-LIGAND FREE ENERGY PREDICTED BY IDOCK:   -8.06 KCAL/MOL
REMARK 924 INTRA-LIGAND FREE ENERGY PREDICTED BY IDOCK:    0.22 KCAL/MOL
REMARK 927      BINDING AFFINITY PREDICTED BY RF-SCORE:    0.00 PKD
ROOT
HETATM    1  C   UNL     1     -10.861  16.444  69.708  1.00  0.00    -0.343 C  
HETATM    2  O   UNL     1     -12.106  15.816  69.429  1.00  0.00    -0.354 OA 
ENDROOT
BRANCH   2   3
HETATM    3  C   UNL     1     -12.421  14.739  70.221  1.00  0.00    -0.340 A  
HETATM    4  C   UNL     1     -12.082  13.407  69.936  1.00  0.00    -0.389 A  
HETATM    5  C   UNL     1     -12.517  12.396  70.813  1.00  0.00    -0.267 A  
HETATM    6  C   UNL     1     -13.264  12.756  71.928  1.00  0.00    -0.412 A  
HETATM    7  C   UNL     1     -13.611  14.071  72.244  1.00  0.00    -0.622 A  
HETATM    8  N   UNL     1     -13.533  11.569  72.550  1.00  0.00    -0.399 NA 
HETATM    9  C   UNL     1     -13.182  15.056  71.350  1.00  0.00    -0.497 A  
HETATM   10  C   UNL     1     -12.961  10.555  71.828  1.00  0.00    -0.476 A  
HETATM   11  H   UNL     1     -14.070  11.457  73.410  1.00  0.00     0.000 HD 
HETATM   12  N   UNL     1     -12.339  11.021  70.761  1.00  0.00    -0.368 NA 
BRANCH  10  13
HETATM   13  S   UNL     1     -13.067   8.902  72.365  1.00  0.00    -0.375 S  
HETATM   14  O   UNL     1     -13.921   8.219  71.333  1.00  0.00    -0.339 OA 
BRANCH  13  15
HETATM   15  C   UNL     1     -11.342   8.364  72.248  1.00  0.00    -0.378 C  
BRANCH  15  16
HETATM   16  C   UNL     1     -11.034   7.785  70.875  1.00  0.00    -0.250 A  
HETATM   17  N   UNL     1     -11.603   6.573  70.637  1.00  0.00    -0.371 NA 
HETATM   18  C   UNL     1     -11.386   5.992  69.437  1.00  0.00    -0.212 A  
HETATM   19  C   UNL     1     -10.595   6.535  68.438  1.00  0.00    -0.296 A  
HETATM   20  C   UNL     1     -10.009   7.784  68.684  1.00  0.00    -0.182 A  
HETATM   21  C   UNL     1     -10.374   5.784  67.157  1.00  0.00    -0.293 C  
HETATM   22  C   UNL     1      -9.700   9.818  70.195  1.00  0.00    -0.299 C  
HETATM   23  C   UNL     1     -10.250   8.453  69.907  1.00  0.00    -0.201 A  
BRANCH  20  24
HETATM   24  O   UNL     1      -9.344   8.325  67.609  1.00  0.00    -0.136 OA 
HETATM   25  C   UNL     1     -10.064   9.225  66.774  1.00  0.00    -0.261 C  
ENDBRANCH  20  24
ENDBRANCH  15  16
ENDBRANCH  13  15
ENDBRANCH  10  13
ENDBRANCH   2   3
TORSDOF 5
ENDMDL
MODEL       49
REMARK 921   NORMALIZED FREE ENERGY PREDICTED BY IDOCK:   -5.57 KCAL/MOL
REMARK 922        TOTAL FREE ENERGY PREDICTED BY IDOCK:   -7.84 KCAL/MOL
REMARK 923 INTER-LIGAND FREE ENERGY PREDICTED BY IDOCK:   -7.54 KCAL/MOL
REMARK 924 INTRA-LIGAND FREE ENERGY PREDICTED BY IDOCK:   -0.30 KCAL/MOL
REMARK 927      BINDING AFFINITY PREDICTED BY RF-SCORE:    0.00 PKD
ROOT
HETATM    1  C   UNL     1      -5.893   6.940  74.462  1.00  0.00    -0.071 C  
HETATM    2  O   UNL     1      -6.493   6.714  73.193  1.00  0.00    -0.062 OA 
ENDROOT
BRANCH   2   3
HETATM    3  C   UNL     1      -7.840   6.975  73.115  1.00  0.00    -0.097 A  
HETATM    4  C   UNL     1      -8.423   7.945  72.285  1.00  0.00    -0.185 A  
HETATM    5  C   UNL     1      -9.815   8.141  72.347  1.00  0.00    -0.276 A  
HETATM    6  C   UNL     1     -10.558   7.366  73.229  1.00  0.00    -0.392 A  
HETATM    7  C   UNL     1     -10.012   6.388  74.062  1.00  0.00    -0.301 A  
HETATM    8  N   UNL     1     -11.842   7.802  73.058  1.00  0.00    -0.631 NA 
HETATM    9  C   UNL     1      -8.625   6.223  73.994  1.00  0.00    -0.124 A  
HETATM   10  C   UNL     1     -11.849   8.792  72.110  1.00  0.00    -0.366 A  
HETATM   11  H   UNL     1     -12.661   7.448  73.554  1.00  0.00     0.000 HD 
HETATM   12  N   UNL     1     -10.630   9.028  71.660  1.00  0.00    -0.343 NA 
BRANCH  10  13
HETATM   13  S   UNL     1     -13.337   9.543  71.609  1.00  0.00    -0.407 S  
HETATM   14  O   UNL     1     -14.366   9.039  72.584  1.00  0.00    -0.603 OA 
BRANCH  13  15
HETATM   15  C   UNL     1     -12.977  11.296  71.885  1.00  0.00    -0.365 C  
BRANCH  15  16
HETATM   16  C   UNL     1     -12.488  11.968  70.610  1.00  0.00    -0.247 A  
HETATM   17  N   UNL     1     -12.283  11.116  69.570  1.00  0.00    -0.311 NA 
HETATM   18  C   UNL     1     -11.854  11.633  68.398  1.00  0.00    -0.278 A  
HETATM   19  C   UNL     1     -11.579  12.974  68.190  1.00  0.00    -0.379 A  
HETATM   20  C   UNL     1     -11.789  13.851  69.263  1.00  0.00    -0.348 A  
HETATM   21  C   UNL     1     -11.056  13.441  66.862  1.00  0.00    -0.309 C  
HETATM   22  C   UNL     1     -12.589  14.266  71.651  1.00  0.00    -0.431 C  
HETATM   23  C   UNL     1     -12.286  13.362  70.493  1.00  0.00    -0.425 A  
BRANCH  20  24
HETATM   24  O   UNL     1     -11.621  15.180  68.955  1.00  0.00    -0.306 OA 
HETATM   25  C   UNL     1     -10.523  15.861  69.553  1.00  0.00    -0.281 C  
ENDBRANCH  20  24
ENDBRANCH  15  16
ENDBRANCH  13  15
ENDBRANCH  10  13
ENDBRANCH   2   3
TORSDOF 5
ENDMDL
MODEL       50
REMARK 921   NORMALIZED FREE ENERGY PREDICTED BY IDOCK:   -5.57 KCAL/MOL
REMARK 922        TOTAL FREE ENERGY PREDICTED BY IDOCK:   -7.83 KCAL/MOL
REMARK 923 INTER-LIGAND FREE ENERGY PREDICTED BY IDOCK:   -7.42 KCAL/MOL
REMARK 924 INTRA-LIGAND FREE ENERGY PREDICTED BY IDOCK:   -0.41 KCAL/MOL
REMARK 927      BINDING AFFINITY PREDICTED BY RF-SCORE:    0.00 PKD
ROOT
HETATM    1  C   UNL     1      -7.275   6.962  66.647  1.00  0.00    -0.076 C  
HETATM    2  O   UNL     1      -6.911   7.336  65.324  1.00  0.00    -0.050 OA 
ENDROOT
BRANCH   2   3
HETATM    3  C   UNL     1      -7.744   8.240  64.711  1.00  0.00    -0.114 A  
HETATM    4  C   UNL     1      -8.644   9.085  65.379  1.00  0.00    -0.200 A  
HETATM    5  C   UNL     1      -9.475   9.926  64.618  1.00  0.00    -0.278 A  
HETATM    6  C   UNL     1      -9.372   9.889  63.233  1.00  0.00    -0.178 A  
HETATM    7  C   UNL     1      -8.483   9.068  62.537  1.00  0.00    -0.212 A  
HETATM    8  N   UNL     1     -10.302  10.793  62.802  1.00  0.00    -0.764 NA 
HETATM    9  C   UNL     1      -7.679   8.229  63.314  1.00  0.00    -0.142 A  
HETATM   10  C   UNL     1     -10.923  11.340  63.895  1.00  0.00    -0.305 A  
HETATM   11  H   UNL     1     -10.502  11.024  61.829  1.00  0.00     0.000 HD 
HETATM   12  N   UNL     1     -10.447  10.831  65.017  1.00  0.00    -0.274 NA 
BRANCH  10  13
HETATM   13  S   UNL     1     -12.138  12.573  63.712  1.00  0.00    -0.566 S  
HETATM   14  O   UNL     1     -13.306  11.867  63.080  1.00  0.00    -0.470 OA 
BRANCH  13  15
HETATM   15  C   UNL     1     -12.488  13.006  65.435  1.00  0.00    -0.476 C  
BRANCH  15  16
HETATM   16  C   UNL     1     -11.706  14.238  65.866  1.00  0.00    -0.372 A  
HETATM   17  N   UNL     1     -11.305  15.036  64.841  1.00  0.00    -0.408 NA 
HETATM   18  C   UNL     1     -10.610  16.155  65.138  1.00  0.00    -0.343 A  
HETATM   19  C   UNL     1     -10.251  16.534  66.421  1.00  0.00    -0.324 A  
HETATM   20  C   UNL     1     -10.664  15.710  67.478  1.00  0.00    -0.303 A  
HETATM   21  C   UNL     1      -9.431  17.772  66.642  1.00  0.00    -0.299 C  
HETATM   22  C   UNL     1     -11.958  13.676  68.315  1.00  0.00    -0.385 C  
HETATM   23  C   UNL     1     -11.436  14.555  67.218  1.00  0.00    -0.381 A  
BRANCH  20  24
HETATM   24  O   UNL     1     -10.386  16.206  68.730  1.00  0.00    -0.225 OA 
HETATM   25  C   UNL     1      -9.380  15.548  69.491  1.00  0.00    -0.276 C  
ENDBRANCH  20  24
ENDBRANCH  15  16
ENDBRANCH  13  15
ENDBRANCH  10  13
ENDBRANCH   2   3
TORSDOF 5
ENDMDL
MODEL       51
REMARK 921   NORMALIZED FREE ENERGY PREDICTED BY IDOCK:   -5.57 KCAL/MOL
REMARK 922        TOTAL FREE ENERGY PREDICTED BY IDOCK:   -7.83 KCAL/MOL
REMARK 923 INTER-LIGAND FREE ENERGY PREDICTED BY IDOCK:   -7.54 KCAL/MOL
REMARK 924 INTRA-LIGAND FREE ENERGY PREDICTED BY IDOCK:   -0.30 KCAL/MOL
REMARK 927      BINDING AFFINITY PREDICTED BY RF-SCORE:    0.00 PKD
ROOT
HETATM    1  C   UNL     1     -10.665   3.784  73.574  1.00  0.00    -0.215 C  
HETATM    2  O   UNL     1     -10.215   5.116  73.785  1.00  0.00    -0.178 OA 
ENDROOT
BRANCH   2   3
HETATM    3  C   UNL     1     -10.510   6.010  72.783  1.00  0.00    -0.216 A  
HETATM    4  C   UNL     1     -10.876   7.350  72.986  1.00  0.00    -0.423 A  
HETATM    5  C   UNL     1     -11.202   8.139  71.867  1.00  0.00    -0.290 A  
HETATM    6  C   UNL     1     -11.148   7.559  70.605  1.00  0.00    -0.265 A  
HETATM    7  C   UNL     1     -10.780   6.234  70.368  1.00  0.00    -0.329 A  
HETATM    8  N   UNL     1     -11.525   8.564  69.759  1.00  0.00    -0.432 NA 
HETATM    9  C   UNL     1     -10.476   5.465  71.496  1.00  0.00    -0.289 A  
HETATM   10  C   UNL     1     -11.786   9.688  70.498  1.00  0.00    -0.215 A  
HETATM   11  H   UNL     1     -11.600   8.490  68.744  1.00  0.00     0.000 HD 
HETATM   12  N   UNL     1     -11.605   9.463  71.786  1.00  0.00    -0.389 NA 
BRANCH  10  13
HETATM   13  S   UNL     1     -12.249  11.179  69.729  1.00  0.00    -0.265 S  
HETATM   14  O   UNL     1     -12.363  12.170  70.855  1.00  0.00    -0.373 OA 
BRANCH  13  15
HETATM   15  C   UNL     1     -10.803  11.526  68.695  1.00  0.00    -0.212 C  
BRANCH  15  16
HETATM   16  C   UNL     1     -11.141  12.512  67.585  1.00  0.00    -0.258 A  
HETATM   17  N   UNL     1     -11.906  11.994  66.588  1.00  0.00    -0.610 NA 
HETATM   18  C   UNL     1     -12.256  12.805  65.566  1.00  0.00    -0.463 A  
HETATM   19  C   UNL     1     -11.863  14.128  65.449  1.00  0.00    -0.362 A  
HETATM   20  C   UNL     1     -11.074  14.661  66.478  1.00  0.00    -0.329 A  
HETATM   21  C   UNL     1     -12.264  14.932  64.246  1.00  0.00    -0.365 C  
HETATM   22  C   UNL     1      -9.937  14.403  68.748  1.00  0.00    -0.223 C  
HETATM   23  C   UNL     1     -10.725  13.863  67.592  1.00  0.00    -0.255 A  
BRANCH  20  24
HETATM   24  O   UNL     1     -10.825  16.009  66.366  1.00  0.00    -0.269 OA 
HETATM   25  C   UNL     1      -9.497  16.410  66.048  1.00  0.00    -0.310 C  
ENDBRANCH  20  24
ENDBRANCH  15  16
ENDBRANCH  13  15
ENDBRANCH  10  13
ENDBRANCH   2   3
TORSDOF 5
ENDMDL
MODEL       52
REMARK 921   NORMALIZED FREE ENERGY PREDICTED BY IDOCK:   -5.54 KCAL/MOL
REMARK 922        TOTAL FREE ENERGY PREDICTED BY IDOCK:   -7.80 KCAL/MOL
REMARK 923 INTER-LIGAND FREE ENERGY PREDICTED BY IDOCK:   -7.52 KCAL/MOL
REMARK 924 INTRA-LIGAND FREE ENERGY PREDICTED BY IDOCK:   -0.28 KCAL/MOL
REMARK 927      BINDING AFFINITY PREDICTED BY RF-SCORE:    0.00 PKD
ROOT
HETATM    1  C   UNL     1     -12.106  14.088  64.349  1.00  0.00    -0.458 C  
HETATM    2  O   UNL     1     -11.535  14.850  65.406  1.00  0.00    -0.346 OA 
ENDROOT
BRANCH   2   3
HETATM    3  C   UNL     1     -11.565  14.263  66.648  1.00  0.00    -0.383 A  
HETATM    4  C   UNL     1     -11.799  12.900  66.886  1.00  0.00    -0.444 A  
HETATM    5  C   UNL     1     -11.854  12.445  68.216  1.00  0.00    -0.309 A  
HETATM    6  C   UNL     1     -11.674  13.364  69.243  1.00  0.00    -0.330 A  
HETATM    7  C   UNL     1     -11.432  14.723  69.041  1.00  0.00    -0.316 A  
HETATM    8  N   UNL     1     -11.796  12.620  70.383  1.00  0.00    -0.549 NA 
HETATM    9  C   UNL     1     -11.398  15.155  67.712  1.00  0.00    -0.335 A  
HETATM   10  C   UNL     1     -12.035  11.316  70.035  1.00  0.00    -0.368 A  
HETATM   11  H   UNL     1     -11.722  12.977  71.336  1.00  0.00     0.000 HD 
HETATM   12  N   UNL     1     -12.082  11.174  68.724  1.00  0.00    -0.552 NA 
BRANCH  10  13
HETATM   13  S   UNL     1     -12.197  10.080  71.250  1.00  0.00    -0.427 S  
HETATM   14  O   UNL     1     -13.663   9.746  71.263  1.00  0.00    -0.301 OA 
BRANCH  13  15
HETATM   15  C   UNL     1     -11.224   8.730  70.535  1.00  0.00    -0.247 C  
BRANCH  15  16
HETATM   16  C   UNL     1     -10.959   7.636  71.560  1.00  0.00    -0.233 A  
HETATM   17  N   UNL     1     -11.911   6.667  71.606  1.00  0.00    -0.321 NA 
HETATM   18  C   UNL     1     -11.747   5.654  72.485  1.00  0.00    -0.197 A  
HETATM   19  C   UNL     1     -10.685   5.550  73.367  1.00  0.00    -0.317 A  
HETATM   20  C   UNL     1      -9.704   6.550  73.320  1.00  0.00    -0.166 A  
HETATM   21  C   UNL     1     -10.622   4.410  74.343  1.00  0.00    -0.286 C  
HETATM   22  C   UNL     1      -8.755   8.661  72.245  1.00  0.00    -0.193 C  
HETATM   23  C   UNL     1      -9.808   7.602  72.381  1.00  0.00    -0.235 A  
BRANCH  20  24
HETATM   24  O   UNL     1      -8.616   6.321  74.128  1.00  0.00    -0.118 OA 
HETATM   25  C   UNL     1      -7.486   5.681  73.547  1.00  0.00    -0.091 C  
ENDBRANCH  20  24
ENDBRANCH  15  16
ENDBRANCH  13  15
ENDBRANCH  10  13
ENDBRANCH   2   3
TORSDOF 5
ENDMDL
MODEL       53
REMARK 921   NORMALIZED FREE ENERGY PREDICTED BY IDOCK:   -5.53 KCAL/MOL
REMARK 922        TOTAL FREE ENERGY PREDICTED BY IDOCK:   -7.79 KCAL/MOL
REMARK 923 INTER-LIGAND FREE ENERGY PREDICTED BY IDOCK:   -7.41 KCAL/MOL
REMARK 924 INTRA-LIGAND FREE ENERGY PREDICTED BY IDOCK:   -0.38 KCAL/MOL
REMARK 927      BINDING AFFINITY PREDICTED BY RF-SCORE:    0.00 PKD
ROOT
HETATM    1  C   UNL     1     -10.610  15.498  65.033  1.00  0.00    -0.409 C  
HETATM    2  O   UNL     1     -11.411  14.338  65.227  1.00  0.00    -0.322 OA 
ENDROOT
BRANCH   2   3
HETATM    3  C   UNL     1     -11.455  13.853  66.512  1.00  0.00    -0.348 A  
HETATM    4  C   UNL     1     -11.862  12.558  66.867  1.00  0.00    -0.404 A  
HETATM    5  C   UNL     1     -11.908  12.213  68.231  1.00  0.00    -0.301 A  
HETATM    6  C   UNL     1     -11.548  13.169  69.172  1.00  0.00    -0.316 A  
HETATM    7  C   UNL     1     -11.132  14.462  68.853  1.00  0.00    -0.277 A  
HETATM    8  N   UNL     1     -11.710  12.535  70.372  1.00  0.00    -0.539 NA 
HETATM    9  C   UNL     1     -11.109  14.788  67.494  1.00  0.00    -0.323 A  
HETATM   10  C   UNL     1     -12.145  11.257  70.140  1.00  0.00    -0.366 A  
HETATM   11  H   UNL     1     -11.536  12.946  71.290  1.00  0.00     0.000 HD 
HETATM   12  N   UNL     1     -12.281  11.028  68.847  1.00  0.00    -0.502 NA 
BRANCH  10  13
HETATM   13  S   UNL     1     -12.410  10.147  71.455  1.00  0.00    -0.428 S  
HETATM   14  O   UNL     1     -13.491   9.224  70.964  1.00  0.00    -0.222 OA 
BRANCH  13  15
HETATM   15  C   UNL     1     -10.814   9.296  71.547  1.00  0.00    -0.372 C  
BRANCH  15  16
HETATM   16  C   UNL     1     -10.621   8.353  70.368  1.00  0.00    -0.223 A  
HETATM   17  N   UNL     1     -11.405   7.243  70.403  1.00  0.00    -0.283 NA 
HETATM   18  C   UNL     1     -11.300   6.356  69.389  1.00  0.00    -0.377 A  
HETATM   19  C   UNL     1     -10.423   6.487  68.325  1.00  0.00    -0.263 A  
HETATM   20  C   UNL     1      -9.615   7.632  68.290  1.00  0.00    -0.153 A  
HETATM   21  C   UNL     1     -10.347   5.418  67.274  1.00  0.00    -0.273 C  
HETATM   22  C   UNL     1      -8.932   9.883  69.280  1.00  0.00    -0.184 C  
HETATM   23  C   UNL     1      -9.727   8.611  69.304  1.00  0.00    -0.173 A  
BRANCH  20  24
HETATM   24  O   UNL     1      -8.862   7.764  67.148  1.00  0.00    -0.122 OA 
HETATM   25  C   UNL     1      -9.335   8.659  66.147  1.00  0.00    -0.226 C  
ENDBRANCH  20  24
ENDBRANCH  15  16
ENDBRANCH  13  15
ENDBRANCH  10  13
ENDBRANCH   2   3
TORSDOF 5
ENDMDL
MODEL       54
REMARK 921   NORMALIZED FREE ENERGY PREDICTED BY IDOCK:   -5.52 KCAL/MOL
REMARK 922        TOTAL FREE ENERGY PREDICTED BY IDOCK:   -7.77 KCAL/MOL
REMARK 923 INTER-LIGAND FREE ENERGY PREDICTED BY IDOCK:   -7.39 KCAL/MOL
REMARK 924 INTRA-LIGAND FREE ENERGY PREDICTED BY IDOCK:   -0.38 KCAL/MOL
REMARK 927      BINDING AFFINITY PREDICTED BY RF-SCORE:    0.00 PKD
ROOT
HETATM    1  C   UNL     1      -9.332   7.247  73.773  1.00  0.00    -0.252 C  
HETATM    2  O   UNL     1     -10.700   7.482  73.464  1.00  0.00    -0.378 OA 
ENDROOT
BRANCH   2   3
HETATM    3  C   UNL     1     -10.937   8.188  72.309  1.00  0.00    -0.332 A  
HETATM    4  C   UNL     1     -10.005   8.374  71.276  1.00  0.00    -0.261 A  
HETATM    5  C   UNL     1     -10.368   9.167  70.172  1.00  0.00    -0.213 A  
HETATM    6  C   UNL     1     -11.636   9.734  70.147  1.00  0.00    -0.182 A  
HETATM    7  C   UNL     1     -12.588   9.564  71.153  1.00  0.00    -0.383 A  
HETATM    8  N   UNL     1     -11.666  10.437  68.975  1.00  0.00    -0.501 NA 
HETATM    9  C   UNL     1     -12.200   8.785  72.247  1.00  0.00    -0.429 A  
HETATM   10  C   UNL     1     -10.462  10.282  68.338  1.00  0.00    -0.200 A  
HETATM   11  H   UNL     1     -12.454  10.985  68.631  1.00  0.00     0.000 HD 
HETATM   12  N   UNL     1      -9.646   9.519  69.041  1.00  0.00    -0.161 NA 
BRANCH  10  13
HETATM   13  S   UNL     1     -10.171  11.009  66.783  1.00  0.00    -0.237 S  
HETATM   14  O   UNL     1     -10.154   9.854  65.820  1.00  0.00    -0.284 OA 
BRANCH  13  15
HETATM   15  C   UNL     1     -11.656  12.022  66.565  1.00  0.00    -0.314 C  
BRANCH  15  16
HETATM   16  C   UNL     1     -11.317  13.506  66.551  1.00  0.00    -0.319 A  
HETATM   17  N   UNL     1     -10.886  13.971  65.349  1.00  0.00    -0.313 NA 
HETATM   18  C   UNL     1     -10.570  15.281  65.249  1.00  0.00    -0.417 A  
HETATM   19  C   UNL     1     -10.627  16.181  66.300  1.00  0.00    -0.276 A  
HETATM   20  C   UNL     1     -11.071  15.699  67.540  1.00  0.00    -0.289 A  
HETATM   21  C   UNL     1     -10.204  17.607  66.098  1.00  0.00    -0.345 C  
HETATM   22  C   UNL     1     -12.003  13.797  68.964  1.00  0.00    -0.399 C  
HETATM   23  C   UNL     1     -11.461  14.347  67.678  1.00  0.00    -0.369 A  
BRANCH  20  24
HETATM   24  O   UNL     1     -11.227  16.666  68.505  1.00  0.00    -0.344 OA 
HETATM   25  C   UNL     1     -10.363  16.613  69.635  1.00  0.00    -0.193 C  
ENDBRANCH  20  24
ENDBRANCH  15  16
ENDBRANCH  13  15
ENDBRANCH  10  13
ENDBRANCH   2   3
TORSDOF 5
ENDMDL
MODEL       55
REMARK 921   NORMALIZED FREE ENERGY PREDICTED BY IDOCK:   -5.50 KCAL/MOL
REMARK 922        TOTAL FREE ENERGY PREDICTED BY IDOCK:   -7.75 KCAL/MOL
REMARK 923 INTER-LIGAND FREE ENERGY PREDICTED BY IDOCK:   -7.42 KCAL/MOL
REMARK 924 INTRA-LIGAND FREE ENERGY PREDICTED BY IDOCK:   -0.33 KCAL/MOL
REMARK 927      BINDING AFFINITY PREDICTED BY RF-SCORE:    0.00 PKD
ROOT
HETATM    1  C   UNL     1      -9.902   4.075  73.715  1.00  0.00    -0.112 C  
HETATM    2  O   UNL     1     -10.722   5.207  73.978  1.00  0.00    -0.285 OA 
ENDROOT
BRANCH   2   3
HETATM    3  C   UNL     1     -10.852   6.102  72.944  1.00  0.00    -0.260 A  
HETATM    4  C   UNL     1     -11.216   7.449  73.090  1.00  0.00    -0.294 A  
HETATM    5  C   UNL     1     -11.363   8.240  71.934  1.00  0.00    -0.308 A  
HETATM    6  C   UNL     1     -11.141   7.654  70.694  1.00  0.00    -0.257 A  
HETATM    7  C   UNL     1     -10.771   6.320  70.514  1.00  0.00    -0.327 A  
HETATM    8  N   UNL     1     -11.373   8.662  69.801  1.00  0.00    -0.446 NA 
HETATM    9  C   UNL     1     -10.647   5.551  71.675  1.00  0.00    -0.294 A  
HETATM   10  C   UNL     1     -11.714   9.794  70.494  1.00  0.00    -0.268 A  
HETATM   11  H   UNL     1     -11.304   8.585  68.786  1.00  0.00     0.000 HD 
HETATM   12  N   UNL     1     -11.723   9.572  71.796  1.00  0.00    -0.383 NA 
BRANCH  10  13
HETATM   13  S   UNL     1     -12.032  11.291  69.664  1.00  0.00    -0.355 S  
HETATM   14  O   UNL     1     -12.222  12.303  70.761  1.00  0.00    -0.378 OA 
BRANCH  13  15
HETATM   15  C   UNL     1     -10.473  11.565  68.784  1.00  0.00    -0.204 C  
BRANCH  15  16
HETATM   16  C   UNL     1     -10.651  12.548  67.636  1.00  0.00    -0.217 A  
HETATM   17  N   UNL     1     -10.752  13.847  68.021  1.00  0.00    -0.242 NA 
HETATM   18  C   UNL     1     -10.905  14.786  67.061  1.00  0.00    -0.315 A  
HETATM   19  C   UNL     1     -10.995  14.510  65.707  1.00  0.00    -0.319 A  
HETATM   20  C   UNL     1     -10.891  13.169  65.311  1.00  0.00    -0.297 A  
HETATM   21  C   UNL     1     -11.218  15.623  64.722  1.00  0.00    -0.391 C  
HETATM   22  C   UNL     1     -10.498  10.718  65.902  1.00  0.00    -0.270 C  
HETATM   23  C   UNL     1     -10.680  12.159  66.277  1.00  0.00    -0.296 A  
BRANCH  20  24
HETATM   24  O   UNL     1     -10.860  12.977  63.950  1.00  0.00    -0.395 OA 
HETATM   25  C   UNL     1     -12.026  12.441  63.334  1.00  0.00    -0.504 C  
ENDBRANCH  20  24
ENDBRANCH  15  16
ENDBRANCH  13  15
ENDBRANCH  10  13
ENDBRANCH   2   3
TORSDOF 5
ENDMDL
MODEL       56
REMARK 921   NORMALIZED FREE ENERGY PREDICTED BY IDOCK:   -5.50 KCAL/MOL
REMARK 922        TOTAL FREE ENERGY PREDICTED BY IDOCK:   -7.75 KCAL/MOL
REMARK 923 INTER-LIGAND FREE ENERGY PREDICTED BY IDOCK:   -8.26 KCAL/MOL
REMARK 924 INTRA-LIGAND FREE ENERGY PREDICTED BY IDOCK:    0.52 KCAL/MOL
REMARK 927      BINDING AFFINITY PREDICTED BY RF-SCORE:    0.00 PKD
ROOT
HETATM    1  C   UNL     1     -14.054   9.091  71.746  1.00  0.00    -0.314 C  
HETATM    2  O   UNL     1     -12.848   9.797  72.012  1.00  0.00    -0.395 OA 
ENDROOT
BRANCH   2   3
HETATM    3  C   UNL     1     -12.755  11.049  71.455  1.00  0.00    -0.415 A  
HETATM    4  C   UNL     1     -12.030  11.359  70.294  1.00  0.00    -0.460 A  
HETATM    5  C   UNL     1     -11.979  12.698  69.865  1.00  0.00    -0.295 A  
HETATM    6  C   UNL     1     -12.650  13.662  70.608  1.00  0.00    -0.296 A  
HETATM    7  C   UNL     1     -13.386  13.387  71.761  1.00  0.00    -0.479 A  
HETATM    8  N   UNL     1     -12.398  14.831  69.947  1.00  0.00    -0.462 NA 
HETATM    9  C   UNL     1     -13.409  12.052  72.177  1.00  0.00    -0.396 A  
HETATM   10  C   UNL     1     -11.611  14.560  68.857  1.00  0.00    -0.309 A  
HETATM   11  H   UNL     1     -12.738  15.753  70.219  1.00  0.00     0.000 HD 
HETATM   12  N   UNL     1     -11.333  13.272  68.780  1.00  0.00    -0.271 NA 
BRANCH  10  13
HETATM   13  S   UNL     1     -11.136  15.824  67.759  1.00  0.00    -0.278 S  
HETATM   14  O   UNL     1     -10.992  17.046  68.622  1.00  0.00    -0.312 OA 
BRANCH  13  15
HETATM   15  C   UNL     1      -9.522  15.231  67.189  1.00  0.00    -0.214 C  
BRANCH  15  16
HETATM   16  C   UNL     1      -9.664  13.983  66.329  1.00  0.00    -0.295 A  
HETATM   17  N   UNL     1      -9.025  12.888  66.820  1.00  0.00    -0.208 NA 
HETATM   18  C   UNL     1      -9.106  11.735  66.120  1.00  0.00    -0.185 A  
HETATM   19  C   UNL     1      -9.775  11.599  64.914  1.00  0.00    -0.232 A  
HETATM   20  C   UNL     1     -10.432  12.730  64.408  1.00  0.00    -0.386 A  
HETATM   21  C   UNL     1      -9.762  10.286  64.187  1.00  0.00    -0.357 C  
HETATM   22  C   UNL     1     -11.156  15.163  64.669  1.00  0.00    -0.338 C  
HETATM   23  C   UNL     1     -10.416  13.944  65.133  1.00  0.00    -0.409 A  
BRANCH  20  24
HETATM   24  O   UNL     1     -11.181  12.496  63.279  1.00  0.00    -0.452 OA 
HETATM   25  C   UNL     1     -12.537  12.102  63.457  1.00  0.00    -0.506 C  
ENDBRANCH  20  24
ENDBRANCH  15  16
ENDBRANCH  13  15
ENDBRANCH  10  13
ENDBRANCH   2   3
TORSDOF 5
ENDMDL
MODEL       57
REMARK 921   NORMALIZED FREE ENERGY PREDICTED BY IDOCK:   -5.48 KCAL/MOL
REMARK 922        TOTAL FREE ENERGY PREDICTED BY IDOCK:   -7.71 KCAL/MOL
REMARK 923 INTER-LIGAND FREE ENERGY PREDICTED BY IDOCK:   -7.30 KCAL/MOL
REMARK 924 INTRA-LIGAND FREE ENERGY PREDICTED BY IDOCK:   -0.42 KCAL/MOL
REMARK 927      BINDING AFFINITY PREDICTED BY RF-SCORE:    0.00 PKD
ROOT
HETATM    1  C   UNL     1     -11.307  15.920  68.871  1.00  0.00    -0.377 C  
HETATM    2  O   UNL     1     -11.780  14.960  67.934  1.00  0.00    -0.340 OA 
ENDROOT
BRANCH   2   3
HETATM    3  C   UNL     1     -11.839  13.664  68.387  1.00  0.00    -0.372 A  
HETATM    4  C   UNL     1     -12.119  13.288  69.710  1.00  0.00    -0.355 A  
HETATM    5  C   UNL     1     -12.095  11.922  70.045  1.00  0.00    -0.291 A  
HETATM    6  C   UNL     1     -11.796  10.998  69.052  1.00  0.00    -0.329 A  
HETATM    7  C   UNL     1     -11.521  11.336  67.726  1.00  0.00    -0.350 A  
HETATM    8  N   UNL     1     -11.841   9.791  69.692  1.00  0.00    -0.445 NA 
HETATM    9  C   UNL     1     -11.534  12.701  67.420  1.00  0.00    -0.397 A  
HETATM   10  C   UNL     1     -12.158  10.002  71.008  1.00  0.00    -0.373 A  
HETATM   11  H   UNL     1     -11.668   8.882  69.261  1.00  0.00     0.000 HD 
HETATM   12  N   UNL     1     -12.315  11.289  71.260  1.00  0.00    -0.313 NA 
BRANCH  10  13
HETATM   13  S   UNL     1     -12.348   8.668  72.110  1.00  0.00    -0.392 S  
HETATM   14  O   UNL     1     -13.593   8.990  72.889  1.00  0.00    -0.356 OA 
BRANCH  13  15
HETATM   15  C   UNL     1     -12.626   7.286  70.973  1.00  0.00    -0.263 C  
BRANCH  15  16
HETATM   16  C   UNL     1     -11.512   6.254  71.074  1.00  0.00    -0.306 A  
HETATM   17  N   UNL     1     -11.311   5.766  72.327  1.00  0.00    -0.288 NA 
HETATM   18  C   UNL     1     -10.344   4.839  72.502  1.00  0.00    -0.201 A  
HETATM   19  C   UNL     1      -9.520   4.369  71.492  1.00  0.00    -0.215 A  
HETATM   20  C   UNL     1      -9.728   4.873  70.201  1.00  0.00    -0.213 A  
HETATM   21  C   UNL     1      -8.439   3.374  71.801  1.00  0.00    -0.087 C  
HETATM   22  C   UNL     1     -11.068   6.329  68.589  1.00  0.00    -0.409 C  
HETATM   23  C   UNL     1     -10.762   5.808  69.961  1.00  0.00    -0.400 A  
BRANCH  20  24
HETATM   24  O   UNL     1      -8.967   4.275  69.225  1.00  0.00    -0.088 OA 
HETATM   25  C   UNL     1      -9.536   3.171  68.530  1.00  0.00    -0.140 C  
ENDBRANCH  20  24
ENDBRANCH  15  16
ENDBRANCH  13  15
ENDBRANCH  10  13
ENDBRANCH   2   3
TORSDOF 5
ENDMDL
MODEL       58
REMARK 921   NORMALIZED FREE ENERGY PREDICTED BY IDOCK:   -5.47 KCAL/MOL
REMARK 922        TOTAL FREE ENERGY PREDICTED BY IDOCK:   -7.71 KCAL/MOL
REMARK 923 INTER-LIGAND FREE ENERGY PREDICTED BY IDOCK:   -7.41 KCAL/MOL
REMARK 924 INTRA-LIGAND FREE ENERGY PREDICTED BY IDOCK:   -0.30 KCAL/MOL
REMARK 927      BINDING AFFINITY PREDICTED BY RF-SCORE:    0.00 PKD
ROOT
HETATM    1  C   UNL     1     -13.879   7.947  71.712  1.00  0.00    -0.375 C  
HETATM    2  O   UNL     1     -12.704   8.636  72.122  1.00  0.00    -0.347 OA 
ENDROOT
BRANCH   2   3
HETATM    3  C   UNL     1     -12.411   9.783  71.424  1.00  0.00    -0.387 A  
HETATM    4  C   UNL     1     -11.473   9.872  70.384  1.00  0.00    -0.372 A  
HETATM    5  C   UNL     1     -11.237  11.126  69.791  1.00  0.00    -0.245 A  
HETATM    6  C   UNL     1     -11.942  12.228  70.260  1.00  0.00    -0.290 A  
HETATM    7  C   UNL     1     -12.886  12.172  71.286  1.00  0.00    -0.349 A  
HETATM    8  N   UNL     1     -11.482  13.268  69.501  1.00  0.00    -0.401 NA 
HETATM    9  C   UNL     1     -13.093  10.919  71.870  1.00  0.00    -0.537 A  
HETATM   10  C   UNL     1     -10.546  12.791  68.622  1.00  0.00    -0.233 A  
HETATM   11  H   UNL     1     -11.785  14.239  69.578  1.00  0.00     0.000 HD 
HETATM   12  N   UNL     1     -10.368  11.491  68.774  1.00  0.00    -0.207 NA 
BRANCH  10  13
HETATM   13  S   UNL     1      -9.784  13.845  67.465  1.00  0.00    -0.238 S  
HETATM   14  O   UNL     1     -10.925  14.493  66.730  1.00  0.00    -0.303 OA 
BRANCH  13  15
HETATM   15  C   UNL     1      -8.941  15.030  68.544  1.00  0.00    -0.186 C  
BRANCH  15  16
HETATM   16  C   UNL     1      -8.481  16.256  67.767  1.00  0.00    -0.163 A  
HETATM   17  N   UNL     1      -7.330  16.076  67.067  1.00  0.00    -0.221 NA 
HETATM   18  C   UNL     1      -6.855  17.114  66.344  1.00  0.00    -0.249 A  
HETATM   19  C   UNL     1      -7.449  18.364  66.289  1.00  0.00    -0.294 A  
HETATM   20  C   UNL     1      -8.636  18.548  67.012  1.00  0.00    -0.272 A  
HETATM   21  C   UNL     1      -6.813  19.469  65.496  1.00  0.00    -0.312 C  
HETATM   22  C   UNL     1     -10.496  17.600  68.480  1.00  0.00    -0.337 C  
HETATM   23  C   UNL     1      -9.196  17.475  67.743  1.00  0.00    -0.253 A  
BRANCH  20  24
HETATM   24  O   UNL     1      -9.241  19.767  66.814  1.00  0.00    -0.329 OA 
HETATM   25  C   UNL     1     -10.381  19.806  65.962  1.00  0.00    -0.511 C  
ENDBRANCH  20  24
ENDBRANCH  15  16
ENDBRANCH  13  15
ENDBRANCH  10  13
ENDBRANCH   2   3
TORSDOF 5
ENDMDL
MODEL       59
REMARK 921   NORMALIZED FREE ENERGY PREDICTED BY IDOCK:   -5.42 KCAL/MOL
REMARK 922        TOTAL FREE ENERGY PREDICTED BY IDOCK:   -7.65 KCAL/MOL
REMARK 923 INTER-LIGAND FREE ENERGY PREDICTED BY IDOCK:   -7.32 KCAL/MOL
REMARK 924 INTRA-LIGAND FREE ENERGY PREDICTED BY IDOCK:   -0.33 KCAL/MOL
REMARK 927      BINDING AFFINITY PREDICTED BY RF-SCORE:    0.00 PKD
ROOT
HETATM    1  C   UNL     1      -8.799   6.875  69.315  1.00  0.00    -0.138 C  
HETATM    2  O   UNL     1     -10.091   7.130  68.778  1.00  0.00    -0.163 OA 
ENDROOT
BRANCH   2   3
HETATM    3  C   UNL     1     -10.205   8.264  68.012  1.00  0.00    -0.214 A  
HETATM    4  C   UNL     1     -10.934   9.408  68.374  1.00  0.00    -0.079 A  
HETATM    5  C   UNL     1     -11.007  10.479  67.465  1.00  0.00    -0.303 A  
HETATM    6  C   UNL     1     -10.355  10.363  66.244  1.00  0.00    -0.203 A  
HETATM    7  C   UNL     1      -9.617   9.245  65.856  1.00  0.00    -0.345 A  
HETATM    8  N   UNL     1     -10.627  11.541  65.605  1.00  0.00    -0.267 NA 
HETATM    9  C   UNL     1      -9.571   8.186  66.768  1.00  0.00    -0.281 A  
HETATM   10  C   UNL     1     -11.406  12.316  66.424  1.00  0.00    -0.354 A  
HETATM   11  H   UNL     1     -10.304  11.800  64.673  1.00  0.00     0.000 HD 
HETATM   12  N   UNL     1     -11.661  11.698  67.563  1.00  0.00    -0.590 NA 
BRANCH  10  13
HETATM   13  S   UNL     1     -11.902  13.913  65.940  1.00  0.00    -0.403 S  
HETATM   14  O   UNL     1     -12.379  14.565  67.209  1.00  0.00    -0.276 OA 
BRANCH  13  15
HETATM   15  C   UNL     1     -10.337  14.632  65.381  1.00  0.00    -0.383 C  
BRANCH  15  16
HETATM   16  C   UNL     1     -10.146  16.039  65.932  1.00  0.00    -0.353 A  
HETATM   17  N   UNL     1     -10.744  17.014  65.199  1.00  0.00    -0.664 NA 
HETATM   18  C   UNL     1     -10.630  18.291  65.623  1.00  0.00    -0.090 A  
HETATM   19  C   UNL     1      -9.916  18.681  66.744  1.00  0.00    -0.381 A  
HETATM   20  C   UNL     1      -9.299  17.674  67.500  1.00  0.00    -0.248 A  
HETATM   21  C   UNL     1      -9.805  20.135  67.103  1.00  0.00    -0.586 C  
HETATM   22  C   UNL     1      -8.849  15.199  67.929  1.00  0.00    -0.166 C  
HETATM   23  C   UNL     1      -9.435  16.318  67.121  1.00  0.00    -0.231 A  
BRANCH  20  24
HETATM   24  O   UNL     1      -8.717  18.111  68.666  1.00  0.00    -0.306 OA 
HETATM   25  C   UNL     1      -7.353  18.515  68.610  1.00  0.00    -0.293 C  
ENDBRANCH  20  24
ENDBRANCH  15  16
ENDBRANCH  13  15
ENDBRANCH  10  13
ENDBRANCH   2   3
TORSDOF 5
ENDMDL
MODEL       60
REMARK 921   NORMALIZED FREE ENERGY PREDICTED BY IDOCK:   -5.42 KCAL/MOL
REMARK 922        TOTAL FREE ENERGY PREDICTED BY IDOCK:   -7.64 KCAL/MOL
REMARK 923 INTER-LIGAND FREE ENERGY PREDICTED BY IDOCK:   -7.22 KCAL/MOL
REMARK 924 INTRA-LIGAND FREE ENERGY PREDICTED BY IDOCK:   -0.42 KCAL/MOL
REMARK 927      BINDING AFFINITY PREDICTED BY RF-SCORE:    0.00 PKD
ROOT
HETATM    1  C   UNL     1      -8.650   2.767  66.183  1.00  0.00    -0.117 C  
HETATM    2  O   UNL     1      -8.958   2.788  67.572  1.00  0.00    -0.129 OA 
ENDROOT
BRANCH   2   3
HETATM    3  C   UNL     1      -9.527   3.949  68.038  1.00  0.00    -0.165 A  
HETATM    4  C   UNL     1      -9.580   4.330  69.388  1.00  0.00    -0.267 A  
HETATM    5  C   UNL     1     -10.242   5.524  69.729  1.00  0.00    -0.265 A  
HETATM    6  C   UNL     1     -10.817   6.279  68.714  1.00  0.00    -0.333 A  
HETATM    7  C   UNL     1     -10.776   5.934  67.363  1.00  0.00    -0.370 A  
HETATM    8  N   UNL     1     -11.378   7.343  69.365  1.00  0.00    -0.456 NA 
HETATM    9  C   UNL     1     -10.127   4.735  67.050  1.00  0.00    -0.228 A  
HETATM   10  C   UNL     1     -11.137   7.215  70.708  1.00  0.00    -0.269 A  
HETATM   11  H   UNL     1     -11.891   8.106  68.924  1.00  0.00     0.000 HD 
HETATM   12  N   UNL     1     -10.452   6.115  70.965  1.00  0.00    -0.220 NA 
BRANCH  10  13
HETATM   13  S   UNL     1     -11.673   8.428  71.834  1.00  0.00    -0.363 S  
HETATM   14  O   UNL     1     -10.478   9.320  72.032  1.00  0.00    -0.250 OA 
BRANCH  13  15
HETATM   15  C   UNL     1     -12.967   9.268  70.885  1.00  0.00    -0.016 C  
BRANCH  15  16
HETATM   16  C   UNL     1     -12.778  10.778  70.909  1.00  0.00    -0.384 A  
HETATM   17  N   UNL     1     -13.327  11.396  71.988  1.00  0.00    -0.413 NA 
HETATM   18  C   UNL     1     -13.198  12.737  72.089  1.00  0.00    -0.441 A  
HETATM   19  C   UNL     1     -12.567  13.534  71.148  1.00  0.00    -0.438 A  
HETATM   20  C   UNL     1     -12.002  12.896  70.035  1.00  0.00    -0.309 A  
HETATM   21  C   UNL     1     -12.523  15.024  71.328  1.00  0.00    -0.402 C  
HETATM   22  C   UNL     1     -11.425  10.752  68.777  1.00  0.00    -0.364 C  
HETATM   23  C   UNL     1     -12.068  11.489  69.913  1.00  0.00    -0.389 A  
BRANCH  20  24
HETATM   24  O   UNL     1     -11.282  13.725  69.208  1.00  0.00    -0.253 OA 
HETATM   25  C   UNL     1     -11.801  13.967  67.904  1.00  0.00    -0.378 C  
ENDBRANCH  20  24
ENDBRANCH  15  16
ENDBRANCH  13  15
ENDBRANCH  10  13
ENDBRANCH   2   3
TORSDOF 5
ENDMDL
MODEL       61
REMARK 921   NORMALIZED FREE ENERGY PREDICTED BY IDOCK:   -5.40 KCAL/MOL
REMARK 922        TOTAL FREE ENERGY PREDICTED BY IDOCK:   -7.62 KCAL/MOL
REMARK 923 INTER-LIGAND FREE ENERGY PREDICTED BY IDOCK:   -7.25 KCAL/MOL
REMARK 924 INTRA-LIGAND FREE ENERGY PREDICTED BY IDOCK:   -0.37 KCAL/MOL
REMARK 927      BINDING AFFINITY PREDICTED BY RF-SCORE:    0.00 PKD
ROOT
HETATM    1  C   UNL     1      -6.943   7.440  64.695  1.00  0.00    -0.051 C  
HETATM    2  O   UNL     1      -7.807   7.771  63.615  1.00  0.00    -0.128 OA 
ENDROOT
BRANCH   2   3
HETATM    3  C   UNL     1      -8.435   8.990  63.706  1.00  0.00    -0.159 A  
HETATM    4  C   UNL     1      -8.665   9.686  64.903  1.00  0.00    -0.207 A  
HETATM    5  C   UNL     1      -9.369  10.904  64.853  1.00  0.00    -0.224 A  
HETATM    6  C   UNL     1      -9.808  11.369  63.620  1.00  0.00    -0.348 A  
HETATM    7  C   UNL     1      -9.589  10.706  62.411  1.00  0.00    -0.181 A  
HETATM    8  N   UNL     1     -10.451  12.539  63.913  1.00  0.00    -0.425 NA 
HETATM    9  C   UNL     1      -8.902   9.491  62.487  1.00  0.00    -0.252 A  
HETATM   10  C   UNL     1     -10.387  12.750  65.265  1.00  0.00    -0.296 A  
HETATM   11  H   UNL     1     -10.904  13.154  63.236  1.00  0.00     0.000 HD 
HETATM   12  N   UNL     1      -9.740  11.771  65.870  1.00  0.00    -0.233 NA 
BRANCH  10  13
HETATM   13  S   UNL     1     -11.069  14.182  65.982  1.00  0.00    -0.320 S  
HETATM   14  O   UNL     1     -12.496  13.816  66.284  1.00  0.00    -0.438 OA 
BRANCH  13  15
HETATM   15  C   UNL     1     -10.096  14.334  67.502  1.00  0.00    -0.236 C  
BRANCH  15  16
HETATM   16  C   UNL     1     -10.966  14.151  68.737  1.00  0.00    -0.257 A  
HETATM   17  N   UNL     1     -11.193  12.854  69.076  1.00  0.00    -0.267 NA 
HETATM   18  C   UNL     1     -11.951  12.603  70.166  1.00  0.00    -0.299 A  
HETATM   19  C   UNL     1     -12.541  13.582  70.949  1.00  0.00    -0.414 A  
HETATM   20  C   UNL     1     -12.307  14.919  70.597  1.00  0.00    -0.344 A  
HETATM   21  C   UNL     1     -13.411  13.197  72.111  1.00  0.00    -0.621 C  
HETATM   22  C   UNL     1     -11.145  16.641  69.116  1.00  0.00    -0.219 C  
HETATM   23  C   UNL     1     -11.479  15.229  69.494  1.00  0.00    -0.318 A  
BRANCH  20  24
HETATM   24  O   UNL     1     -12.813  15.839  71.485  1.00  0.00    -0.456 OA 
HETATM   25  C   UNL     1     -11.963  16.271  72.542  1.00  0.00    -0.554 C  
ENDBRANCH  20  24
ENDBRANCH  15  16
ENDBRANCH  13  15
ENDBRANCH  10  13
ENDBRANCH   2   3
TORSDOF 5
ENDMDL
MODEL       62
REMARK 921   NORMALIZED FREE ENERGY PREDICTED BY IDOCK:   -5.39 KCAL/MOL
REMARK 922        TOTAL FREE ENERGY PREDICTED BY IDOCK:   -7.60 KCAL/MOL
REMARK 923 INTER-LIGAND FREE ENERGY PREDICTED BY IDOCK:   -7.08 KCAL/MOL
REMARK 924 INTRA-LIGAND FREE ENERGY PREDICTED BY IDOCK:   -0.53 KCAL/MOL
REMARK 927      BINDING AFFINITY PREDICTED BY RF-SCORE:    0.00 PKD
ROOT
HETATM    1  C   UNL     1     -10.643  17.990  65.486  1.00  0.00     0.012 C  
HETATM    2  O   UNL     1     -11.363  17.083  64.661  1.00  0.00    -0.889 OA 
ENDROOT
BRANCH   2   3
HETATM    3  C   UNL     1     -11.128  15.749  64.895  1.00  0.00    -0.399 A  
HETATM    4  C   UNL     1     -10.085  15.245  65.687  1.00  0.00    -0.401 A  
HETATM    5  C   UNL     1      -9.932  13.850  65.797  1.00  0.00    -0.284 A  
HETATM    6  C   UNL     1     -10.821  13.027  65.116  1.00  0.00    -0.300 A  
HETATM    7  C   UNL     1     -11.873  13.495  64.328  1.00  0.00    -0.471 A  
HETATM    8  N   UNL     1     -10.400  11.761  65.414  1.00  0.00    -0.257 NA 
HETATM    9  C   UNL     1     -11.995  14.884  64.220  1.00  0.00    -0.355 A  
HETATM   10  C   UNL     1      -9.309  11.842  66.239  1.00  0.00    -0.227 A  
HETATM   11  H   UNL     1     -10.828  10.898  65.078  1.00  0.00     0.000 HD 
HETATM   12  N   UNL     1      -8.993  13.100  66.489  1.00  0.00    -0.127 NA 
BRANCH  10  13
HETATM   13  S   UNL     1      -8.543  10.406  66.856  1.00  0.00    -0.127 S  
HETATM   14  O   UNL     1      -7.897  10.841  68.143  1.00  0.00    -0.105 OA 
BRANCH  13  15
HETATM   15  C   UNL     1      -9.967   9.332  67.168  1.00  0.00    -0.216 C  
BRANCH  15  16
HETATM   16  C   UNL     1     -10.173   9.105  68.659  1.00  0.00    -0.204 A  
HETATM   17  N   UNL     1      -9.487   8.047  69.166  1.00  0.00    -0.155 NA 
HETATM   18  C   UNL     1      -9.610   7.780  70.484  1.00  0.00    -0.167 A  
HETATM   19  C   UNL     1     -10.413   8.498  71.355  1.00  0.00    -0.305 A  
HETATM   20  C   UNL     1     -11.121   9.589  70.831  1.00  0.00    -0.336 A  
HETATM   21  C   UNL     1     -10.521   8.088  72.795  1.00  0.00    -0.415 C  
HETATM   22  C   UNL     1     -11.667  11.130  68.872  1.00  0.00    -0.406 C  
HETATM   23  C   UNL     1     -10.984   9.935  69.467  1.00  0.00    -0.274 A  
BRANCH  20  24
HETATM   24  O   UNL     1     -11.797  10.334  71.769  1.00  0.00    -0.215 OA 
HETATM   25  C   UNL     1     -13.184  10.069  71.944  1.00  0.00    -0.452 C  
ENDBRANCH  20  24
ENDBRANCH  15  16
ENDBRANCH  13  15
ENDBRANCH  10  13
ENDBRANCH   2   3
TORSDOF 5
ENDMDL
MODEL       63
REMARK 921   NORMALIZED FREE ENERGY PREDICTED BY IDOCK:   -5.39 KCAL/MOL
REMARK 922        TOTAL FREE ENERGY PREDICTED BY IDOCK:   -7.60 KCAL/MOL
REMARK 923 INTER-LIGAND FREE ENERGY PREDICTED BY IDOCK:   -7.24 KCAL/MOL
REMARK 924 INTRA-LIGAND FREE ENERGY PREDICTED BY IDOCK:   -0.37 KCAL/MOL
REMARK 927      BINDING AFFINITY PREDICTED BY RF-SCORE:    0.00 PKD
ROOT
HETATM    1  C   UNL     1     -10.159  19.584  67.853  1.00  0.00    -0.417 C  
HETATM    2  O   UNL     1     -10.133  18.525  68.802  1.00  0.00    -0.379 OA 
ENDROOT
BRANCH   2   3
HETATM    3  C   UNL     1     -10.568  17.305  68.345  1.00  0.00    -0.368 A  
HETATM    4  C   UNL     1     -10.517  16.885  67.007  1.00  0.00    -0.281 A  
HETATM    5  C   UNL     1     -11.048  15.625  66.673  1.00  0.00    -0.147 A  
HETATM    6  C   UNL     1     -11.600  14.846  67.682  1.00  0.00    -0.339 A  
HETATM    7  C   UNL     1     -11.659  15.230  69.023  1.00  0.00    -0.360 A  
HETATM    8  N   UNL     1     -12.027  13.717  67.039  1.00  0.00    -0.408 NA 
HETATM    9  C   UNL     1     -11.141  16.492  69.328  1.00  0.00    -0.260 A  
HETATM   10  C   UNL     1     -11.731  13.832  65.706  1.00  0.00    -0.349 A  
HETATM   11  H   UNL     1     -12.488  12.921  67.479  1.00  0.00     0.000 HD 
HETATM   12  N   UNL     1     -11.140  14.983  65.447  1.00  0.00    -0.359 NA 
BRANCH  10  13
HETATM   13  S   UNL     1     -12.095  12.544  64.593  1.00  0.00    -0.433 S  
HETATM   14  O   UNL     1     -12.408  13.237  63.296  1.00  0.00    -0.721 OA 
BRANCH  13  15
HETATM   15  C   UNL     1     -10.510  11.673  64.505  1.00  0.00    -0.308 C  
BRANCH  15  16
HETATM   16  C   UNL     1     -10.370  10.663  65.635  1.00  0.00    -0.216 A  
HETATM   17  N   UNL     1     -11.128  10.936  66.729  1.00  0.00    -0.210 NA 
HETATM   18  C   UNL     1     -11.067  10.085  67.776  1.00  0.00    -0.180 A  
HETATM   19  C   UNL     1     -10.259   8.961  67.823  1.00  0.00    -0.283 A  
HETATM   20  C   UNL     1      -9.476   8.680  66.694  1.00  0.00    -0.207 A  
HETATM   21  C   UNL     1     -10.225   8.105  69.056  1.00  0.00    -0.228 C  
HETATM   22  C   UNL     1      -8.780   9.225  64.300  1.00  0.00    -0.204 C  
HETATM   23  C   UNL     1      -9.546   9.516  65.556  1.00  0.00    -0.349 A  
BRANCH  20  24
HETATM   24  O   UNL     1      -8.797   7.487  66.754  1.00  0.00    -0.129 OA 
HETATM   25  C   UNL     1      -9.437   6.336  66.214  1.00  0.00    -0.100 C  
ENDBRANCH  20  24
ENDBRANCH  15  16
ENDBRANCH  13  15
ENDBRANCH  10  13
ENDBRANCH   2   3
TORSDOF 5
ENDMDL
MODEL       64
REMARK 921   NORMALIZED FREE ENERGY PREDICTED BY IDOCK:   -5.37 KCAL/MOL
REMARK 922        TOTAL FREE ENERGY PREDICTED BY IDOCK:   -7.58 KCAL/MOL
REMARK 923 INTER-LIGAND FREE ENERGY PREDICTED BY IDOCK:   -7.34 KCAL/MOL
REMARK 924 INTRA-LIGAND FREE ENERGY PREDICTED BY IDOCK:   -0.24 KCAL/MOL
REMARK 927      BINDING AFFINITY PREDICTED BY RF-SCORE:    0.00 PKD
ROOT
HETATM    1  C   UNL     1     -13.866  15.145  72.574  1.00  0.00    -0.502 C  
HETATM    2  O   UNL     1     -13.481  13.811  72.883  1.00  0.00    -0.652 OA 
ENDROOT
BRANCH   2   3
HETATM    3  C   UNL     1     -13.060  13.050  71.820  1.00  0.00    -0.373 A  
HETATM    4  C   UNL     1     -12.473  13.560  70.651  1.00  0.00    -0.405 A  
HETATM    5  C   UNL     1     -12.138  12.666  69.617  1.00  0.00    -0.213 A  
HETATM    6  C   UNL     1     -12.401  11.313  69.794  1.00  0.00    -0.209 A  
HETATM    7  C   UNL     1     -12.976  10.773  70.945  1.00  0.00    -0.385 A  
HETATM    8  N   UNL     1     -11.979  10.734  68.630  1.00  0.00    -0.756 NA 
HETATM    9  C   UNL     1     -13.316  11.681  71.952  1.00  0.00    -0.403 A  
HETATM   10  C   UNL     1     -11.486  11.712  67.806  1.00  0.00    -0.302 A  
HETATM   11  H   UNL     1     -12.025   9.739  68.410  1.00  0.00     0.000 HD 
HETATM   12  N   UNL     1     -11.571  12.901  68.373  1.00  0.00    -0.311 NA 
BRANCH  10  13
HETATM   13  S   UNL     1     -10.815  11.317  66.249  1.00  0.00    -0.196 S  
HETATM   14  O   UNL     1     -10.413  12.641  65.659  1.00  0.00    -0.265 OA 
BRANCH  13  15
HETATM   15  C   UNL     1      -9.363  10.337  66.709  1.00  0.00    -0.160 C  
BRANCH  15  16
HETATM   16  C   UNL     1      -9.731   9.229  67.686  1.00  0.00    -0.157 A  
HETATM   17  N   UNL     1     -10.492   8.238  67.150  1.00  0.00    -0.318 NA 
HETATM   18  C   UNL     1     -10.856   7.212  67.949  1.00  0.00    -0.150 A  
HETATM   19  C   UNL     1     -10.530   7.113  69.292  1.00  0.00    -0.220 A  
HETATM   20  C   UNL     1      -9.746   8.136  69.843  1.00  0.00    -0.176 A  
HETATM   21  C   UNL     1     -11.029   5.955  70.107  1.00  0.00    -0.412 C  
HETATM   22  C   UNL     1      -8.406  10.288  69.556  1.00  0.00    -0.162 C  
HETATM   23  C   UNL     1      -9.299   9.204  69.032  1.00  0.00    -0.151 A  
BRANCH  20  24
HETATM   24  O   UNL     1      -9.351   7.915  71.141  1.00  0.00    -0.148 OA 
HETATM   25  C   UNL     1     -10.057   8.601  72.170  1.00  0.00    -0.318 C  
ENDBRANCH  20  24
ENDBRANCH  15  16
ENDBRANCH  13  15
ENDBRANCH  10  13
ENDBRANCH   2   3
TORSDOF 5
ENDMDL
MODEL       65
REMARK 921   NORMALIZED FREE ENERGY PREDICTED BY IDOCK:   -5.37 KCAL/MOL
REMARK 922        TOTAL FREE ENERGY PREDICTED BY IDOCK:   -7.58 KCAL/MOL
REMARK 923 INTER-LIGAND FREE ENERGY PREDICTED BY IDOCK:   -7.30 KCAL/MOL
REMARK 924 INTRA-LIGAND FREE ENERGY PREDICTED BY IDOCK:   -0.28 KCAL/MOL
REMARK 927      BINDING AFFINITY PREDICTED BY RF-SCORE:    0.00 PKD
ROOT
HETATM    1  C   UNL     1     -10.670  17.050  65.295  1.00  0.00    -0.096 C  
HETATM    2  O   UNL     1     -10.861  15.809  64.627  1.00  0.00    -0.488 OA 
ENDROOT
BRANCH   2   3
HETATM    3  C   UNL     1     -11.154  14.736  65.433  1.00  0.00    -0.357 A  
HETATM    4  C   UNL     1     -10.976  14.706  66.825  1.00  0.00    -0.323 A  
HETATM    5  C   UNL     1     -11.270  13.518  67.520  1.00  0.00    -0.283 A  
HETATM    6  C   UNL     1     -11.726  12.421  66.799  1.00  0.00    -0.362 A  
HETATM    7  C   UNL     1     -11.921  12.419  65.417  1.00  0.00    -0.457 A  
HETATM    8  N   UNL     1     -11.902  11.449  67.744  1.00  0.00    -0.630 NA 
HETATM    9  C   UNL     1     -11.607  13.605  64.747  1.00  0.00    -0.374 A  
HETATM   10  C   UNL     1     -11.565  11.961  68.970  1.00  0.00    -0.317 A  
HETATM   11  H   UNL     1     -12.230  10.500  67.567  1.00  0.00     0.000 HD 
HETATM   12  N   UNL     1     -11.171  13.217  68.870  1.00  0.00    -0.265 NA 
BRANCH  10  13
HETATM   13  S   UNL     1     -11.717  11.002  70.415  1.00  0.00    -0.319 S  
HETATM   14  O   UNL     1     -13.197  10.778  70.570  1.00  0.00    -0.190 OA 
BRANCH  13  15
HETATM   15  C   UNL     1     -10.871   9.474  69.935  1.00  0.00    -0.246 C  
BRANCH  15  16
HETATM   16  C   UNL     1     -10.243   8.788  71.140  1.00  0.00    -0.246 A  
HETATM   17  N   UNL     1      -8.951   9.139  71.375  1.00  0.00    -0.318 NA 
HETATM   18  C   UNL     1      -8.320   8.580  72.431  1.00  0.00    -0.109 A  
HETATM   19  C   UNL     1      -8.894   7.647  73.279  1.00  0.00    -0.251 A  
HETATM   20  C   UNL     1     -10.226   7.285  73.035  1.00  0.00    -0.268 A  
HETATM   21  C   UNL     1      -8.091   7.045  74.395  1.00  0.00    -0.163 C  
HETATM   22  C   UNL     1     -12.386   7.579  71.706  1.00  0.00    -0.357 C  
HETATM   23  C   UNL     1     -10.941   7.882  71.971  1.00  0.00    -0.329 A  
BRANCH  20  24
HETATM   24  O   UNL     1     -10.775   6.455  73.983  1.00  0.00    -0.236 OA 
HETATM   25  C   UNL     1     -10.957   5.087  73.635  1.00  0.00    -0.314 C  
ENDBRANCH  20  24
ENDBRANCH  15  16
ENDBRANCH  13  15
ENDBRANCH  10  13
ENDBRANCH   2   3
TORSDOF 5
ENDMDL
MODEL       66
REMARK 921   NORMALIZED FREE ENERGY PREDICTED BY IDOCK:   -5.36 KCAL/MOL
REMARK 922        TOTAL FREE ENERGY PREDICTED BY IDOCK:   -7.57 KCAL/MOL
REMARK 923 INTER-LIGAND FREE ENERGY PREDICTED BY IDOCK:   -7.00 KCAL/MOL
REMARK 924 INTRA-LIGAND FREE ENERGY PREDICTED BY IDOCK:   -0.58 KCAL/MOL
REMARK 927      BINDING AFFINITY PREDICTED BY RF-SCORE:    0.00 PKD
ROOT
HETATM    1  C   UNL     1     -12.897  14.761  73.188  1.00  0.00    -0.508 C  
HETATM    2  O   UNL     1     -13.461  13.463  73.043  1.00  0.00    -0.537 OA 
ENDROOT
BRANCH   2   3
HETATM    3  C   UNL     1     -13.036  12.747  71.951  1.00  0.00    -0.371 A  
HETATM    4  C   UNL     1     -12.389  13.296  70.833  1.00  0.00    -0.413 A  
HETATM    5  C   UNL     1     -12.055  12.449  69.760  1.00  0.00    -0.223 A  
HETATM    6  C   UNL     1     -12.379  11.101  69.850  1.00  0.00    -0.261 A  
HETATM    7  C   UNL     1     -13.014  10.521  70.949  1.00  0.00    -0.455 A  
HETATM    8  N   UNL     1     -11.941  10.571  68.668  1.00  0.00    -0.769 NA 
HETATM    9  C   UNL     1     -13.351  11.385  71.996  1.00  0.00    -0.388 A  
HETATM   10  C   UNL     1     -11.380  11.572  67.918  1.00  0.00    -0.303 A  
HETATM   11  H   UNL     1     -12.019   9.593  68.390  1.00  0.00     0.000 HD 
HETATM   12  N   UNL     1     -11.437  12.730  68.550  1.00  0.00    -0.285 NA 
BRANCH  10  13
HETATM   13  S   UNL     1     -10.674  11.237  66.363  1.00  0.00    -0.246 S  
HETATM   14  O   UNL     1     -10.359  12.591  65.787  1.00  0.00    -0.255 OA 
BRANCH  13  15
HETATM   15  C   UNL     1      -9.161  10.356  66.826  1.00  0.00    -0.155 C  
BRANCH  15  16
HETATM   16  C   UNL     1      -9.320   8.852  66.647  1.00  0.00    -0.185 A  
HETATM   17  N   UNL     1     -10.441   8.335  67.215  1.00  0.00    -0.299 NA 
HETATM   18  C   UNL     1     -10.662   7.008  67.096  1.00  0.00    -0.363 A  
HETATM   19  C   UNL     1      -9.805   6.128  66.456  1.00  0.00    -0.179 A  
HETATM   20  C   UNL     1      -8.648   6.663  65.871  1.00  0.00    -0.148 A  
HETATM   21  C   UNL     1     -10.115   4.659  66.423  1.00  0.00    -0.289 C  
HETATM   22  C   UNL     1      -7.214   8.684  65.264  1.00  0.00    -0.083 C  
HETATM   23  C   UNL     1      -8.402   8.054  65.928  1.00  0.00    -0.136 A  
BRANCH  20  24
HETATM   24  O   UNL     1      -7.907   5.761  65.144  1.00  0.00    -0.093 OA 
HETATM   25  C   UNL     1      -6.714   5.259  65.737  1.00  0.00    -0.053 C  
ENDBRANCH  20  24
ENDBRANCH  15  16
ENDBRANCH  13  15
ENDBRANCH  10  13
ENDBRANCH   2   3
TORSDOF 5
ENDMDL
MODEL       67
REMARK 921   NORMALIZED FREE ENERGY PREDICTED BY IDOCK:   -5.35 KCAL/MOL
REMARK 922        TOTAL FREE ENERGY PREDICTED BY IDOCK:   -7.56 KCAL/MOL
REMARK 923 INTER-LIGAND FREE ENERGY PREDICTED BY IDOCK:   -7.21 KCAL/MOL
REMARK 924 INTRA-LIGAND FREE ENERGY PREDICTED BY IDOCK:   -0.35 KCAL/MOL
REMARK 927      BINDING AFFINITY PREDICTED BY RF-SCORE:    0.00 PKD
ROOT
HETATM    1  C   UNL     1     -11.031   6.304  71.851  1.00  0.00    -0.256 C  
HETATM    2  O   UNL     1     -10.123   7.076  71.074  1.00  0.00    -0.195 OA 
ENDROOT
BRANCH   2   3
HETATM    3  C   UNL     1     -10.617   8.257  70.578  1.00  0.00    -0.219 A  
HETATM    4  C   UNL     1     -10.443   8.710  69.261  1.00  0.00    -0.226 A  
HETATM    5  C   UNL     1     -10.961   9.968  68.903  1.00  0.00    -0.207 A  
HETATM    6  C   UNL     1     -11.627  10.713  69.869  1.00  0.00    -0.316 A  
HETATM    7  C   UNL     1     -11.824  10.290  71.184  1.00  0.00    -0.455 A  
HETATM    8  N   UNL     1     -11.986  11.861  69.218  1.00  0.00    -0.302 NA 
HETATM    9  C   UNL     1     -11.287   9.044  71.520  1.00  0.00    -0.416 A  
HETATM   10  C   UNL     1     -11.549  11.787  67.922  1.00  0.00    -0.307 A  
HETATM   11  H   UNL     1     -12.495  12.643  69.630  1.00  0.00     0.000 HD 
HETATM   12  N   UNL     1     -10.917  10.650  67.696  1.00  0.00    -0.292 NA 
BRANCH  10  13
HETATM   13  S   UNL     1     -11.881  13.067  66.790  1.00  0.00    -0.370 S  
HETATM   14  O   UNL     1     -12.252  14.247  67.646  1.00  0.00    -0.337 OA 
BRANCH  13  15
HETATM   15  C   UNL     1     -10.262  13.304  66.015  1.00  0.00    -0.291 C  
BRANCH  15  16
HETATM   16  C   UNL     1      -9.618  14.608  66.465  1.00  0.00    -0.289 A  
HETATM   17  N   UNL     1      -8.689  14.466  67.447  1.00  0.00    -0.192 NA 
HETATM   18  C   UNL     1      -8.065  15.575  67.899  1.00  0.00    -0.139 A  
HETATM   19  C   UNL     1      -8.328  16.858  67.448  1.00  0.00    -0.201 A  
HETATM   20  C   UNL     1      -9.287  17.004  66.436  1.00  0.00    -0.270 A  
HETATM   21  C   UNL     1      -7.615  18.033  68.054  1.00  0.00    -0.244 C  
HETATM   22  C   UNL     1     -10.914  15.960  64.771  1.00  0.00    -0.392 C  
HETATM   23  C   UNL     1      -9.929  15.865  65.898  1.00  0.00    -0.377 A  
BRANCH  20  24
HETATM   24  O   UNL     1      -9.409  18.282  65.946  1.00  0.00    -0.506 OA 
HETATM   25  C   UNL     1     -10.547  19.036  66.349  1.00  0.00    -0.409 C  
ENDBRANCH  20  24
ENDBRANCH  15  16
ENDBRANCH  13  15
ENDBRANCH  10  13
ENDBRANCH   2   3
TORSDOF 5
ENDMDL
MODEL       68
REMARK 921   NORMALIZED FREE ENERGY PREDICTED BY IDOCK:   -5.34 KCAL/MOL
REMARK 922        TOTAL FREE ENERGY PREDICTED BY IDOCK:   -7.53 KCAL/MOL
REMARK 923 INTER-LIGAND FREE ENERGY PREDICTED BY IDOCK:   -6.98 KCAL/MOL
REMARK 924 INTRA-LIGAND FREE ENERGY PREDICTED BY IDOCK:   -0.55 KCAL/MOL
REMARK 927      BINDING AFFINITY PREDICTED BY RF-SCORE:    0.00 PKD
ROOT
HETATM    1  C   UNL     1     -11.581  12.788  63.695  1.00  0.00    -0.506 C  
HETATM    2  O   UNL     1     -10.539  13.278  64.529  1.00  0.00    -0.379 OA 
ENDROOT
BRANCH   2   3
HETATM    3  C   UNL     1     -10.671  13.007  65.870  1.00  0.00    -0.276 A  
HETATM    4  C   UNL     1     -11.394  11.928  66.402  1.00  0.00    -0.400 A  
HETATM    5  C   UNL     1     -11.488  11.802  67.801  1.00  0.00    -0.311 A  
HETATM    6  C   UNL     1     -10.860  12.750  68.599  1.00  0.00    -0.253 A  
HETATM    7  C   UNL     1     -10.128  13.829  68.103  1.00  0.00    -0.245 A  
HETATM    8  N   UNL     1     -11.148  12.356  69.876  1.00  0.00    -0.443 NA 
HETATM    9  C   UNL     1     -10.061  13.943  66.711  1.00  0.00    -0.265 A  
HETATM   10  C   UNL     1     -11.912  11.220  69.825  1.00  0.00    -0.360 A  
HETATM   11  H   UNL     1     -10.844  12.830  70.727  1.00  0.00     0.000 HD 
HETATM   12  N   UNL     1     -12.143  10.857  68.577  1.00  0.00    -0.519 NA 
BRANCH  10  13
HETATM   13  S   UNL     1     -12.421  10.415  71.283  1.00  0.00    -0.438 S  
HETATM   14  O   UNL     1     -13.588   9.565  70.862  1.00  0.00    -0.226 OA 
BRANCH  13  15
HETATM   15  C   UNL     1     -10.974   9.396  71.667  1.00  0.00    -0.312 C  
BRANCH  15  16
HETATM   16  C   UNL     1     -10.253   8.958  70.399  1.00  0.00    -0.200 A  
HETATM   17  N   UNL     1      -9.293   9.820  69.973  1.00  0.00    -0.238 NA 
HETATM   18  C   UNL     1      -8.601   9.502  68.858  1.00  0.00    -0.128 A  
HETATM   19  C   UNL     1      -8.823   8.365  68.098  1.00  0.00    -0.142 A  
HETATM   20  C   UNL     1      -9.814   7.477  68.538  1.00  0.00    -0.165 A  
HETATM   21  C   UNL     1      -8.033   8.128  66.843  1.00  0.00    -0.104 C  
HETATM   22  C   UNL     1     -11.554   6.796  70.277  1.00  0.00    -0.417 C  
HETATM   23  C   UNL     1     -10.530   7.744  69.728  1.00  0.00    -0.233 A  
BRANCH  20  24
HETATM   24  O   UNL     1      -9.898   6.311  67.815  1.00  0.00    -0.116 OA 
HETATM   25  C   UNL     1     -10.960   6.193  66.875  1.00  0.00    -0.305 C  
ENDBRANCH  20  24
ENDBRANCH  15  16
ENDBRANCH  13  15
ENDBRANCH  10  13
ENDBRANCH   2   3
TORSDOF 5
ENDMDL
MODEL       69
REMARK 921   NORMALIZED FREE ENERGY PREDICTED BY IDOCK:   -5.33 KCAL/MOL
REMARK 922        TOTAL FREE ENERGY PREDICTED BY IDOCK:   -7.53 KCAL/MOL
REMARK 923 INTER-LIGAND FREE ENERGY PREDICTED BY IDOCK:   -7.19 KCAL/MOL
REMARK 924 INTRA-LIGAND FREE ENERGY PREDICTED BY IDOCK:   -0.34 KCAL/MOL
REMARK 927      BINDING AFFINITY PREDICTED BY RF-SCORE:    0.00 PKD
ROOT
HETATM    1  C   UNL     1     -11.931  12.757  63.534  1.00  0.00    -0.555 C  
HETATM    2  O   UNL     1     -11.441  13.917  64.195  1.00  0.00    -0.342 OA 
ENDROOT
BRANCH   2   3
HETATM    3  C   UNL     1     -11.495  13.889  65.568  1.00  0.00    -0.316 A  
HETATM    4  C   UNL     1     -11.870  12.773  66.333  1.00  0.00    -0.472 A  
HETATM    5  C   UNL     1     -11.932  12.903  67.733  1.00  0.00    -0.283 A  
HETATM    6  C   UNL     1     -11.618  14.131  68.303  1.00  0.00    -0.321 A  
HETATM    7  C   UNL     1     -11.234  15.256  67.572  1.00  0.00    -0.317 A  
HETATM    8  N   UNL     1     -11.784  13.930  69.644  1.00  0.00    -0.293 NA 
HETATM    9  C   UNL     1     -11.195  15.108  66.182  1.00  0.00    -0.271 A  
HETATM   10  C   UNL     1     -12.178  12.633  69.850  1.00  0.00    -0.168 A  
HETATM   11  H   UNL     1     -11.640  14.630  70.373  1.00  0.00     0.000 HD 
HETATM   12  N   UNL     1     -12.283  11.981  68.707  1.00  0.00    -0.230 NA 
BRANCH  10  13
HETATM   13  S   UNL     1     -12.435  12.020  71.459  1.00  0.00     0.082 S  
HETATM   14  O   UNL     1     -13.494  12.913  72.043  1.00  0.00    -0.494 OA 
BRANCH  13  15
HETATM   15  C   UNL     1     -13.086  10.364  71.123  1.00  0.00    -0.383 C  
BRANCH  15  16
HETATM   16  C   UNL     1     -11.994   9.308  71.224  1.00  0.00    -0.340 A  
HETATM   17  N   UNL     1     -10.732   9.792  71.083  1.00  0.00    -0.291 NA 
HETATM   18  C   UNL     1      -9.703   8.921  71.167  1.00  0.00    -0.274 A  
HETATM   19  C   UNL     1      -9.848   7.557  71.360  1.00  0.00    -0.191 A  
HETATM   20  C   UNL     1     -11.150   7.059  71.505  1.00  0.00    -0.243 A  
HETATM   21  C   UNL     1      -8.640   6.665  71.387  1.00  0.00    -0.125 C  
HETATM   22  C   UNL     1     -13.662   7.470  71.688  1.00  0.00    -0.465 C  
HETATM   23  C   UNL     1     -12.255   7.941  71.474  1.00  0.00    -0.338 A  
BRANCH  20  24
HETATM   24  O   UNL     1     -11.219   5.723  71.820  1.00  0.00    -0.264 OA 
HETATM   25  C   UNL     1     -11.274   5.373  73.199  1.00  0.00    -0.297 C  
ENDBRANCH  20  24
ENDBRANCH  15  16
ENDBRANCH  13  15
ENDBRANCH  10  13
ENDBRANCH   2   3
TORSDOF 5
ENDMDL
MODEL       70
REMARK 921   NORMALIZED FREE ENERGY PREDICTED BY IDOCK:   -5.31 KCAL/MOL
REMARK 922        TOTAL FREE ENERGY PREDICTED BY IDOCK:   -7.51 KCAL/MOL
REMARK 923 INTER-LIGAND FREE ENERGY PREDICTED BY IDOCK:   -7.11 KCAL/MOL
REMARK 924 INTRA-LIGAND FREE ENERGY PREDICTED BY IDOCK:   -0.39 KCAL/MOL
REMARK 927      BINDING AFFINITY PREDICTED BY RF-SCORE:    0.00 PKD
ROOT
HETATM    1  C   UNL     1     -13.806   8.636  72.023  1.00  0.00    -0.440 C  
HETATM    2  O   UNL     1     -12.434   8.997  72.128  1.00  0.00    -0.364 OA 
ENDROOT
BRANCH   2   3
HETATM    3  C   UNL     1     -11.970   9.859  71.164  1.00  0.00    -0.384 A  
HETATM    4  C   UNL     1     -12.476  11.146  70.927  1.00  0.00    -0.509 A  
HETATM    5  C   UNL     1     -11.936  11.901  69.869  1.00  0.00    -0.325 A  
HETATM    6  C   UNL     1     -10.923  11.342  69.100  1.00  0.00    -0.240 A  
HETATM    7  C   UNL     1     -10.392  10.069  69.314  1.00  0.00    -0.237 A  
HETATM    8  N   UNL     1     -10.637  12.303  68.172  1.00  0.00    -0.207 NA 
HETATM    9  C   UNL     1     -10.954   9.331  70.360  1.00  0.00    -0.302 A  
HETATM   10  C   UNL     1     -11.450  13.384  68.392  1.00  0.00    -0.316 A  
HETATM   11  H   UNL     1      -9.934  12.229  67.436  1.00  0.00     0.000 HD 
HETATM   12  N   UNL     1     -12.258  13.172  69.415  1.00  0.00    -0.206 NA 
BRANCH  10  13
HETATM   13  S   UNL     1     -11.319  14.819  67.415  1.00  0.00    -0.357 S  
HETATM   14  O   UNL     1     -11.735  15.941  68.326  1.00  0.00    -0.327 OA 
BRANCH  13  15
HETATM   15  C   UNL     1      -9.540  14.875  67.078  1.00  0.00    -0.238 C  
BRANCH  15  16
HETATM   16  C   UNL     1      -8.999  16.293  67.194  1.00  0.00    -0.195 A  
HETATM   17  N   UNL     1      -9.367  17.118  66.179  1.00  0.00    -0.452 NA 
HETATM   18  C   UNL     1      -8.935  18.398  66.209  1.00  0.00    -0.191 A  
HETATM   19  C   UNL     1      -8.113  18.921  67.194  1.00  0.00    -0.277 A  
HETATM   20  C   UNL     1      -7.734  18.068  68.240  1.00  0.00    -0.282 A  
HETATM   21  C   UNL     1      -7.644  20.345  67.109  1.00  0.00    -0.367 C  
HETATM   22  C   UNL     1      -7.881  15.802  69.404  1.00  0.00    -0.210 C  
HETATM   23  C   UNL     1      -8.204  16.735  68.276  1.00  0.00    -0.204 A  
BRANCH  20  24
HETATM   24  O   UNL     1      -7.027  18.681  69.248  1.00  0.00    -0.272 OA 
HETATM   25  C   UNL     1      -5.620  18.471  69.287  1.00  0.00    -0.213 C  
ENDBRANCH  20  24
ENDBRANCH  15  16
ENDBRANCH  13  15
ENDBRANCH  10  13
ENDBRANCH   2   3
TORSDOF 5
ENDMDL
MODEL       71
REMARK 921   NORMALIZED FREE ENERGY PREDICTED BY IDOCK:   -5.31 KCAL/MOL
REMARK 922        TOTAL FREE ENERGY PREDICTED BY IDOCK:   -7.50 KCAL/MOL
REMARK 923 INTER-LIGAND FREE ENERGY PREDICTED BY IDOCK:   -7.15 KCAL/MOL
REMARK 924 INTRA-LIGAND FREE ENERGY PREDICTED BY IDOCK:   -0.35 KCAL/MOL
REMARK 927      BINDING AFFINITY PREDICTED BY RF-SCORE:    0.00 PKD
ROOT
HETATM    1  C   UNL     1      -8.912   9.390  64.300  1.00  0.00    -0.160 C  
HETATM    2  O   UNL     1      -9.887  10.223  63.684  1.00  0.00    -0.281 OA 
ENDROOT
BRANCH   2   3
HETATM    3  C   UNL     1     -10.329  11.282  64.441  1.00  0.00    -0.329 A  
HETATM    4  C   UNL     1      -9.744  11.708  65.644  1.00  0.00    -0.262 A  
HETATM    5  C   UNL     1     -10.336  12.777  66.342  1.00  0.00    -0.258 A  
HETATM    6  C   UNL     1     -11.475  13.370  65.811  1.00  0.00    -0.320 A  
HETATM    7  C   UNL     1     -12.077  12.976  64.615  1.00  0.00    -0.463 A  
HETATM    8  N   UNL     1     -11.799  14.343  66.715  1.00  0.00    -0.410 NA 
HETATM    9  C   UNL     1     -11.481  11.902  63.947  1.00  0.00    -0.511 A  
HETATM   10  C   UNL     1     -10.881  14.321  67.733  1.00  0.00    -0.253 A  
HETATM   11  H   UNL     1     -12.592  14.980  66.644  1.00  0.00     0.000 HD 
HETATM   12  N   UNL     1      -9.979  13.377  67.540  1.00  0.00    -0.227 NA 
BRANCH  10  13
HETATM   13  S   UNL     1     -10.964  15.468  69.039  1.00  0.00    -0.277 S  
HETATM   14  O   UNL     1      -9.619  15.386  69.706  1.00  0.00    -0.266 OA 
BRANCH  13  15
HETATM   15  C   UNL     1     -11.159  17.032  68.147  1.00  0.00    -0.163 C  
BRANCH  15  16
HETATM   16  C   UNL     1      -9.832  17.511  67.575  1.00  0.00    -0.293 A  
HETATM   17  N   UNL     1      -9.287  16.678  66.649  1.00  0.00    -0.237 NA 
HETATM   18  C   UNL     1      -8.112  17.033  66.085  1.00  0.00    -0.257 A  
HETATM   19  C   UNL     1      -7.405  18.179  66.409  1.00  0.00    -0.285 A  
HETATM   20  C   UNL     1      -7.968  19.037  67.365  1.00  0.00    -0.250 A  
HETATM   21  C   UNL     1      -6.079  18.458  65.762  1.00  0.00    -0.260 C  
HETATM   22  C   UNL     1      -9.896  19.646  68.922  1.00  0.00    -0.498 C  
HETATM   23  C   UNL     1      -9.221  18.731  67.944  1.00  0.00    -0.324 A  
BRANCH  20  24
HETATM   24  O   UNL     1      -7.283  20.215  67.547  1.00  0.00    -0.260 OA 
HETATM   25  C   UNL     1      -6.451  20.323  68.697  1.00  0.00    -0.303 C  
ENDBRANCH  20  24
ENDBRANCH  15  16
ENDBRANCH  13  15
ENDBRANCH  10  13
ENDBRANCH   2   3
TORSDOF 5
ENDMDL
MODEL       72
REMARK 921   NORMALIZED FREE ENERGY PREDICTED BY IDOCK:   -5.29 KCAL/MOL
REMARK 922        TOTAL FREE ENERGY PREDICTED BY IDOCK:   -7.48 KCAL/MOL
REMARK 923 INTER-LIGAND FREE ENERGY PREDICTED BY IDOCK:   -7.09 KCAL/MOL
REMARK 924 INTRA-LIGAND FREE ENERGY PREDICTED BY IDOCK:   -0.38 KCAL/MOL
REMARK 927      BINDING AFFINITY PREDICTED BY RF-SCORE:    0.00 PKD
ROOT
HETATM    1  C   UNL     1     -11.034   6.290  68.302  1.00  0.00    -0.321 C  
HETATM    2  O   UNL     1      -9.880   7.121  68.275  1.00  0.00    -0.145 OA 
ENDROOT
BRANCH   2   3
HETATM    3  C   UNL     1      -9.987   8.265  67.522  1.00  0.00    -0.193 A  
HETATM    4  C   UNL     1     -10.781   9.373  67.856  1.00  0.00    -0.269 A  
HETATM    5  C   UNL     1     -10.836  10.460  66.963  1.00  0.00    -0.203 A  
HETATM    6  C   UNL     1     -10.100  10.393  65.786  1.00  0.00    -0.262 A  
HETATM    7  C   UNL     1      -9.295   9.311  65.428  1.00  0.00    -0.292 A  
HETATM    8  N   UNL     1     -10.375  11.572  65.152  1.00  0.00    -0.266 NA 
HETATM    9  C   UNL     1      -9.269   8.236  66.323  1.00  0.00    -0.258 A  
HETATM   10  C   UNL     1     -11.236  12.301  65.930  1.00  0.00    -0.340 A  
HETATM   11  H   UNL     1     -10.001  11.862  64.248  1.00  0.00     0.000 HD 
HETATM   12  N   UNL     1     -11.541  11.651  67.039  1.00  0.00    -0.547 NA 
BRANCH  10  13
HETATM   13  S   UNL     1     -11.759  13.888  65.443  1.00  0.00    -0.357 S  
HETATM   14  O   UNL     1     -13.238  13.747  65.210  1.00  0.00    -0.755 OA 
BRANCH  13  15
HETATM   15  C   UNL     1     -11.421  14.862  66.932  1.00  0.00    -0.313 C  
BRANCH  15  16
HETATM   16  C   UNL     1     -10.003  15.414  66.921  1.00  0.00    -0.243 A  
HETATM   17  N   UNL     1      -9.096  14.644  67.579  1.00  0.00    -0.184 NA 
HETATM   18  C   UNL     1      -7.811  15.060  67.611  1.00  0.00    -0.168 A  
HETATM   19  C   UNL     1      -7.357  16.238  67.042  1.00  0.00    -0.264 A  
HETATM   20  C   UNL     1      -8.293  17.032  66.364  1.00  0.00    -0.284 A  
HETATM   21  C   UNL     1      -5.915  16.637  67.178  1.00  0.00    -0.198 C  
HETATM   22  C   UNL     1     -10.665  17.390  65.495  1.00  0.00    -0.081 C  
HETATM   23  C   UNL     1      -9.639  16.611  66.262  1.00  0.00    -0.325 A  
BRANCH  20  24
HETATM   24  O   UNL     1      -7.756  18.118  65.715  1.00  0.00    -0.523 OA 
HETATM   25  C   UNL     1      -7.903  19.393  66.331  1.00  0.00    -0.302 C  
ENDBRANCH  20  24
ENDBRANCH  15  16
ENDBRANCH  13  15
ENDBRANCH  10  13
ENDBRANCH   2   3
TORSDOF 5
ENDMDL
MODEL       73
REMARK 921   NORMALIZED FREE ENERGY PREDICTED BY IDOCK:   -5.29 KCAL/MOL
REMARK 922        TOTAL FREE ENERGY PREDICTED BY IDOCK:   -7.47 KCAL/MOL
REMARK 923 INTER-LIGAND FREE ENERGY PREDICTED BY IDOCK:   -7.13 KCAL/MOL
REMARK 924 INTRA-LIGAND FREE ENERGY PREDICTED BY IDOCK:   -0.34 KCAL/MOL
REMARK 927      BINDING AFFINITY PREDICTED BY RF-SCORE:    0.00 PKD
ROOT
HETATM    1  C   UNL     1     -12.374  15.313  74.098  1.00  0.00    -0.625 C  
HETATM    2  O   UNL     1     -12.874  14.188  73.386  1.00  0.00    -0.422 OA 
ENDROOT
BRANCH   2   3
HETATM    3  C   UNL     1     -12.717  14.228  72.022  1.00  0.00    -0.324 A  
HETATM    4  C   UNL     1     -12.325  13.140  71.227  1.00  0.00    -0.221 A  
HETATM    5  C   UNL     1     -12.152  13.339  69.844  1.00  0.00    -0.308 A  
HETATM    6  C   UNL     1     -12.378  14.606  69.321  1.00  0.00    -0.125 A  
HETATM    7  C   UNL     1     -12.775  15.707  70.081  1.00  0.00    -0.165 A  
HETATM    8  N   UNL     1     -12.117  14.468  67.986  1.00  0.00    -0.574 NA 
HETATM    9  C   UNL     1     -12.925  15.489  71.454  1.00  0.00    -0.553 A  
HETATM   10  C   UNL     1     -11.756  13.169  67.740  1.00  0.00    -0.358 A  
HETATM   11  H   UNL     1     -12.181  15.209  67.288  1.00  0.00     0.000 HD 
HETATM   12  N   UNL     1     -11.762  12.454  68.850  1.00  0.00    -0.310 NA 
BRANCH  10  13
HETATM   13  S   UNL     1     -11.400  12.629  66.124  1.00  0.00    -0.349 S  
HETATM   14  O   UNL     1     -12.735  12.582  65.434  1.00  0.00    -0.624 OA 
BRANCH  13  15
HETATM   15  C   UNL     1     -10.385  13.990  65.494  1.00  0.00    -0.339 C  
BRANCH  15  16
HETATM   16  C   UNL     1      -9.290  14.366  66.482  1.00  0.00    -0.278 A  
HETATM   17  N   UNL     1      -8.438  13.352  66.789  1.00  0.00    -0.043 NA 
HETATM   18  C   UNL     1      -7.432  13.605  67.654  1.00  0.00    -0.183 A  
HETATM   19  C   UNL     1      -7.225  14.825  68.277  1.00  0.00    -0.115 A  
HETATM   20  C   UNL     1      -8.104  15.870  67.960  1.00  0.00    -0.141 A  
HETATM   21  C   UNL     1      -6.106  14.988  69.265  1.00  0.00    -0.107 C  
HETATM   22  C   UNL     1     -10.068  16.766  66.599  1.00  0.00    -0.304 C  
HETATM   23  C   UNL     1      -9.141  15.665  67.021  1.00  0.00    -0.239 A  
BRANCH  20  24
HETATM   24  O   UNL     1      -7.768  17.084  68.510  1.00  0.00    -0.215 OA 
HETATM   25  C   UNL     1      -7.010  17.983  67.708  1.00  0.00    -0.208 C  
ENDBRANCH  20  24
ENDBRANCH  15  16
ENDBRANCH  13  15
ENDBRANCH  10  13
ENDBRANCH   2   3
TORSDOF 5
ENDMDL
MODEL       74
REMARK 921   NORMALIZED FREE ENERGY PREDICTED BY IDOCK:   -5.28 KCAL/MOL
REMARK 922        TOTAL FREE ENERGY PREDICTED BY IDOCK:   -7.46 KCAL/MOL
REMARK 923 INTER-LIGAND FREE ENERGY PREDICTED BY IDOCK:   -7.10 KCAL/MOL
REMARK 924 INTRA-LIGAND FREE ENERGY PREDICTED BY IDOCK:   -0.36 KCAL/MOL
REMARK 927      BINDING AFFINITY PREDICTED BY RF-SCORE:    0.00 PKD
ROOT
HETATM    1  C   UNL     1     -11.927  12.959  63.668  1.00  0.00    -0.541 C  
HETATM    2  O   UNL     1     -11.788  13.994  64.633  1.00  0.00    -0.376 OA 
ENDROOT
BRANCH   2   3
HETATM    3  C   UNL     1     -11.747  13.585  65.944  1.00  0.00    -0.352 A  
HETATM    4  C   UNL     1     -11.751  12.247  66.368  1.00  0.00    -0.431 A  
HETATM    5  C   UNL     1     -11.758  11.974  67.748  1.00  0.00    -0.309 A  
HETATM    6  C   UNL     1     -11.760  13.041  68.638  1.00  0.00    -0.323 A  
HETATM    7  C   UNL     1     -11.747  14.382  68.251  1.00  0.00    -0.376 A  
HETATM    8  N   UNL     1     -11.780  12.450  69.871  1.00  0.00    -0.475 NA 
HETATM    9  C   UNL     1     -11.757  14.629  66.875  1.00  0.00    -0.366 A  
HETATM   10  C   UNL     1     -11.787  11.089  69.706  1.00  0.00    -0.347 A  
HETATM   11  H   UNL     1     -11.788  12.940  70.765  1.00  0.00     0.000 HD 
HETATM   12  N   UNL     1     -11.779  10.764  68.426  1.00  0.00    -0.465 NA 
BRANCH  10  13
HETATM   13  S   UNL     1     -11.763  10.020  71.080  1.00  0.00    -0.402 S  
HETATM   14  O   UNL     1     -12.707   8.908  70.714  1.00  0.00    -0.036 OA 
BRANCH  13  15
HETATM   15  C   UNL     1     -10.045   9.449  71.075  1.00  0.00    -0.283 C  
BRANCH  15  16
HETATM   16  C   UNL     1      -9.962   7.947  70.842  1.00  0.00    -0.182 A  
HETATM   17  N   UNL     1      -9.691   7.593  69.557  1.00  0.00    -0.167 NA 
HETATM   18  C   UNL     1      -9.594   6.277  69.266  1.00  0.00    -0.133 A  
HETATM   19  C   UNL     1      -9.780   5.258  70.186  1.00  0.00    -0.262 A  
HETATM   20  C   UNL     1     -10.059   5.625  71.510  1.00  0.00    -0.201 A  
HETATM   21  C   UNL     1      -9.701   3.824  69.750  1.00  0.00    -0.193 C  
HETATM   22  C   UNL     1     -10.353   7.436  73.284  1.00  0.00    -0.405 C  
HETATM   23  C   UNL     1     -10.121   6.991  71.870  1.00  0.00    -0.198 A  
BRANCH  20  24
HETATM   24  O   UNL     1     -10.106   4.574  72.395  1.00  0.00    -0.171 OA 
HETATM   25  C   UNL     1      -8.928   4.289  73.142  1.00  0.00    -0.111 C  
ENDBRANCH  20  24
ENDBRANCH  15  16
ENDBRANCH  13  15
ENDBRANCH  10  13
ENDBRANCH   2   3
TORSDOF 5
ENDMDL
MODEL       75
REMARK 921   NORMALIZED FREE ENERGY PREDICTED BY IDOCK:   -5.28 KCAL/MOL
REMARK 922        TOTAL FREE ENERGY PREDICTED BY IDOCK:   -7.46 KCAL/MOL
REMARK 923 INTER-LIGAND FREE ENERGY PREDICTED BY IDOCK:   -6.86 KCAL/MOL
REMARK 924 INTRA-LIGAND FREE ENERGY PREDICTED BY IDOCK:   -0.59 KCAL/MOL
REMARK 927      BINDING AFFINITY PREDICTED BY RF-SCORE:    0.00 PKD
ROOT
HETATM    1  C   UNL     1     -12.535  14.092  65.469  1.00  0.00    -0.509 C  
HETATM    2  O   UNL     1     -11.535  14.008  66.478  1.00  0.00    -0.331 OA 
ENDROOT
BRANCH   2   3
HETATM    3  C   UNL     1     -11.538  12.855  67.225  1.00  0.00    -0.360 A  
HETATM    4  C   UNL     1     -11.979  12.763  68.555  1.00  0.00    -0.265 A  
HETATM    5  C   UNL     1     -11.875  11.525  69.217  1.00  0.00    -0.348 A  
HETATM    6  C   UNL     1     -11.342  10.443  68.528  1.00  0.00    -0.220 A  
HETATM    7  C   UNL     1     -10.902  10.499  67.205  1.00  0.00    -0.319 A  
HETATM    8  N   UNL     1     -11.368   9.421  69.435  1.00  0.00    -0.438 NA 
HETATM    9  C   UNL     1     -10.999  11.742  66.572  1.00  0.00    -0.342 A  
HETATM   10  C   UNL     1     -11.900   9.889  70.609  1.00  0.00    -0.303 A  
HETATM   11  H   UNL     1     -11.046   8.468  69.267  1.00  0.00     0.000 HD 
HETATM   12  N   UNL     1     -12.216  11.167  70.513  1.00  0.00    -0.357 NA 
BRANCH  10  13
HETATM   13  S   UNL     1     -12.127   8.832  71.973  1.00  0.00    -0.384 S  
HETATM   14  O   UNL     1     -12.901   7.664  71.427  1.00  0.00    -0.337 OA 
BRANCH  13  15
HETATM   15  C   UNL     1     -10.422   8.362  72.364  1.00  0.00    -0.332 C  
BRANCH  15  16
HETATM   16  C   UNL     1     -10.142   6.919  71.971  1.00  0.00    -0.185 A  
HETATM   17  N   UNL     1      -9.915   6.733  70.644  1.00  0.00    -0.187 NA 
HETATM   18  C   UNL     1      -9.651   5.481  70.211  1.00  0.00    -0.174 A  
HETATM   19  C   UNL     1      -9.624   4.362  71.028  1.00  0.00    -0.249 A  
HETATM   20  C   UNL     1      -9.858   4.555  72.396  1.00  0.00    -0.165 A  
HETATM   21  C   UNL     1      -9.372   3.004  70.440  1.00  0.00    -0.226 C  
HETATM   22  C   UNL     1     -10.281   6.124  74.364  1.00  0.00    -0.332 C  
HETATM   23  C   UNL     1     -10.089   5.855  72.901  1.00  0.00    -0.199 A  
BRANCH  20  24
HETATM   24  O   UNL     1      -9.691   3.429  73.168  1.00  0.00    -0.108 OA 
HETATM   25  C   UNL     1     -10.851   2.664  73.476  1.00  0.00    -0.194 C  
ENDBRANCH  20  24
ENDBRANCH  15  16
ENDBRANCH  13  15
ENDBRANCH  10  13
ENDBRANCH   2   3
TORSDOF 5
ENDMDL
MODEL       76
REMARK 921   NORMALIZED FREE ENERGY PREDICTED BY IDOCK:   -5.26 KCAL/MOL
REMARK 922        TOTAL FREE ENERGY PREDICTED BY IDOCK:   -7.44 KCAL/MOL
REMARK 923 INTER-LIGAND FREE ENERGY PREDICTED BY IDOCK:   -7.17 KCAL/MOL
REMARK 924 INTRA-LIGAND FREE ENERGY PREDICTED BY IDOCK:   -0.26 KCAL/MOL
REMARK 927      BINDING AFFINITY PREDICTED BY RF-SCORE:    0.00 PKD
ROOT
HETATM    1  C   UNL     1     -10.019  20.338  67.317  1.00  0.00    -0.440 C  
HETATM    2  O   UNL     1      -9.864  19.352  68.330  1.00  0.00    -0.371 OA 
ENDROOT
BRANCH   2   3
HETATM    3  C   UNL     1     -10.186  18.067  67.966  1.00  0.00    -0.382 A  
HETATM    4  C   UNL     1     -10.586  17.057  68.855  1.00  0.00    -0.328 A  
HETATM    5  C   UNL     1     -10.835  15.768  68.347  1.00  0.00    -0.297 A  
HETATM    6  C   UNL     1     -10.674  15.546  66.985  1.00  0.00    -0.321 A  
HETATM    7  C   UNL     1     -10.286  16.529  66.073  1.00  0.00    -0.372 A  
HETATM    8  N   UNL     1     -10.973  14.222  66.823  1.00  0.00    -0.299 NA 
HETATM    9  C   UNL     1     -10.029  17.797  66.602  1.00  0.00    -0.338 A  
HETATM   10  C   UNL     1     -11.299  13.693  68.045  1.00  0.00    -0.285 A  
HETATM   11  H   UNL     1     -10.957  13.713  65.940  1.00  0.00     0.000 HD 
HETATM   12  N   UNL     1     -11.220  14.605  68.996  1.00  0.00    -0.255 NA 
BRANCH  10  13
HETATM   13  S   UNL     1     -11.783  12.027  68.199  1.00  0.00    -0.299 S  
HETATM   14  O   UNL     1     -11.716  11.479  66.800  1.00  0.00    -0.510 OA 
BRANCH  13  15
HETATM   15  C   UNL     1     -10.458  11.351  69.231  1.00  0.00    -0.067 C  
BRANCH  15  16
HETATM   16  C   UNL     1     -10.635   9.855  69.450  1.00  0.00    -0.229 A  
HETATM   17  N   UNL     1     -10.004   9.076  68.533  1.00  0.00    -0.170 NA 
HETATM   18  C   UNL     1     -10.105   7.734  68.660  1.00  0.00    -0.199 A  
HETATM   19  C   UNL     1     -10.837   7.096  69.648  1.00  0.00    -0.254 A  
HETATM   20  C   UNL     1     -11.488   7.901  70.592  1.00  0.00    -0.238 A  
HETATM   21  C   UNL     1     -10.929   5.597  69.670  1.00  0.00    -0.292 C  
HETATM   22  C   UNL     1     -11.991  10.213  71.551  1.00  0.00    -0.404 C  
HETATM   23  C   UNL     1     -11.368   9.309  70.529  1.00  0.00    -0.306 A  
BRANCH  20  24
HETATM   24  O   UNL     1     -12.088   7.208  71.616  1.00  0.00    -0.299 OA 
HETATM   25  C   UNL     1     -11.397   7.138  72.859  1.00  0.00    -0.217 C  
ENDBRANCH  20  24
ENDBRANCH  15  16
ENDBRANCH  13  15
ENDBRANCH  10  13
ENDBRANCH   2   3
TORSDOF 5
ENDMDL
MODEL       77
REMARK 921   NORMALIZED FREE ENERGY PREDICTED BY IDOCK:   -5.25 KCAL/MOL
REMARK 922        TOTAL FREE ENERGY PREDICTED BY IDOCK:   -7.43 KCAL/MOL
REMARK 923 INTER-LIGAND FREE ENERGY PREDICTED BY IDOCK:   -7.04 KCAL/MOL
REMARK 924 INTRA-LIGAND FREE ENERGY PREDICTED BY IDOCK:   -0.38 KCAL/MOL
REMARK 927      BINDING AFFINITY PREDICTED BY RF-SCORE:    0.00 PKD
ROOT
HETATM    1  C   UNL     1     -12.764  15.885  74.190  1.00  0.00    -0.520 C  
HETATM    2  O   UNL     1     -13.637  15.626  73.098  1.00  0.00    -0.541 OA 
ENDROOT
BRANCH   2   3
HETATM    3  C   UNL     1     -13.099  14.897  72.065  1.00  0.00    -0.338 A  
HETATM    4  C   UNL     1     -13.099  13.496  71.986  1.00  0.00    -0.481 A  
HETATM    5  C   UNL     1     -12.463  12.879  70.892  1.00  0.00    -0.296 A  
HETATM    6  C   UNL     1     -11.860  13.683  69.932  1.00  0.00    -0.320 A  
HETATM    7  C   UNL     1     -11.849  15.078  69.976  1.00  0.00    -0.360 A  
HETATM    8  N   UNL     1     -11.336  12.797  69.034  1.00  0.00    -0.280 NA 
HETATM    9  C   UNL     1     -12.472  15.668  71.080  1.00  0.00    -0.501 A  
HETATM   10  C   UNL     1     -11.624  11.524  69.452  1.00  0.00    -0.321 A  
HETATM   11  H   UNL     1     -10.816  13.042  68.191  1.00  0.00     0.000 HD 
HETATM   12  N   UNL     1     -12.305  11.537  70.583  1.00  0.00    -0.373 NA 
BRANCH  10  13
HETATM   13  S   UNL     1     -11.143  10.141  68.510  1.00  0.00    -0.174 S  
HETATM   14  O   UNL     1     -11.052  10.653  67.099  1.00  0.00    -0.282 OA 
BRANCH  13  15
HETATM   15  C   UNL     1      -9.500   9.787  69.186  1.00  0.00    -0.188 C  
BRANCH  15  16
HETATM   16  C   UNL     1      -9.592   8.951  70.455  1.00  0.00    -0.194 A  
HETATM   17  N   UNL     1     -10.818   8.410  70.683  1.00  0.00    -0.227 NA 
HETATM   18  C   UNL     1     -10.983   7.648  71.786  1.00  0.00    -0.239 A  
HETATM   19  C   UNL     1      -9.991   7.402  72.721  1.00  0.00    -0.263 A  
HETATM   20  C   UNL     1      -8.728   7.961  72.485  1.00  0.00    -0.154 A  
HETATM   21  C   UNL     1     -10.291   6.582  73.942  1.00  0.00    -0.356 C  
HETATM   22  C   UNL     1      -7.147   9.290  70.986  1.00  0.00    -0.090 C  
HETATM   23  C   UNL     1      -8.495   8.725  71.317  1.00  0.00    -0.238 A  
BRANCH  20  24
HETATM   24  O   UNL     1      -7.757   7.576  73.379  1.00  0.00    -0.093 OA 
HETATM   25  C   UNL     1      -7.499   8.438  74.482  1.00  0.00    -0.214 C  
ENDBRANCH  20  24
ENDBRANCH  15  16
ENDBRANCH  13  15
ENDBRANCH  10  13
ENDBRANCH   2   3
TORSDOF 5
ENDMDL
MODEL       78
REMARK 921   NORMALIZED FREE ENERGY PREDICTED BY IDOCK:   -5.23 KCAL/MOL
REMARK 922        TOTAL FREE ENERGY PREDICTED BY IDOCK:   -7.39 KCAL/MOL
REMARK 923 INTER-LIGAND FREE ENERGY PREDICTED BY IDOCK:   -6.73 KCAL/MOL
REMARK 924 INTRA-LIGAND FREE ENERGY PREDICTED BY IDOCK:   -0.66 KCAL/MOL
REMARK 927      BINDING AFFINITY PREDICTED BY RF-SCORE:    0.00 PKD
ROOT
HETATM    1  C   UNL     1     -13.332  15.788  72.806  1.00  0.00    -0.547 C  
HETATM    2  O   UNL     1     -13.430  15.340  71.460  1.00  0.00    -0.416 OA 
ENDROOT
BRANCH   2   3
HETATM    3  C   UNL     1     -13.085  14.028  71.243  1.00  0.00    -0.329 A  
HETATM    4  C   UNL     1     -13.410  12.961  72.094  1.00  0.00    -0.615 A  
HETATM    5  C   UNL     1     -12.945  11.672  71.773  1.00  0.00    -0.377 A  
HETATM    6  C   UNL     1     -12.182  11.507  70.624  1.00  0.00    -0.378 A  
HETATM    7  C   UNL     1     -11.847  12.544  69.752  1.00  0.00    -0.380 A  
HETATM    8  N   UNL     1     -11.886  10.173  70.607  1.00  0.00    -0.317 NA 
HETATM    9  C   UNL     1     -12.307  13.818  70.100  1.00  0.00    -0.390 A  
HETATM   10  C   UNL     1     -12.457   9.581  71.703  1.00  0.00    -0.391 A  
HETATM   11  H   UNL     1     -11.331   9.696  69.896  1.00  0.00     0.000 HD 
HETATM   12  N   UNL     1     -13.105  10.466  72.438  1.00  0.00    -0.176 NA 
BRANCH  10  13
HETATM   13  S   UNL     1     -12.318   7.866  71.971  1.00  0.00    -0.296 S  
HETATM   14  O   UNL     1     -13.113   7.241  70.858  1.00  0.00    -0.220 OA 
BRANCH  13  15
HETATM   15  C   UNL     1     -10.542   7.598  71.737  1.00  0.00    -0.214 C  
BRANCH  15  16
HETATM   16  C   UNL     1     -10.240   7.077  70.339  1.00  0.00    -0.196 A  
HETATM   17  N   UNL     1     -10.022   8.049  69.414  1.00  0.00    -0.186 NA 
HETATM   18  C   UNL     1      -9.740   7.671  68.148  1.00  0.00    -0.153 A  
HETATM   19  C   UNL     1      -9.686   6.355  67.719  1.00  0.00    -0.127 A  
HETATM   20  C   UNL     1      -9.912   5.354  68.675  1.00  0.00    -0.170 A  
HETATM   21  C   UNL     1      -9.415   6.040  66.276  1.00  0.00    -0.153 C  
HETATM   22  C   UNL     1     -10.346   4.670  71.095  1.00  0.00    -0.142 C  
HETATM   23  C   UNL     1     -10.161   5.702  70.022  1.00  0.00    -0.321 A  
BRANCH  20  24
HETATM   24  O   UNL     1      -9.719   4.073  68.215  1.00  0.00    -0.144 OA 
HETATM   25  C   UNL     1      -8.441   3.482  68.427  1.00  0.00    -0.088 C  
ENDBRANCH  20  24
ENDBRANCH  15  16
ENDBRANCH  13  15
ENDBRANCH  10  13
ENDBRANCH   2   3
TORSDOF 5
ENDMDL
MODEL       79
REMARK 921   NORMALIZED FREE ENERGY PREDICTED BY IDOCK:   -5.21 KCAL/MOL
REMARK 922        TOTAL FREE ENERGY PREDICTED BY IDOCK:   -7.37 KCAL/MOL
REMARK 923 INTER-LIGAND FREE ENERGY PREDICTED BY IDOCK:   -7.08 KCAL/MOL
REMARK 924 INTRA-LIGAND FREE ENERGY PREDICTED BY IDOCK:   -0.29 KCAL/MOL
REMARK 927      BINDING AFFINITY PREDICTED BY RF-SCORE:    0.00 PKD
ROOT
HETATM    1  C   UNL     1     -10.207   6.177  70.248  1.00  0.00    -0.199 C  
HETATM    2  O   UNL     1      -9.944   7.565  70.405  1.00  0.00    -0.184 OA 
ENDROOT
BRANCH   2   3
HETATM    3  C   UNL     1     -10.089   8.332  69.275  1.00  0.00    -0.199 A  
HETATM    4  C   UNL     1     -10.799   9.541  69.210  1.00  0.00    -0.211 A  
HETATM    5  C   UNL     1     -10.910  10.195  67.969  1.00  0.00    -0.270 A  
HETATM    6  C   UNL     1     -10.312   9.618  66.856  1.00  0.00    -0.238 A  
HETATM    7  C   UNL     1      -9.593   8.423  66.887  1.00  0.00    -0.264 A  
HETATM    8  N   UNL     1     -10.610  10.475  65.834  1.00  0.00    -0.136 NA 
HETATM    9  C   UNL     1      -9.510   7.782  68.127  1.00  0.00    -0.152 A  
HETATM   10  C   UNL     1     -11.351  11.515  66.332  1.00  0.00    -0.176 A  
HETATM   11  H   UNL     1     -10.327  10.361  64.860  1.00  0.00     0.000 HD 
HETATM   12  N   UNL     1     -11.557  11.374  67.629  1.00  0.00    -0.541 NA 
BRANCH  10  13
HETATM   13  S   UNL     1     -11.864  12.823  65.305  1.00  0.00    -0.427 S  
HETATM   14  O   UNL     1     -13.118  12.320  64.644  1.00  0.00    -0.770 OA 
BRANCH  13  15
HETATM   15  C   UNL     1     -12.235  14.119  66.514  1.00  0.00    -0.433 C  
BRANCH  15  16
HETATM   16  C   UNL     1     -11.032  15.026  66.739  1.00  0.00    -0.323 A  
HETATM   17  N   UNL     1     -10.139  15.038  65.715  1.00  0.00    -0.316 NA 
HETATM   18  C   UNL     1      -9.046  15.823  65.832  1.00  0.00    -0.265 A  
HETATM   19  C   UNL     1      -8.756  16.598  66.943  1.00  0.00    -0.241 A  
HETATM   20  C   UNL     1      -9.678  16.583  67.999  1.00  0.00    -0.236 A  
HETATM   21  C   UNL     1      -7.486  17.396  66.997  1.00  0.00    -0.229 C  
HETATM   22  C   UNL     1     -11.909  15.816  68.972  1.00  0.00    -0.367 C  
HETATM   23  C   UNL     1     -10.861  15.816  67.899  1.00  0.00    -0.314 A  
BRANCH  20  24
HETATM   24  O   UNL     1      -9.397  17.468  69.014  1.00  0.00    -0.209 OA 
HETATM   25  C   UNL     1      -9.721  18.838  68.801  1.00  0.00    -0.384 C  
ENDBRANCH  20  24
ENDBRANCH  15  16
ENDBRANCH  13  15
ENDBRANCH  10  13
ENDBRANCH   2   3
TORSDOF 5
ENDMDL
MODEL       80
REMARK 921   NORMALIZED FREE ENERGY PREDICTED BY IDOCK:   -5.21 KCAL/MOL
REMARK 922        TOTAL FREE ENERGY PREDICTED BY IDOCK:   -7.37 KCAL/MOL
REMARK 923 INTER-LIGAND FREE ENERGY PREDICTED BY IDOCK:   -7.05 KCAL/MOL
REMARK 924 INTRA-LIGAND FREE ENERGY PREDICTED BY IDOCK:   -0.32 KCAL/MOL
REMARK 927      BINDING AFFINITY PREDICTED BY RF-SCORE:    0.00 PKD
ROOT
HETATM    1  C   UNL     1      -9.614  10.526  62.874  1.00  0.00    -0.322 C  
HETATM    2  O   UNL     1     -10.912  11.105  62.927  1.00  0.00     0.073 OA 
ENDROOT
BRANCH   2   3
HETATM    3  C   UNL     1     -11.070  12.133  63.825  1.00  0.00    -0.436 A  
HETATM    4  C   UNL     1     -10.019  12.857  64.408  1.00  0.00    -0.159 A  
HETATM    5  C   UNL     1     -10.327  13.852  65.355  1.00  0.00    -0.348 A  
HETATM    6  C   UNL     1     -11.660  14.078  65.674  1.00  0.00    -0.331 A  
HETATM    7  C   UNL     1     -12.728  13.382  65.108  1.00  0.00    -0.459 A  
HETATM    8  N   UNL     1     -11.616  15.074  66.610  1.00  0.00    -0.263 NA 
HETATM    9  C   UNL     1     -12.398  12.388  64.182  1.00  0.00    -0.558 A  
HETATM   10  C   UNL     1     -10.307  15.418  66.826  1.00  0.00    -0.279 A  
HETATM   11  H   UNL     1     -12.424  15.492  67.072  1.00  0.00     0.000 HD 
HETATM   12  N   UNL     1      -9.494  14.690  66.082  1.00  0.00    -0.296 NA 
BRANCH  10  13
HETATM   13  S   UNL     1      -9.887  16.696  67.930  1.00  0.00    -0.254 S  
HETATM   14  O   UNL     1     -11.149  17.498  68.084  1.00  0.00    -0.233 OA 
BRANCH  13  15
HETATM   15  C   UNL     1      -9.511  15.771  69.441  1.00  0.00    -0.275 C  
BRANCH  15  16
HETATM   16  C   UNL     1     -10.778  15.230  70.089  1.00  0.00    -0.271 A  
HETATM   17  N   UNL     1     -11.463  16.143  70.827  1.00  0.00    -0.407 NA 
HETATM   18  C   UNL     1     -12.605  15.746  71.431  1.00  0.00    -0.455 A  
HETATM   19  C   UNL     1     -13.112  14.458  71.373  1.00  0.00    -0.416 A  
HETATM   20  C   UNL     1     -12.404  13.518  70.611  1.00  0.00    -0.358 A  
HETATM   21  C   UNL     1     -14.364  14.104  72.123  1.00  0.00    -0.606 C  
HETATM   22  C   UNL     1     -10.473  12.953  69.041  1.00  0.00    -0.022 C  
HETATM   23  C   UNL     1     -11.231  13.902  69.921  1.00  0.00    -0.093 A  
BRANCH  20  24
HETATM   24  O   UNL     1     -13.026  12.298  70.489  1.00  0.00     0.082 OA 
HETATM   25  C   UNL     1     -12.494  11.210  71.237  1.00  0.00    -0.360 C  
ENDBRANCH  20  24
ENDBRANCH  15  16
ENDBRANCH  13  15
ENDBRANCH  10  13
ENDBRANCH   2   3
TORSDOF 5
ENDMDL
MODEL       81
REMARK 921   NORMALIZED FREE ENERGY PREDICTED BY IDOCK:   -5.19 KCAL/MOL
REMARK 922        TOTAL FREE ENERGY PREDICTED BY IDOCK:   -7.34 KCAL/MOL
REMARK 923 INTER-LIGAND FREE ENERGY PREDICTED BY IDOCK:   -6.77 KCAL/MOL
REMARK 924 INTRA-LIGAND FREE ENERGY PREDICTED BY IDOCK:   -0.57 KCAL/MOL
REMARK 927      BINDING AFFINITY PREDICTED BY RF-SCORE:    0.00 PKD
ROOT
HETATM    1  C   UNL     1     -13.992  15.174  72.131  1.00  0.00    -0.533 C  
HETATM    2  O   UNL     1     -12.795  15.833  71.736  1.00  0.00    -0.438 OA 
ENDROOT
BRANCH   2   3
HETATM    3  C   UNL     1     -12.191  15.343  70.604  1.00  0.00    -0.385 A  
HETATM    4  C   UNL     1     -12.530  14.137  69.970  1.00  0.00    -0.352 A  
HETATM    5  C   UNL     1     -11.789  13.732  68.845  1.00  0.00    -0.360 A  
HETATM    6  C   UNL     1     -10.750  14.542  68.404  1.00  0.00    -0.243 A  
HETATM    7  C   UNL     1     -10.391  15.749  69.005  1.00  0.00    -0.223 A  
HETATM    8  N   UNL     1     -10.237  13.873  67.328  1.00  0.00    -0.248 NA 
HETATM    9  C   UNL     1     -11.131  16.124  70.131  1.00  0.00    -0.373 A  
HETATM   10  C   UNL     1     -10.952  12.719  67.145  1.00  0.00    -0.263 A  
HETATM   11  H   UNL     1      -9.452  14.183  66.755  1.00  0.00     0.000 HD 
HETATM   12  N   UNL     1     -11.902  12.598  68.054  1.00  0.00    -0.343 NA 
BRANCH  10  13
HETATM   13  S   UNL     1     -10.596  11.644  65.823  1.00  0.00    -0.279 S  
HETATM   14  O   UNL     1     -10.178  12.549  64.697  1.00  0.00    -0.302 OA 
BRANCH  13  15
HETATM   15  C   UNL     1      -9.185  10.713  66.474  1.00  0.00    -0.166 C  
BRANCH  15  16
HETATM   16  C   UNL     1      -9.642   9.541  67.330  1.00  0.00    -0.141 A  
HETATM   17  N   UNL     1     -10.298   8.568  66.645  1.00  0.00    -0.284 NA 
HETATM   18  C   UNL     1     -10.732   7.487  67.330  1.00  0.00    -0.261 A  
HETATM   19  C   UNL     1     -10.580   7.316  68.696  1.00  0.00    -0.194 A  
HETATM   20  C   UNL     1      -9.904   8.321  69.402  1.00  0.00    -0.185 A  
HETATM   21  C   UNL     1     -11.145   6.101  69.373  1.00  0.00    -0.479 C  
HETATM   22  C   UNL     1      -8.602  10.516  69.414  1.00  0.00    -0.100 C  
HETATM   23  C   UNL     1      -9.388   9.446  68.718  1.00  0.00    -0.146 A  
BRANCH  20  24
HETATM   24  O   UNL     1      -9.674   8.032  70.726  1.00  0.00    -0.165 OA 
HETATM   25  C   UNL     1     -10.548   8.612  71.689  1.00  0.00    -0.303 C  
ENDBRANCH  20  24
ENDBRANCH  15  16
ENDBRANCH  13  15
ENDBRANCH  10  13
ENDBRANCH   2   3
TORSDOF 5
ENDMDL
MODEL       82
REMARK 921   NORMALIZED FREE ENERGY PREDICTED BY IDOCK:   -5.19 KCAL/MOL
REMARK 922        TOTAL FREE ENERGY PREDICTED BY IDOCK:   -7.34 KCAL/MOL
REMARK 923 INTER-LIGAND FREE ENERGY PREDICTED BY IDOCK:   -6.85 KCAL/MOL
REMARK 924 INTRA-LIGAND FREE ENERGY PREDICTED BY IDOCK:   -0.49 KCAL/MOL
REMARK 927      BINDING AFFINITY PREDICTED BY RF-SCORE:    0.00 PKD
ROOT
HETATM    1  C   UNL     1     -12.372  15.856  71.936  1.00  0.00    -0.471 C  
HETATM    2  O   UNL     1     -12.302  14.436  71.962  1.00  0.00    -0.320 OA 
ENDROOT
BRANCH   2   3
HETATM    3  C   UNL     1     -12.220  13.820  70.737  1.00  0.00    -0.363 A  
HETATM    4  C   UNL     1     -12.190  14.489  69.503  1.00  0.00    -0.306 A  
HETATM    5  C   UNL     1     -12.159  13.727  68.321  1.00  0.00    -0.279 A  
HETATM    6  C   UNL     1     -12.158  12.341  68.421  1.00  0.00    -0.049 A  
HETATM    7  C   UNL     1     -12.179  11.645  69.631  1.00  0.00    -0.271 A  
HETATM    8  N   UNL     1     -12.137  11.911  67.124  1.00  0.00    -0.522 NA 
HETATM    9  C   UNL     1     -12.226  12.423  70.792  1.00  0.00    -0.336 A  
HETATM   10  C   UNL     1     -12.123  13.004  66.298  1.00  0.00    -0.386 A  
HETATM   11  H   UNL     1     -12.132  10.937  66.821  1.00  0.00     0.000 HD 
HETATM   12  N   UNL     1     -12.141  14.126  66.993  1.00  0.00    -0.438 NA 
BRANCH  10  13
HETATM   13  S   UNL     1     -12.047  12.819  64.569  1.00  0.00    -0.441 S  
HETATM   14  O   UNL     1     -12.632  14.092  64.022  1.00  0.00    -0.691 OA 
BRANCH  13  15
HETATM   15  C   UNL     1     -10.260  12.745  64.283  1.00  0.00    -0.327 C  
BRANCH  15  16
HETATM   16  C   UNL     1      -9.640  11.535  64.969  1.00  0.00    -0.197 A  
HETATM   17  N   UNL     1      -9.805  10.365  64.298  1.00  0.00    -0.329 NA 
HETATM   18  C   UNL     1      -9.278   9.243  64.836  1.00  0.00    -0.141 A  
HETATM   19  C   UNL     1      -8.603   9.198  66.044  1.00  0.00    -0.162 A  
HETATM   20  C   UNL     1      -8.434  10.406  66.735  1.00  0.00    -0.125 A  
HETATM   21  C   UNL     1      -8.100   7.889  66.581  1.00  0.00    -0.107 C  
HETATM   22  C   UNL     1      -8.715  12.940  66.853  1.00  0.00    -0.164 C  
HETATM   23  C   UNL     1      -8.925  11.613  66.186  1.00  0.00    -0.180 A  
BRANCH  20  24
HETATM   24  O   UNL     1      -7.648  10.315  67.860  1.00  0.00    -0.088 OA 
HETATM   25  C   UNL     1      -8.304  10.315  69.123  1.00  0.00    -0.154 C  
ENDBRANCH  20  24
ENDBRANCH  15  16
ENDBRANCH  13  15
ENDBRANCH  10  13
ENDBRANCH   2   3
TORSDOF 5
ENDMDL
MODEL       83
REMARK 921   NORMALIZED FREE ENERGY PREDICTED BY IDOCK:   -5.18 KCAL/MOL
REMARK 922        TOTAL FREE ENERGY PREDICTED BY IDOCK:   -7.34 KCAL/MOL
REMARK 923 INTER-LIGAND FREE ENERGY PREDICTED BY IDOCK:   -7.00 KCAL/MOL
REMARK 924 INTRA-LIGAND FREE ENERGY PREDICTED BY IDOCK:   -0.33 KCAL/MOL
REMARK 927      BINDING AFFINITY PREDICTED BY RF-SCORE:    0.00 PKD
ROOT
HETATM    1  C   UNL     1     -13.855  15.801  72.933  1.00  0.00    -0.488 C  
HETATM    2  O   UNL     1     -13.986  14.391  72.798  1.00  0.00    -0.569 OA 
ENDROOT
BRANCH   2   3
HETATM    3  C   UNL     1     -13.289  13.825  71.759  1.00  0.00    -0.383 A  
HETATM    4  C   UNL     1     -12.802  14.524  70.643  1.00  0.00    -0.399 A  
HETATM    5  C   UNL     1     -12.148  13.804  69.626  1.00  0.00    -0.336 A  
HETATM    6  C   UNL     1     -12.010  12.429  69.766  1.00  0.00    -0.289 A  
HETATM    7  C   UNL     1     -12.475  11.705  70.864  1.00  0.00    -0.440 A  
HETATM    8  N   UNL     1     -11.359  12.040  68.629  1.00  0.00    -0.251 NA 
HETATM    9  C   UNL     1     -13.135  12.438  71.855  1.00  0.00    -0.471 A  
HETATM   10  C   UNL     1     -11.123  13.147  67.856  1.00  0.00    -0.262 A  
HETATM   11  H   UNL     1     -11.093  11.084  68.394  1.00  0.00     0.000 HD 
HETATM   12  N   UNL     1     -11.595  14.238  68.430  1.00  0.00    -0.302 NA 
BRANCH  10  13
HETATM   13  S   UNL     1     -10.263  13.020  66.347  1.00  0.00    -0.285 S  
HETATM   14  O   UNL     1      -8.873  12.596  66.735  1.00  0.00    -0.211 OA 
BRANCH  13  15
HETATM   15  C   UNL     1     -11.154  11.674  65.526  1.00  0.00    -0.237 C  
BRANCH  15  16
HETATM   16  C   UNL     1     -10.192  10.637  64.963  1.00  0.00    -0.310 A  
HETATM   17  N   UNL     1      -9.766  10.896  63.698  1.00  0.00    -0.297 NA 
HETATM   18  C   UNL     1      -8.904  10.027  63.126  1.00  0.00    -0.237 A  
HETATM   19  C   UNL     1      -8.444   8.870  63.732  1.00  0.00    -0.147 A  
HETATM   20  C   UNL     1      -8.884   8.604  65.036  1.00  0.00    -0.070 A  
HETATM   21  C   UNL     1      -7.526   7.942  62.989  1.00  0.00    -0.118 C  
HETATM   22  C   UNL     1     -10.196   9.306  67.109  1.00  0.00    -0.324 C  
HETATM   23  C   UNL     1      -9.747   9.511  65.693  1.00  0.00    -0.361 A  
BRANCH  20  24
HETATM   24  O   UNL     1      -8.294   7.511  65.625  1.00  0.00    -0.130 OA 
HETATM   25  C   UNL     1      -7.176   7.746  66.476  1.00  0.00    -0.086 C  
ENDBRANCH  20  24
ENDBRANCH  15  16
ENDBRANCH  13  15
ENDBRANCH  10  13
ENDBRANCH   2   3
TORSDOF 5
ENDMDL
MODEL       84
REMARK 921   NORMALIZED FREE ENERGY PREDICTED BY IDOCK:   -5.16 KCAL/MOL
REMARK 922        TOTAL FREE ENERGY PREDICTED BY IDOCK:   -7.31 KCAL/MOL
REMARK 923 INTER-LIGAND FREE ENERGY PREDICTED BY IDOCK:   -6.92 KCAL/MOL
REMARK 924 INTRA-LIGAND FREE ENERGY PREDICTED BY IDOCK:   -0.39 KCAL/MOL
REMARK 927      BINDING AFFINITY PREDICTED BY RF-SCORE:    0.00 PKD
ROOT
HETATM    1  C   UNL     1     -13.163  16.083  73.454  1.00  0.00    -0.543 C  
HETATM    2  O   UNL     1     -13.911  15.600  72.344  1.00  0.00    -0.515 OA 
ENDROOT
BRANCH   2   3
HETATM    3  C   UNL     1     -13.254  14.717  71.522  1.00  0.00    -0.355 A  
HETATM    4  C   UNL     1     -13.163  13.333  71.741  1.00  0.00    -0.495 A  
HETATM    5  C   UNL     1     -12.411  12.554  70.842  1.00  0.00    -0.269 A  
HETATM    6  C   UNL     1     -11.790  13.185  69.771  1.00  0.00    -0.316 A  
HETATM    7  C   UNL     1     -11.867  14.556  69.520  1.00  0.00    -0.374 A  
HETATM    8  N   UNL     1     -11.147  12.174  69.113  1.00  0.00    -0.335 NA 
HETATM    9  C   UNL     1     -12.605  15.312  70.436  1.00  0.00    -0.421 A  
HETATM   10  C   UNL     1     -11.387  10.997  69.773  1.00  0.00    -0.292 A  
HETATM   11  H   UNL     1     -10.582  12.278  68.270  1.00  0.00     0.000 HD 
HETATM   12  N   UNL     1     -12.150  11.192  70.833  1.00  0.00    -0.344 NA 
BRANCH  10  13
HETATM   13  S   UNL     1     -10.755   9.489  69.175  1.00  0.00    -0.180 S  
HETATM   14  O   UNL     1     -10.310   9.792  67.770  1.00  0.00    -0.195 OA 
BRANCH  13  15
HETATM   15  C   UNL     1      -9.336   9.224  70.268  1.00  0.00    -0.239 C  
BRANCH  15  16
HETATM   16  C   UNL     1      -9.582   8.064  71.222  1.00  0.00    -0.156 A  
HETATM   17  N   UNL     1     -10.362   8.372  72.292  1.00  0.00    -0.314 NA 
HETATM   18  C   UNL     1     -10.634   7.395  73.184  1.00  0.00    -0.374 A  
HETATM   19  C   UNL     1     -10.148   6.102  73.099  1.00  0.00    -0.199 A  
HETATM   20  C   UNL     1      -9.343   5.785  71.996  1.00  0.00    -0.150 A  
HETATM   21  C   UNL     1     -10.467   5.102  74.173  1.00  0.00    -0.326 C  
HETATM   22  C   UNL     1      -8.271   6.458  69.780  1.00  0.00    -0.126 C  
HETATM   23  C   UNL     1      -9.072   6.762  71.011  1.00  0.00    -0.156 A  
BRANCH  20  24
HETATM   24  O   UNL     1      -8.998   4.457  71.904  1.00  0.00    -0.120 OA 
HETATM   25  C   UNL     1      -9.816   3.619  71.094  1.00  0.00    -0.130 C  
ENDBRANCH  20  24
ENDBRANCH  15  16
ENDBRANCH  13  15
ENDBRANCH  10  13
ENDBRANCH   2   3
TORSDOF 5
ENDMDL
MODEL       85
REMARK 921   NORMALIZED FREE ENERGY PREDICTED BY IDOCK:   -5.14 KCAL/MOL
REMARK 922        TOTAL FREE ENERGY PREDICTED BY IDOCK:   -7.29 KCAL/MOL
REMARK 923 INTER-LIGAND FREE ENERGY PREDICTED BY IDOCK:   -7.02 KCAL/MOL
REMARK 924 INTRA-LIGAND FREE ENERGY PREDICTED BY IDOCK:   -0.27 KCAL/MOL
REMARK 927      BINDING AFFINITY PREDICTED BY RF-SCORE:    0.00 PKD
ROOT
HETATM    1  C   UNL     1     -12.437   8.287  72.207  1.00  0.00    -0.335 C  
HETATM    2  O   UNL     1     -11.828   9.563  72.059  1.00  0.00    -0.341 OA 
ENDROOT
BRANCH   2   3
HETATM    3  C   UNL     1     -11.541   9.941  70.770  1.00  0.00    -0.349 A  
HETATM    4  C   UNL     1     -12.080  11.064  70.123  1.00  0.00    -0.438 A  
HETATM    5  C   UNL     1     -11.736  11.302  68.779  1.00  0.00    -0.338 A  
HETATM    6  C   UNL     1     -10.875  10.414  68.145  1.00  0.00    -0.264 A  
HETATM    7  C   UNL     1     -10.316   9.293  68.760  1.00  0.00    -0.231 A  
HETATM    8  N   UNL     1     -10.758  10.910  66.877  1.00  0.00    -0.265 NA 
HETATM    9  C   UNL     1     -10.684   9.069  70.090  1.00  0.00    -0.258 A  
HETATM   10  C   UNL     1     -11.518  12.045  66.776  1.00  0.00    -0.345 A  
HETATM   11  H   UNL     1     -10.196  10.502  66.129  1.00  0.00     0.000 HD 
HETATM   12  N   UNL     1     -12.132  12.311  67.914  1.00  0.00    -0.434 NA 
BRANCH  10  13
HETATM   13  S   UNL     1     -11.561  12.967  65.299  1.00  0.00    -0.360 S  
HETATM   14  O   UNL     1     -12.982  12.854  64.820  1.00  0.00    -0.743 OA 
BRANCH  13  15
HETATM   15  C   UNL     1     -11.202  14.639  65.896  1.00  0.00    -0.336 C  
BRANCH  15  16
HETATM   16  C   UNL     1      -9.927  14.668  66.727  1.00  0.00    -0.261 A  
HETATM   17  N   UNL     1      -9.099  13.610  66.521  1.00  0.00    -0.176 NA 
HETATM   18  C   UNL     1      -7.941  13.563  67.215  1.00  0.00    -0.112 A  
HETATM   19  C   UNL     1      -7.550  14.509  68.148  1.00  0.00    -0.125 A  
HETATM   20  C   UNL     1      -8.405  15.599  68.360  1.00  0.00    -0.162 A  
HETATM   21  C   UNL     1      -6.265  14.337  68.905  1.00  0.00    -0.089 C  
HETATM   22  C   UNL     1     -10.521  16.894  67.761  1.00  0.00    -0.340 C  
HETATM   23  C   UNL     1      -9.604  15.716  67.619  1.00  0.00    -0.220 A  
BRANCH  20  24
HETATM   24  O   UNL     1      -7.902  16.564  69.200  1.00  0.00    -0.239 OA 
HETATM   25  C   UNL     1      -7.262  17.687  68.605  1.00  0.00    -0.255 C  
ENDBRANCH  20  24
ENDBRANCH  15  16
ENDBRANCH  13  15
ENDBRANCH  10  13
ENDBRANCH   2   3
TORSDOF 5
ENDMDL
MODEL       86
REMARK 921   NORMALIZED FREE ENERGY PREDICTED BY IDOCK:   -5.14 KCAL/MOL
REMARK 922        TOTAL FREE ENERGY PREDICTED BY IDOCK:   -7.28 KCAL/MOL
REMARK 923 INTER-LIGAND FREE ENERGY PREDICTED BY IDOCK:   -6.67 KCAL/MOL
REMARK 924 INTRA-LIGAND FREE ENERGY PREDICTED BY IDOCK:   -0.61 KCAL/MOL
REMARK 927      BINDING AFFINITY PREDICTED BY RF-SCORE:    0.00 PKD
ROOT
HETATM    1  C   UNL     1     -14.363  15.496  71.977  1.00  0.00    -0.496 C  
HETATM    2  O   UNL     1     -13.136  15.180  71.329  1.00  0.00    -0.371 OA 
ENDROOT
BRANCH   2   3
HETATM    3  C   UNL     1     -12.903  13.843  71.114  1.00  0.00    -0.351 A  
HETATM    4  C   UNL     1     -13.349  12.806  71.948  1.00  0.00    -0.510 A  
HETATM    5  C   UNL     1     -12.991  11.482  71.632  1.00  0.00    -0.394 A  
HETATM    6  C   UNL     1     -12.210  11.254  70.505  1.00  0.00    -0.383 A  
HETATM    7  C   UNL     1     -11.758  12.261  69.651  1.00  0.00    -0.386 A  
HETATM    8  N   UNL     1     -12.034   9.899  70.489  1.00  0.00    -0.367 NA 
HETATM    9  C   UNL     1     -12.112  13.569  69.994  1.00  0.00    -0.411 A  
HETATM   10  C   UNL     1     -12.689   9.356  71.563  1.00  0.00    -0.361 A  
HETATM   11  H   UNL     1     -11.502   9.377  69.792  1.00  0.00     0.000 HD 
HETATM   12  N   UNL     1     -13.279  10.292  72.284  1.00  0.00    -0.342 NA 
BRANCH  10  13
HETATM   13  S   UNL     1     -12.713   7.635  71.823  1.00  0.00    -0.315 S  
HETATM   14  O   UNL     1     -12.513   7.040  70.456  1.00  0.00    -0.241 OA 
BRANCH  13  15
HETATM   15  C   UNL     1     -11.248   7.398  72.861  1.00  0.00    -0.319 C  
BRANCH  15  16
HETATM   16  C   UNL     1      -9.968   7.499  72.043  1.00  0.00    -0.175 A  
HETATM   17  N   UNL     1      -9.444   8.751  71.974  1.00  0.00    -0.295 NA 
HETATM   18  C   UNL     1      -8.303   8.927  71.272  1.00  0.00    -0.169 A  
HETATM   19  C   UNL     1      -7.642   7.918  70.591  1.00  0.00    -0.077 A  
HETATM   20  C   UNL     1      -8.184   6.627  70.663  1.00  0.00    -0.124 A  
HETATM   21  C   UNL     1      -6.407   8.227  69.795  1.00  0.00    -0.036 C  
HETATM   22  C   UNL     1      -9.932   5.015  71.589  1.00  0.00    -0.249 C  
HETATM   23  C   UNL     1      -9.349   6.387  71.427  1.00  0.00    -0.157 A  
BRANCH  20  24
HETATM   24  O   UNL     1      -7.414   5.652  70.074  1.00  0.00    -0.067 OA 
HETATM   25  C   UNL     1      -7.789   5.213  68.773  1.00  0.00    -0.079 C  
ENDBRANCH  20  24
ENDBRANCH  15  16
ENDBRANCH  13  15
ENDBRANCH  10  13
ENDBRANCH   2   3
TORSDOF 5
ENDMDL
MODEL       87
REMARK 921   NORMALIZED FREE ENERGY PREDICTED BY IDOCK:   -5.13 KCAL/MOL
REMARK 922        TOTAL FREE ENERGY PREDICTED BY IDOCK:   -7.27 KCAL/MOL
REMARK 923 INTER-LIGAND FREE ENERGY PREDICTED BY IDOCK:   -7.05 KCAL/MOL
REMARK 924 INTRA-LIGAND FREE ENERGY PREDICTED BY IDOCK:   -0.22 KCAL/MOL
REMARK 927      BINDING AFFINITY PREDICTED BY RF-SCORE:    0.00 PKD
ROOT
HETATM    1  C   UNL     1      -9.909  20.129  67.325  1.00  0.00    -0.441 C  
HETATM    2  O   UNL     1     -10.077  18.979  68.144  1.00  0.00    -0.356 OA 
ENDROOT
BRANCH   2   3
HETATM    3  C   UNL     1      -9.970  17.769  67.502  1.00  0.00    -0.324 A  
HETATM    4  C   UNL     1     -10.908  16.729  67.589  1.00  0.00    -0.252 A  
HETATM    5  C   UNL     1     -10.643  15.521  66.918  1.00  0.00    -0.307 A  
HETATM    6  C   UNL     1      -9.463  15.406  66.194  1.00  0.00    -0.336 A  
HETATM    7  C   UNL     1      -8.514  16.422  66.081  1.00  0.00    -0.329 A  
HETATM    8  N   UNL     1      -9.503  14.137  65.687  1.00  0.00    -0.527 NA 
HETATM    9  C   UNL     1      -8.790  17.607  66.769  1.00  0.00    -0.275 A  
HETATM   10  C   UNL     1     -10.665  13.536  66.096  1.00  0.00    -0.289 A  
HETATM   11  H   UNL     1      -8.787  13.708  65.100  1.00  0.00     0.000 HD 
HETATM   12  N   UNL     1     -11.381  14.348  66.852  1.00  0.00    -0.335 NA 
BRANCH  10  13
HETATM   13  S   UNL     1     -11.064  11.919  65.588  1.00  0.00    -0.291 S  
HETATM   14  O   UNL     1     -11.168  12.004  64.090  1.00  0.00    -0.325 OA 
BRANCH  13  15
HETATM   15  C   UNL     1      -9.588  10.998  66.091  1.00  0.00    -0.207 C  
BRANCH  15  16
HETATM   16  C   UNL     1      -9.953   9.787  66.938  1.00  0.00    -0.211 A  
HETATM   17  N   UNL     1     -10.044   8.623  66.242  1.00  0.00    -0.237 NA 
HETATM   18  C   UNL     1     -10.358   7.498  66.921  1.00  0.00    -0.309 A  
HETATM   19  C   UNL     1     -10.623   7.453  68.279  1.00  0.00    -0.204 A  
HETATM   20  C   UNL     1     -10.529   8.655  68.996  1.00  0.00    -0.199 A  
HETATM   21  C   UNL     1     -11.014   6.158  68.931  1.00  0.00    -0.424 C  
HETATM   22  C   UNL     1      -9.977  11.145  69.067  1.00  0.00    -0.155 C  
HETATM   23  C   UNL     1     -10.155   9.848  68.336  1.00  0.00    -0.189 A  
BRANCH  20  24
HETATM   24  O   UNL     1     -10.677   8.521  70.356  1.00  0.00    -0.219 OA 
HETATM   25  C   UNL     1     -11.734   9.245  70.978  1.00  0.00    -0.311 C  
ENDBRANCH  20  24
ENDBRANCH  15  16
ENDBRANCH  13  15
ENDBRANCH  10  13
ENDBRANCH   2   3
TORSDOF 5
ENDMDL
MODEL       88
REMARK 921   NORMALIZED FREE ENERGY PREDICTED BY IDOCK:   -5.13 KCAL/MOL
REMARK 922        TOTAL FREE ENERGY PREDICTED BY IDOCK:   -7.27 KCAL/MOL
REMARK 923 INTER-LIGAND FREE ENERGY PREDICTED BY IDOCK:   -7.08 KCAL/MOL
REMARK 924 INTRA-LIGAND FREE ENERGY PREDICTED BY IDOCK:   -0.19 KCAL/MOL
REMARK 927      BINDING AFFINITY PREDICTED BY RF-SCORE:    0.00 PKD
ROOT
HETATM    1  C   UNL     1     -10.102   4.941  67.288  1.00  0.00    -0.168 C  
HETATM    2  O   UNL     1      -9.645   5.932  68.201  1.00  0.00    -0.117 OA 
ENDROOT
BRANCH   2   3
HETATM    3  C   UNL     1      -9.921   7.233  67.855  1.00  0.00    -0.158 A  
HETATM    4  C   UNL     1      -9.716   7.785  66.581  1.00  0.00    -0.292 A  
HETATM    5  C   UNL     1      -9.995   9.151  66.383  1.00  0.00    -0.288 A  
HETATM    6  C   UNL     1     -10.463   9.898  67.457  1.00  0.00    -0.255 A  
HETATM    7  C   UNL     1     -10.684   9.378  68.733  1.00  0.00    -0.200 A  
HETATM    8  N   UNL     1     -10.618  11.156  66.947  1.00  0.00    -0.246 NA 
HETATM    9  C   UNL     1     -10.386   8.024  68.911  1.00  0.00    -0.222 A  
HETATM   10  C   UNL     1     -10.258  11.143  65.625  1.00  0.00    -0.256 A  
HETATM   11  H   UNL     1     -10.948  11.971  67.465  1.00  0.00     0.000 HD 
HETATM   12  N   UNL     1      -9.868   9.939  65.249  1.00  0.00    -0.317 NA 
BRANCH  10  13
HETATM   13  S   UNL     1     -10.381  12.579  64.648  1.00  0.00    -0.310 S  
HETATM   14  O   UNL     1     -10.546  12.072  63.242  1.00  0.00    -0.418 OA 
BRANCH  13  15
HETATM   15  C   UNL     1     -11.918  13.314  65.263  1.00  0.00    -0.388 C  
BRANCH  15  16
HETATM   16  C   UNL     1     -11.677  14.119  66.533  1.00  0.00    -0.397 A  
HETATM   17  N   UNL     1     -12.154  13.536  67.665  1.00  0.00    -0.325 NA 
HETATM   18  C   UNL     1     -11.975  14.182  68.838  1.00  0.00    -0.341 A  
HETATM   19  C   UNL     1     -11.361  15.417  68.964  1.00  0.00    -0.324 A  
HETATM   20  C   UNL     1     -10.871  16.017  67.796  1.00  0.00    -0.324 A  
HETATM   21  C   UNL     1     -11.258  16.076  70.309  1.00  0.00    -0.397 C  
HETATM   22  C   UNL     1     -10.426  15.922  65.284  1.00  0.00    -0.403 C  
HETATM   23  C   UNL     1     -10.991  15.354  66.552  1.00  0.00    -0.271 A  
BRANCH  20  24
HETATM   24  O   UNL     1     -10.162  17.177  68.004  1.00  0.00    -0.299 OA 
HETATM   25  C   UNL     1     -10.757  18.398  67.577  1.00  0.00    -0.365 C  
ENDBRANCH  20  24
ENDBRANCH  15  16
ENDBRANCH  13  15
ENDBRANCH  10  13
ENDBRANCH   2   3
TORSDOF 5
ENDMDL
MODEL       89
REMARK 921   NORMALIZED FREE ENERGY PREDICTED BY IDOCK:   -5.13 KCAL/MOL
REMARK 922        TOTAL FREE ENERGY PREDICTED BY IDOCK:   -7.26 KCAL/MOL
REMARK 923 INTER-LIGAND FREE ENERGY PREDICTED BY IDOCK:   -6.94 KCAL/MOL
REMARK 924 INTRA-LIGAND FREE ENERGY PREDICTED BY IDOCK:   -0.32 KCAL/MOL
REMARK 927      BINDING AFFINITY PREDICTED BY RF-SCORE:    0.00 PKD
ROOT
HETATM    1  C   UNL     1     -13.239  15.181  72.904  1.00  0.00    -0.499 C  
HETATM    2  O   UNL     1     -13.317  14.831  71.528  1.00  0.00    -0.331 OA 
ENDROOT
BRANCH   2   3
HETATM    3  C   UNL     1     -12.996  13.530  71.225  1.00  0.00    -0.304 A  
HETATM    4  C   UNL     1     -13.402  12.409  71.967  1.00  0.00    -0.511 A  
HETATM    5  C   UNL     1     -12.954  11.136  71.569  1.00  0.00    -0.437 A  
HETATM    6  C   UNL     1     -12.128  11.038  70.456  1.00  0.00    -0.377 A  
HETATM    7  C   UNL     1     -11.713  12.130  69.692  1.00  0.00    -0.396 A  
HETATM    8  N   UNL     1     -11.868   9.700  70.348  1.00  0.00    -0.418 NA 
HETATM    9  C   UNL     1     -12.157  13.386  70.115  1.00  0.00    -0.415 A  
HETATM   10  C   UNL     1     -12.520   9.042  71.358  1.00  0.00    -0.317 A  
HETATM   11  H   UNL     1     -11.285   9.264  69.634  1.00  0.00     0.000 HD 
HETATM   12  N   UNL     1     -13.187   9.886  72.123  1.00  0.00    -0.443 NA 
BRANCH  10  13
HETATM   13  S   UNL     1     -12.446   7.308  71.492  1.00  0.00    -0.387 S  
HETATM   14  O   UNL     1     -11.896   6.846  70.171  1.00  0.00    -0.299 OA 
BRANCH  13  15
HETATM   15  C   UNL     1     -11.232   7.092  72.819  1.00  0.00    -0.275 C  
BRANCH  15  16
HETATM   16  C   UNL     1     -10.603   5.707  72.773  1.00  0.00    -0.228 A  
HETATM   17  N   UNL     1     -11.342   4.736  73.372  1.00  0.00    -0.341 NA 
HETATM   18  C   UNL     1     -10.858   3.474  73.369  1.00  0.00    -0.216 A  
HETATM   19  C   UNL     1      -9.641   3.106  72.822  1.00  0.00    -0.167 A  
HETATM   20  C   UNL     1      -8.879   4.108  72.205  1.00  0.00    -0.107 A  
HETATM   21  C   UNL     1      -9.168   1.684  72.917  1.00  0.00    -0.087 C  
HETATM   22  C   UNL     1      -8.625   6.529  71.436  1.00  0.00    -0.126 C  
HETATM   23  C   UNL     1      -9.369   5.433  72.140  1.00  0.00    -0.161 A  
BRANCH  20  24
HETATM   24  O   UNL     1      -7.746   3.656  71.571  1.00  0.00    -0.054 OA 
HETATM   25  C   UNL     1      -7.835   3.383  70.177  1.00  0.00    -0.046 C  
ENDBRANCH  20  24
ENDBRANCH  15  16
ENDBRANCH  13  15
ENDBRANCH  10  13
ENDBRANCH   2   3
TORSDOF 5
ENDMDL
MODEL       90
REMARK 921   NORMALIZED FREE ENERGY PREDICTED BY IDOCK:   -5.11 KCAL/MOL
REMARK 922        TOTAL FREE ENERGY PREDICTED BY IDOCK:   -7.25 KCAL/MOL
REMARK 923 INTER-LIGAND FREE ENERGY PREDICTED BY IDOCK:   -6.76 KCAL/MOL
REMARK 924 INTRA-LIGAND FREE ENERGY PREDICTED BY IDOCK:   -0.49 KCAL/MOL
REMARK 927      BINDING AFFINITY PREDICTED BY RF-SCORE:    0.00 PKD
ROOT
HETATM    1  C   UNL     1      -9.038  18.724  68.025  1.00  0.00    -0.299 C  
HETATM    2  O   UNL     1      -9.851  18.365  66.915  1.00  0.00    -0.307 OA 
ENDROOT
BRANCH   2   3
HETATM    3  C   UNL     1      -9.888  17.025  66.613  1.00  0.00    -0.290 A  
HETATM    4  C   UNL     1      -9.175  16.028  67.296  1.00  0.00    -0.215 A  
HETATM    5  C   UNL     1      -9.268  14.699  66.843  1.00  0.00    -0.249 A  
HETATM    6  C   UNL     1     -10.062  14.426  65.736  1.00  0.00    -0.340 A  
HETATM    7  C   UNL     1     -10.790  15.391  65.039  1.00  0.00    -0.462 A  
HETATM    8  N   UNL     1      -9.929  13.078  65.552  1.00  0.00    -0.416 NA 
HETATM    9  C   UNL     1     -10.670  16.707  65.498  1.00  0.00    -0.234 A  
HETATM   10  C   UNL     1      -9.091  12.583  66.517  1.00  0.00    -0.177 A  
HETATM   11  H   UNL     1     -10.379  12.531  64.818  1.00  0.00     0.000 HD 
HETATM   12  N   UNL     1      -8.665  13.543  67.317  1.00  0.00    -0.216 NA 
BRANCH  10  13
HETATM   13  S   UNL     1      -8.736  10.881  66.608  1.00  0.00    -0.160 S  
HETATM   14  O   UNL     1      -7.945  10.723  67.877  1.00  0.00    -0.107 OA 
BRANCH  13  15
HETATM   15  C   UNL     1     -10.392  10.167  66.775  1.00  0.00    -0.222 C  
BRANCH  15  16
HETATM   16  C   UNL     1     -11.010  10.512  68.123  1.00  0.00    -0.277 A  
HETATM   17  N   UNL     1     -11.569  11.749  68.183  1.00  0.00    -0.360 NA 
HETATM   18  C   UNL     1     -12.146  12.132  69.343  1.00  0.00    -0.190 A  
HETATM   19  C   UNL     1     -12.182  11.357  70.490  1.00  0.00    -0.478 A  
HETATM   20  C   UNL     1     -11.605  10.081  70.427  1.00  0.00    -0.302 A  
HETATM   21  C   UNL     1     -12.803  11.895  71.747  1.00  0.00    -0.389 C  
HETATM   22  C   UNL     1     -10.462   8.240  69.079  1.00  0.00    -0.212 C  
HETATM   23  C   UNL     1     -11.034   9.619  69.218  1.00  0.00    -0.194 A  
BRANCH  20  24
HETATM   24  O   UNL     1     -11.787   9.316  71.555  1.00  0.00    -0.321 OA 
HETATM   25  C   UNL     1     -12.996   8.571  71.658  1.00  0.00    -0.343 C  
ENDBRANCH  20  24
ENDBRANCH  15  16
ENDBRANCH  13  15
ENDBRANCH  10  13
ENDBRANCH   2   3
TORSDOF 5
ENDMDL
MODEL       91
REMARK 921   NORMALIZED FREE ENERGY PREDICTED BY IDOCK:   -5.09 KCAL/MOL
REMARK 922        TOTAL FREE ENERGY PREDICTED BY IDOCK:   -7.22 KCAL/MOL
REMARK 923 INTER-LIGAND FREE ENERGY PREDICTED BY IDOCK:   -6.96 KCAL/MOL
REMARK 924 INTRA-LIGAND FREE ENERGY PREDICTED BY IDOCK:   -0.26 KCAL/MOL
REMARK 927      BINDING AFFINITY PREDICTED BY RF-SCORE:    0.00 PKD
ROOT
HETATM    1  C   UNL     1      -8.341  20.396  67.250  1.00  0.00    -0.335 C  
HETATM    2  O   UNL     1      -9.604  19.804  67.529  1.00  0.00    -0.320 OA 
ENDROOT
BRANCH   2   3
HETATM    3  C   UNL     1      -9.579  18.466  67.842  1.00  0.00    -0.293 A  
HETATM    4  C   UNL     1     -10.629  17.566  67.603  1.00  0.00    -0.355 A  
HETATM    5  C   UNL     1     -10.485  16.231  68.024  1.00  0.00    -0.293 A  
HETATM    6  C   UNL     1      -9.308  15.856  68.659  1.00  0.00    -0.212 A  
HETATM    7  C   UNL     1      -8.242  16.722  68.905  1.00  0.00    -0.224 A  
HETATM    8  N   UNL     1      -9.488  14.531  68.945  1.00  0.00    -0.323 NA 
HETATM    9  C   UNL     1      -8.413  18.047  68.492  1.00  0.00    -0.314 A  
HETATM   10  C   UNL     1     -10.723  14.147  68.491  1.00  0.00    -0.254 A  
HETATM   11  H   UNL     1      -8.815  13.928  69.417  1.00  0.00     0.000 HD 
HETATM   12  N   UNL     1     -11.360  15.159  67.929  1.00  0.00    -0.329 NA 
BRANCH  10  13
HETATM   13  S   UNL     1     -11.263  12.500  68.647  1.00  0.00    -0.299 S  
HETATM   14  O   UNL     1     -12.091  12.251  67.417  1.00  0.00    -0.533 OA 
BRANCH  13  15
HETATM   15  C   UNL     1      -9.698  11.590  68.579  1.00  0.00    -0.189 C  
BRANCH  15  16
HETATM   16  C   UNL     1      -9.923  10.130  68.211  1.00  0.00    -0.148 A  
HETATM   17  N   UNL     1      -9.926   9.883  66.874  1.00  0.00    -0.201 NA 
HETATM   18  C   UNL     1     -10.113   8.610  66.462  1.00  0.00    -0.269 A  
HETATM   19  C   UNL     1     -10.330   7.538  67.311  1.00  0.00    -0.366 A  
HETATM   20  C   UNL     1     -10.327   7.794  68.689  1.00  0.00    -0.199 A  
HETATM   21  C   UNL     1     -10.579   6.168  66.750  1.00  0.00    -0.351 C  
HETATM   22  C   UNL     1     -10.008   9.418  70.632  1.00  0.00    -0.349 C  
HETATM   23  C   UNL     1     -10.086   9.103  69.168  1.00  0.00    -0.199 A  
BRANCH  20  24
HETATM   24  O   UNL     1     -10.421   6.672  69.478  1.00  0.00    -0.194 OA 
HETATM   25  C   UNL     1     -11.629   6.478  70.206  1.00  0.00    -0.409 C  
ENDBRANCH  20  24
ENDBRANCH  15  16
ENDBRANCH  13  15
ENDBRANCH  10  13
ENDBRANCH   2   3
TORSDOF 5
ENDMDL
MODEL       92
REMARK 921   NORMALIZED FREE ENERGY PREDICTED BY IDOCK:   -5.09 KCAL/MOL
REMARK 922        TOTAL FREE ENERGY PREDICTED BY IDOCK:   -7.22 KCAL/MOL
REMARK 923 INTER-LIGAND FREE ENERGY PREDICTED BY IDOCK:   -7.00 KCAL/MOL
REMARK 924 INTRA-LIGAND FREE ENERGY PREDICTED BY IDOCK:   -0.22 KCAL/MOL
REMARK 927      BINDING AFFINITY PREDICTED BY RF-SCORE:    0.00 PKD
ROOT
HETATM    1  C   UNL     1     -11.535  16.010  70.429  1.00  0.00    -0.377 C  
HETATM    2  O   UNL     1     -11.872  14.893  69.615  1.00  0.00    -0.285 OA 
ENDROOT
BRANCH   2   3
HETATM    3  C   UNL     1     -12.220  13.748  70.290  1.00  0.00    -0.359 A  
HETATM    4  C   UNL     1     -11.935  12.443  69.857  1.00  0.00    -0.369 A  
HETATM    5  C   UNL     1     -12.399  11.359  70.625  1.00  0.00    -0.373 A  
HETATM    6  C   UNL     1     -13.122  11.623  71.782  1.00  0.00    -0.382 A  
HETATM    7  C   UNL     1     -13.416  12.906  72.244  1.00  0.00    -0.631 A  
HETATM    8  N   UNL     1     -13.428  10.385  72.275  1.00  0.00    -0.568 NA 
HETATM    9  C   UNL     1     -12.958  13.967  71.457  1.00  0.00    -0.427 A  
HETATM   10  C   UNL     1     -12.902   9.435  71.439  1.00  0.00    -0.345 A  
HETATM   11  H   UNL     1     -13.961  10.199  73.125  1.00  0.00     0.000 HD 
HETATM   12  N   UNL     1     -12.273   9.993  70.420  1.00  0.00    -0.214 NA 
BRANCH  10  13
HETATM   13  S   UNL     1     -13.065   7.739  71.794  1.00  0.00    -0.294 S  
HETATM   14  O   UNL     1     -14.372   7.341  71.166  1.00  0.00    -0.349 OA 
BRANCH  13  15
HETATM   15  C   UNL     1     -11.663   7.035  70.890  1.00  0.00    -0.343 C  
BRANCH  15  16
HETATM   16  C   UNL     1     -10.351   7.284  71.623  1.00  0.00    -0.197 A  
HETATM   17  N   UNL     1      -9.601   8.291  71.104  1.00  0.00    -0.156 NA 
HETATM   18  C   UNL     1      -8.424   8.581  71.700  1.00  0.00    -0.178 A  
HETATM   19  C   UNL     1      -7.913   7.900  72.792  1.00  0.00    -0.175 A  
HETATM   20  C   UNL     1      -8.688   6.861  73.327  1.00  0.00    -0.126 A  
HETATM   21  C   UNL     1      -6.568   8.267  73.350  1.00  0.00    -0.130 C  
HETATM   22  C   UNL     1     -10.845   5.497  73.338  1.00  0.00    -0.332 C  
HETATM   23  C   UNL     1      -9.949   6.555  72.766  1.00  0.00    -0.186 A  
BRANCH  20  24
HETATM   24  O   UNL     1      -8.186   6.311  74.483  1.00  0.00    -0.121 OA 
HETATM   25  C   UNL     1      -7.462   5.091  74.372  1.00  0.00    -0.086 C  
ENDBRANCH  20  24
ENDBRANCH  15  16
ENDBRANCH  13  15
ENDBRANCH  10  13
ENDBRANCH   2   3
TORSDOF 5
ENDMDL
MODEL       93
REMARK 921   NORMALIZED FREE ENERGY PREDICTED BY IDOCK:   -5.09 KCAL/MOL
REMARK 922        TOTAL FREE ENERGY PREDICTED BY IDOCK:   -7.22 KCAL/MOL
REMARK 923 INTER-LIGAND FREE ENERGY PREDICTED BY IDOCK:   -6.97 KCAL/MOL
REMARK 924 INTRA-LIGAND FREE ENERGY PREDICTED BY IDOCK:   -0.25 KCAL/MOL
REMARK 927      BINDING AFFINITY PREDICTED BY RF-SCORE:    0.00 PKD
ROOT
HETATM    1  C   UNL     1     -10.809  17.305  65.161  1.00  0.00     0.058 C  
HETATM    2  O   UNL     1     -11.111  16.099  64.469  1.00  0.00    -0.634 OA 
ENDROOT
BRANCH   2   3
HETATM    3  C   UNL     1     -11.377  15.009  65.261  1.00  0.00    -0.349 A  
HETATM    4  C   UNL     1     -11.095  14.925  66.634  1.00  0.00    -0.329 A  
HETATM    5  C   UNL     1     -11.375  13.723  67.310  1.00  0.00    -0.321 A  
HETATM    6  C   UNL     1     -11.921  12.666  66.593  1.00  0.00    -0.312 A  
HETATM    7  C   UNL     1     -12.221  12.719  65.231  1.00  0.00    -0.535 A  
HETATM    8  N   UNL     1     -12.056  11.668  67.517  1.00  0.00    -0.532 NA 
HETATM    9  C   UNL     1     -11.919  13.917  64.576  1.00  0.00    -0.464 A  
HETATM   10  C   UNL     1     -11.610  12.127  68.729  1.00  0.00    -0.327 A  
HETATM   11  H   UNL     1     -12.429  10.736  67.335  1.00  0.00     0.000 HD 
HETATM   12  N   UNL     1     -11.182  13.373  68.638  1.00  0.00    -0.254 NA 
BRANCH  10  13
HETATM   13  S   UNL     1     -11.683  11.123  70.149  1.00  0.00    -0.354 S  
HETATM   14  O   UNL     1     -13.119  10.682  70.231  1.00  0.00    -0.223 OA 
BRANCH  13  15
HETATM   15  C   UNL     1     -10.601   9.747  69.686  1.00  0.00    -0.239 C  
BRANCH  15  16
HETATM   16  C   UNL     1     -10.085   9.011  70.914  1.00  0.00    -0.262 A  
HETATM   17  N   UNL     1     -11.056   8.616  71.780  1.00  0.00    -0.301 NA 
HETATM   18  C   UNL     1     -10.683   7.950  72.894  1.00  0.00    -0.375 A  
HETATM   19  C   UNL     1      -9.371   7.664  73.232  1.00  0.00    -0.299 A  
HETATM   20  C   UNL     1      -8.370   8.072  72.338  1.00  0.00    -0.153 A  
HETATM   21  C   UNL     1      -9.057   6.962  74.521  1.00  0.00    -0.223 C  
HETATM   22  C   UNL     1      -7.693   9.128  70.116  1.00  0.00    -0.105 C  
HETATM   23  C   UNL     1      -8.718   8.729  71.135  1.00  0.00    -0.265 A  
BRANCH  20  24
HETATM   24  O   UNL     1      -7.104   7.648  72.666  1.00  0.00    -0.068 OA 
HETATM   25  C   UNL     1      -6.265   8.560  73.366  1.00  0.00    -0.105 C  
ENDBRANCH  20  24
ENDBRANCH  15  16
ENDBRANCH  13  15
ENDBRANCH  10  13
ENDBRANCH   2   3
TORSDOF 5
ENDMDL
MODEL       94
REMARK 921   NORMALIZED FREE ENERGY PREDICTED BY IDOCK:   -5.09 KCAL/MOL
REMARK 922        TOTAL FREE ENERGY PREDICTED BY IDOCK:   -7.22 KCAL/MOL
REMARK 923 INTER-LIGAND FREE ENERGY PREDICTED BY IDOCK:   -6.90 KCAL/MOL
REMARK 924 INTRA-LIGAND FREE ENERGY PREDICTED BY IDOCK:   -0.32 KCAL/MOL
REMARK 927      BINDING AFFINITY PREDICTED BY RF-SCORE:    0.00 PKD
ROOT
HETATM    1  C   UNL     1     -10.084  18.610  67.935  1.00  0.00    -0.369 C  
HETATM    2  O   UNL     1     -10.437  17.577  68.847  1.00  0.00    -0.349 OA 
ENDROOT
BRANCH   2   3
HETATM    3  C   UNL     1     -10.790  16.376  68.280  1.00  0.00    -0.347 A  
HETATM    4  C   UNL     1     -10.668  16.066  66.916  1.00  0.00    -0.262 A  
HETATM    5  C   UNL     1     -11.120  14.812  66.465  1.00  0.00    -0.334 A  
HETATM    6  C   UNL     1     -11.668  13.930  67.387  1.00  0.00    -0.389 A  
HETATM    7  C   UNL     1     -11.797  14.203  68.750  1.00  0.00    -0.384 A  
HETATM    8  N   UNL     1     -12.011  12.836  66.642  1.00  0.00    -0.478 NA 
HETATM    9  C   UNL     1     -11.357  15.461  69.173  1.00  0.00    -0.323 A  
HETATM   10  C   UNL     1     -11.672  13.070  65.335  1.00  0.00    -0.364 A  
HETATM   11  H   UNL     1     -12.447  11.986  67.000  1.00  0.00     0.000 HD 
HETATM   12  N   UNL     1     -11.132  14.266  65.190  1.00  0.00    -0.333 NA 
BRANCH  10  13
HETATM   13  S   UNL     1     -11.927  11.857  64.112  1.00  0.00    -0.269 S  
HETATM   14  O   UNL     1     -12.841  12.510  63.112  1.00  0.00    -0.599 OA 
BRANCH  13  15
HETATM   15  C   UNL     1     -10.258  11.654  63.440  1.00  0.00    -0.433 C  
BRANCH  15  16
HETATM   16  C   UNL     1      -9.531  10.493  64.103  1.00  0.00    -0.293 A  
HETATM   17  N   UNL     1     -10.157   9.994  65.202  1.00  0.00    -0.288 NA 
HETATM   18  C   UNL     1      -9.581   8.957  65.847  1.00  0.00    -0.223 A  
HETATM   19  C   UNL     1      -8.376   8.381  65.481  1.00  0.00    -0.161 A  
HETATM   20  C   UNL     1      -7.731   8.897  64.348  1.00  0.00    -0.120 A  
HETATM   21  C   UNL     1      -7.793   7.263  66.296  1.00  0.00    -0.106 C  
HETATM   22  C   UNL     1      -7.707  10.494  62.357  1.00  0.00    -0.189 C  
HETATM   23  C   UNL     1      -8.322   9.950  63.612  1.00  0.00    -0.164 A  
BRANCH  20  24
HETATM   24  O   UNL     1      -6.609   8.201  63.964  1.00  0.00    -0.065 OA 
HETATM   25  C   UNL     1      -6.732   7.308  62.862  1.00  0.00    -0.053 C  
ENDBRANCH  20  24
ENDBRANCH  15  16
ENDBRANCH  13  15
ENDBRANCH  10  13
ENDBRANCH   2   3
TORSDOF 5
ENDMDL
MODEL       95
REMARK 921   NORMALIZED FREE ENERGY PREDICTED BY IDOCK:   -5.07 KCAL/MOL
REMARK 922        TOTAL FREE ENERGY PREDICTED BY IDOCK:   -7.19 KCAL/MOL
REMARK 923 INTER-LIGAND FREE ENERGY PREDICTED BY IDOCK:   -6.85 KCAL/MOL
REMARK 924 INTRA-LIGAND FREE ENERGY PREDICTED BY IDOCK:   -0.33 KCAL/MOL
REMARK 927      BINDING AFFINITY PREDICTED BY RF-SCORE:    0.00 PKD
ROOT
HETATM    1  C   UNL     1      -9.554  20.390  67.008  1.00  0.00    -0.431 C  
HETATM    2  O   UNL     1      -9.935  19.461  68.016  1.00  0.00    -0.340 OA 
ENDROOT
BRANCH   2   3
HETATM    3  C   UNL     1     -10.266  18.204  67.573  1.00  0.00    -0.371 A  
HETATM    4  C   UNL     1     -10.477  17.091  68.402  1.00  0.00    -0.370 A  
HETATM    5  C   UNL     1     -10.760  15.847  67.806  1.00  0.00    -0.320 A  
HETATM    6  C   UNL     1     -10.820  15.771  66.420  1.00  0.00    -0.226 A  
HETATM    7  C   UNL     1     -10.623  16.858  65.568  1.00  0.00    -0.215 A  
HETATM    8  N   UNL     1     -11.094  14.455  66.169  1.00  0.00    -0.323 NA 
HETATM    9  C   UNL     1     -10.327  18.080  66.181  1.00  0.00    -0.368 A  
HETATM   10  C   UNL     1     -11.193  13.790  67.363  1.00  0.00    -0.310 A  
HETATM   11  H   UNL     1     -11.206  14.038  65.245  1.00  0.00     0.000 HD 
HETATM   12  N   UNL     1     -10.990  14.606  68.381  1.00  0.00    -0.244 NA 
BRANCH  10  13
HETATM   13  S   UNL     1     -11.585  12.095  67.415  1.00  0.00    -0.316 S  
HETATM   14  O   UNL     1     -11.975  11.750  66.003  1.00  0.00    -0.435 OA 
BRANCH  13  15
HETATM   15  C   UNL     1      -9.989  11.360  67.851  1.00  0.00    -0.177 C  
BRANCH  15  16
HETATM   16  C   UNL     1     -10.098  10.504  69.106  1.00  0.00    -0.224 A  
HETATM   17  N   UNL     1     -11.293  10.599  69.746  1.00  0.00    -0.278 NA 
HETATM   18  C   UNL     1     -11.476   9.865  70.866  1.00  0.00    -0.376 A  
HETATM   19  C   UNL     1     -10.513   9.041  71.425  1.00  0.00    -0.395 A  
HETATM   20  C   UNL     1      -9.281   8.945  70.764  1.00  0.00    -0.223 A  
HETATM   21  C   UNL     1     -10.797   8.307  72.704  1.00  0.00    -0.381 C  
HETATM   22  C   UNL     1      -7.788   9.538  68.780  1.00  0.00    -0.084 C  
HETATM   23  C   UNL     1      -9.063   9.656  69.561  1.00  0.00    -0.209 A  
BRANCH  20  24
HETATM   24  O   UNL     1      -8.418   8.017  71.296  1.00  0.00    -0.111 OA 
HETATM   25  C   UNL     1      -8.372   6.733  70.683  1.00  0.00    -0.129 C  
ENDBRANCH  20  24
ENDBRANCH  15  16
ENDBRANCH  13  15
ENDBRANCH  10  13
ENDBRANCH   2   3
TORSDOF 5
ENDMDL
MODEL       96
REMARK 921   NORMALIZED FREE ENERGY PREDICTED BY IDOCK:   -5.06 KCAL/MOL
REMARK 922        TOTAL FREE ENERGY PREDICTED BY IDOCK:   -7.18 KCAL/MOL
REMARK 923 INTER-LIGAND FREE ENERGY PREDICTED BY IDOCK:   -6.74 KCAL/MOL
REMARK 924 INTRA-LIGAND FREE ENERGY PREDICTED BY IDOCK:   -0.44 KCAL/MOL
REMARK 927      BINDING AFFINITY PREDICTED BY RF-SCORE:    0.00 PKD
ROOT
HETATM    1  C   UNL     1     -10.656   6.942  68.074  1.00  0.00    -0.222 C  
HETATM    2  O   UNL     1     -10.440   8.092  67.267  1.00  0.00    -0.274 OA 
ENDROOT
BRANCH   2   3
HETATM    3  C   UNL     1     -10.670   9.301  67.878  1.00  0.00    -0.188 A  
HETATM    4  C   UNL     1     -10.738  10.536  67.214  1.00  0.00    -0.333 A  
HETATM    5  C   UNL     1     -10.928  11.704  67.976  1.00  0.00    -0.224 A  
HETATM    6  C   UNL     1     -11.041  11.589  69.355  1.00  0.00    -0.226 A  
HETATM    7  C   UNL     1     -10.985  10.377  70.046  1.00  0.00    -0.370 A  
HETATM    8  N   UNL     1     -11.200  12.876  69.788  1.00  0.00    -0.489 NA 
HETATM    9  C   UNL     1     -10.780   9.232  69.270  1.00  0.00    -0.211 A  
HETATM   10  C   UNL     1     -11.184  13.710  68.701  1.00  0.00    -0.277 A  
HETATM   11  H   UNL     1     -11.312  13.167  70.759  1.00  0.00     0.000 HD 
HETATM   12  N   UNL     1     -11.015  13.031  67.581  1.00  0.00    -0.248 NA 
BRANCH  10  13
HETATM   13  S   UNL     1     -11.411  15.426  68.885  1.00  0.00    -0.336 S  
HETATM   14  O   UNL     1     -10.373  15.843  69.890  1.00  0.00    -0.288 OA 
BRANCH  13  15
HETATM   15  C   UNL     1     -11.000  16.034  67.229  1.00  0.00    -0.207 C  
BRANCH  15  16
HETATM   16  C   UNL     1     -10.040  17.214  67.295  1.00  0.00    -0.294 A  
HETATM   17  N   UNL     1     -10.616  18.384  67.679  1.00  0.00    -0.420 NA 
HETATM   18  C   UNL     1      -9.832  19.480  67.770  1.00  0.00    -0.366 A  
HETATM   19  C   UNL     1      -8.480  19.501  67.469  1.00  0.00    -0.339 A  
HETATM   20  C   UNL     1      -7.888  18.293  67.073  1.00  0.00    -0.223 A  
HETATM   21  C   UNL     1      -7.707  20.785  67.552  1.00  0.00    -0.281 C  
HETATM   22  C   UNL     1      -8.061  15.781  66.657  1.00  0.00    -0.282 C  
HETATM   23  C   UNL     1      -8.659  17.110  67.012  1.00  0.00    -0.239 A  
BRANCH  20  24
HETATM   24  O   UNL     1      -6.523  18.353  66.913  1.00  0.00    -0.178 OA 
HETATM   25  C   UNL     1      -6.019  18.439  65.585  1.00  0.00    -0.230 C  
ENDBRANCH  20  24
ENDBRANCH  15  16
ENDBRANCH  13  15
ENDBRANCH  10  13
ENDBRANCH   2   3
TORSDOF 5
ENDMDL
MODEL       97
REMARK 921   NORMALIZED FREE ENERGY PREDICTED BY IDOCK:   -5.05 KCAL/MOL
REMARK 922        TOTAL FREE ENERGY PREDICTED BY IDOCK:   -7.16 KCAL/MOL
REMARK 923 INTER-LIGAND FREE ENERGY PREDICTED BY IDOCK:   -6.46 KCAL/MOL
REMARK 924 INTRA-LIGAND FREE ENERGY PREDICTED BY IDOCK:   -0.70 KCAL/MOL
REMARK 927      BINDING AFFINITY PREDICTED BY RF-SCORE:    0.00 PKD
ROOT
HETATM    1  C   UNL     1      -8.560   2.503  65.614  1.00  0.00    -0.114 C  
HETATM    2  O   UNL     1      -7.969   3.587  66.320  1.00  0.00    -0.088 OA 
ENDROOT
BRANCH   2   3
HETATM    3  C   UNL     1      -8.836   4.373  67.040  1.00  0.00    -0.114 A  
HETATM    4  C   UNL     1      -8.955   4.363  68.439  1.00  0.00    -0.149 A  
HETATM    5  C   UNL     1      -9.925   5.186  69.041  1.00  0.00    -0.195 A  
HETATM    6  C   UNL     1     -10.726   5.977  68.227  1.00  0.00    -0.279 A  
HETATM    7  C   UNL     1     -10.629   6.016  66.835  1.00  0.00    -0.384 A  
HETATM    8  N   UNL     1     -11.551   6.629  69.100  1.00  0.00    -0.628 NA 
HETATM    9  C   UNL     1      -9.669   5.179  66.258  1.00  0.00    -0.188 A  
HETATM   10  C   UNL     1     -11.241   6.236  70.376  1.00  0.00    -0.373 A  
HETATM   11  H   UNL     1     -12.278   7.297  68.845  1.00  0.00     0.000 HD 
HETATM   12  N   UNL     1     -10.259   5.354  70.377  1.00  0.00    -0.241 NA 
BRANCH  10  13
HETATM   13  S   UNL     1     -12.072   6.911  71.748  1.00  0.00    -0.355 S  
HETATM   14  O   UNL     1     -12.067   5.813  72.776  1.00  0.00    -0.155 OA 
BRANCH  13  15
HETATM   15  C   UNL     1     -10.961   8.259  72.226  1.00  0.00    -0.348 C  
BRANCH  15  16
HETATM   16  C   UNL     1     -11.049   9.422  71.248  1.00  0.00    -0.376 A  
HETATM   17  N   UNL     1     -12.169  10.182  71.380  1.00  0.00    -0.383 NA 
HETATM   18  C   UNL     1     -12.322  11.240  70.554  1.00  0.00    -0.356 A  
HETATM   19  C   UNL     1     -11.426  11.588  69.557  1.00  0.00    -0.378 A  
HETATM   20  C   UNL     1     -10.272  10.804  69.421  1.00  0.00    -0.160 A  
HETATM   21  C   UNL     1     -11.714  12.754  68.655  1.00  0.00    -0.360 C  
HETATM   22  C   UNL     1      -8.798   8.886  70.237  1.00  0.00    -0.191 C  
HETATM   23  C   UNL     1     -10.045   9.717  70.297  1.00  0.00    -0.331 A  
BRANCH  20  24
HETATM   24  O   UNL     1      -9.365  11.276  68.502  1.00  0.00    -0.176 OA 
HETATM   25  C   UNL     1      -9.242  10.567  67.274  1.00  0.00    -0.143 C  
ENDBRANCH  20  24
ENDBRANCH  15  16
ENDBRANCH  13  15
ENDBRANCH  10  13
ENDBRANCH   2   3
TORSDOF 5
ENDMDL
MODEL       98
REMARK 921   NORMALIZED FREE ENERGY PREDICTED BY IDOCK:   -5.04 KCAL/MOL
REMARK 922        TOTAL FREE ENERGY PREDICTED BY IDOCK:   -7.16 KCAL/MOL
REMARK 923 INTER-LIGAND FREE ENERGY PREDICTED BY IDOCK:   -6.81 KCAL/MOL
REMARK 924 INTRA-LIGAND FREE ENERGY PREDICTED BY IDOCK:   -0.35 KCAL/MOL
REMARK 927      BINDING AFFINITY PREDICTED BY RF-SCORE:    0.00 PKD
ROOT
HETATM    1  C   UNL     1     -11.195   6.658  69.722  1.00  0.00    -0.356 C  
HETATM    2  O   UNL     1     -10.746   7.776  70.477  1.00  0.00    -0.227 OA 
ENDROOT
BRANCH   2   3
HETATM    3  C   UNL     1     -11.075   9.009  69.970  1.00  0.00    -0.182 A  
HETATM    4  C   UNL     1     -10.803   9.437  68.661  1.00  0.00    -0.149 A  
HETATM    5  C   UNL     1     -11.151  10.750  68.292  1.00  0.00    -0.271 A  
HETATM    6  C   UNL     1     -11.752  11.571  69.238  1.00  0.00    -0.330 A  
HETATM    7  C   UNL     1     -12.044  11.175  70.544  1.00  0.00    -0.474 A  
HETATM    8  N   UNL     1     -11.946  12.754  68.581  1.00  0.00    -0.288 NA 
HETATM    9  C   UNL     1     -11.675   9.872  70.893  1.00  0.00    -0.449 A  
HETATM   10  C   UNL     1     -11.479  12.627  67.299  1.00  0.00    -0.342 A  
HETATM   11  H   UNL     1     -12.369  13.592  68.979  1.00  0.00     0.000 HD 
HETATM   12  N   UNL     1     -10.983  11.421  67.090  1.00  0.00    -0.271 NA 
BRANCH  10  13
HETATM   13  S   UNL     1     -11.613  13.939  66.163  1.00  0.00    -0.376 S  
HETATM   14  O   UNL     1     -13.022  13.853  65.646  1.00  0.00    -0.599 OA 
BRANCH  13  15
HETATM   15  C   UNL     1     -11.394  15.381  67.235  1.00  0.00    -0.220 C  
BRANCH  15  16
HETATM   16  C   UNL     1      -9.977  15.930  67.144  1.00  0.00    -0.240 A  
HETATM   17  N   UNL     1      -9.041  15.009  66.792  1.00  0.00    -0.245 NA 
HETATM   18  C   UNL     1      -7.758  15.416  66.681  1.00  0.00     0.133 A  
HETATM   19  C   UNL     1      -7.323  16.707  66.931  1.00  0.00    -0.260 A  
HETATM   20  C   UNL     1      -8.290  17.655  67.294  1.00  0.00    -0.215 A  
HETATM   21  C   UNL     1      -5.864  17.046  66.830  1.00  0.00    -0.225 C  
HETATM   22  C   UNL     1     -10.733  18.275  67.695  1.00  0.00    -0.373 C  
HETATM   23  C   UNL     1      -9.652  17.286  67.374  1.00  0.00    -0.252 A  
BRANCH  20  24
HETATM   24  O   UNL     1      -7.815  18.941  67.403  1.00  0.00    -0.237 OA 
HETATM   25  C   UNL     1      -7.597  19.454  68.713  1.00  0.00    -0.363 C  
ENDBRANCH  20  24
ENDBRANCH  15  16
ENDBRANCH  13  15
ENDBRANCH  10  13
ENDBRANCH   2   3
TORSDOF 5
ENDMDL
MODEL       99
REMARK 921   NORMALIZED FREE ENERGY PREDICTED BY IDOCK:   -5.04 KCAL/MOL
REMARK 922        TOTAL FREE ENERGY PREDICTED BY IDOCK:   -7.15 KCAL/MOL
REMARK 923 INTER-LIGAND FREE ENERGY PREDICTED BY IDOCK:   -6.68 KCAL/MOL
REMARK 924 INTRA-LIGAND FREE ENERGY PREDICTED BY IDOCK:   -0.47 KCAL/MOL
REMARK 927      BINDING AFFINITY PREDICTED BY RF-SCORE:    0.00 PKD
ROOT
HETATM    1  C   UNL     1      -6.803   7.873  65.032  1.00  0.00    -0.051 C  
HETATM    2  O   UNL     1      -8.100   7.830  64.450  1.00  0.00    -0.138 OA 
ENDROOT
BRANCH   2   3
HETATM    3  C   UNL     1      -8.743   9.039  64.337  1.00  0.00    -0.118 A  
HETATM    4  C   UNL     1      -9.338   9.734  65.402  1.00  0.00    -0.311 A  
HETATM    5  C   UNL     1     -10.010  10.940  65.131  1.00  0.00    -0.284 A  
HETATM    6  C   UNL     1     -10.057  11.397  63.819  1.00  0.00    -0.362 A  
HETATM    7  C   UNL     1      -9.469  10.735  62.740  1.00  0.00    -0.358 A  
HETATM    8  N   UNL     1     -10.776  12.557  63.894  1.00  0.00    -0.410 NA 
HETATM    9  C   UNL     1      -8.821   9.531  63.030  1.00  0.00    -0.242 A  
HETATM   10  C   UNL     1     -11.132  12.771  65.200  1.00  0.00    -0.291 A  
HETATM   11  H   UNL     1     -11.008  13.164  63.107  1.00  0.00     0.000 HD 
HETATM   12  N   UNL     1     -10.687  11.803  65.980  1.00  0.00    -0.270 NA 
BRANCH  10  13
HETATM   13  S   UNL     1     -12.021  14.194  65.664  1.00  0.00    -0.409 S  
HETATM   14  O   UNL     1     -13.462  13.844  65.411  1.00  0.00    -0.672 OA 
BRANCH  13  15
HETATM   15  C   UNL     1     -11.672  14.285  67.439  1.00  0.00    -0.394 C  
BRANCH  15  16
HETATM   16  C   UNL     1     -10.705  15.419  67.755  1.00  0.00    -0.289 A  
HETATM   17  N   UNL     1     -11.284  16.646  67.824  1.00  0.00    -0.153 NA 
HETATM   18  C   UNL     1     -10.497  17.707  68.108  1.00  0.00    -0.385 A  
HETATM   19  C   UNL     1      -9.128  17.633  68.305  1.00  0.00    -0.276 A  
HETATM   20  C   UNL     1      -8.532  16.366  68.232  1.00  0.00    -0.195 A  
HETATM   21  C   UNL     1      -8.333  18.880  68.564  1.00  0.00    -0.384 C  
HETATM   22  C   UNL     1      -8.748  13.837  67.964  1.00  0.00    -0.181 C  
HETATM   23  C   UNL     1      -9.325  15.221  67.988  1.00  0.00    -0.197 A  
BRANCH  20  24
HETATM   24  O   UNL     1      -7.198  16.344  68.563  1.00  0.00    -0.155 OA 
HETATM   25  C   UNL     1      -6.256  16.293  67.496  1.00  0.00    -0.157 C  
ENDBRANCH  20  24
ENDBRANCH  15  16
ENDBRANCH  13  15
ENDBRANCH  10  13
ENDBRANCH   2   3
TORSDOF 5
ENDMDL
MODEL      100
REMARK 921   NORMALIZED FREE ENERGY PREDICTED BY IDOCK:   -5.04 KCAL/MOL
REMARK 922        TOTAL FREE ENERGY PREDICTED BY IDOCK:   -7.15 KCAL/MOL
REMARK 923 INTER-LIGAND FREE ENERGY PREDICTED BY IDOCK:   -7.07 KCAL/MOL
REMARK 924 INTRA-LIGAND FREE ENERGY PREDICTED BY IDOCK:   -0.08 KCAL/MOL
REMARK 927      BINDING AFFINITY PREDICTED BY RF-SCORE:    0.00 PKD
ROOT
HETATM    1  C   UNL     1     -13.218  15.008  72.234  1.00  0.00    -0.375 C  
HETATM    2  O   UNL     1     -12.729  13.673  72.189  1.00  0.00    -0.255 OA 
ENDROOT
BRANCH   2   3
HETATM    3  C   UNL     1     -12.440  13.186  70.938  1.00  0.00    -0.323 A  
HETATM    4  C   UNL     1     -12.521  13.927  69.749  1.00  0.00    -0.240 A  
HETATM    5  C   UNL     1     -12.245  13.283  68.529  1.00  0.00    -0.068 A  
HETATM    6  C   UNL     1     -11.901  11.937  68.550  1.00  0.00    -0.297 A  
HETATM    7  C   UNL     1     -11.803  11.173  69.713  1.00  0.00    -0.422 A  
HETATM    8  N   UNL     1     -11.712  11.619  67.234  1.00  0.00    -0.611 NA 
HETATM    9  C   UNL     1     -12.097  11.830  70.912  1.00  0.00    -0.271 A  
HETATM   10  C   UNL     1     -11.935  12.738  66.474  1.00  0.00    -0.358 A  
HETATM   11  H   UNL     1     -11.450  10.701  66.876  1.00  0.00     0.000 HD 
HETATM   12  N   UNL     1     -12.266  13.768  67.230  1.00  0.00    -0.343 NA 
BRANCH  10  13
HETATM   13  S   UNL     1     -11.735  12.702  64.745  1.00  0.00    -0.373 S  
HETATM   14  O   UNL     1     -12.746  13.685  64.223  1.00  0.00    -0.647 OA 
BRANCH  13  15
HETATM   15  C   UNL     1     -10.048  13.333  64.555  1.00  0.00    -0.216 C  
BRANCH  15  16
HETATM   16  C   UNL     1      -9.639  14.187  65.747  1.00  0.00    -0.133 A  
HETATM   17  N   UNL     1      -8.849  13.549  66.650  1.00  0.00    -0.129 NA 
HETATM   18  C   UNL     1      -8.435  14.239  67.735  1.00  0.00    -0.176 A  
HETATM   19  C   UNL     1      -8.787  15.550  68.007  1.00  0.00    -0.165 A  
HETATM   20  C   UNL     1      -9.603  16.208  67.076  1.00  0.00    -0.224 A  
HETATM   21  C   UNL     1      -8.316  16.213  69.270  1.00  0.00    -0.178 C  
HETATM   22  C   UNL     1     -10.837  16.218  64.842  1.00  0.00    -0.315 C  
HETATM   23  C   UNL     1     -10.018  15.540  65.900  1.00  0.00    -0.377 A  
BRANCH  20  24
HETATM   24  O   UNL     1      -9.810  17.541  67.339  1.00  0.00    -0.280 OA 
HETATM   25  C   UNL     1      -8.985  18.482  66.660  1.00  0.00    -0.295 C  
ENDBRANCH  20  24
ENDBRANCH  15  16
ENDBRANCH  13  15
ENDBRANCH  10  13
ENDBRANCH   2   3
TORSDOF 5
ENDMDL
MODEL      101
REMARK 921   NORMALIZED FREE ENERGY PREDICTED BY IDOCK:   -5.03 KCAL/MOL
REMARK 922        TOTAL FREE ENERGY PREDICTED BY IDOCK:   -7.14 KCAL/MOL
REMARK 923 INTER-LIGAND FREE ENERGY PREDICTED BY IDOCK:   -6.83 KCAL/MOL
REMARK 924 INTRA-LIGAND FREE ENERGY PREDICTED BY IDOCK:   -0.31 KCAL/MOL
REMARK 927      BINDING AFFINITY PREDICTED BY RF-SCORE:    0.00 PKD
ROOT
HETATM    1  C   UNL     1      -8.917   4.017  63.945  1.00  0.00    -0.125 C  
HETATM    2  O   UNL     1      -8.970   4.075  65.365  1.00  0.00    -0.122 OA 
ENDROOT
BRANCH   2   3
HETATM    3  C   UNL     1      -9.409   5.263  65.897  1.00  0.00    -0.155 A  
HETATM    4  C   UNL     1      -8.746   6.494  65.767  1.00  0.00    -0.129 A  
HETATM    5  C   UNL     1      -9.285   7.624  66.411  1.00  0.00    -0.175 A  
HETATM    6  C   UNL     1     -10.453   7.476  67.149  1.00  0.00    -0.336 A  
HETATM    7  C   UNL     1     -11.140   6.270  67.292  1.00  0.00    -0.387 A  
HETATM    8  N   UNL     1     -10.697   8.727  67.644  1.00  0.00    -0.464 NA 
HETATM    9  C   UNL     1     -10.578   5.158  66.657  1.00  0.00    -0.295 A  
HETATM   10  C   UNL     1      -9.711   9.573  67.208  1.00  0.00    -0.167 A  
HETATM   11  H   UNL     1     -11.483   8.987  68.239  1.00  0.00     0.000 HD 
HETATM   12  N   UNL     1      -8.831   8.933  66.459  1.00  0.00    -0.131 NA 
BRANCH  10  13
HETATM   13  S   UNL     1      -9.738  11.265  67.614  1.00  0.00    -0.173 S  
HETATM   14  O   UNL     1      -9.016  11.941  66.481  1.00  0.00    -0.200 OA 
BRANCH  13  15
HETATM   15  C   UNL     1     -11.512  11.628  67.570  1.00  0.00    -0.289 C  
BRANCH  15  16
HETATM   16  C   UNL     1     -11.984  12.244  68.879  1.00  0.00    -0.248 A  
HETATM   17  N   UNL     1     -12.237  11.343  69.864  1.00  0.00    -0.293 NA 
HETATM   18  C   UNL     1     -12.654  11.809  71.062  1.00  0.00    -0.310 A  
HETATM   19  C   UNL     1     -12.870  13.147  71.348  1.00  0.00    -0.401 A  
HETATM   20  C   UNL     1     -12.609  14.075  70.330  1.00  0.00    -0.308 A  
HETATM   21  C   UNL     1     -13.385  13.558  72.697  1.00  0.00    -0.546 C  
HETATM   22  C   UNL     1     -11.767  14.593  67.978  1.00  0.00    -0.371 C  
HETATM   23  C   UNL     1     -12.123  13.637  69.077  1.00  0.00    -0.348 A  
BRANCH  20  24
HETATM   24  O   UNL     1     -12.719  15.390  70.716  1.00  0.00    -0.404 OA 
HETATM   25  C   UNL     1     -11.604  15.979  71.378  1.00  0.00    -0.455 C  
ENDBRANCH  20  24
ENDBRANCH  15  16
ENDBRANCH  13  15
ENDBRANCH  10  13
ENDBRANCH   2   3
TORSDOF 5
ENDMDL
MODEL      102
REMARK 921   NORMALIZED FREE ENERGY PREDICTED BY IDOCK:   -5.03 KCAL/MOL
REMARK 922        TOTAL FREE ENERGY PREDICTED BY IDOCK:   -7.14 KCAL/MOL
REMARK 923 INTER-LIGAND FREE ENERGY PREDICTED BY IDOCK:   -6.51 KCAL/MOL
REMARK 924 INTRA-LIGAND FREE ENERGY PREDICTED BY IDOCK:   -0.63 KCAL/MOL
REMARK 927      BINDING AFFINITY PREDICTED BY RF-SCORE:    0.00 PKD
ROOT
HETATM    1  C   UNL     1     -10.631  18.432  67.856  1.00  0.00    -0.353 C  
HETATM    2  O   UNL     1     -10.459  17.393  68.812  1.00  0.00    -0.348 OA 
ENDROOT
BRANCH   2   3
HETATM    3  C   UNL     1     -10.729  16.122  68.366  1.00  0.00    -0.298 A  
HETATM    4  C   UNL     1     -10.023  15.461  67.349  1.00  0.00    -0.229 A  
HETATM    5  C   UNL     1     -10.445  14.177  66.957  1.00  0.00    -0.271 A  
HETATM    6  C   UNL     1     -11.544  13.613  67.594  1.00  0.00    -0.346 A  
HETATM    7  C   UNL     1     -12.262  14.239  68.613  1.00  0.00    -0.205 A  
HETATM    8  N   UNL     1     -11.696  12.398  66.986  1.00  0.00    -0.473 NA 
HETATM    9  C   UNL     1     -11.836  15.520  68.975  1.00  0.00    -0.373 A  
HETATM   10  C   UNL     1     -10.721  12.257  66.033  1.00  0.00    -0.261 A  
HETATM   11  H   UNL     1     -12.416  11.710  67.206  1.00  0.00     0.000 HD 
HETATM   12  N   UNL     1      -9.945  13.324  65.985  1.00  0.00    -0.294 NA 
BRANCH  10  13
HETATM   13  S   UNL     1     -10.590  10.797  65.095  1.00  0.00    -0.088 S  
HETATM   14  O   UNL     1     -10.199  11.261  63.719  1.00  0.00    -0.306 OA 
BRANCH  13  15
HETATM   15  C   UNL     1      -9.215   9.951  65.916  1.00  0.00    -0.176 C  
BRANCH  15  16
HETATM   16  C   UNL     1      -9.709   9.065  67.051  1.00  0.00    -0.189 A  
HETATM   17  N   UNL     1     -10.194   7.860  66.651  1.00  0.00    -0.269 NA 
HETATM   18  C   UNL     1     -10.646   7.009  67.598  1.00  0.00    -0.257 A  
HETATM   19  C   UNL     1     -10.678   7.294  68.953  1.00  0.00    -0.173 A  
HETATM   20  C   UNL     1     -10.179   8.538  69.364  1.00  0.00    -0.211 A  
HETATM   21  C   UNL     1     -11.250   6.299  69.921  1.00  0.00    -0.498 C  
HETATM   22  C   UNL     1      -9.044  10.754  68.806  1.00  0.00    -0.180 C  
HETATM   23  C   UNL     1      -9.649   9.439  68.413  1.00  0.00    -0.157 A  
BRANCH  20  24
HETATM   24  O   UNL     1     -10.121   8.707  70.727  1.00  0.00    -0.184 OA 
HETATM   25  C   UNL     1     -11.134   9.499  71.337  1.00  0.00    -0.368 C  
ENDBRANCH  20  24
ENDBRANCH  15  16
ENDBRANCH  13  15
ENDBRANCH  10  13
ENDBRANCH   2   3
TORSDOF 5
ENDMDL
MODEL      103
REMARK 921   NORMALIZED FREE ENERGY PREDICTED BY IDOCK:   -5.00 KCAL/MOL
REMARK 922        TOTAL FREE ENERGY PREDICTED BY IDOCK:   -7.10 KCAL/MOL
REMARK 923 INTER-LIGAND FREE ENERGY PREDICTED BY IDOCK:   -6.88 KCAL/MOL
REMARK 924 INTRA-LIGAND FREE ENERGY PREDICTED BY IDOCK:   -0.22 KCAL/MOL
REMARK 927      BINDING AFFINITY PREDICTED BY RF-SCORE:    0.00 PKD
ROOT
HETATM    1  C   UNL     1      -8.012   6.212  64.528  1.00  0.00    -0.123 C  
HETATM    2  O   UNL     1      -7.899   7.081  63.408  1.00  0.00    -0.120 OA 
ENDROOT
BRANCH   2   3
HETATM    3  C   UNL     1      -8.357   8.362  63.599  1.00  0.00    -0.045 A  
HETATM    4  C   UNL     1      -8.408   9.019  64.838  1.00  0.00    -0.178 A  
HETATM    5  C   UNL     1      -8.952  10.316  64.894  1.00  0.00    -0.201 A  
HETATM    6  C   UNL     1      -9.415  10.895  63.719  1.00  0.00    -0.275 A  
HETATM    7  C   UNL     1      -9.371  10.274  62.471  1.00  0.00    -0.322 A  
HETATM    8  N   UNL     1      -9.880  12.120  64.110  1.00  0.00    -0.510 NA 
HETATM    9  C   UNL     1      -8.842   8.980  62.442  1.00  0.00    -0.177 A  
HETATM   10  C   UNL     1      -9.692  12.251  65.462  1.00  0.00    -0.161 A  
HETATM   11  H   UNL     1     -10.298  12.821  63.498  1.00  0.00     0.000 HD 
HETATM   12  N   UNL     1      -9.134  11.169  65.972  1.00  0.00    -0.198 NA 
BRANCH  10  13
HETATM   13  S   UNL     1     -10.131  13.719  66.289  1.00  0.00    -0.306 S  
HETATM   14  O   UNL     1     -10.326  14.731  65.193  1.00  0.00    -0.384 OA 
BRANCH  13  15
HETATM   15  C   UNL     1     -11.711  13.259  67.044  1.00  0.00    -0.389 C  
BRANCH  15  16
HETATM   16  C   UNL     1     -11.868  13.884  68.424  1.00  0.00    -0.374 A  
HETATM   17  N   UNL     1     -11.841  15.243  68.430  1.00  0.00    -0.315 NA 
HETATM   18  C   UNL     1     -11.981  15.878  69.614  1.00  0.00    -0.260 A  
HETATM   19  C   UNL     1     -12.120  15.236  70.833  1.00  0.00    -0.396 A  
HETATM   20  C   UNL     1     -12.147  13.834  70.825  1.00  0.00    -0.319 A  
HETATM   21  C   UNL     1     -12.216  16.033  72.101  1.00  0.00    -0.597 C  
HETATM   22  C   UNL     1     -12.142  11.633  69.534  1.00  0.00    -0.336 C  
HETATM   23  C   UNL     1     -12.055  13.128  69.603  1.00  0.00    -0.317 A  
BRANCH  20  24
HETATM   24  O   UNL     1     -12.415  13.262  72.046  1.00  0.00    -0.039 OA 
HETATM   25  C   UNL     1     -13.780  13.150  72.436  1.00  0.00    -0.540 C  
ENDBRANCH  20  24
ENDBRANCH  15  16
ENDBRANCH  13  15
ENDBRANCH  10  13
ENDBRANCH   2   3
TORSDOF 5
ENDMDL
MODEL      104
REMARK 921   NORMALIZED FREE ENERGY PREDICTED BY IDOCK:   -5.00 KCAL/MOL
REMARK 922        TOTAL FREE ENERGY PREDICTED BY IDOCK:   -7.10 KCAL/MOL
REMARK 923 INTER-LIGAND FREE ENERGY PREDICTED BY IDOCK:   -6.87 KCAL/MOL
REMARK 924 INTRA-LIGAND FREE ENERGY PREDICTED BY IDOCK:   -0.23 KCAL/MOL
REMARK 927      BINDING AFFINITY PREDICTED BY RF-SCORE:    0.00 PKD
ROOT
HETATM    1  C   UNL     1      -9.491   6.814  74.345  1.00  0.00    -0.249 C  
HETATM    2  O   UNL     1     -10.703   7.366  73.846  1.00  0.00    -0.319 OA 
ENDROOT
BRANCH   2   3
HETATM    3  C   UNL     1     -10.701   7.703  72.515  1.00  0.00    -0.296 A  
HETATM    4  C   UNL     1     -10.342   8.961  72.006  1.00  0.00    -0.378 A  
HETATM    5  C   UNL     1     -10.437   9.182  70.619  1.00  0.00    -0.245 A  
HETATM    6  C   UNL     1     -10.882   8.146  69.808  1.00  0.00    -0.190 A  
HETATM    7  C   UNL     1     -11.239   6.882  70.280  1.00  0.00    -0.363 A  
HETATM    8  N   UNL     1     -10.872   8.677  68.549  1.00  0.00    -0.441 NA 
HETATM    9  C   UNL     1     -11.152   6.690  71.662  1.00  0.00    -0.290 A  
HETATM   10  C   UNL     1     -10.434   9.974  68.622  1.00  0.00    -0.204 A  
HETATM   11  H   UNL     1     -11.144   8.190  67.695  1.00  0.00     0.000 HD 
HETATM   12  N   UNL     1     -10.165  10.316  69.869  1.00  0.00    -0.235 NA 
BRANCH  10  13
HETATM   13  S   UNL     1     -10.251  10.941  67.186  1.00  0.00    -0.220 S  
HETATM   14  O   UNL     1     -10.253   9.949  66.055  1.00  0.00    -0.254 OA 
BRANCH  13  15
HETATM   15  C   UNL     1     -11.775  11.918  67.202  1.00  0.00    -0.236 C  
BRANCH  15  16
HETATM   16  C   UNL     1     -11.489  13.385  67.494  1.00  0.00    -0.323 A  
HETATM   17  N   UNL     1     -11.753  13.764  68.772  1.00  0.00    -0.333 NA 
HETATM   18  C   UNL     1     -11.519  15.049  69.116  1.00  0.00    -0.301 A  
HETATM   19  C   UNL     1     -11.055  16.019  68.244  1.00  0.00    -0.351 A  
HETATM   20  C   UNL     1     -10.784  15.627  66.925  1.00  0.00    -0.307 A  
HETATM   21  C   UNL     1     -10.877  17.435  68.713  1.00  0.00    -0.081 C  
HETATM   22  C   UNL     1     -10.631  13.796  65.155  1.00  0.00    -0.385 C  
HETATM   23  C   UNL     1     -10.966  14.281  66.534  1.00  0.00    -0.316 A  
BRANCH  20  24
HETATM   24  O   UNL     1     -10.207  16.602  66.147  1.00  0.00    -0.320 OA 
HETATM   25  C   UNL     1      -8.793  16.568  65.988  1.00  0.00    -0.232 C  
ENDBRANCH  20  24
ENDBRANCH  15  16
ENDBRANCH  13  15
ENDBRANCH  10  13
ENDBRANCH   2   3
TORSDOF 5
ENDMDL
MODEL      105
REMARK 921   NORMALIZED FREE ENERGY PREDICTED BY IDOCK:   -4.98 KCAL/MOL
REMARK 922        TOTAL FREE ENERGY PREDICTED BY IDOCK:   -7.08 KCAL/MOL
REMARK 923 INTER-LIGAND FREE ENERGY PREDICTED BY IDOCK:   -6.57 KCAL/MOL
REMARK 924 INTRA-LIGAND FREE ENERGY PREDICTED BY IDOCK:   -0.51 KCAL/MOL
REMARK 927      BINDING AFFINITY PREDICTED BY RF-SCORE:    0.00 PKD
ROOT
HETATM    1  C   UNL     1     -12.056  13.197  63.459  1.00  0.00    -0.514 C  
HETATM    2  O   UNL     1     -12.552  13.972  64.543  1.00  0.00    -0.635 OA 
ENDROOT
BRANCH   2   3
HETATM    3  C   UNL     1     -12.199  13.537  65.797  1.00  0.00    -0.461 A  
HETATM    4  C   UNL     1     -12.063  12.191  66.171  1.00  0.00    -0.068 A  
HETATM    5  C   UNL     1     -11.746  11.888  67.508  1.00  0.00    -0.265 A  
HETATM    6  C   UNL     1     -11.578  12.935  68.406  1.00  0.00    -0.333 A  
HETATM    7  C   UNL     1     -11.697  14.284  68.066  1.00  0.00    -0.386 A  
HETATM    8  N   UNL     1     -11.297  12.318  69.593  1.00  0.00    -0.471 NA 
HETATM    9  C   UNL     1     -12.029  14.559  66.736  1.00  0.00    -0.364 A  
HETATM   10  C   UNL     1     -11.297  10.962  69.394  1.00  0.00    -0.280 A  
HETATM   11  H   UNL     1     -11.116  12.788  70.480  1.00  0.00     0.000 HD 
HETATM   12  N   UNL     1     -11.572  10.665  68.137  1.00  0.00    -0.456 NA 
BRANCH  10  13
HETATM   13  S   UNL     1     -10.926   9.865  70.694  1.00  0.00    -0.339 S  
HETATM   14  O   UNL     1     -12.145   9.891  71.575  1.00  0.00    -0.377 OA 
BRANCH  13  15
HETATM   15  C   UNL     1     -10.785   8.287  69.818  1.00  0.00    -0.221 C  
BRANCH  15  16
HETATM   16  C   UNL     1      -9.502   8.220  69.002  1.00  0.00    -0.155 A  
HETATM   17  N   UNL     1      -8.388   8.612  69.675  1.00  0.00    -0.120 NA 
HETATM   18  C   UNL     1      -7.204   8.576  69.024  1.00  0.00    -0.073 A  
HETATM   19  C   UNL     1      -7.052   8.193  67.702  1.00  0.00    -0.087 A  
HETATM   20  C   UNL     1      -8.201   7.789  67.009  1.00  0.00    -0.117 A  
HETATM   21  C   UNL     1      -5.698   8.238  67.054  1.00  0.00    -0.042 C  
HETATM   22  C   UNL     1     -10.702   7.279  66.989  1.00  0.00    -0.406 C  
HETATM   23  C   UNL     1      -9.454   7.763  67.665  1.00  0.00    -0.168 A  
BRANCH  20  24
HETATM   24  O   UNL     1      -7.964   7.302  65.745  1.00  0.00    -0.108 OA 
HETATM   25  C   UNL     1      -8.167   8.186  64.649  1.00  0.00    -0.125 C  
ENDBRANCH  20  24
ENDBRANCH  15  16
ENDBRANCH  13  15
ENDBRANCH  10  13
ENDBRANCH   2   3
TORSDOF 5
ENDMDL
MODEL      106
REMARK 921   NORMALIZED FREE ENERGY PREDICTED BY IDOCK:   -4.96 KCAL/MOL
REMARK 922        TOTAL FREE ENERGY PREDICTED BY IDOCK:   -7.04 KCAL/MOL
REMARK 923 INTER-LIGAND FREE ENERGY PREDICTED BY IDOCK:   -6.45 KCAL/MOL
REMARK 924 INTRA-LIGAND FREE ENERGY PREDICTED BY IDOCK:   -0.59 KCAL/MOL
REMARK 927      BINDING AFFINITY PREDICTED BY RF-SCORE:    0.00 PKD
ROOT
HETATM    1  C   UNL     1      -8.022  19.426  67.972  1.00  0.00    -0.304 C  
HETATM    2  O   UNL     1      -9.099  18.884  68.726  1.00  0.00    -0.345 OA 
ENDROOT
BRANCH   2   3
HETATM    3  C   UNL     1      -9.443  17.588  68.426  1.00  0.00    -0.292 A  
HETATM    4  C   UNL     1      -8.583  16.644  67.845  1.00  0.00    -0.196 A  
HETATM    5  C   UNL     1      -9.087  15.364  67.544  1.00  0.00    -0.194 A  
HETATM    6  C   UNL     1     -10.417  15.087  67.836  1.00  0.00    -0.247 A  
HETATM    7  C   UNL     1     -11.296  15.999  68.421  1.00  0.00    -0.355 A  
HETATM    8  N   UNL     1     -10.589  13.796  67.420  1.00  0.00    -0.259 NA 
HETATM    9  C   UNL     1     -10.778  17.269  68.696  1.00  0.00    -0.280 A  
HETATM   10  C   UNL     1      -9.403  13.337  66.908  1.00  0.00    -0.244 A  
HETATM   11  H   UNL     1     -11.456  13.262  67.481  1.00  0.00     0.000 HD 
HETATM   12  N   UNL     1      -8.468  14.268  66.963  1.00  0.00    -0.198 NA 
BRANCH  10  13
HETATM   13  S   UNL     1      -9.251  11.703  66.327  1.00  0.00    -0.212 S  
HETATM   14  O   UNL     1      -8.174  11.093  67.182  1.00  0.00    -0.128 OA 
BRANCH  13  15
HETATM   15  C   UNL     1     -10.876  11.014  66.731  1.00  0.00    -0.251 C  
BRANCH  15  16
HETATM   16  C   UNL     1     -10.854  10.292  68.071  1.00  0.00    -0.275 A  
HETATM   17  N   UNL     1     -11.246  11.054  69.126  1.00  0.00    -0.232 NA 
HETATM   18  C   UNL     1     -11.262  10.486  70.351  1.00  0.00    -0.298 A  
HETATM   19  C   UNL     1     -10.875   9.182  70.613  1.00  0.00    -0.321 A  
HETATM   20  C   UNL     1     -10.470   8.397  69.524  1.00  0.00    -0.224 A  
HETATM   21  C   UNL     1     -10.879   8.660  72.021  1.00  0.00    -0.430 C  
HETATM   22  C   UNL     1     -10.124   8.119  67.011  1.00  0.00    -0.350 C  
HETATM   23  C   UNL     1     -10.486   8.934  68.216  1.00  0.00    -0.243 A  
BRANCH  20  24
HETATM   24  O   UNL     1     -10.223   7.080  69.831  1.00  0.00    -0.194 OA 
HETATM   25  C   UNL     1     -11.314   6.169  69.753  1.00  0.00    -0.382 C  
ENDBRANCH  20  24
ENDBRANCH  15  16
ENDBRANCH  13  15
ENDBRANCH  10  13
ENDBRANCH   2   3
TORSDOF 5
ENDMDL
MODEL      107
REMARK 921   NORMALIZED FREE ENERGY PREDICTED BY IDOCK:   -4.96 KCAL/MOL
REMARK 922        TOTAL FREE ENERGY PREDICTED BY IDOCK:   -7.04 KCAL/MOL
REMARK 923 INTER-LIGAND FREE ENERGY PREDICTED BY IDOCK:   -6.56 KCAL/MOL
REMARK 924 INTRA-LIGAND FREE ENERGY PREDICTED BY IDOCK:   -0.48 KCAL/MOL
REMARK 927      BINDING AFFINITY PREDICTED BY RF-SCORE:    0.00 PKD
ROOT
HETATM    1  C   UNL     1     -11.755  15.851  70.441  1.00  0.00    -0.354 C  
HETATM    2  O   UNL     1     -11.914  14.692  69.632  1.00  0.00    -0.293 OA 
ENDROOT
BRANCH   2   3
HETATM    3  C   UNL     1     -12.255  13.541  70.300  1.00  0.00    -0.347 A  
HETATM    4  C   UNL     1     -11.904  12.244  69.894  1.00  0.00    -0.383 A  
HETATM    5  C   UNL     1     -12.367  11.150  70.649  1.00  0.00    -0.388 A  
HETATM    6  C   UNL     1     -13.152  11.398  71.768  1.00  0.00    -0.418 A  
HETATM    7  C   UNL     1     -13.512  12.674  72.204  1.00  0.00    -0.561 A  
HETATM    8  N   UNL     1     -13.440  10.154  72.258  1.00  0.00    -0.587 NA 
HETATM    9  C   UNL     1     -13.055  13.744  71.429  1.00  0.00    -0.413 A  
HETATM   10  C   UNL     1     -12.842   9.217  71.457  1.00  0.00    -0.347 A  
HETATM   11  H   UNL     1     -14.005   9.957  73.083  1.00  0.00     0.000 HD 
HETATM   12  N   UNL     1     -12.185   9.788  70.464  1.00  0.00    -0.186 NA 
BRANCH  10  13
HETATM   13  S   UNL     1     -12.963   7.519  71.821  1.00  0.00    -0.297 S  
HETATM   14  O   UNL     1     -14.387   7.159  71.495  1.00  0.00    -0.406 OA 
BRANCH  13  15
HETATM   15  C   UNL     1     -11.815   6.800  70.618  1.00  0.00    -0.387 C  
BRANCH  15  16
HETATM   16  C   UNL     1     -10.414   6.671  71.200  1.00  0.00    -0.217 A  
HETATM   17  N   UNL     1     -10.375   6.163  72.460  1.00  0.00    -0.189 NA 
HETATM   18  C   UNL     1      -9.168   6.009  73.047  1.00  0.00    -0.133 A  
HETATM   19  C   UNL     1      -7.963   6.362  72.461  1.00  0.00    -0.102 A  
HETATM   20  C   UNL     1      -8.006   6.886  71.162  1.00  0.00    -0.101 A  
HETATM   21  C   UNL     1      -6.678   6.199  73.219  1.00  0.00    -0.075 C  
HETATM   22  C   UNL     1      -9.337   7.513  69.076  1.00  0.00    -0.146 C  
HETATM   23  C   UNL     1      -9.242   7.018  70.489  1.00  0.00    -0.159 A  
BRANCH  20  24
HETATM   24  O   UNL     1      -6.773   7.096  70.591  1.00  0.00    -0.050 OA 
HETATM   25  C   UNL     1      -6.265   6.083  69.730  1.00  0.00    -0.027 C  
ENDBRANCH  20  24
ENDBRANCH  15  16
ENDBRANCH  13  15
ENDBRANCH  10  13
ENDBRANCH   2   3
TORSDOF 5
ENDMDL
MODEL      108
REMARK 921   NORMALIZED FREE ENERGY PREDICTED BY IDOCK:   -4.95 KCAL/MOL
REMARK 922        TOTAL FREE ENERGY PREDICTED BY IDOCK:   -7.04 KCAL/MOL
REMARK 923 INTER-LIGAND FREE ENERGY PREDICTED BY IDOCK:   -6.64 KCAL/MOL
REMARK 924 INTRA-LIGAND FREE ENERGY PREDICTED BY IDOCK:   -0.40 KCAL/MOL
REMARK 927      BINDING AFFINITY PREDICTED BY RF-SCORE:    0.00 PKD
ROOT
HETATM    1  C   UNL     1     -12.329  14.930  64.187  1.00  0.00    -0.185 C  
HETATM    2  O   UNL     1     -12.262  14.085  65.329  1.00  0.00    -0.396 OA 
ENDROOT
BRANCH   2   3
HETATM    3  C   UNL     1     -11.609  12.890  65.148  1.00  0.00    -0.332 A  
HETATM    4  C   UNL     1     -11.236  12.015  66.181  1.00  0.00    -0.394 A  
HETATM    5  C   UNL     1     -10.523  10.847  65.853  1.00  0.00    -0.221 A  
HETATM    6  C   UNL     1     -10.217  10.605  64.519  1.00  0.00    -0.329 A  
HETATM    7  C   UNL     1     -10.579  11.449  63.469  1.00  0.00    -0.468 A  
HETATM    8  N   UNL     1      -9.526   9.426  64.542  1.00  0.00    -0.413 NA 
HETATM    9  C   UNL     1     -11.273  12.611  63.820  1.00  0.00    -0.519 A  
HETATM   10  C   UNL     1      -9.435   8.994  65.840  1.00  0.00    -0.249 A  
HETATM   11  H   UNL     1      -9.142   8.946  63.728  1.00  0.00     0.000 HD 
HETATM   12  N   UNL     1     -10.027   9.838  66.665  1.00  0.00    -0.215 NA 
BRANCH  10  13
HETATM   13  S   UNL     1      -8.655   7.487  66.230  1.00  0.00    -0.150 S  
HETATM   14  O   UNL     1      -7.495   7.400  65.278  1.00  0.00    -0.076 OA 
BRANCH  13  15
HETATM   15  C   UNL     1      -8.092   7.791  67.924  1.00  0.00    -0.126 C  
BRANCH  15  16
HETATM   16  C   UNL     1      -9.221   7.598  68.926  1.00  0.00    -0.139 A  
HETATM   17  N   UNL     1      -9.885   6.418  68.802  1.00  0.00    -0.137 NA 
HETATM   18  C   UNL     1     -10.899   6.165  69.659  1.00  0.00    -0.356 A  
HETATM   19  C   UNL     1     -11.329   7.041  70.642  1.00  0.00    -0.349 A  
HETATM   20  C   UNL     1     -10.643   8.257  70.768  1.00  0.00    -0.210 A  
HETATM   21  C   UNL     1     -12.500   6.686  71.511  1.00  0.00    -0.326 C  
HETATM   22  C   UNL     1      -8.736   9.800  70.063  1.00  0.00    -0.237 C  
HETATM   23  C   UNL     1      -9.544   8.544  69.926  1.00  0.00    -0.171 A  
BRANCH  20  24
HETATM   24  O   UNL     1     -11.034   9.023  71.841  1.00  0.00    -0.352 OA 
HETATM   25  C   UNL     1     -11.963  10.074  71.596  1.00  0.00    -0.286 C  
ENDBRANCH  20  24
ENDBRANCH  15  16
ENDBRANCH  13  15
ENDBRANCH  10  13
ENDBRANCH   2   3
TORSDOF 5
ENDMDL
MODEL      109
REMARK 921   NORMALIZED FREE ENERGY PREDICTED BY IDOCK:   -4.94 KCAL/MOL
REMARK 922        TOTAL FREE ENERGY PREDICTED BY IDOCK:   -7.02 KCAL/MOL
REMARK 923 INTER-LIGAND FREE ENERGY PREDICTED BY IDOCK:   -6.40 KCAL/MOL
REMARK 924 INTRA-LIGAND FREE ENERGY PREDICTED BY IDOCK:   -0.62 KCAL/MOL
REMARK 927      BINDING AFFINITY PREDICTED BY RF-SCORE:    0.00 PKD
ROOT
HETATM    1  C   UNL     1      -5.548  14.532  71.207  1.00  0.00    -0.147 C  
HETATM    2  O   UNL     1      -5.542  15.673  70.358  1.00  0.00    -0.153 OA 
ENDROOT
BRANCH   2   3
HETATM    3  C   UNL     1      -6.550  15.727  69.426  1.00  0.00    -0.174 A  
HETATM    4  C   UNL     1      -6.984  14.642  68.649  1.00  0.00    -0.111 A  
HETATM    5  C   UNL     1      -7.994  14.855  67.692  1.00  0.00    -0.169 A  
HETATM    6  C   UNL     1      -8.523  16.133  67.556  1.00  0.00    -0.162 A  
HETATM    7  C   UNL     1      -8.120  17.231  68.317  1.00  0.00    -0.246 A  
HETATM    8  N   UNL     1      -9.450  16.007  66.559  1.00  0.00    -0.251 NA 
HETATM    9  C   UNL     1      -7.104  16.999  69.249  1.00  0.00    -0.177 A  
HETATM   10  C   UNL     1      -9.463  14.704  66.132  1.00  0.00    -0.276 A  
HETATM   11  H   UNL     1     -10.035  16.758  66.193  1.00  0.00     0.000 HD 
HETATM   12  N   UNL     1      -8.585  13.976  66.797  1.00  0.00    -0.124 NA 
BRANCH  10  13
HETATM   13  S   UNL     1     -10.569  14.178  64.895  1.00  0.00    -0.423 S  
HETATM   14  O   UNL     1     -10.061  12.825  64.480  1.00  0.00    -0.307 OA 
BRANCH  13  15
HETATM   15  C   UNL     1     -12.120  14.040  65.820  1.00  0.00    -0.427 C  
BRANCH  15  16
HETATM   16  C   UNL     1     -11.944  13.192  67.072  1.00  0.00    -0.355 A  
HETATM   17  N   UNL     1     -11.723  11.873  66.829  1.00  0.00    -0.590 NA 
HETATM   18  C   UNL     1     -11.548  11.050  67.887  1.00  0.00    -0.226 A  
HETATM   19  C   UNL     1     -11.609  11.456  69.210  1.00  0.00    -0.384 A  
HETATM   20  C   UNL     1     -11.839  12.816  69.459  1.00  0.00    -0.316 A  
HETATM   21  C   UNL     1     -11.454  10.452  70.316  1.00  0.00    -0.406 C  
HETATM   22  C   UNL     1     -12.158  15.196  68.593  1.00  0.00    -0.184 C  
HETATM   23  C   UNL     1     -11.976  13.722  68.382  1.00  0.00    -0.395 A  
BRANCH  20  24
HETATM   24  O   UNL     1     -11.760  13.175  70.784  1.00  0.00    -0.055 OA 
HETATM   25  C   UNL     1     -12.983  13.336  71.496  1.00  0.00    -0.337 C  
ENDBRANCH  20  24
ENDBRANCH  15  16
ENDBRANCH  13  15
ENDBRANCH  10  13
ENDBRANCH   2   3
TORSDOF 5
ENDMDL
MODEL      110
REMARK 921   NORMALIZED FREE ENERGY PREDICTED BY IDOCK:   -4.93 KCAL/MOL
REMARK 922        TOTAL FREE ENERGY PREDICTED BY IDOCK:   -7.01 KCAL/MOL
REMARK 923 INTER-LIGAND FREE ENERGY PREDICTED BY IDOCK:   -6.66 KCAL/MOL
REMARK 924 INTRA-LIGAND FREE ENERGY PREDICTED BY IDOCK:   -0.35 KCAL/MOL
REMARK 927      BINDING AFFINITY PREDICTED BY RF-SCORE:    0.00 PKD
ROOT
HETATM    1  C   UNL     1     -14.042  15.309  72.228  1.00  0.00    -0.554 C  
HETATM    2  O   UNL     1     -13.780  14.008  72.742  1.00  0.00    -0.660 OA 
ENDROOT
BRANCH   2   3
HETATM    3  C   UNL     1     -13.195  13.128  71.864  1.00  0.00    -0.431 A  
HETATM    4  C   UNL     1     -12.494  13.496  70.706  1.00  0.00    -0.428 A  
HETATM    5  C   UNL     1     -11.991  12.483  69.868  1.00  0.00    -0.301 A  
HETATM    6  C   UNL     1     -12.208  11.157  70.223  1.00  0.00    -0.352 A  
HETATM    7  C   UNL     1     -12.893  10.757  71.371  1.00  0.00    -0.557 A  
HETATM    8  N   UNL     1     -11.618  10.441  69.219  1.00  0.00    -0.423 NA 
HETATM    9  C   UNL     1     -13.398  11.780  72.179  1.00  0.00    -0.334 A  
HETATM   10  C   UNL     1     -11.075  11.315  68.314  1.00  0.00    -0.240 A  
HETATM   11  H   UNL     1     -11.587   9.423  69.153  1.00  0.00     0.000 HD 
HETATM   12  N   UNL     1     -11.288  12.567  68.676  1.00  0.00    -0.264 NA 
BRANCH  10  13
HETATM   13  S   UNL     1     -10.200  10.739  66.925  1.00  0.00    -0.237 S  
HETATM   14  O   UNL     1      -9.552  11.966  66.345  1.00  0.00    -0.213 OA 
BRANCH  13  15
HETATM   15  C   UNL     1      -8.972   9.648  67.688  1.00  0.00    -0.125 C  
BRANCH  15  16
HETATM   16  C   UNL     1      -8.958   8.279  67.023  1.00  0.00    -0.140 A  
HETATM   17  N   UNL     1      -8.195   8.208  65.900  1.00  0.00    -0.114 NA 
HETATM   18  C   UNL     1      -8.123   7.025  65.252  1.00  0.00    -0.134 A  
HETATM   19  C   UNL     1      -8.801   5.880  65.639  1.00  0.00    -0.126 A  
HETATM   20  C   UNL     1      -9.588   5.955  66.796  1.00  0.00    -0.148 A  
HETATM   21  C   UNL     1      -8.695   4.627  64.819  1.00  0.00    -0.150 C  
HETATM   22  C   UNL     1     -10.428   7.274  68.813  1.00  0.00    -0.214 C  
HETATM   23  C   UNL     1      -9.653   7.159  67.535  1.00  0.00    -0.159 A  
BRANCH  20  24
HETATM   24  O   UNL     1     -10.130   4.756  67.196  1.00  0.00    -0.194 OA 
HETATM   25  C   UNL     1      -9.408   3.997  68.160  1.00  0.00    -0.164 C  
ENDBRANCH  20  24
ENDBRANCH  15  16
ENDBRANCH  13  15
ENDBRANCH  10  13
ENDBRANCH   2   3
TORSDOF 5
ENDMDL
MODEL      111
REMARK 921   NORMALIZED FREE ENERGY PREDICTED BY IDOCK:   -4.92 KCAL/MOL
REMARK 922        TOTAL FREE ENERGY PREDICTED BY IDOCK:   -6.99 KCAL/MOL
REMARK 923 INTER-LIGAND FREE ENERGY PREDICTED BY IDOCK:   -6.73 KCAL/MOL
REMARK 924 INTRA-LIGAND FREE ENERGY PREDICTED BY IDOCK:   -0.26 KCAL/MOL
REMARK 927      BINDING AFFINITY PREDICTED BY RF-SCORE:    0.00 PKD
ROOT
HETATM    1  C   UNL     1     -13.779  13.867  72.495  1.00  0.00    -0.560 C  
HETATM    2  O   UNL     1     -12.585  14.612  72.286  1.00  0.00    -0.320 OA 
ENDROOT
BRANCH   2   3
HETATM    3  C   UNL     1     -12.224  14.803  70.974  1.00  0.00    -0.329 A  
HETATM    4  C   UNL     1     -12.510  13.914  69.926  1.00  0.00    -0.285 A  
HETATM    5  C   UNL     1     -12.031  14.213  68.636  1.00  0.00    -0.338 A  
HETATM    6  C   UNL     1     -11.295  15.376  68.452  1.00  0.00    -0.339 A  
HETATM    7  C   UNL     1     -11.000  16.284  69.470  1.00  0.00    -0.339 A  
HETATM    8  N   UNL     1     -10.977  15.365  67.122  1.00  0.00    -0.326 NA 
HETATM    9  C   UNL     1     -11.472  15.959  70.745  1.00  0.00    -0.437 A  
HETATM   10  C   UNL     1     -11.510  14.238  66.552  1.00  0.00    -0.360 A  
HETATM   11  H   UNL     1     -10.433  16.077  66.635  1.00  0.00     0.000 HD 
HETATM   12  N   UNL     1     -12.154  13.511  67.446  1.00  0.00    -0.353 NA 
BRANCH  10  13
HETATM   13  S   UNL     1     -11.336  13.928  64.848  1.00  0.00    -0.365 S  
HETATM   14  O   UNL     1      -9.877  14.160  64.565  1.00  0.00    -0.101 OA 
BRANCH  13  15
HETATM   15  C   UNL     1     -11.751  12.168  64.748  1.00  0.00    -0.327 C  
BRANCH  15  16
HETATM   16  C   UNL     1     -10.567  11.297  65.146  1.00  0.00    -0.280 A  
HETATM   17  N   UNL     1     -10.510  11.000  66.471  1.00  0.00    -0.249 NA 
HETATM   18  C   UNL     1      -9.493  10.224  66.906  1.00  0.00    -0.169 A  
HETATM   19  C   UNL     1      -8.483   9.733  66.096  1.00  0.00    -0.130 A  
HETATM   20  C   UNL     1      -8.543  10.041  64.729  1.00  0.00    -0.177 A  
HETATM   21  C   UNL     1      -7.366   8.922  66.687  1.00  0.00    -0.085 C  
HETATM   22  C   UNL     1      -9.762  11.111  62.759  1.00  0.00    -0.298 C  
HETATM   23  C   UNL     1      -9.617  10.808  64.221  1.00  0.00    -0.333 A  
BRANCH  20  24
HETATM   24  O   UNL     1      -7.586   9.420  63.962  1.00  0.00    -0.107 OA 
HETATM   25  C   UNL     1      -6.432  10.175  63.610  1.00  0.00    -0.127 C  
ENDBRANCH  20  24
ENDBRANCH  15  16
ENDBRANCH  13  15
ENDBRANCH  10  13
ENDBRANCH   2   3
TORSDOF 5
ENDMDL
MODEL      112
REMARK 921   NORMALIZED FREE ENERGY PREDICTED BY IDOCK:   -4.90 KCAL/MOL
REMARK 922        TOTAL FREE ENERGY PREDICTED BY IDOCK:   -6.97 KCAL/MOL
REMARK 923 INTER-LIGAND FREE ENERGY PREDICTED BY IDOCK:   -6.26 KCAL/MOL
REMARK 924 INTRA-LIGAND FREE ENERGY PREDICTED BY IDOCK:   -0.71 KCAL/MOL
REMARK 927      BINDING AFFINITY PREDICTED BY RF-SCORE:    0.00 PKD
ROOT
HETATM    1  C   UNL     1     -10.059  17.196  65.867  1.00  0.00    -0.240 C  
HETATM    2  O   UNL     1     -10.670  16.184  65.075  1.00  0.00    -0.558 OA 
ENDROOT
BRANCH   2   3
HETATM    3  C   UNL     1     -11.036  15.043  65.745  1.00  0.00    -0.350 A  
HETATM    4  C   UNL     1     -10.744  14.774  67.092  1.00  0.00    -0.299 A  
HETATM    5  C   UNL     1     -11.137  13.537  67.636  1.00  0.00    -0.269 A  
HETATM    6  C   UNL     1     -11.798  12.630  66.817  1.00  0.00    -0.370 A  
HETATM    7  C   UNL     1     -12.110  12.868  65.478  1.00  0.00    -0.507 A  
HETATM    8  N   UNL     1     -12.023  11.551  67.626  1.00  0.00    -0.634 NA 
HETATM    9  C   UNL     1     -11.697  14.097  64.955  1.00  0.00    -0.376 A  
HETATM   10  C   UNL     1     -11.514  11.820  68.870  1.00  0.00    -0.297 A  
HETATM   11  H   UNL     1     -12.492  10.688  67.350  1.00  0.00     0.000 HD 
HETATM   12  N   UNL     1     -10.963  13.019  68.910  1.00  0.00    -0.245 NA 
BRANCH  10  13
HETATM   13  S   UNL     1     -11.671  10.672  70.170  1.00  0.00    -0.359 S  
HETATM   14  O   UNL     1     -13.152  10.563  70.406  1.00  0.00    -0.279 OA 
BRANCH  13  15
HETATM   15  C   UNL     1     -11.016   9.164  69.412  1.00  0.00    -0.092 C  
BRANCH  15  16
HETATM   16  C   UNL     1      -9.576   9.354  68.955  1.00  0.00    -0.164 A  
HETATM   17  N   UNL     1      -8.711   9.684  69.950  1.00  0.00    -0.203 NA 
HETATM   18  C   UNL     1      -7.411   9.865  69.630  1.00  0.00    -0.122 A  
HETATM   19  C   UNL     1      -6.901   9.764  68.347  1.00  0.00    -0.060 A  
HETATM   20  C   UNL     1      -7.795   9.423  67.321  1.00  0.00    -0.099 A  
HETATM   21  C   UNL     1      -5.447  10.035  68.087  1.00  0.00    -0.038 C  
HETATM   22  C   UNL     1     -10.138   8.747  66.569  1.00  0.00    -0.349 C  
HETATM   23  C   UNL     1      -9.155   9.176  67.617  1.00  0.00    -0.133 A  
BRANCH  20  24
HETATM   24  O   UNL     1      -7.205   9.215  66.097  1.00  0.00    -0.088 OA 
HETATM   25  C   UNL     1      -7.324  10.247  65.124  1.00  0.00    -0.127 C  
ENDBRANCH  20  24
ENDBRANCH  15  16
ENDBRANCH  13  15
ENDBRANCH  10  13
ENDBRANCH   2   3
TORSDOF 5
ENDMDL
MODEL      113
REMARK 921   NORMALIZED FREE ENERGY PREDICTED BY IDOCK:   -4.90 KCAL/MOL
REMARK 922        TOTAL FREE ENERGY PREDICTED BY IDOCK:   -6.97 KCAL/MOL
REMARK 923 INTER-LIGAND FREE ENERGY PREDICTED BY IDOCK:   -6.51 KCAL/MOL
REMARK 924 INTRA-LIGAND FREE ENERGY PREDICTED BY IDOCK:   -0.46 KCAL/MOL
REMARK 927      BINDING AFFINITY PREDICTED BY RF-SCORE:    0.00 PKD
ROOT
HETATM    1  C   UNL     1      -9.097   3.300  64.812  1.00  0.00    -0.138 C  
HETATM    2  O   UNL     1      -8.358   4.493  65.050  1.00  0.00    -0.116 OA 
ENDROOT
BRANCH   2   3
HETATM    3  C   UNL     1      -8.989   5.441  65.818  1.00  0.00    -0.158 A  
HETATM    4  C   UNL     1      -8.388   6.615  66.297  1.00  0.00    -0.125 A  
HETATM    5  C   UNL     1      -9.142   7.474  67.120  1.00  0.00    -0.127 A  
HETATM    6  C   UNL     1     -10.451   7.125  67.425  1.00  0.00    -0.284 A  
HETATM    7  C   UNL     1     -11.081   5.970  66.959  1.00  0.00    -0.263 A  
HETATM    8  N   UNL     1     -10.889   8.137  68.232  1.00  0.00    -0.441 NA 
HETATM    9  C   UNL     1     -10.309   5.124  66.157  1.00  0.00    -0.280 A  
HETATM   10  C   UNL     1      -9.873   9.044  68.390  1.00  0.00    -0.166 A  
HETATM   11  H   UNL     1     -11.817   8.207  68.649  1.00  0.00     0.000 HD 
HETATM   12  N   UNL     1      -8.793   8.669  67.731  1.00  0.00    -0.136 NA 
BRANCH  10  13
HETATM   13  S   UNL     1     -10.104  10.493  69.327  1.00  0.00    -0.205 S  
HETATM   14  O   UNL     1      -9.053  11.444  68.824  1.00  0.00    -0.167 OA 
BRANCH  13  15
HETATM   15  C   UNL     1     -11.759  11.012  68.804  1.00  0.00    -0.314 C  
BRANCH  15  16
HETATM   16  C   UNL     1     -11.693  12.206  67.862  1.00  0.00    -0.336 A  
HETATM   17  N   UNL     1     -11.682  11.879  66.543  1.00  0.00    -0.562 NA 
HETATM   18  C   UNL     1     -11.632  12.882  65.639  1.00  0.00    -0.361 A  
HETATM   19  C   UNL     1     -11.561  14.226  65.966  1.00  0.00    -0.362 A  
HETATM   20  C   UNL     1     -11.572  14.561  67.328  1.00  0.00    -0.385 A  
HETATM   21  C   UNL     1     -11.456  15.263  64.885  1.00  0.00    -0.343 C  
HETATM   22  C   UNL     1     -11.755  13.855  69.773  1.00  0.00    -0.372 C  
HETATM   23  C   UNL     1     -11.675  13.547  68.308  1.00  0.00    -0.394 A  
BRANCH  20  24
HETATM   24  O   UNL     1     -11.629  15.911  67.582  1.00  0.00    -0.157 OA 
HETATM   25  C   UNL     1     -10.424  16.558  67.976  1.00  0.00    -0.313 C  
ENDBRANCH  20  24
ENDBRANCH  15  16
ENDBRANCH  13  15
ENDBRANCH  10  13
ENDBRANCH   2   3
TORSDOF 5
ENDMDL
MODEL      114
REMARK 921   NORMALIZED FREE ENERGY PREDICTED BY IDOCK:   -4.87 KCAL/MOL
REMARK 922        TOTAL FREE ENERGY PREDICTED BY IDOCK:   -6.94 KCAL/MOL
REMARK 923 INTER-LIGAND FREE ENERGY PREDICTED BY IDOCK:   -6.61 KCAL/MOL
REMARK 924 INTRA-LIGAND FREE ENERGY PREDICTED BY IDOCK:   -0.33 KCAL/MOL
REMARK 927      BINDING AFFINITY PREDICTED BY RF-SCORE:    0.00 PKD
ROOT
HETATM    1  C   UNL     1     -14.397  15.480  72.188  1.00  0.00    -0.499 C  
HETATM    2  O   UNL     1     -14.404  14.085  72.464  1.00  0.00    -0.626 OA 
ENDROOT
BRANCH   2   3
HETATM    3  C   UNL     1     -13.535  13.325  71.718  1.00  0.00    -0.354 A  
HETATM    4  C   UNL     1     -13.234  11.977  71.964  1.00  0.00    -0.481 A  
HETATM    5  C   UNL     1     -12.283  11.336  71.148  1.00  0.00    -0.246 A  
HETATM    6  C   UNL     1     -11.680  12.064  70.129  1.00  0.00    -0.233 A  
HETATM    7  C   UNL     1     -11.963  13.403  69.853  1.00  0.00    -0.408 A  
HETATM    8  N   UNL     1     -10.819  11.177  69.547  1.00  0.00    -0.389 NA 
HETATM    9  C   UNL     1     -12.898  14.023  70.686  1.00  0.00    -0.320 A  
HETATM   10  C   UNL     1     -10.918   9.975  70.198  1.00  0.00    -0.310 A  
HETATM   11  H   UNL     1     -10.205  11.375  68.757  1.00  0.00     0.000 HD 
HETATM   12  N   UNL     1     -11.796  10.038  71.182  1.00  0.00    -0.369 NA 
BRANCH  10  13
HETATM   13  S   UNL     1      -9.989   8.597  69.682  1.00  0.00    -0.196 S  
HETATM   14  O   UNL     1      -8.872   8.492  70.684  1.00  0.00    -0.137 OA 
BRANCH  13  15
HETATM   15  C   UNL     1     -11.181   7.249  69.887  1.00  0.00    -0.170 C  
BRANCH  15  16
HETATM   16  C   UNL     1     -10.572   5.908  69.506  1.00  0.00    -0.308 A  
HETATM   17  N   UNL     1     -10.508   5.680  68.167  1.00  0.00    -0.205 NA 
HETATM   18  C   UNL     1      -9.974   4.514  67.743  1.00  0.00    -0.066 A  
HETATM   19  C   UNL     1      -9.509   3.517  68.584  1.00  0.00    -0.209 A  
HETATM   20  C   UNL     1      -9.575   3.752  69.965  1.00  0.00    -0.188 A  
HETATM   21  C   UNL     1      -8.979   2.233  68.014  1.00  0.00    -0.193 C  
HETATM   22  C   UNL     1     -10.114   5.307  71.916  1.00  0.00    -0.252 C  
HETATM   23  C   UNL     1     -10.081   4.979  70.453  1.00  0.00    -0.330 A  
BRANCH  20  24
HETATM   24  O   UNL     1      -8.983   2.782  70.738  1.00  0.00    -0.077 OA 
HETATM   25  C   UNL     1      -7.613   2.958  71.082  1.00  0.00    -0.040 C  
ENDBRANCH  20  24
ENDBRANCH  15  16
ENDBRANCH  13  15
ENDBRANCH  10  13
ENDBRANCH   2   3
TORSDOF 5
ENDMDL
MODEL      115
REMARK 921   NORMALIZED FREE ENERGY PREDICTED BY IDOCK:   -4.85 KCAL/MOL
REMARK 922        TOTAL FREE ENERGY PREDICTED BY IDOCK:   -6.91 KCAL/MOL
REMARK 923 INTER-LIGAND FREE ENERGY PREDICTED BY IDOCK:   -6.60 KCAL/MOL
REMARK 924 INTRA-LIGAND FREE ENERGY PREDICTED BY IDOCK:   -0.31 KCAL/MOL
REMARK 927      BINDING AFFINITY PREDICTED BY RF-SCORE:    0.00 PKD
ROOT
HETATM    1  C   UNL     1     -14.214  15.385  72.324  1.00  0.00    -0.545 C  
HETATM    2  O   UNL     1     -14.114  13.993  72.598  1.00  0.00    -0.651 OA 
ENDROOT
BRANCH   2   3
HETATM    3  C   UNL     1     -13.325  13.270  71.737  1.00  0.00    -0.393 A  
HETATM    4  C   UNL     1     -13.093  11.889  71.827  1.00  0.00    -0.465 A  
HETATM    5  C   UNL     1     -12.218  11.288  70.904  1.00  0.00    -0.356 A  
HETATM    6  C   UNL     1     -11.617  12.086  69.938  1.00  0.00    -0.238 A  
HETATM    7  C   UNL     1     -11.832  13.460  69.815  1.00  0.00    -0.393 A  
HETATM    8  N   UNL     1     -10.836  11.220  69.225  1.00  0.00    -0.299 NA 
HETATM    9  C   UNL     1     -12.693  14.038  70.753  1.00  0.00    -0.396 A  
HETATM   10  C   UNL     1     -10.977   9.963  69.753  1.00  0.00    -0.268 A  
HETATM   11  H   UNL     1     -10.245  11.468  68.431  1.00  0.00     0.000 HD 
HETATM   12  N   UNL     1     -11.808   9.969  70.780  1.00  0.00    -0.321 NA 
BRANCH  10  13
HETATM   13  S   UNL     1     -10.154   8.599  69.052  1.00  0.00    -0.203 S  
HETATM   14  O   UNL     1     -10.788   7.398  69.698  1.00  0.00    -0.239 OA 
BRANCH  13  15
HETATM   15  C   UNL     1     -10.631   8.734  67.311  1.00  0.00    -0.233 C  
BRANCH  15  16
HETATM   16  C   UNL     1      -9.484   8.341  66.391  1.00  0.00    -0.221 A  
HETATM   17  N   UNL     1      -8.871   7.175  66.725  1.00  0.00    -0.125 NA 
HETATM   18  C   UNL     1      -7.845   6.751  65.955  1.00  0.00    -0.104 A  
HETATM   19  C   UNL     1      -7.354   7.440  64.859  1.00  0.00    -0.080 A  
HETATM   20  C   UNL     1      -7.987   8.643  64.515  1.00  0.00    -0.144 A  
HETATM   21  C   UNL     1      -6.175   6.907  64.098  1.00  0.00    -0.036 C  
HETATM   22  C   UNL     1      -9.849  10.346  64.899  1.00  0.00    -0.400 C  
HETATM   23  C   UNL     1      -9.096   9.100  65.263  1.00  0.00    -0.252 A  
BRANCH  20  24
HETATM   24  O   UNL     1      -7.537   9.210  63.346  1.00  0.00    -0.103 OA 
HETATM   25  C   UNL     1      -6.516  10.197  63.445  1.00  0.00    -0.136 C  
ENDBRANCH  20  24
ENDBRANCH  15  16
ENDBRANCH  13  15
ENDBRANCH  10  13
ENDBRANCH   2   3
TORSDOF 5
ENDMDL
MODEL      116
REMARK 921   NORMALIZED FREE ENERGY PREDICTED BY IDOCK:   -4.84 KCAL/MOL
REMARK 922        TOTAL FREE ENERGY PREDICTED BY IDOCK:   -6.89 KCAL/MOL
REMARK 923 INTER-LIGAND FREE ENERGY PREDICTED BY IDOCK:   -6.53 KCAL/MOL
REMARK 924 INTRA-LIGAND FREE ENERGY PREDICTED BY IDOCK:   -0.37 KCAL/MOL
REMARK 927      BINDING AFFINITY PREDICTED BY RF-SCORE:    0.00 PKD
ROOT
HETATM    1  C   UNL     1     -11.246   8.060  72.464  1.00  0.00    -0.388 C  
HETATM    2  O   UNL     1     -10.889   6.825  71.853  1.00  0.00    -0.225 OA 
ENDROOT
BRANCH   2   3
HETATM    3  C   UNL     1     -10.468   6.906  70.548  1.00  0.00    -0.211 A  
HETATM    4  C   UNL     1      -9.360   7.646  70.106  1.00  0.00    -0.157 A  
HETATM    5  C   UNL     1      -9.075   7.681  68.729  1.00  0.00    -0.139 A  
HETATM    6  C   UNL     1      -9.902   6.980  67.859  1.00  0.00    -0.138 A  
HETATM    7  C   UNL     1     -11.005   6.228  68.266  1.00  0.00    -0.408 A  
HETATM    8  N   UNL     1      -9.372   7.224  66.623  1.00  0.00    -0.165 NA 
HETATM    9  C   UNL     1     -11.279   6.222  69.637  1.00  0.00    -0.506 A  
HETATM   10  C   UNL     1      -8.276   8.034  66.766  1.00  0.00    -0.111 A  
HETATM   11  H   UNL     1      -9.733   6.862  65.740  1.00  0.00     0.000 HD 
HETATM   12  N   UNL     1      -8.069   8.336  68.034  1.00  0.00    -0.126 NA 
BRANCH  10  13
HETATM   13  S   UNL     1      -7.325   8.506  65.386  1.00  0.00    -0.086 S  
HETATM   14  O   UNL     1      -8.080   7.970  64.201  1.00  0.00    -0.144 OA 
BRANCH  13  15
HETATM   15  C   UNL     1      -7.428  10.312  65.467  1.00  0.00    -0.149 C  
BRANCH  15  16
HETATM   16  C   UNL     1      -8.796  10.809  65.022  1.00  0.00    -0.177 A  
HETATM   17  N   UNL     1      -9.032  10.684  63.689  1.00  0.00    -0.195 NA 
HETATM   18  C   UNL     1     -10.227  11.096  63.212  1.00  0.00    -0.350 A  
HETATM   19  C   UNL     1     -11.223  11.665  63.988  1.00  0.00    -0.448 A  
HETATM   20  C   UNL     1     -10.979  11.794  65.362  1.00  0.00    -0.297 A  
HETATM   21  C   UNL     1     -12.499  12.138  63.352  1.00  0.00    -0.625 C  
HETATM   22  C   UNL     1      -9.477  11.385  67.385  1.00  0.00    -0.174 C  
HETATM   23  C   UNL     1      -9.762  11.330  65.913  1.00  0.00    -0.258 A  
BRANCH  20  24
HETATM   24  O   UNL     1     -12.052  12.246  66.093  1.00  0.00    -0.625 OA 
HETATM   25  C   UNL     1     -12.063  13.621  66.464  1.00  0.00    -0.423 C  
ENDBRANCH  20  24
ENDBRANCH  15  16
ENDBRANCH  13  15
ENDBRANCH  10  13
ENDBRANCH   2   3
TORSDOF 5
ENDMDL
MODEL      117
REMARK 921   NORMALIZED FREE ENERGY PREDICTED BY IDOCK:   -4.84 KCAL/MOL
REMARK 922        TOTAL FREE ENERGY PREDICTED BY IDOCK:   -6.89 KCAL/MOL
REMARK 923 INTER-LIGAND FREE ENERGY PREDICTED BY IDOCK:   -6.16 KCAL/MOL
REMARK 924 INTRA-LIGAND FREE ENERGY PREDICTED BY IDOCK:   -0.72 KCAL/MOL
REMARK 927      BINDING AFFINITY PREDICTED BY RF-SCORE:    0.00 PKD
ROOT
HETATM    1  C   UNL     1     -13.765   9.077  72.263  1.00  0.00    -0.492 C  
HETATM    2  O   UNL     1     -12.666   8.226  72.564  1.00  0.00    -0.283 OA 
ENDROOT
BRANCH   2   3
HETATM    3  C   UNL     1     -11.654   8.210  71.636  1.00  0.00    -0.279 A  
HETATM    4  C   UNL     1     -10.675   9.207  71.498  1.00  0.00    -0.437 A  
HETATM    5  C   UNL     1      -9.726   9.085  70.466  1.00  0.00    -0.216 A  
HETATM    6  C   UNL     1      -9.795   7.982  69.624  1.00  0.00    -0.184 A  
HETATM    7  C   UNL     1     -10.749   6.969  69.739  1.00  0.00    -0.265 A  
HETATM    8  N   UNL     1      -8.765   8.167  68.744  1.00  0.00    -0.137 NA 
HETATM    9  C   UNL     1     -11.691   7.119  70.761  1.00  0.00    -0.363 A  
HETATM   10  C   UNL     1      -8.118   9.332  69.062  1.00  0.00    -0.106 A  
HETATM   11  H   UNL     1      -8.519   7.540  67.978  1.00  0.00     0.000 HD 
HETATM   12  N   UNL     1      -8.680   9.920  70.102  1.00  0.00    -0.171 NA 
BRANCH  10  13
HETATM   13  S   UNL     1      -6.718   9.852  68.169  1.00  0.00    -0.060 S  
HETATM   14  O   UNL     1      -5.887   8.610  68.003  1.00  0.00    -0.041 OA 
BRANCH  13  15
HETATM   15  C   UNL     1      -7.453  10.363  66.594  1.00  0.00    -0.114 C  
BRANCH  15  16
HETATM   16  C   UNL     1      -8.564  11.382  66.806  1.00  0.00    -0.166 A  
HETATM   17  N   UNL     1      -8.169  12.517  67.441  1.00  0.00    -0.174 NA 
HETATM   18  C   UNL     1      -9.094  13.477  67.663  1.00  0.00    -0.205 A  
HETATM   19  C   UNL     1     -10.429  13.371  67.312  1.00  0.00    -0.248 A  
HETATM   20  C   UNL     1     -10.835  12.199  66.658  1.00  0.00    -0.268 A  
HETATM   21  C   UNL     1     -11.390  14.475  67.650  1.00  0.00    -0.354 C  
HETATM   22  C   UNL     1     -10.260   9.946  65.607  1.00  0.00    -0.229 C  
HETATM   23  C   UNL     1      -9.891  11.189  66.360  1.00  0.00    -0.248 A  
BRANCH  20  24
HETATM   24  O   UNL     1     -12.140  12.210  66.224  1.00  0.00    -0.626 OA 
HETATM   25  C   UNL     1     -12.388  12.652  64.894  1.00  0.00    -0.498 C  
ENDBRANCH  20  24
ENDBRANCH  15  16
ENDBRANCH  13  15
ENDBRANCH  10  13
ENDBRANCH   2   3
TORSDOF 5
ENDMDL
MODEL      118
REMARK 921   NORMALIZED FREE ENERGY PREDICTED BY IDOCK:   -4.81 KCAL/MOL
REMARK 922        TOTAL FREE ENERGY PREDICTED BY IDOCK:   -6.86 KCAL/MOL
REMARK 923 INTER-LIGAND FREE ENERGY PREDICTED BY IDOCK:   -6.32 KCAL/MOL
REMARK 924 INTRA-LIGAND FREE ENERGY PREDICTED BY IDOCK:   -0.54 KCAL/MOL
REMARK 927      BINDING AFFINITY PREDICTED BY RF-SCORE:    0.00 PKD
ROOT
HETATM    1  C   UNL     1      -9.016   5.096  67.733  1.00  0.00    -0.110 C  
HETATM    2  O   UNL     1      -9.571   6.004  68.677  1.00  0.00    -0.122 OA 
ENDROOT
BRANCH   2   3
HETATM    3  C   UNL     1      -9.918   7.238  68.183  1.00  0.00    -0.159 A  
HETATM    4  C   UNL     1      -9.693   7.667  66.865  1.00  0.00    -0.277 A  
HETATM    5  C   UNL     1     -10.055   8.980  66.510  1.00  0.00    -0.283 A  
HETATM    6  C   UNL     1     -10.622   9.800  67.478  1.00  0.00    -0.275 A  
HETATM    7  C   UNL     1     -10.867   9.402  68.793  1.00  0.00    -0.147 A  
HETATM    8  N   UNL     1     -10.840  10.983  66.830  1.00  0.00    -0.268 NA 
HETATM    9  C   UNL     1     -10.485   8.099  69.128  1.00  0.00    -0.217 A  
HETATM   10  C   UNL     1     -10.419  10.858  65.532  1.00  0.00    -0.219 A  
HETATM   11  H   UNL     1     -11.249  11.821  67.244  1.00  0.00     0.000 HD 
HETATM   12  N   UNL     1      -9.930   9.653  65.304  1.00  0.00    -0.220 NA 
BRANCH  10  13
HETATM   13  S   UNL     1     -10.594  12.171  64.402  1.00  0.00    -0.351 S  
HETATM   14  O   UNL     1     -11.567  11.663  63.374  1.00  0.00    -0.395 OA 
BRANCH  13  15
HETATM   15  C   UNL     1     -11.346  13.452  65.438  1.00  0.00    -0.291 C  
BRANCH  15  16
HETATM   16  C   UNL     1     -10.296  14.408  65.986  1.00  0.00    -0.309 A  
HETATM   17  N   UNL     1      -9.409  13.837  66.842  1.00  0.00    -0.253 NA 
HETATM   18  C   UNL     1      -8.439  14.615  67.369  1.00  0.00    -0.204 A  
HETATM   19  C   UNL     1      -8.302  15.971  67.117  1.00  0.00    -0.228 A  
HETATM   20  C   UNL     1      -9.218  16.559  66.233  1.00  0.00    -0.310 A  
HETATM   21  C   UNL     1      -7.219  16.760  67.793  1.00  0.00    -0.152 C  
HETATM   22  C   UNL     1     -11.183  16.338  64.620  1.00  0.00    -0.264 C  
HETATM   23  C   UNL     1     -10.220  15.772  65.620  1.00  0.00    -0.407 A  
BRANCH  20  24
HETATM   24  O   UNL     1      -8.952  17.873  65.927  1.00  0.00    -0.512 OA 
HETATM   25  C   UNL     1      -9.701  18.873  66.609  1.00  0.00    -0.347 C  
ENDBRANCH  20  24
ENDBRANCH  15  16
ENDBRANCH  13  15
ENDBRANCH  10  13
ENDBRANCH   2   3
TORSDOF 5
ENDMDL
MODEL      119
REMARK 921   NORMALIZED FREE ENERGY PREDICTED BY IDOCK:   -4.79 KCAL/MOL
REMARK 922        TOTAL FREE ENERGY PREDICTED BY IDOCK:   -6.83 KCAL/MOL
REMARK 923 INTER-LIGAND FREE ENERGY PREDICTED BY IDOCK:   -6.42 KCAL/MOL
REMARK 924 INTRA-LIGAND FREE ENERGY PREDICTED BY IDOCK:   -0.42 KCAL/MOL
REMARK 927      BINDING AFFINITY PREDICTED BY RF-SCORE:    0.00 PKD
ROOT
HETATM    1  C   UNL     1     -10.870   6.174  72.058  1.00  0.00    -0.247 C  
HETATM    2  O   UNL     1     -10.770   7.410  72.756  1.00  0.00    -0.256 OA 
ENDROOT
BRANCH   2   3
HETATM    3  C   UNL     1     -11.243   8.512  72.086  1.00  0.00    -0.362 A  
HETATM    4  C   UNL     1     -10.551   9.194  71.073  1.00  0.00    -0.362 A  
HETATM    5  C   UNL     1     -11.136  10.343  70.508  1.00  0.00    -0.265 A  
HETATM    6  C   UNL     1     -12.377  10.757  70.976  1.00  0.00    -0.404 A  
HETATM    7  C   UNL     1     -13.095  10.098  71.976  1.00  0.00    -0.538 A  
HETATM    8  N   UNL     1     -12.652  11.881  70.249  1.00  0.00    -0.083 NA 
HETATM    9  C   UNL     1     -12.487   8.969  72.533  1.00  0.00    -0.309 A  
HETATM   10  C   UNL     1     -11.612  12.112  69.387  1.00  0.00    -0.317 A  
HETATM   11  H   UNL     1     -13.492  12.453  70.333  1.00  0.00     0.000 HD 
HETATM   12  N   UNL     1     -10.669  11.198  69.522  1.00  0.00    -0.191 NA 
BRANCH  10  13
HETATM   13  S   UNL     1     -11.655  13.447  68.269  1.00  0.00    -0.366 S  
HETATM   14  O   UNL     1     -11.957  14.649  69.121  1.00  0.00    -0.308 OA 
BRANCH  13  15
HETATM   15  C   UNL     1      -9.946  13.481  67.670  1.00  0.00    -0.229 C  
BRANCH  15  16
HETATM   16  C   UNL     1      -9.775  12.606  66.436  1.00  0.00    -0.258 A  
HETATM   17  N   UNL     1     -10.615  12.911  65.412  1.00  0.00    -0.284 NA 
HETATM   18  C   UNL     1     -10.523  12.185  64.276  1.00  0.00    -0.339 A  
HETATM   19  C   UNL     1      -9.647  11.128  64.092  1.00  0.00    -0.290 A  
HETATM   20  C   UNL     1      -8.782  10.815  65.150  1.00  0.00    -0.164 A  
HETATM   21  C   UNL     1      -9.659  10.351  62.808  1.00  0.00    -0.311 C  
HETATM   22  C   UNL     1      -7.860  11.328  67.474  1.00  0.00    -0.123 C  
HETATM   23  C   UNL     1      -8.808  11.580  66.339  1.00  0.00    -0.193 A  
BRANCH  20  24
HETATM   24  O   UNL     1      -7.854   9.844  64.859  1.00  0.00    -0.124 OA 
HETATM   25  C   UNL     1      -6.535  10.269  64.531  1.00  0.00    -0.092 C  
ENDBRANCH  20  24
ENDBRANCH  15  16
ENDBRANCH  13  15
ENDBRANCH  10  13
ENDBRANCH   2   3
TORSDOF 5
ENDMDL
MODEL      120
REMARK 921   NORMALIZED FREE ENERGY PREDICTED BY IDOCK:   -4.79 KCAL/MOL
REMARK 922        TOTAL FREE ENERGY PREDICTED BY IDOCK:   -6.82 KCAL/MOL
REMARK 923 INTER-LIGAND FREE ENERGY PREDICTED BY IDOCK:   -6.46 KCAL/MOL
REMARK 924 INTRA-LIGAND FREE ENERGY PREDICTED BY IDOCK:   -0.36 KCAL/MOL
REMARK 927      BINDING AFFINITY PREDICTED BY RF-SCORE:    0.00 PKD
ROOT
HETATM    1  C   UNL     1      -9.186  19.800  66.266  1.00  0.00    -0.388 C  
HETATM    2  O   UNL     1     -10.065  18.776  65.817  1.00  0.00    -0.519 OA 
ENDROOT
BRANCH   2   3
HETATM    3  C   UNL     1     -10.282  17.747  66.701  1.00  0.00    -0.361 A  
HETATM    4  C   UNL     1     -10.470  16.404  66.339  1.00  0.00    -0.288 A  
HETATM    5  C   UNL     1     -10.736  15.461  67.350  1.00  0.00    -0.296 A  
HETATM    6  C   UNL     1     -10.800  15.898  68.667  1.00  0.00    -0.291 A  
HETATM    7  C   UNL     1     -10.610  17.222  69.062  1.00  0.00    -0.247 A  
HETATM    8  N   UNL     1     -11.079  14.766  69.382  1.00  0.00    -0.271 NA 
HETATM    9  C   UNL     1     -10.364  18.144  68.040  1.00  0.00    -0.405 A  
HETATM   10  C   UNL     1     -11.171  13.709  68.514  1.00  0.00    -0.280 A  
HETATM   11  H   UNL     1     -11.199  14.717  70.394  1.00  0.00     0.000 HD 
HETATM   12  N   UNL     1     -10.973  14.097  67.268  1.00  0.00    -0.292 NA 
BRANCH  10  13
HETATM   13  S   UNL     1     -11.472  12.096  69.096  1.00  0.00    -0.310 S  
HETATM   14  O   UNL     1     -12.473  11.523  68.131  1.00  0.00    -0.227 OA 
BRANCH  13  15
HETATM   15  C   UNL     1      -9.848  11.321  68.892  1.00  0.00    -0.139 C  
BRANCH  15  16
HETATM   16  C   UNL     1      -9.960   9.803  68.861  1.00  0.00    -0.176 A  
HETATM   17  N   UNL     1     -10.135   9.228  70.080  1.00  0.00    -0.198 NA 
HETATM   18  C   UNL     1     -10.250   7.884  70.140  1.00  0.00    -0.202 A  
HETATM   19  C   UNL     1     -10.173   7.043  69.042  1.00  0.00    -0.191 A  
HETATM   20  C   UNL     1      -9.991   7.637  67.785  1.00  0.00    -0.174 A  
HETATM   21  C   UNL     1     -10.261   5.555  69.221  1.00  0.00    -0.315 C  
HETATM   22  C   UNL     1      -9.787   9.733  66.342  1.00  0.00    -0.298 C  
HETATM   23  C   UNL     1      -9.916   9.045  67.669  1.00  0.00    -0.252 A  
BRANCH  20  24
HETATM   24  O   UNL     1     -10.051   6.762  66.726  1.00  0.00    -0.189 OA 
HETATM   25  C   UNL     1      -8.819   6.335  66.154  1.00  0.00    -0.153 C  
ENDBRANCH  20  24
ENDBRANCH  15  16
ENDBRANCH  13  15
ENDBRANCH  10  13
ENDBRANCH   2   3
TORSDOF 5
ENDMDL
MODEL      121
REMARK 921   NORMALIZED FREE ENERGY PREDICTED BY IDOCK:   -4.78 KCAL/MOL
REMARK 922        TOTAL FREE ENERGY PREDICTED BY IDOCK:   -6.81 KCAL/MOL
REMARK 923 INTER-LIGAND FREE ENERGY PREDICTED BY IDOCK:   -6.86 KCAL/MOL
REMARK 924 INTRA-LIGAND FREE ENERGY PREDICTED BY IDOCK:    0.05 KCAL/MOL
REMARK 927      BINDING AFFINITY PREDICTED BY RF-SCORE:    0.00 PKD
ROOT
HETATM    1  C   UNL     1     -13.794  13.280  72.440  1.00  0.00    -0.529 C  
HETATM    2  O   UNL     1     -12.754  14.251  72.410  1.00  0.00    -0.329 OA 
ENDROOT
BRANCH   2   3
HETATM    3  C   UNL     1     -12.385  14.691  71.162  1.00  0.00    -0.335 A  
HETATM    4  C   UNL     1     -12.561  13.968  69.972  1.00  0.00    -0.250 A  
HETATM    5  C   UNL     1     -12.086  14.521  68.768  1.00  0.00    -0.221 A  
HETATM    6  C   UNL     1     -11.464  15.763  68.805  1.00  0.00    -0.388 A  
HETATM    7  C   UNL     1     -11.281  16.511  69.969  1.00  0.00    -0.159 A  
HETATM    8  N   UNL     1     -11.118  16.003  67.505  1.00  0.00    -0.261 NA 
HETATM    9  C   UNL     1     -11.745  15.934  71.155  1.00  0.00    -0.490 A  
HETATM   10  C   UNL     1     -11.526  14.944  66.738  1.00  0.00    -0.301 A  
HETATM   11  H   UNL     1     -10.635  16.834  67.162  1.00  0.00     0.000 HD 
HETATM   12  N   UNL     1     -12.115  14.021  67.475  1.00  0.00    -0.376 NA 
BRANCH  10  13
HETATM   13  S   UNL     1     -11.286  14.941  65.013  1.00  0.00    -0.401 S  
HETATM   14  O   UNL     1     -10.907  16.358  64.679  1.00  0.00    -0.717 OA 
BRANCH  13  15
HETATM   15  C   UNL     1      -9.870  13.826  64.839  1.00  0.00     0.003 C  
BRANCH  15  16
HETATM   16  C   UNL     1      -9.804  12.832  65.990  1.00  0.00    -0.255 A  
HETATM   17  N   UNL     1      -9.038  13.238  67.037  1.00  0.00    -0.226 NA 
HETATM   18  C   UNL     1      -8.932  12.416  68.104  1.00  0.00    -0.196 A  
HETATM   19  C   UNL     1      -9.528  11.169  68.193  1.00  0.00    -0.180 A  
HETATM   20  C   UNL     1     -10.316  10.751  67.111  1.00  0.00    -0.224 A  
HETATM   21  C   UNL     1      -9.305  10.309  69.403  1.00  0.00    -0.217 C  
HETATM   22  C   UNL     1     -11.381  11.229  64.841  1.00  0.00    -0.023 C  
HETATM   23  C   UNL     1     -10.497  11.600  65.995  1.00  0.00    -0.294 A  
BRANCH  20  24
HETATM   24  O   UNL     1     -10.981   9.565  67.314  1.00  0.00    -0.203 OA 
HETATM   25  C   UNL     1     -10.397   8.383  66.779  1.00  0.00    -0.287 C  
ENDBRANCH  20  24
ENDBRANCH  15  16
ENDBRANCH  13  15
ENDBRANCH  10  13
ENDBRANCH   2   3
TORSDOF 5
ENDMDL
MODEL      122
REMARK 921   NORMALIZED FREE ENERGY PREDICTED BY IDOCK:   -4.76 KCAL/MOL
REMARK 922        TOTAL FREE ENERGY PREDICTED BY IDOCK:   -6.79 KCAL/MOL
REMARK 923 INTER-LIGAND FREE ENERGY PREDICTED BY IDOCK:   -6.52 KCAL/MOL
REMARK 924 INTRA-LIGAND FREE ENERGY PREDICTED BY IDOCK:   -0.28 KCAL/MOL
REMARK 927      BINDING AFFINITY PREDICTED BY RF-SCORE:    0.00 PKD
ROOT
HETATM    1  C   UNL     1     -12.575  14.092  65.197  1.00  0.00    -0.428 C  
HETATM    2  O   UNL     1     -11.297  13.566  65.535  1.00  0.00    -0.295 OA 
ENDROOT
BRANCH   2   3
HETATM    3  C   UNL     1     -11.235  12.862  66.713  1.00  0.00    -0.298 A  
HETATM    4  C   UNL     1     -10.796  11.534  66.832  1.00  0.00    -0.331 A  
HETATM    5  C   UNL     1     -10.835  10.920  68.097  1.00  0.00    -0.234 A  
HETATM    6  C   UNL     1     -11.306  11.652  69.180  1.00  0.00    -0.283 A  
HETATM    7  C   UNL     1     -11.742  12.975  69.097  1.00  0.00    -0.378 A  
HETATM    8  N   UNL     1     -11.228  10.783  70.232  1.00  0.00    -0.430 NA 
HETATM    9  C   UNL     1     -11.710  13.560  67.828  1.00  0.00    -0.394 A  
HETATM   10  C   UNL     1     -10.728   9.590  69.781  1.00  0.00    -0.239 A  
HETATM   11  H   UNL     1     -11.498  10.989  71.194  1.00  0.00     0.000 HD 
HETATM   12  N   UNL     1     -10.482   9.636  68.485  1.00  0.00    -0.205 NA 
BRANCH  10  13
HETATM   13  S   UNL     1     -10.450   8.265  70.875  1.00  0.00    -0.201 S  
HETATM   14  O   UNL     1     -10.877   8.784  72.221  1.00  0.00    -0.352 OA 
BRANCH  13  15
HETATM   15  C   UNL     1     -11.612   7.023  70.253  1.00  0.00    -0.262 C  
BRANCH  15  16
HETATM   16  C   UNL     1     -10.915   6.017  69.348  1.00  0.00    -0.385 A  
HETATM   17  N   UNL     1     -11.080   6.250  68.019  1.00  0.00    -0.329 NA 
HETATM   18  C   UNL     1     -10.487   5.406  67.146  1.00  0.00    -0.235 A  
HETATM   19  C   UNL     1      -9.743   4.298  67.514  1.00  0.00    -0.198 A  
HETATM   20  C   UNL     1      -9.574   4.058  68.885  1.00  0.00    -0.143 A  
HETATM   21  C   UNL     1      -9.168   3.391  66.464  1.00  0.00    -0.178 C  
HETATM   22  C   UNL     1      -9.930   4.769  71.310  1.00  0.00    -0.270 C  
HETATM   23  C   UNL     1     -10.135   4.943  69.835  1.00  0.00    -0.332 A  
BRANCH  20  24
HETATM   24  O   UNL     1      -8.723   3.020  69.182  1.00  0.00    -0.068 OA 
HETATM   25  C   UNL     1      -7.332   3.312  69.263  1.00  0.00    -0.048 C  
ENDBRANCH  20  24
ENDBRANCH  15  16
ENDBRANCH  13  15
ENDBRANCH  10  13
ENDBRANCH   2   3
TORSDOF 5
ENDMDL
MODEL      123
REMARK 921   NORMALIZED FREE ENERGY PREDICTED BY IDOCK:   -4.75 KCAL/MOL
REMARK 922        TOTAL FREE ENERGY PREDICTED BY IDOCK:   -6.78 KCAL/MOL
REMARK 923 INTER-LIGAND FREE ENERGY PREDICTED BY IDOCK:   -6.26 KCAL/MOL
REMARK 924 INTRA-LIGAND FREE ENERGY PREDICTED BY IDOCK:   -0.53 KCAL/MOL
REMARK 927      BINDING AFFINITY PREDICTED BY RF-SCORE:    0.00 PKD
ROOT
HETATM    1  C   UNL     1     -10.213  20.057  68.122  1.00  0.00    -0.396 C  
HETATM    2  O   UNL     1      -9.672  18.848  68.642  1.00  0.00    -0.359 OA 
ENDROOT
BRANCH   2   3
HETATM    3  C   UNL     1      -9.718  17.764  67.799  1.00  0.00    -0.285 A  
HETATM    4  C   UNL     1     -10.769  16.836  67.741  1.00  0.00    -0.321 A  
HETATM    5  C   UNL     1     -10.657  15.741  66.864  1.00  0.00    -0.317 A  
HETATM    6  C   UNL     1      -9.510  15.623  66.089  1.00  0.00    -0.341 A  
HETATM    7  C   UNL     1      -8.451  16.532  66.116  1.00  0.00    -0.320 A  
HETATM    8  N   UNL     1      -9.706  14.475  65.373  1.00  0.00    -0.530 NA 
HETATM    9  C   UNL     1      -8.577  17.602  67.006  1.00  0.00    -0.252 A  
HETATM   10  C   UNL     1     -10.922  13.945  65.716  1.00  0.00    -0.285 A  
HETATM   11  H   UNL     1      -9.055  14.078  64.696  1.00  0.00     0.000 HD 
HETATM   12  N   UNL     1     -11.526  14.687  66.625  1.00  0.00    -0.358 NA 
BRANCH  10  13
HETATM   13  S   UNL     1     -11.515  12.496  64.954  1.00  0.00    -0.339 S  
HETATM   14  O   UNL     1     -10.760  12.411  63.656  1.00  0.00    -0.417 OA 
BRANCH  13  15
HETATM   15  C   UNL     1     -10.968  11.218  66.115  1.00  0.00    -0.191 C  
BRANCH  15  16
HETATM   16  C   UNL     1      -9.456  11.236  66.286  1.00  0.00    -0.204 A  
HETATM   17  N   UNL     1      -9.013  12.049  67.281  1.00  0.00    -0.174 NA 
HETATM   18  C   UNL     1      -7.683  12.118  67.503  1.00  0.00    -0.159 A  
HETATM   19  C   UNL     1      -6.731  11.434  66.764  1.00  0.00    -0.137 A  
HETATM   20  C   UNL     1      -7.189  10.596  65.738  1.00  0.00    -0.104 A  
HETATM   21  C   UNL     1      -5.270  11.619  67.058  1.00  0.00    -0.112 C  
HETATM   22  C   UNL     1      -9.120   9.523  64.460  1.00  0.00    -0.250 C  
HETATM   23  C   UNL     1      -8.576  10.455  65.502  1.00  0.00    -0.177 A  
BRANCH  20  24
HETATM   24  O   UNL     1      -6.206   9.852  65.129  1.00  0.00    -0.085 OA 
HETATM   25  C   UNL     1      -5.694  10.326  63.888  1.00  0.00    -0.145 C  
ENDBRANCH  20  24
ENDBRANCH  15  16
ENDBRANCH  13  15
ENDBRANCH  10  13
ENDBRANCH   2   3
TORSDOF 5
ENDMDL
MODEL      124
REMARK 921   NORMALIZED FREE ENERGY PREDICTED BY IDOCK:   -4.74 KCAL/MOL
REMARK 922        TOTAL FREE ENERGY PREDICTED BY IDOCK:   -6.77 KCAL/MOL
REMARK 923 INTER-LIGAND FREE ENERGY PREDICTED BY IDOCK:   -6.55 KCAL/MOL
REMARK 924 INTRA-LIGAND FREE ENERGY PREDICTED BY IDOCK:   -0.22 KCAL/MOL
REMARK 927      BINDING AFFINITY PREDICTED BY RF-SCORE:    0.00 PKD
ROOT
HETATM    1  C   UNL     1      -8.599   5.347  73.909  1.00  0.00    -0.115 C  
HETATM    2  O   UNL     1      -9.096   6.661  74.130  1.00  0.00    -0.156 OA 
ENDROOT
BRANCH   2   3
HETATM    3  C   UNL     1      -9.644   7.284  73.035  1.00  0.00    -0.175 A  
HETATM    4  C   UNL     1      -8.919   7.720  71.915  1.00  0.00    -0.164 A  
HETATM    5  C   UNL     1      -9.604   8.392  70.886  1.00  0.00    -0.175 A  
HETATM    6  C   UNL     1     -10.972   8.597  71.019  1.00  0.00    -0.260 A  
HETATM    7  C   UNL     1     -11.723   8.169  72.114  1.00  0.00    -0.418 A  
HETATM    8  N   UNL     1     -11.322   9.272  69.883  1.00  0.00    -0.423 NA 
HETATM    9  C   UNL     1     -11.019   7.518  73.132  1.00  0.00    -0.420 A  
HETATM   10  C   UNL     1     -10.202   9.452  69.115  1.00  0.00    -0.202 A  
HETATM   11  H   UNL     1     -12.262   9.589  69.646  1.00  0.00     0.000 HD 
HETATM   12  N   UNL     1      -9.137   8.933  69.697  1.00  0.00    -0.147 NA 
BRANCH  10  13
HETATM   13  S   UNL     1     -10.295  10.239  67.565  1.00  0.00    -0.247 S  
HETATM   14  O   UNL     1     -10.639   9.139  66.598  1.00  0.00    -0.202 OA 
BRANCH  13  15
HETATM   15  C   UNL     1     -11.696  11.362  67.804  1.00  0.00    -0.203 C  
BRANCH  15  16
HETATM   16  C   UNL     1     -11.572  12.596  66.921  1.00  0.00    -0.373 A  
HETATM   17  N   UNL     1     -12.318  12.551  65.786  1.00  0.00    -0.626 NA 
HETATM   18  C   UNL     1     -12.271  13.610  64.950  1.00  0.00    -0.414 A  
HETATM   19  C   UNL     1     -11.489  14.734  65.157  1.00  0.00    -0.371 A  
HETATM   20  C   UNL     1     -10.719  14.780  66.328  1.00  0.00    -0.313 A  
HETATM   21  C   UNL     1     -11.467  15.838  64.139  1.00  0.00    -0.079 C  
HETATM   22  C   UNL     1     -10.023  13.743  68.553  1.00  0.00    -0.217 C  
HETATM   23  C   UNL     1     -10.776  13.715  67.256  1.00  0.00    -0.283 A  
BRANCH  20  24
HETATM   24  O   UNL     1     -10.067  15.972  66.536  1.00  0.00    -0.263 OA 
HETATM   25  C   UNL     1     -10.637  16.880  67.472  1.00  0.00    -0.307 C  
ENDBRANCH  20  24
ENDBRANCH  15  16
ENDBRANCH  13  15
ENDBRANCH  10  13
ENDBRANCH   2   3
TORSDOF 5
ENDMDL
MODEL      125
REMARK 921   NORMALIZED FREE ENERGY PREDICTED BY IDOCK:   -4.74 KCAL/MOL
REMARK 922        TOTAL FREE ENERGY PREDICTED BY IDOCK:   -6.77 KCAL/MOL
REMARK 923 INTER-LIGAND FREE ENERGY PREDICTED BY IDOCK:   -6.14 KCAL/MOL
REMARK 924 INTRA-LIGAND FREE ENERGY PREDICTED BY IDOCK:   -0.63 KCAL/MOL
REMARK 927      BINDING AFFINITY PREDICTED BY RF-SCORE:    0.00 PKD
ROOT
HETATM    1  C   UNL     1     -11.344  16.264  68.646  1.00  0.00    -0.333 C  
HETATM    2  O   UNL     1     -12.294  15.479  69.354  1.00  0.00    -0.266 OA 
ENDROOT
BRANCH   2   3
HETATM    3  C   UNL     1     -12.065  14.124  69.357  1.00  0.00    -0.328 A  
HETATM    4  C   UNL     1     -11.529  13.399  68.281  1.00  0.00    -0.350 A  
HETATM    5  C   UNL     1     -11.396  12.003  68.405  1.00  0.00    -0.279 A  
HETATM    6  C   UNL     1     -11.801  11.398  69.589  1.00  0.00    -0.362 A  
HETATM    7  C   UNL     1     -12.329  12.090  70.680  1.00  0.00    -0.394 A  
HETATM    8  N   UNL     1     -11.557  10.069  69.386  1.00  0.00    -0.459 NA 
HETATM    9  C   UNL     1     -12.466  13.473  70.528  1.00  0.00    -0.373 A  
HETATM   10  C   UNL     1     -11.028   9.904  68.133  1.00  0.00    -0.207 A  
HETATM   11  H   UNL     1     -11.739   9.322  70.057  1.00  0.00     0.000 HD 
HETATM   12  N   UNL     1     -10.921  11.061  67.505  1.00  0.00    -0.262 NA 
BRANCH  10  13
HETATM   13  S   UNL     1     -10.552   8.331  67.560  1.00  0.00    -0.162 S  
HETATM   14  O   UNL     1     -10.053   8.568  66.162  1.00  0.00    -0.221 OA 
BRANCH  13  15
HETATM   15  C   UNL     1      -9.190   7.925  68.682  1.00  0.00    -0.142 C  
BRANCH  15  16
HETATM   16  C   UNL     1      -9.652   7.006  69.805  1.00  0.00    -0.151 A  
HETATM   17  N   UNL     1     -10.285   7.643  70.826  1.00  0.00    -0.200 NA 
HETATM   18  C   UNL     1     -10.733   6.898  71.860  1.00  0.00    -0.218 A  
HETATM   19  C   UNL     1     -10.566   5.527  71.965  1.00  0.00    -0.284 A  
HETATM   20  C   UNL     1      -9.913   4.872  70.912  1.00  0.00    -0.217 A  
HETATM   21  C   UNL     1     -11.057   4.797  73.183  1.00  0.00    -0.388 C  
HETATM   22  C   UNL     1      -8.826   4.944  68.604  1.00  0.00    -0.116 C  
HETATM   23  C   UNL     1      -9.471   5.604  69.786  1.00  0.00    -0.189 A  
BRANCH  20  24
HETATM   24  O   UNL     1      -9.893   3.502  71.017  1.00  0.00    -0.171 OA 
HETATM   25  C   UNL     1      -8.654   2.885  71.350  1.00  0.00    -0.064 C  
ENDBRANCH  20  24
ENDBRANCH  15  16
ENDBRANCH  13  15
ENDBRANCH  10  13
ENDBRANCH   2   3
TORSDOF 5
ENDMDL
MODEL      126
REMARK 921   NORMALIZED FREE ENERGY PREDICTED BY IDOCK:   -4.74 KCAL/MOL
REMARK 922        TOTAL FREE ENERGY PREDICTED BY IDOCK:   -6.76 KCAL/MOL
REMARK 923 INTER-LIGAND FREE ENERGY PREDICTED BY IDOCK:   -6.37 KCAL/MOL
REMARK 924 INTRA-LIGAND FREE ENERGY PREDICTED BY IDOCK:   -0.39 KCAL/MOL
REMARK 927      BINDING AFFINITY PREDICTED BY RF-SCORE:    0.00 PKD
ROOT
HETATM    1  C   UNL     1     -12.987  16.049  73.155  1.00  0.00    -0.527 C  
HETATM    2  O   UNL     1     -13.805  14.898  72.990  1.00  0.00    -0.484 OA 
ENDROOT
BRANCH   2   3
HETATM    3  C   UNL     1     -13.278  13.899  72.208  1.00  0.00    -0.473 A  
HETATM    4  C   UNL     1     -12.357  14.097  71.167  1.00  0.00    -0.447 A  
HETATM    5  C   UNL     1     -11.940  12.985  70.412  1.00  0.00    -0.258 A  
HETATM    6  C   UNL     1     -12.456  11.734  70.727  1.00  0.00    -0.312 A  
HETATM    7  C   UNL     1     -13.366  11.502  71.760  1.00  0.00    -0.356 A  
HETATM    8  N   UNL     1     -11.874  10.893  69.821  1.00  0.00    -0.316 NA 
HETATM    9  C   UNL     1     -13.778  12.623  72.486  1.00  0.00    -0.230 A  
HETATM   10  C   UNL     1     -11.047  11.625  69.009  1.00  0.00    -0.241 A  
HETATM   11  H   UNL     1     -12.029   9.887  69.759  1.00  0.00     0.000 HD 
HETATM   12  N   UNL     1     -11.067  12.903  69.337  1.00  0.00    -0.133 NA 
BRANCH  10  13
HETATM   13  S   UNL     1     -10.104  10.856  67.763  1.00  0.00    -0.182 S  
HETATM   14  O   UNL     1      -9.624  11.987  66.896  1.00  0.00    -0.195 OA 
BRANCH  13  15
HETATM   15  C   UNL     1      -8.743  10.140  68.719  1.00  0.00    -0.138 C  
BRANCH  15  16
HETATM   16  C   UNL     1      -9.248   9.094  69.703  1.00  0.00    -0.168 A  
HETATM   17  N   UNL     1      -9.333   9.528  70.989  1.00  0.00    -0.195 NA 
HETATM   18  C   UNL     1      -9.780   8.662  71.925  1.00  0.00    -0.313 A  
HETATM   19  C   UNL     1     -10.132   7.347  71.669  1.00  0.00    -0.200 A  
HETATM   20  C   UNL     1     -10.043   6.901  70.343  1.00  0.00    -0.187 A  
HETATM   21  C   UNL     1     -10.568   6.450  72.791  1.00  0.00    -0.254 C  
HETATM   22  C   UNL     1      -9.578   7.379  67.879  1.00  0.00    -0.157 C  
HETATM   23  C   UNL     1      -9.629   7.787  69.322  1.00  0.00    -0.159 A  
BRANCH  20  24
HETATM   24  O   UNL     1     -10.526   5.631  70.135  1.00  0.00    -0.246 OA 
HETATM   25  C   UNL     1      -9.578   4.575  70.024  1.00  0.00    -0.197 C  
ENDBRANCH  20  24
ENDBRANCH  15  16
ENDBRANCH  13  15
ENDBRANCH  10  13
ENDBRANCH   2   3
TORSDOF 5
ENDMDL
MODEL      127
REMARK 921   NORMALIZED FREE ENERGY PREDICTED BY IDOCK:   -4.73 KCAL/MOL
REMARK 922        TOTAL FREE ENERGY PREDICTED BY IDOCK:   -6.76 KCAL/MOL
REMARK 923 INTER-LIGAND FREE ENERGY PREDICTED BY IDOCK:   -6.22 KCAL/MOL
REMARK 924 INTRA-LIGAND FREE ENERGY PREDICTED BY IDOCK:   -0.54 KCAL/MOL
REMARK 927      BINDING AFFINITY PREDICTED BY RF-SCORE:    0.00 PKD
ROOT
HETATM    1  C   UNL     1      -9.649  10.262  64.576  1.00  0.00    -0.316 C  
HETATM    2  O   UNL     1     -10.847  10.950  64.240  1.00  0.00    -0.309 OA 
ENDROOT
BRANCH   2   3
HETATM    3  C   UNL     1     -10.975  12.215  64.763  1.00  0.00    -0.310 A  
HETATM    4  C   UNL     1     -10.151  13.304  64.438  1.00  0.00    -0.190 A  
HETATM    5  C   UNL     1     -10.364  14.532  65.091  1.00  0.00    -0.411 A  
HETATM    6  C   UNL     1     -11.382  14.618  66.032  1.00  0.00    -0.344 A  
HETATM    7  C   UNL     1     -12.224  13.558  66.372  1.00  0.00    -0.454 A  
HETATM    8  N   UNL     1     -11.318  15.908  66.479  1.00  0.00     0.088 NA 
HETATM    9  C   UNL     1     -11.983  12.344  65.723  1.00  0.00    -0.437 A  
HETATM   10  C   UNL     1     -10.302  16.551  65.821  1.00  0.00    -0.341 A  
HETATM   11  H   UNL     1     -11.925  16.324  67.185  1.00  0.00     0.000 HD 
HETATM   12  N   UNL     1      -9.696  15.742  64.972  1.00  0.00    -0.176 NA 
BRANCH  10  13
HETATM   13  S   UNL     1      -9.969  18.235  66.114  1.00  0.00    -0.254 S  
HETATM   14  O   UNL     1     -11.114  18.968  65.470  1.00  0.00    -0.288 OA 
BRANCH  13  15
HETATM   15  C   UNL     1     -10.068  18.322  67.920  1.00  0.00    -0.361 C  
BRANCH  15  16
HETATM   16  C   UNL     1      -8.924  17.561  68.575  1.00  0.00    -0.279 A  
HETATM   17  N   UNL     1      -9.187  16.249  68.812  1.00  0.00    -0.230 NA 
HETATM   18  C   UNL     1      -8.221  15.498  69.385  1.00  0.00    -0.247 A  
HETATM   19  C   UNL     1      -6.984  15.984  69.776  1.00  0.00    -0.040 A  
HETATM   20  C   UNL     1      -6.714  17.338  69.531  1.00  0.00    -0.130 A  
HETATM   21  C   UNL     1      -5.996  15.078  70.454  1.00  0.00    -0.134 C  
HETATM   22  C   UNL     1      -7.414  19.585  68.544  1.00  0.00    -0.368 C  
HETATM   23  C   UNL     1      -7.677  18.149  68.888  1.00  0.00    -0.213 A  
BRANCH  20  24
HETATM   24  O   UNL     1      -5.428  17.725  69.824  1.00  0.00    -0.192 OA 
HETATM   25  C   UNL     1      -5.220  18.470  71.019  1.00  0.00    -0.282 C  
ENDBRANCH  20  24
ENDBRANCH  15  16
ENDBRANCH  13  15
ENDBRANCH  10  13
ENDBRANCH   2   3
TORSDOF 5
ENDMDL
MODEL      128
REMARK 921   NORMALIZED FREE ENERGY PREDICTED BY IDOCK:   -4.73 KCAL/MOL
REMARK 922        TOTAL FREE ENERGY PREDICTED BY IDOCK:   -6.75 KCAL/MOL
REMARK 923 INTER-LIGAND FREE ENERGY PREDICTED BY IDOCK:   -6.35 KCAL/MOL
REMARK 924 INTRA-LIGAND FREE ENERGY PREDICTED BY IDOCK:   -0.40 KCAL/MOL
REMARK 927      BINDING AFFINITY PREDICTED BY RF-SCORE:    0.00 PKD
ROOT
HETATM    1  C   UNL     1      -5.973  19.490  69.816  1.00  0.00    -0.275 C  
HETATM    2  O   UNL     1      -6.083  18.545  68.759  1.00  0.00    -0.205 OA 
ENDROOT
BRANCH   2   3
HETATM    3  C   UNL     1      -7.321  17.973  68.597  1.00  0.00    -0.282 A  
HETATM    4  C   UNL     1      -7.546  16.640  68.219  1.00  0.00    -0.181 A  
HETATM    5  C   UNL     1      -8.871  16.202  68.040  1.00  0.00    -0.181 A  
HETATM    6  C   UNL     1      -9.906  17.107  68.244  1.00  0.00    -0.288 A  
HETATM    7  C   UNL     1      -9.717  18.435  68.628  1.00  0.00    -0.387 A  
HETATM    8  N   UNL     1     -11.038  16.387  67.982  1.00  0.00    -0.329 NA 
HETATM    9  C   UNL     1      -8.392  18.852  68.784  1.00  0.00    -0.345 A  
HETATM   10  C   UNL     1     -10.678  15.109  67.641  1.00  0.00    -0.285 A  
HETATM   11  H   UNL     1     -11.993  16.741  68.033  1.00  0.00     0.000 HD 
HETATM   12  N   UNL     1      -9.366  14.963  67.660  1.00  0.00    -0.190 NA 
BRANCH  10  13
HETATM   13  S   UNL     1     -11.882  13.903  67.288  1.00  0.00    -0.413 S  
HETATM   14  O   UNL     1     -12.649  14.459  66.120  1.00  0.00    -0.375 OA 
BRANCH  13  15
HETATM   15  C   UNL     1     -10.860  12.494  66.789  1.00  0.00    -0.249 C  
BRANCH  15  16
HETATM   16  C   UNL     1     -10.944  11.362  67.802  1.00  0.00    -0.247 A  
HETATM   17  N   UNL     1     -11.362  11.745  69.038  1.00  0.00    -0.255 NA 
HETATM   18  C   UNL     1     -11.471  10.799  69.996  1.00  0.00    -0.331 A  
HETATM   19  C   UNL     1     -11.157   9.462  69.813  1.00  0.00    -0.193 A  
HETATM   20  C   UNL     1     -10.726   9.068  68.538  1.00  0.00    -0.095 A  
HETATM   21  C   UNL     1     -11.263   8.497  70.958  1.00  0.00    -0.312 C  
HETATM   22  C   UNL     1     -10.251   9.635  66.096  1.00  0.00    -0.276 C  
HETATM   23  C   UNL     1     -10.644  10.016  67.492  1.00  0.00    -0.336 A  
BRANCH  20  24
HETATM   24  O   UNL     1     -10.553   7.713  68.388  1.00  0.00    -0.190 OA 
HETATM   25  C   UNL     1      -9.224   7.206  68.453  1.00  0.00    -0.133 C  
ENDBRANCH  20  24
ENDBRANCH  15  16
ENDBRANCH  13  15
ENDBRANCH  10  13
ENDBRANCH   2   3
TORSDOF 5
ENDMDL
MODEL      129
REMARK 921   NORMALIZED FREE ENERGY PREDICTED BY IDOCK:   -4.72 KCAL/MOL
REMARK 922        TOTAL FREE ENERGY PREDICTED BY IDOCK:   -6.74 KCAL/MOL
REMARK 923 INTER-LIGAND FREE ENERGY PREDICTED BY IDOCK:   -6.50 KCAL/MOL
REMARK 924 INTRA-LIGAND FREE ENERGY PREDICTED BY IDOCK:   -0.24 KCAL/MOL
REMARK 927      BINDING AFFINITY PREDICTED BY RF-SCORE:    0.00 PKD
ROOT
HETATM    1  C   UNL     1      -9.967  17.723  66.366  1.00  0.00    -0.344 C  
HETATM    2  O   UNL     1     -10.809  17.735  67.512  1.00  0.00    -0.344 OA 
ENDROOT
BRANCH   2   3
HETATM    3  C   UNL     1     -10.970  16.527  68.146  1.00  0.00    -0.336 A  
HETATM    4  C   UNL     1     -11.250  15.313  67.500  1.00  0.00    -0.317 A  
HETATM    5  C   UNL     1     -11.443  14.159  68.282  1.00  0.00    -0.304 A  
HETATM    6  C   UNL     1     -11.346  14.267  69.664  1.00  0.00    -0.243 A  
HETATM    7  C   UNL     1     -11.061  15.456  70.337  1.00  0.00    -0.351 A  
HETATM    8  N   UNL     1     -11.592  13.001  70.117  1.00  0.00    -0.536 NA 
HETATM    9  C   UNL     1     -10.890  16.592  69.541  1.00  0.00    -0.285 A  
HETATM   10  C   UNL     1     -11.820  12.185  69.040  1.00  0.00    -0.306 A  
HETATM   11  H   UNL     1     -11.604  12.711  71.095  1.00  0.00     0.000 HD 
HETATM   12  N   UNL     1     -11.742  12.858  67.907  1.00  0.00    -0.346 NA 
BRANCH  10  13
HETATM   13  S   UNL     1     -12.121  10.483  69.253  1.00  0.00     0.084 S  
HETATM   14  O   UNL     1     -11.089   9.803  68.398  1.00  0.00    -0.187 OA 
BRANCH  13  15
HETATM   15  C   UNL     1     -11.762  10.262  71.014  1.00  0.00    -0.370 C  
BRANCH  15  16
HETATM   16  C   UNL     1     -11.391   8.819  71.326  1.00  0.00    -0.291 A  
HETATM   17  N   UNL     1     -12.450   8.016  71.611  1.00  0.00    -0.311 NA 
HETATM   18  C   UNL     1     -12.208   6.718  71.892  1.00  0.00    -0.335 A  
HETATM   19  C   UNL     1     -10.945   6.151  71.940  1.00  0.00    -0.311 A  
HETATM   20  C   UNL     1      -9.853   6.980  71.647  1.00  0.00    -0.163 A  
HETATM   21  C   UNL     1     -10.779   4.706  72.315  1.00  0.00    -0.148 C  
HETATM   22  C   UNL     1      -8.936   9.246  70.914  1.00  0.00    -0.273 C  
HETATM   23  C   UNL     1     -10.063   8.334  71.298  1.00  0.00    -0.249 A  
BRANCH  20  24
HETATM   24  O   UNL     1      -8.644   6.330  71.587  1.00  0.00    -0.132 OA 
HETATM   25  C   UNL     1      -7.852   6.300  72.770  1.00  0.00    -0.105 C  
ENDBRANCH  20  24
ENDBRANCH  15  16
ENDBRANCH  13  15
ENDBRANCH  10  13
ENDBRANCH   2   3
TORSDOF 5
ENDMDL
MODEL      130
REMARK 921   NORMALIZED FREE ENERGY PREDICTED BY IDOCK:   -4.72 KCAL/MOL
REMARK 922        TOTAL FREE ENERGY PREDICTED BY IDOCK:   -6.74 KCAL/MOL
REMARK 923 INTER-LIGAND FREE ENERGY PREDICTED BY IDOCK:   -6.58 KCAL/MOL
REMARK 924 INTRA-LIGAND FREE ENERGY PREDICTED BY IDOCK:   -0.16 KCAL/MOL
REMARK 927      BINDING AFFINITY PREDICTED BY RF-SCORE:    0.00 PKD
ROOT
HETATM    1  C   UNL     1     -14.293   7.504  71.552  1.00  0.00    -0.458 C  
HETATM    2  O   UNL     1     -13.536   8.482  72.256  1.00  0.00    -0.352 OA 
ENDROOT
BRANCH   2   3
HETATM    3  C   UNL     1     -12.391   8.912  71.632  1.00  0.00    -0.343 A  
HETATM    4  C   UNL     1     -12.356   9.682  70.459  1.00  0.00    -0.106 A  
HETATM    5  C   UNL     1     -11.107  10.007  69.900  1.00  0.00    -0.288 A  
HETATM    6  C   UNL     1      -9.955   9.554  70.532  1.00  0.00    -0.273 A  
HETATM    7  C   UNL     1      -9.954   8.795  71.703  1.00  0.00    -0.381 A  
HETATM    8  N   UNL     1      -8.937  10.020  69.748  1.00  0.00    -0.303 NA 
HETATM    9  C   UNL     1     -11.207   8.470  72.231  1.00  0.00    -0.432 A  
HETATM   10  C   UNL     1      -9.474  10.721  68.699  1.00  0.00    -0.188 A  
HETATM   11  H   UNL     1      -7.942   9.871  69.915  1.00  0.00     0.000 HD 
HETATM   12  N   UNL     1     -10.793  10.729  68.758  1.00  0.00    -0.204 NA 
BRANCH  10  13
HETATM   13  S   UNL     1      -8.452  11.497  67.524  1.00  0.00    -0.150 S  
HETATM   14  O   UNL     1      -7.932  10.374  66.669  1.00  0.00    -0.113 OA 
BRANCH  13  15
HETATM   15  C   UNL     1      -9.641  12.516  66.615  1.00  0.00    -0.239 C  
BRANCH  15  16
HETATM   16  C   UNL     1      -9.711  13.926  67.184  1.00  0.00    -0.244 A  
HETATM   17  N   UNL     1      -8.688  14.736  66.803  1.00  0.00    -0.241 NA 
HETATM   18  C   UNL     1      -8.679  16.008  67.260  1.00  0.00    -0.185 A  
HETATM   19  C   UNL     1      -9.629  16.537  68.117  1.00  0.00    -0.226 A  
HETATM   20  C   UNL     1     -10.683  15.700  68.510  1.00  0.00    -0.264 A  
HETATM   21  C   UNL     1      -9.500  17.950  68.609  1.00  0.00    -0.301 C  
HETATM   22  C   UNL     1     -11.900  13.463  68.354  1.00  0.00    -0.401 C  
HETATM   23  C   UNL     1     -10.761  14.377  68.017  1.00  0.00    -0.244 A  
BRANCH  20  24
HETATM   24  O   UNL     1     -11.657  16.321  69.255  1.00  0.00    -0.293 OA 
HETATM   25  C   UNL     1     -11.735  15.996  70.639  1.00  0.00    -0.350 C  
ENDBRANCH  20  24
ENDBRANCH  15  16
ENDBRANCH  13  15
ENDBRANCH  10  13
ENDBRANCH   2   3
TORSDOF 5
ENDMDL
MODEL      131
REMARK 921   NORMALIZED FREE ENERGY PREDICTED BY IDOCK:   -4.70 KCAL/MOL
REMARK 922        TOTAL FREE ENERGY PREDICTED BY IDOCK:   -6.72 KCAL/MOL
REMARK 923 INTER-LIGAND FREE ENERGY PREDICTED BY IDOCK:   -6.42 KCAL/MOL
REMARK 924 INTRA-LIGAND FREE ENERGY PREDICTED BY IDOCK:   -0.30 KCAL/MOL
REMARK 927      BINDING AFFINITY PREDICTED BY RF-SCORE:    0.00 PKD
ROOT
HETATM    1  C   UNL     1     -12.861  15.787  74.051  1.00  0.00    -0.480 C  
HETATM    2  O   UNL     1     -13.788  15.392  73.046  1.00  0.00    -0.456 OA 
ENDROOT
BRANCH   2   3
HETATM    3  C   UNL     1     -13.256  14.705  71.982  1.00  0.00    -0.351 A  
HETATM    4  C   UNL     1     -13.058  13.316  71.942  1.00  0.00    -0.483 A  
HETATM    5  C   UNL     1     -12.453  12.752  70.804  1.00  0.00    -0.271 A  
HETATM    6  C   UNL     1     -12.077  13.592  69.763  1.00  0.00    -0.334 A  
HETATM    7  C   UNL     1     -12.268  14.974  69.767  1.00  0.00    -0.324 A  
HETATM    8  N   UNL     1     -11.522  12.752  68.838  1.00  0.00    -0.285 NA 
HETATM    9  C   UNL     1     -12.855  15.515  70.915  1.00  0.00    -0.535 A  
HETATM   10  C   UNL     1     -11.575  11.470  69.319  1.00  0.00    -0.322 A  
HETATM   11  H   UNL     1     -11.133  13.034  67.938  1.00  0.00     0.000 HD 
HETATM   12  N   UNL     1     -12.131  11.434  70.516  1.00  0.00    -0.379 NA 
BRANCH  10  13
HETATM   13  S   UNL     1     -10.994  10.132  68.370  1.00  0.00    -0.221 S  
HETATM   14  O   UNL     1     -10.579  10.745  67.060  1.00  0.00    -0.235 OA 
BRANCH  13  15
HETATM   15  C   UNL     1      -9.553   9.597  69.328  1.00  0.00    -0.185 C  
BRANCH  15  16
HETATM   16  C   UNL     1      -9.521   8.083  69.481  1.00  0.00    -0.160 A  
HETATM   17  N   UNL     1     -10.739   7.514  69.682  1.00  0.00    -0.240 NA 
HETATM   18  C   UNL     1     -10.800   6.172  69.821  1.00  0.00    -0.353 A  
HETATM   19  C   UNL     1      -9.698   5.334  69.802  1.00  0.00    -0.257 A  
HETATM   20  C   UNL     1      -8.442   5.922  69.595  1.00  0.00    -0.117 A  
HETATM   21  C   UNL     1      -9.867   3.857  70.018  1.00  0.00    -0.149 C  
HETATM   22  C   UNL     1      -7.026   7.988  69.106  1.00  0.00    -0.057 C  
HETATM   23  C   UNL     1      -8.336   7.317  69.395  1.00  0.00    -0.133 A  
BRANCH  20  24
HETATM   24  O   UNL     1      -7.408   5.026  69.459  1.00  0.00    -0.055 OA 
HETATM   25  C   UNL     1      -6.536   4.853  70.571  1.00  0.00    -0.035 C  
ENDBRANCH  20  24
ENDBRANCH  15  16
ENDBRANCH  13  15
ENDBRANCH  10  13
ENDBRANCH   2   3
TORSDOF 5
ENDMDL
MODEL      132
REMARK 921   NORMALIZED FREE ENERGY PREDICTED BY IDOCK:   -4.69 KCAL/MOL
REMARK 922        TOTAL FREE ENERGY PREDICTED BY IDOCK:   -6.70 KCAL/MOL
REMARK 923 INTER-LIGAND FREE ENERGY PREDICTED BY IDOCK:   -6.14 KCAL/MOL
REMARK 924 INTRA-LIGAND FREE ENERGY PREDICTED BY IDOCK:   -0.57 KCAL/MOL
REMARK 927      BINDING AFFINITY PREDICTED BY RF-SCORE:    0.00 PKD
ROOT
HETATM    1  C   UNL     1     -13.414   8.671  71.925  1.00  0.00    -0.397 C  
HETATM    2  O   UNL     1     -12.094   8.448  72.406  1.00  0.00    -0.371 OA 
ENDROOT
BRANCH   2   3
HETATM    3  C   UNL     1     -11.090   8.587  71.478  1.00  0.00    -0.275 A  
HETATM    4  C   UNL     1     -11.265   8.499  70.088  1.00  0.00    -0.139 A  
HETATM    5  C   UNL     1     -10.135   8.609  69.256  1.00  0.00    -0.202 A  
HETATM    6  C   UNL     1      -8.891   8.802  69.844  1.00  0.00    -0.143 A  
HETATM    7  C   UNL     1      -8.684   8.903  71.220  1.00  0.00    -0.279 A  
HETATM    8  N   UNL     1      -8.025   8.854  68.787  1.00  0.00    -0.101 NA 
HETATM    9  C   UNL     1      -9.818   8.774  72.028  1.00  0.00    -0.376 A  
HETATM   10  C   UNL     1      -8.738   8.701  67.626  1.00  0.00    -0.136 A  
HETATM   11  H   UNL     1      -7.016   8.986  68.851  1.00  0.00     0.000 HD 
HETATM   12  N   UNL     1     -10.025   8.544  67.875  1.00  0.00    -0.171 NA 
BRANCH  10  13
HETATM   13  S   UNL     1      -7.950   8.765  66.076  1.00  0.00    -0.110 S  
HETATM   14  O   UNL     1      -8.932   8.142  65.122  1.00  0.00    -0.014 OA 
BRANCH  13  15
HETATM   15  C   UNL     1      -7.814  10.550  65.803  1.00  0.00    -0.154 C  
BRANCH  15  16
HETATM   16  C   UNL     1      -9.004  11.292  66.395  1.00  0.00    -0.188 A  
HETATM   17  N   UNL     1      -8.797  11.777  67.648  1.00  0.00    -0.157 NA 
HETATM   18  C   UNL     1      -9.802  12.455  68.243  1.00  0.00    -0.224 A  
HETATM   19  C   UNL     1     -11.046  12.666  67.674  1.00  0.00    -0.303 A  
HETATM   20  C   UNL     1     -11.260  12.165  66.382  1.00  0.00    -0.331 A  
HETATM   21  C   UNL     1     -12.116  13.389  68.441  1.00  0.00    -0.270 C  
HETATM   22  C   UNL     1     -10.374  10.993  64.295  1.00  0.00    -0.430 C  
HETATM   23  C   UNL     1     -10.219  11.492  65.701  1.00  0.00    -0.292 A  
BRANCH  20  24
HETATM   24  O   UNL     1     -12.466  12.517  65.825  1.00  0.00    -0.626 OA 
HETATM   25  C   UNL     1     -12.522  13.734  65.088  1.00  0.00    -0.450 C  
ENDBRANCH  20  24
ENDBRANCH  15  16
ENDBRANCH  13  15
ENDBRANCH  10  13
ENDBRANCH   2   3
TORSDOF 5
ENDMDL
MODEL      133
REMARK 921   NORMALIZED FREE ENERGY PREDICTED BY IDOCK:   -4.68 KCAL/MOL
REMARK 922        TOTAL FREE ENERGY PREDICTED BY IDOCK:   -6.69 KCAL/MOL
REMARK 923 INTER-LIGAND FREE ENERGY PREDICTED BY IDOCK:   -6.23 KCAL/MOL
REMARK 924 INTRA-LIGAND FREE ENERGY PREDICTED BY IDOCK:   -0.46 KCAL/MOL
REMARK 927      BINDING AFFINITY PREDICTED BY RF-SCORE:    0.00 PKD
ROOT
HETATM    1  C   UNL     1     -10.082  20.096  68.237  1.00  0.00    -0.334 C  
HETATM    2  O   UNL     1      -9.857  18.846  68.876  1.00  0.00    -0.399 OA 
ENDROOT
BRANCH   2   3
HETATM    3  C   UNL     1      -9.939  17.739  68.066  1.00  0.00    -0.333 A  
HETATM    4  C   UNL     1     -10.902  16.725  68.187  1.00  0.00    -0.353 A  
HETATM    5  C   UNL     1     -10.834  15.620  67.318  1.00  0.00    -0.298 A  
HETATM    6  C   UNL     1      -9.816  15.577  66.373  1.00  0.00    -0.278 A  
HETATM    7  C   UNL     1      -8.848  16.571  66.221  1.00  0.00    -0.364 A  
HETATM    8  N   UNL     1     -10.021  14.398  65.714  1.00  0.00    -0.343 NA 
HETATM    9  C   UNL     1      -8.926  17.651  67.105  1.00  0.00    -0.249 A  
HETATM   10  C   UNL     1     -11.118  13.777  66.251  1.00  0.00    -0.302 A  
HETATM   11  H   UNL     1      -9.451  14.038  64.948  1.00  0.00     0.000 HD 
HETATM   12  N   UNL     1     -11.635  14.492  67.234  1.00  0.00    -0.371 NA 
BRANCH  10  13
HETATM   13  S   UNL     1     -11.695  12.264  65.612  1.00  0.00    -0.332 S  
HETATM   14  O   UNL     1     -12.546  12.648  64.432  1.00  0.00    -0.582 OA 
BRANCH  13  15
HETATM   15  C   UNL     1     -10.154  11.476  65.080  1.00  0.00    -0.270 C  
BRANCH  15  16
HETATM   16  C   UNL     1      -9.257  11.156  66.267  1.00  0.00    -0.195 A  
HETATM   17  N   UNL     1      -8.255  12.051  66.471  1.00  0.00    -0.058 NA 
HETATM   18  C   UNL     1      -7.417  11.844  67.510  1.00  0.00    -0.136 A  
HETATM   19  C   UNL     1      -7.491  10.761  68.370  1.00  0.00    -0.095 A  
HETATM   20  C   UNL     1      -8.525   9.838  68.158  1.00  0.00    -0.114 A  
HETATM   21  C   UNL     1      -6.478  10.594  69.465  1.00  0.00    -0.078 C  
HETATM   22  C   UNL     1     -10.617   9.120  66.885  1.00  0.00    -0.237 C  
HETATM   23  C   UNL     1      -9.456  10.041  67.114  1.00  0.00    -0.184 A  
BRANCH  20  24
HETATM   24  O   UNL     1      -8.621   8.859  69.119  1.00  0.00    -0.130 OA 
HETATM   25  C   UNL     1      -9.519   9.084  70.201  1.00  0.00    -0.195 C  
ENDBRANCH  20  24
ENDBRANCH  15  16
ENDBRANCH  13  15
ENDBRANCH  10  13
ENDBRANCH   2   3
TORSDOF 5
ENDMDL
MODEL      134
REMARK 921   NORMALIZED FREE ENERGY PREDICTED BY IDOCK:   -4.63 KCAL/MOL
REMARK 922        TOTAL FREE ENERGY PREDICTED BY IDOCK:   -6.63 KCAL/MOL
REMARK 923 INTER-LIGAND FREE ENERGY PREDICTED BY IDOCK:   -6.16 KCAL/MOL
REMARK 924 INTRA-LIGAND FREE ENERGY PREDICTED BY IDOCK:   -0.46 KCAL/MOL
REMARK 927      BINDING AFFINITY PREDICTED BY RF-SCORE:    0.00 PKD
ROOT
HETATM    1  C   UNL     1     -12.364  15.542  70.412  1.00  0.00    -0.413 C  
HETATM    2  O   UNL     1     -12.127  14.423  69.567  1.00  0.00    -0.313 OA 
ENDROOT
BRANCH   2   3
HETATM    3  C   UNL     1     -12.222  13.191  70.169  1.00  0.00    -0.290 A  
HETATM    4  C   UNL     1     -11.647  12.010  69.675  1.00  0.00    -0.371 A  
HETATM    5  C   UNL     1     -11.870  10.807  70.370  1.00  0.00    -0.358 A  
HETATM    6  C   UNL     1     -12.650  10.836  71.519  1.00  0.00    -0.395 A  
HETATM    7  C   UNL     1     -13.229  11.993  72.041  1.00  0.00    -0.481 A  
HETATM    8  N   UNL     1     -12.681   9.534  71.936  1.00  0.00    -0.392 NA 
HETATM    9  C   UNL     1     -13.008  13.174  71.326  1.00  0.00    -0.339 A  
HETATM   10  C   UNL     1     -11.945   8.775  71.065  1.00  0.00    -0.251 A  
HETATM   11  H   UNL     1     -13.172   9.186  72.759  1.00  0.00     0.000 HD 
HETATM   12  N   UNL     1     -11.440   9.517  70.096  1.00  0.00    -0.206 NA 
BRANCH  10  13
HETATM   13  S   UNL     1     -11.731   7.067  71.324  1.00  0.00    -0.337 S  
HETATM   14  O   UNL     1     -13.037   6.604  71.910  1.00  0.00    -0.280 OA 
BRANCH  13  15
HETATM   15  C   UNL     1     -11.521   6.460  69.631  1.00  0.00    -0.378 C  
BRANCH  15  16
HETATM   16  C   UNL     1     -10.056   6.475  69.216  1.00  0.00    -0.168 A  
HETATM   17  N   UNL     1      -9.219   5.853  70.088  1.00  0.00    -0.151 NA 
HETATM   18  C   UNL     1      -7.902   5.816  69.791  1.00  0.00    -0.095 A  
HETATM   19  C   UNL     1      -7.339   6.395  68.666  1.00  0.00    -0.087 A  
HETATM   20  C   UNL     1      -8.203   7.037  67.767  1.00  0.00    -0.114 A  
HETATM   21  C   UNL     1      -5.853   6.343  68.452  1.00  0.00    -0.016 C  
HETATM   22  C   UNL     1     -10.569   7.673  67.053  1.00  0.00    -0.406 C  
HETATM   23  C   UNL     1      -9.595   7.057  68.013  1.00  0.00    -0.133 A  
BRANCH  20  24
HETATM   24  O   UNL     1      -7.600   7.478  66.613  1.00  0.00    -0.093 OA 
HETATM   25  C   UNL     1      -7.664   6.630  65.471  1.00  0.00    -0.097 C  
ENDBRANCH  20  24
ENDBRANCH  15  16
ENDBRANCH  13  15
ENDBRANCH  10  13
ENDBRANCH   2   3
TORSDOF 5
ENDMDL
MODEL      135
REMARK 921   NORMALIZED FREE ENERGY PREDICTED BY IDOCK:   -4.63 KCAL/MOL
REMARK 922        TOTAL FREE ENERGY PREDICTED BY IDOCK:   -6.63 KCAL/MOL
REMARK 923 INTER-LIGAND FREE ENERGY PREDICTED BY IDOCK:   -6.52 KCAL/MOL
REMARK 924 INTRA-LIGAND FREE ENERGY PREDICTED BY IDOCK:   -0.11 KCAL/MOL
REMARK 927      BINDING AFFINITY PREDICTED BY RF-SCORE:    0.00 PKD
ROOT
HETATM    1  C   UNL     1      -8.921  19.838  66.829  1.00  0.00    -0.359 C  
HETATM    2  O   UNL     1     -10.255  19.347  66.862  1.00  0.00    -0.350 OA 
ENDROOT
BRANCH   2   3
HETATM    3  C   UNL     1     -10.387  17.979  66.857  1.00  0.00    -0.370 A  
HETATM    4  C   UNL     1     -10.232  17.162  65.726  1.00  0.00    -0.234 A  
HETATM    5  C   UNL     1     -10.448  15.777  65.857  1.00  0.00    -0.352 A  
HETATM    6  C   UNL     1     -10.806  15.274  67.102  1.00  0.00    -0.322 A  
HETATM    7  C   UNL     1     -10.960  16.057  68.247  1.00  0.00    -0.335 A  
HETATM    8  N   UNL     1     -10.950  13.931  66.891  1.00  0.00    -0.293 NA 
HETATM    9  C   UNL     1     -10.756  17.431  68.089  1.00  0.00    -0.343 A  
HETATM   10  C   UNL     1     -10.684  13.661  65.574  1.00  0.00    -0.296 A  
HETATM   11  H   UNL     1     -11.213  13.243  67.598  1.00  0.00     0.000 HD 
HETATM   12  N   UNL     1     -10.379  14.763  64.914  1.00  0.00    -0.388 NA 
BRANCH  10  13
HETATM   13  S   UNL     1     -10.727  12.030  64.968  1.00  0.00    -0.308 S  
HETATM   14  O   UNL     1     -10.589  12.173  63.477  1.00  0.00    -0.414 OA 
BRANCH  13  15
HETATM   15  C   UNL     1      -9.229  11.323  65.699  1.00  0.00    -0.213 C  
BRANCH  15  16
HETATM   16  C   UNL     1      -9.516   9.982  66.360  1.00  0.00    -0.186 A  
HETATM   17  N   UNL     1      -9.080   8.905  65.655  1.00  0.00    -0.216 NA 
HETATM   18  C   UNL     1      -9.289   7.676  66.176  1.00  0.00    -0.080 A  
HETATM   19  C   UNL     1      -9.945   7.435  67.371  1.00  0.00    -0.239 A  
HETATM   20  C   UNL     1     -10.395   8.547  68.097  1.00  0.00    -0.206 A  
HETATM   21  C   UNL     1     -10.173   6.026  67.838  1.00  0.00    -0.217 C  
HETATM   22  C   UNL     1     -10.556  11.078  68.384  1.00  0.00    -0.224 C  
HETATM   23  C   UNL     1     -10.154   9.854  67.615  1.00  0.00    -0.241 A  
BRANCH  20  24
HETATM   24  O   UNL     1     -10.923   8.248  69.331  1.00  0.00    -0.144 OA 
HETATM   25  C   UNL     1     -10.074   8.396  70.464  1.00  0.00    -0.190 C  
ENDBRANCH  20  24
ENDBRANCH  15  16
ENDBRANCH  13  15
ENDBRANCH  10  13
ENDBRANCH   2   3
TORSDOF 5
ENDMDL
MODEL      136
REMARK 921   NORMALIZED FREE ENERGY PREDICTED BY IDOCK:   -4.62 KCAL/MOL
REMARK 922        TOTAL FREE ENERGY PREDICTED BY IDOCK:   -6.62 KCAL/MOL
REMARK 923 INTER-LIGAND FREE ENERGY PREDICTED BY IDOCK:   -6.51 KCAL/MOL
REMARK 924 INTRA-LIGAND FREE ENERGY PREDICTED BY IDOCK:   -0.10 KCAL/MOL
REMARK 927      BINDING AFFINITY PREDICTED BY RF-SCORE:    0.00 PKD
ROOT
HETATM    1  C   UNL     1      -8.753   6.790  66.646  1.00  0.00    -0.127 C  
HETATM    2  O   UNL     1      -8.306   7.098  65.331  1.00  0.00    -0.136 OA 
ENDROOT
BRANCH   2   3
HETATM    3  C   UNL     1      -8.636   8.349  64.868  1.00  0.00    -0.080 A  
HETATM    4  C   UNL     1      -9.525   9.231  65.502  1.00  0.00    -0.309 A  
HETATM    5  C   UNL     1      -9.810  10.463  64.885  1.00  0.00    -0.334 A  
HETATM    6  C   UNL     1      -9.199  10.759  63.673  1.00  0.00    -0.248 A  
HETATM    7  C   UNL     1      -8.305   9.909  63.021  1.00  0.00    -0.163 A  
HETATM    8  N   UNL     1      -9.686  11.993  63.344  1.00  0.00    -0.597 NA 
HETATM    9  C   UNL     1      -8.049   8.684  63.643  1.00  0.00    -0.163 A  
HETATM   10  C   UNL     1     -10.546  12.403  64.329  1.00  0.00    -0.363 A  
HETATM   11  H   UNL     1      -9.448  12.522  62.505  1.00  0.00     0.000 HD 
HETATM   12  N   UNL     1     -10.650  11.494  65.281  1.00  0.00    -0.276 NA 
BRANCH  10  13
HETATM   13  S   UNL     1     -11.315  13.963  64.254  1.00  0.00    -0.223 S  
HETATM   14  O   UNL     1     -12.551  13.741  63.426  1.00  0.00    -0.842 OA 
BRANCH  13  15
HETATM   15  C   UNL     1     -11.736  14.252  65.992  1.00  0.00    -0.379 C  
BRANCH  15  16
HETATM   16  C   UNL     1     -10.583  14.909  66.738  1.00  0.00    -0.305 A  
HETATM   17  N   UNL     1     -10.044  14.144  67.723  1.00  0.00    -0.236 NA 
HETATM   18  C   UNL     1      -9.010  14.651  68.431  1.00  0.00    -0.180 A  
HETATM   19  C   UNL     1      -8.479  15.916  68.239  1.00  0.00    -0.170 A  
HETATM   20  C   UNL     1      -9.037  16.705  67.224  1.00  0.00    -0.215 A  
HETATM   21  C   UNL     1      -7.362  16.407  69.115  1.00  0.00    -0.225 C  
HETATM   22  C   UNL     1     -10.675  16.972  65.285  1.00  0.00    -0.108 C  
HETATM   23  C   UNL     1     -10.087  16.195  66.425  1.00  0.00    -0.321 A  
BRANCH  20  24
HETATM   24  O   UNL     1      -8.384  17.894  67.001  1.00  0.00    -0.223 OA 
HETATM   25  C   UNL     1      -9.015  19.087  67.453  1.00  0.00    -0.291 C  
ENDBRANCH  20  24
ENDBRANCH  15  16
ENDBRANCH  13  15
ENDBRANCH  10  13
ENDBRANCH   2   3
TORSDOF 5
ENDMDL
MODEL      137
REMARK 921   NORMALIZED FREE ENERGY PREDICTED BY IDOCK:   -4.62 KCAL/MOL
REMARK 922        TOTAL FREE ENERGY PREDICTED BY IDOCK:   -6.61 KCAL/MOL
REMARK 923 INTER-LIGAND FREE ENERGY PREDICTED BY IDOCK:   -6.03 KCAL/MOL
REMARK 924 INTRA-LIGAND FREE ENERGY PREDICTED BY IDOCK:   -0.57 KCAL/MOL
REMARK 927      BINDING AFFINITY PREDICTED BY RF-SCORE:    0.00 PKD
ROOT
HETATM    1  C   UNL     1     -11.914  14.934  69.463  1.00  0.00    -0.310 C  
HETATM    2  O   UNL     1     -11.892  15.237  68.073  1.00  0.00    -0.314 OA 
ENDROOT
BRANCH   2   3
HETATM    3  C   UNL     1     -11.610  14.182  67.238  1.00  0.00    -0.373 A  
HETATM    4  C   UNL     1     -10.487  13.349  67.350  1.00  0.00    -0.243 A  
HETATM    5  C   UNL     1     -10.297  12.337  66.390  1.00  0.00    -0.225 A  
HETATM    6  C   UNL     1     -11.231  12.203  65.370  1.00  0.00    -0.333 A  
HETATM    7  C   UNL     1     -12.362  13.009  65.235  1.00  0.00    -0.537 A  
HETATM    8  N   UNL     1     -10.760  11.163  64.618  1.00  0.00    -0.312 NA 
HETATM    9  C   UNL     1     -12.521  14.017  66.190  1.00  0.00    -0.467 A  
HETATM   10  C   UNL     1      -9.597  10.705  65.180  1.00  0.00    -0.251 A  
HETATM   11  H   UNL     1     -11.201  10.789  63.778  1.00  0.00     0.000 HD 
HETATM   12  N   UNL     1      -9.283  11.401  66.258  1.00  0.00    -0.202 NA 
BRANCH  10  13
HETATM   13  S   UNL     1      -8.748   9.345  64.501  1.00  0.00    -0.191 S  
HETATM   14  O   UNL     1      -7.882   9.936  63.423  1.00  0.00    -0.139 OA 
BRANCH  13  15
HETATM   15  C   UNL     1      -7.754   8.789  65.909  1.00  0.00    -0.094 C  
BRANCH  15  16
HETATM   16  C   UNL     1      -8.626   8.168  66.991  1.00  0.00    -0.123 A  
HETATM   17  N   UNL     1      -9.510   7.241  66.536  1.00  0.00    -0.178 NA 
HETATM   18  C   UNL     1     -10.318   6.636  67.433  1.00  0.00    -0.220 A  
HETATM   19  C   UNL     1     -10.328   6.917  68.789  1.00  0.00    -0.200 A  
HETATM   20  C   UNL     1      -9.416   7.874  69.258  1.00  0.00    -0.152 A  
HETATM   21  C   UNL     1     -11.303   6.225  69.698  1.00  0.00    -0.492 C  
HETATM   22  C   UNL     1      -7.480   9.478  68.821  1.00  0.00    -0.075 C  
HETATM   23  C   UNL     1      -8.517   8.496  68.362  1.00  0.00    -0.138 A  
BRANCH  20  24
HETATM   24  O   UNL     1      -9.389   8.014  70.625  1.00  0.00    -0.156 OA 
HETATM   25  C   UNL     1      -9.993   9.177  71.181  1.00  0.00    -0.307 C  
ENDBRANCH  20  24
ENDBRANCH  15  16
ENDBRANCH  13  15
ENDBRANCH  10  13
ENDBRANCH   2   3
TORSDOF 5
ENDMDL
MODEL      138
REMARK 921   NORMALIZED FREE ENERGY PREDICTED BY IDOCK:   -4.62 KCAL/MOL
REMARK 922        TOTAL FREE ENERGY PREDICTED BY IDOCK:   -6.60 KCAL/MOL
REMARK 923 INTER-LIGAND FREE ENERGY PREDICTED BY IDOCK:   -6.26 KCAL/MOL
REMARK 924 INTRA-LIGAND FREE ENERGY PREDICTED BY IDOCK:   -0.34 KCAL/MOL
REMARK 927      BINDING AFFINITY PREDICTED BY RF-SCORE:    0.00 PKD
ROOT
HETATM    1  C   UNL     1     -12.153  12.557  63.501  1.00  0.00    -0.562 C  
HETATM    2  O   UNL     1     -12.583  12.879  64.818  1.00  0.00    -0.570 OA 
ENDROOT
BRANCH   2   3
HETATM    3  C   UNL     1     -11.683  12.612  65.821  1.00  0.00    -0.419 A  
HETATM    4  C   UNL     1     -10.543  11.805  65.681  1.00  0.00    -0.314 A  
HETATM    5  C   UNL     1      -9.735  11.574  66.810  1.00  0.00    -0.199 A  
HETATM    6  C   UNL     1     -10.097  12.156  68.019  1.00  0.00    -0.204 A  
HETATM    7  C   UNL     1     -11.219  12.969  68.190  1.00  0.00    -0.305 A  
HETATM    8  N   UNL     1      -9.136  11.735  68.895  1.00  0.00    -0.397 NA 
HETATM    9  C   UNL     1     -12.015  13.171  67.059  1.00  0.00    -0.412 A  
HETATM   10  C   UNL     1      -8.244  10.941  68.222  1.00  0.00    -0.127 A  
HETATM   11  H   UNL     1      -9.090  11.973  69.886  1.00  0.00     0.000 HD 
HETATM   12  N   UNL     1      -8.581  10.817  66.952  1.00  0.00    -0.130 NA 
BRANCH  10  13
HETATM   13  S   UNL     1      -6.856  10.270  69.030  1.00  0.00    -0.063 S  
HETATM   14  O   UNL     1      -6.777  11.013  70.335  1.00  0.00    -0.263 OA 
BRANCH  13  15
HETATM   15  C   UNL     1      -7.371   8.552  69.284  1.00  0.00    -0.071 C  
BRANCH  15  16
HETATM   16  C   UNL     1      -8.727   8.477  69.971  1.00  0.00    -0.136 A  
HETATM   17  N   UNL     1      -9.788   8.659  69.140  1.00  0.00    -0.180 NA 
HETATM   18  C   UNL     1     -11.029   8.601  69.670  1.00  0.00    -0.091 A  
HETATM   19  C   UNL     1     -11.296   8.396  71.013  1.00  0.00    -0.303 A  
HETATM   20  C   UNL     1     -10.202   8.208  71.869  1.00  0.00    -0.224 A  
HETATM   21  C   UNL     1     -12.713   8.400  71.511  1.00  0.00    -0.330 C  
HETATM   22  C   UNL     1      -7.686   7.952  72.211  1.00  0.00    -0.125 C  
HETATM   23  C   UNL     1      -8.886   8.211  71.350  1.00  0.00    -0.185 A  
BRANCH  20  24
HETATM   24  O   UNL     1     -10.538   7.884  73.162  1.00  0.00    -0.359 OA 
HETATM   25  C   UNL     1     -10.544   6.504  73.514  1.00  0.00    -0.290 C  
ENDBRANCH  20  24
ENDBRANCH  15  16
ENDBRANCH  13  15
ENDBRANCH  10  13
ENDBRANCH   2   3
TORSDOF 5
ENDMDL
MODEL      139
REMARK 921   NORMALIZED FREE ENERGY PREDICTED BY IDOCK:   -4.59 KCAL/MOL
REMARK 922        TOTAL FREE ENERGY PREDICTED BY IDOCK:   -6.57 KCAL/MOL
REMARK 923 INTER-LIGAND FREE ENERGY PREDICTED BY IDOCK:   -5.94 KCAL/MOL
REMARK 924 INTRA-LIGAND FREE ENERGY PREDICTED BY IDOCK:   -0.64 KCAL/MOL
REMARK 927      BINDING AFFINITY PREDICTED BY RF-SCORE:    0.00 PKD
ROOT
HETATM    1  C   UNL     1      -9.844  11.222  63.229  1.00  0.00    -0.389 C  
HETATM    2  O   UNL     1     -11.082  11.488  63.878  1.00  0.00    -0.372 OA 
ENDROOT
BRANCH   2   3
HETATM    3  C   UNL     1     -11.130  12.644  64.618  1.00  0.00    -0.313 A  
HETATM    4  C   UNL     1     -10.218  13.706  64.509  1.00  0.00    -0.253 A  
HETATM    5  C   UNL     1     -10.358  14.810  65.370  1.00  0.00    -0.386 A  
HETATM    6  C   UNL     1     -11.395  14.806  66.295  1.00  0.00    -0.334 A  
HETATM    7  C   UNL     1     -12.323  13.771  66.424  1.00  0.00    -0.460 A  
HETATM    8  N   UNL     1     -11.248  15.986  66.969  1.00  0.00    -0.063 NA 
HETATM    9  C   UNL     1     -12.155  12.678  65.569  1.00  0.00    -0.515 A  
HETATM   10  C   UNL     1     -10.168  16.654  66.455  1.00  0.00    -0.315 A  
HETATM   11  H   UNL     1     -11.844  16.315  67.729  1.00  0.00     0.000 HD 
HETATM   12  N   UNL     1      -9.599  15.965  65.483  1.00  0.00    -0.402 NA 
BRANCH  10  13
HETATM   13  S   UNL     1      -9.720  18.226  67.053  1.00  0.00    -0.318 S  
HETATM   14  O   UNL     1     -11.027  18.924  67.310  1.00  0.00    -0.436 OA 
BRANCH  13  15
HETATM   15  C   UNL     1      -8.885  17.807  68.605  1.00  0.00    -0.261 C  
BRANCH  15  16
HETATM   16  C   UNL     1      -7.985  16.591  68.438  1.00  0.00    -0.194 A  
HETATM   17  N   UNL     1      -6.829  16.835  67.766  1.00  0.00    -0.134 NA 
HETATM   18  C   UNL     1      -5.971  15.809  67.580  1.00  0.00    -0.147 A  
HETATM   19  C   UNL     1      -6.202  14.511  68.005  1.00  0.00    -0.162 A  
HETATM   20  C   UNL     1      -7.394  14.260  68.697  1.00  0.00    -0.125 A  
HETATM   21  C   UNL     1      -5.205  13.429  67.703  1.00  0.00    -0.004 C  
HETATM   22  C   UNL     1      -9.558  15.112  69.749  1.00  0.00    -0.066 C  
HETATM   23  C   UNL     1      -8.300  15.314  68.958  1.00  0.00    -0.215 A  
BRANCH  20  24
HETATM   24  O   UNL     1      -7.504  12.985  69.201  1.00  0.00     0.031 OA 
HETATM   25  C   UNL     1      -8.313  12.060  68.482  1.00  0.00    -0.104 C  
ENDBRANCH  20  24
ENDBRANCH  15  16
ENDBRANCH  13  15
ENDBRANCH  10  13
ENDBRANCH   2   3
TORSDOF 5
ENDMDL
MODEL      140
REMARK 921   NORMALIZED FREE ENERGY PREDICTED BY IDOCK:   -4.59 KCAL/MOL
REMARK 922        TOTAL FREE ENERGY PREDICTED BY IDOCK:   -6.57 KCAL/MOL
REMARK 923 INTER-LIGAND FREE ENERGY PREDICTED BY IDOCK:   -6.35 KCAL/MOL
REMARK 924 INTRA-LIGAND FREE ENERGY PREDICTED BY IDOCK:   -0.22 KCAL/MOL
REMARK 927      BINDING AFFINITY PREDICTED BY RF-SCORE:    0.00 PKD
ROOT
HETATM    1  C   UNL     1      -8.435   8.814  62.396  1.00  0.00    -0.204 C  
HETATM    2  O   UNL     1      -9.372   9.850  62.665  1.00  0.00    -0.287 OA 
ENDROOT
BRANCH   2   3
HETATM    3  C   UNL     1      -9.413  10.294  63.965  1.00  0.00    -0.300 A  
HETATM    4  C   UNL     1     -10.572  10.723  64.630  1.00  0.00    -0.269 A  
HETATM    5  C   UNL     1     -10.457  11.203  65.948  1.00  0.00    -0.253 A  
HETATM    6  C   UNL     1      -9.199  11.232  66.539  1.00  0.00    -0.188 A  
HETATM    7  C   UNL     1      -8.030  10.805  65.909  1.00  0.00    -0.140 A  
HETATM    8  N   UNL     1      -9.426  11.750  67.784  1.00  0.00    -0.176 NA 
HETATM    9  C   UNL     1      -8.166  10.348  64.595  1.00  0.00    -0.137 A  
HETATM   10  C   UNL     1     -10.765  12.011  67.915  1.00  0.00    -0.210 A  
HETATM   11  H   UNL     1      -8.716  11.916  68.497  1.00  0.00     0.000 HD 
HETATM   12  N   UNL     1     -11.422  11.694  66.814  1.00  0.00    -0.481 NA 
BRANCH  10  13
HETATM   13  S   UNL     1     -11.414  12.638  69.403  1.00  0.00    -0.236 S  
HETATM   14  O   UNL     1     -12.265  13.806  68.987  1.00  0.00    -0.343 OA 
BRANCH  13  15
HETATM   15  C   UNL     1     -12.434  11.254  69.974  1.00  0.00    -0.182 C  
BRANCH  15  16
HETATM   16  C   UNL     1     -11.580  10.151  70.581  1.00  0.00    -0.343 A  
HETATM   17  N   UNL     1     -10.281  10.162  70.181  1.00  0.00    -0.234 NA 
HETATM   18  C   UNL     1      -9.452   9.219  70.679  1.00  0.00    -0.272 A  
HETATM   19  C   UNL     1      -9.844   8.218  71.553  1.00  0.00    -0.250 A  
HETATM   20  C   UNL     1     -11.184   8.207  71.965  1.00  0.00    -0.310 A  
HETATM   21  C   UNL     1      -8.855   7.184  72.010  1.00  0.00    -0.135 C  
HETATM   22  C   UNL     1     -13.501   9.277  71.968  1.00  0.00    -0.519 C  
HETATM   23  C   UNL     1     -12.075   9.205  71.508  1.00  0.00    -0.422 A  
BRANCH  20  24
HETATM   24  O   UNL     1     -11.477   7.270  72.928  1.00  0.00    -0.270 OA 
HETATM   25  C   UNL     1     -11.905   5.986  72.488  1.00  0.00    -0.186 C  
ENDBRANCH  20  24
ENDBRANCH  15  16
ENDBRANCH  13  15
ENDBRANCH  10  13
ENDBRANCH   2   3
TORSDOF 5
ENDMDL
MODEL      141
REMARK 921   NORMALIZED FREE ENERGY PREDICTED BY IDOCK:   -4.56 KCAL/MOL
REMARK 922        TOTAL FREE ENERGY PREDICTED BY IDOCK:   -6.53 KCAL/MOL
REMARK 923 INTER-LIGAND FREE ENERGY PREDICTED BY IDOCK:   -6.19 KCAL/MOL
REMARK 924 INTRA-LIGAND FREE ENERGY PREDICTED BY IDOCK:   -0.34 KCAL/MOL
REMARK 927      BINDING AFFINITY PREDICTED BY RF-SCORE:    0.00 PKD
ROOT
HETATM    1  C   UNL     1     -12.166  15.893  64.099  1.00  0.00     0.280 C  
HETATM    2  O   UNL     1     -11.019  16.496  64.685  1.00  0.00    -0.732 OA 
ENDROOT
BRANCH   2   3
HETATM    3  C   UNL     1     -10.227  15.664  65.438  1.00  0.00    -0.370 A  
HETATM    4  C   UNL     1     -10.283  14.262  65.410  1.00  0.00    -0.395 A  
HETATM    5  C   UNL     1      -9.446  13.534  66.277  1.00  0.00    -0.184 A  
HETATM    6  C   UNL     1      -8.596  14.233  67.125  1.00  0.00    -0.216 A  
HETATM    7  C   UNL     1      -8.510  15.625  67.172  1.00  0.00    -0.234 A  
HETATM    8  N   UNL     1      -7.945  13.257  67.826  1.00  0.00    -0.151 NA 
HETATM    9  C   UNL     1      -9.363  16.327  66.315  1.00  0.00    -0.360 A  
HETATM   10  C   UNL     1      -8.395  12.034  67.400  1.00  0.00    -0.171 A  
HETATM   11  H   UNL     1      -7.240  13.412  68.547  1.00  0.00     0.000 HD 
HETATM   12  N   UNL     1      -9.313  12.166  66.461  1.00  0.00    -0.225 NA 
BRANCH  10  13
HETATM   13  S   UNL     1      -7.738  10.560  68.053  1.00  0.00    -0.094 S  
HETATM   14  O   UNL     1      -7.445  10.878  69.494  1.00  0.00    -0.137 OA 
BRANCH  13  15
HETATM   15  C   UNL     1      -9.146   9.430  67.905  1.00  0.00    -0.129 C  
BRANCH  15  16
HETATM   16  C   UNL     1     -10.144   9.638  69.036  1.00  0.00    -0.186 A  
HETATM   17  N   UNL     1     -11.103  10.565  68.774  1.00  0.00    -0.249 NA 
HETATM   18  C   UNL     1     -12.033  10.805  69.723  1.00  0.00    -0.325 A  
HETATM   19  C   UNL     1     -12.060  10.190  70.964  1.00  0.00    -0.476 A  
HETATM   20  C   UNL     1     -11.069   9.235  71.233  1.00  0.00    -0.357 A  
HETATM   21  C   UNL     1     -13.108  10.565  71.972  1.00  0.00    -0.511 C  
HETATM   22  C   UNL     1      -9.065   7.856  70.462  1.00  0.00    -0.154 C  
HETATM   23  C   UNL     1     -10.105   8.915  70.249  1.00  0.00    -0.218 A  
BRANCH  20  24
HETATM   24  O   UNL     1     -11.226   8.571  72.427  1.00  0.00    -0.359 OA 
HETATM   25  C   UNL     1     -11.747   7.247  72.381  1.00  0.00    -0.239 C  
ENDBRANCH  20  24
ENDBRANCH  15  16
ENDBRANCH  13  15
ENDBRANCH  10  13
ENDBRANCH   2   3
TORSDOF 5
ENDMDL
MODEL      142
REMARK 921   NORMALIZED FREE ENERGY PREDICTED BY IDOCK:   -4.56 KCAL/MOL
REMARK 922        TOTAL FREE ENERGY PREDICTED BY IDOCK:   -6.53 KCAL/MOL
REMARK 923 INTER-LIGAND FREE ENERGY PREDICTED BY IDOCK:   -6.42 KCAL/MOL
REMARK 924 INTRA-LIGAND FREE ENERGY PREDICTED BY IDOCK:   -0.11 KCAL/MOL
REMARK 927      BINDING AFFINITY PREDICTED BY RF-SCORE:    0.00 PKD
ROOT
HETATM    1  C   UNL     1     -12.156  15.019  64.453  1.00  0.00    -0.359 C  
HETATM    2  O   UNL     1     -12.487  13.793  63.813  1.00  0.00    -0.713 OA 
ENDROOT
BRANCH   2   3
HETATM    3  C   UNL     1     -11.665  12.730  64.100  1.00  0.00    -0.401 A  
HETATM    4  C   UNL     1     -11.652  12.033  65.319  1.00  0.00    -0.337 A  
HETATM    5  C   UNL     1     -10.717  10.995  65.494  1.00  0.00    -0.148 A  
HETATM    6  C   UNL     1      -9.845  10.701  64.453  1.00  0.00    -0.334 A  
HETATM    7  C   UNL     1      -9.838  11.368  63.228  1.00  0.00    -0.428 A  
HETATM    8  N   UNL     1      -9.079   9.678  64.937  1.00  0.00    -0.220 NA 
HETATM    9  C   UNL     1     -10.763  12.406  63.082  1.00  0.00    -0.059 A  
HETATM   10  C   UNL     1      -9.490   9.384  66.211  1.00  0.00    -0.214 A  
HETATM   11  H   UNL     1      -8.325   9.210  64.433  1.00  0.00     0.000 HD 
HETATM   12  N   UNL     1     -10.483  10.170  66.584  1.00  0.00    -0.212 NA 
BRANCH  10  13
HETATM   13  S   UNL     1      -8.755   8.089  67.114  1.00  0.00    -0.133 S  
HETATM   14  O   UNL     1      -7.528   7.722  66.325  1.00  0.00    -0.077 OA 
BRANCH  13  15
HETATM   15  C   UNL     1      -8.315   8.921  68.661  1.00  0.00    -0.124 C  
BRANCH  15  16
HETATM   16  C   UNL     1      -9.464   8.878  69.659  1.00  0.00    -0.168 A  
HETATM   17  N   UNL     1     -10.272   9.971  69.631  1.00  0.00    -0.225 NA 
HETATM   18  C   UNL     1     -11.321  10.009  70.481  1.00  0.00    -0.335 A  
HETATM   19  C   UNL     1     -11.615   9.019  71.404  1.00  0.00    -0.396 A  
HETATM   20  C   UNL     1     -10.780   7.893  71.432  1.00  0.00    -0.224 A  
HETATM   21  C   UNL     1     -12.776   9.181  72.342  1.00  0.00    -0.410 C  
HETATM   22  C   UNL     1      -8.817   6.576  70.471  1.00  0.00    -0.151 C  
HETATM   23  C   UNL     1      -9.700   7.787  70.526  1.00  0.00    -0.175 A  
BRANCH  20  24
HETATM   24  O   UNL     1     -11.199   6.894  72.279  1.00  0.00    -0.247 OA 
HETATM   25  C   UNL     1     -10.512   6.749  73.517  1.00  0.00    -0.330 C  
ENDBRANCH  20  24
ENDBRANCH  15  16
ENDBRANCH  13  15
ENDBRANCH  10  13
ENDBRANCH   2   3
TORSDOF 5
ENDMDL
MODEL      143
REMARK 921   NORMALIZED FREE ENERGY PREDICTED BY IDOCK:   -4.56 KCAL/MOL
REMARK 922        TOTAL FREE ENERGY PREDICTED BY IDOCK:   -6.53 KCAL/MOL
REMARK 923 INTER-LIGAND FREE ENERGY PREDICTED BY IDOCK:   -6.04 KCAL/MOL
REMARK 924 INTRA-LIGAND FREE ENERGY PREDICTED BY IDOCK:   -0.49 KCAL/MOL
REMARK 927      BINDING AFFINITY PREDICTED BY RF-SCORE:    0.00 PKD
ROOT
HETATM    1  C   UNL     1      -9.236  19.542  66.528  1.00  0.00    -0.365 C  
HETATM    2  O   UNL     1     -10.267  18.620  66.194  1.00  0.00    -0.404 OA 
ENDROOT
BRANCH   2   3
HETATM    3  C   UNL     1     -10.322  17.483  66.963  1.00  0.00    -0.324 A  
HETATM    4  C   UNL     1     -10.627  16.201  66.478  1.00  0.00    -0.268 A  
HETATM    5  C   UNL     1     -10.699  15.133  67.391  1.00  0.00    -0.286 A  
HETATM    6  C   UNL     1     -10.464  15.389  68.737  1.00  0.00    -0.231 A  
HETATM    7  C   UNL     1     -10.151  16.648  69.249  1.00  0.00    -0.257 A  
HETATM    8  N   UNL     1     -10.620  14.173  69.341  1.00  0.00    -0.431 NA 
HETATM    9  C   UNL     1     -10.100  17.697  68.327  1.00  0.00    -0.362 A  
HETATM   10  C   UNL     1     -10.930  13.242  68.385  1.00  0.00    -0.264 A  
HETATM   11  H   UNL     1     -10.521  13.988  70.340  1.00  0.00     0.000 HD 
HETATM   12  N   UNL     1     -10.992  13.793  67.186  1.00  0.00    -0.286 NA 
BRANCH  10  13
HETATM   13  S   UNL     1     -11.151  11.566  68.803  1.00  0.00    -0.256 S  
HETATM   14  O   UNL     1     -11.966  10.995  67.675  1.00  0.00    -0.583 OA 
BRANCH  13  15
HETATM   15  C   UNL     1      -9.449  10.948  68.760  1.00  0.00    -0.190 C  
BRANCH  15  16
HETATM   16  C   UNL     1      -9.152  10.237  67.448  1.00  0.00    -0.138 A  
HETATM   17  N   UNL     1      -8.728  11.056  66.449  1.00  0.00    -0.167 NA 
HETATM   18  C   UNL     1      -8.436  10.503  65.252  1.00  0.00    -0.171 A  
HETATM   19  C   UNL     1      -8.566   9.155  64.961  1.00  0.00    -0.204 A  
HETATM   20  C   UNL     1      -9.003   8.311  65.992  1.00  0.00    -0.181 A  
HETATM   21  C   UNL     1      -8.264   8.647  63.581  1.00  0.00    -0.148 C  
HETATM   22  C   UNL     1      -9.681   7.971  68.429  1.00  0.00    -0.168 C  
HETATM   23  C   UNL     1      -9.273   8.839  67.276  1.00  0.00    -0.165 A  
BRANCH  20  24
HETATM   24  O   UNL     1      -8.989   6.973  65.678  1.00  0.00    -0.076 OA 
HETATM   25  C   UNL     1      -7.839   6.221  66.052  1.00  0.00    -0.106 C  
ENDBRANCH  20  24
ENDBRANCH  15  16
ENDBRANCH  13  15
ENDBRANCH  10  13
ENDBRANCH   2   3
TORSDOF 5
ENDMDL
MODEL      144
REMARK 921   NORMALIZED FREE ENERGY PREDICTED BY IDOCK:   -4.55 KCAL/MOL
REMARK 922        TOTAL FREE ENERGY PREDICTED BY IDOCK:   -6.52 KCAL/MOL
REMARK 923 INTER-LIGAND FREE ENERGY PREDICTED BY IDOCK:   -6.12 KCAL/MOL
REMARK 924 INTRA-LIGAND FREE ENERGY PREDICTED BY IDOCK:   -0.40 KCAL/MOL
REMARK 927      BINDING AFFINITY PREDICTED BY RF-SCORE:    0.00 PKD
ROOT
HETATM    1  C   UNL     1     -13.973  13.697  72.446  1.00  0.00    -0.548 C  
HETATM    2  O   UNL     1     -12.686  14.264  72.234  1.00  0.00    -0.329 OA 
ENDROOT
BRANCH   2   3
HETATM    3  C   UNL     1     -12.234  14.248  70.936  1.00  0.00    -0.355 A  
HETATM    4  C   UNL     1     -12.595  13.293  69.973  1.00  0.00    -0.055 A  
HETATM    5  C   UNL     1     -12.012  13.369  68.694  1.00  0.00    -0.327 A  
HETATM    6  C   UNL     1     -11.104  14.388  68.435  1.00  0.00    -0.255 A  
HETATM    7  C   UNL     1     -10.730  15.357  69.367  1.00  0.00    -0.258 A  
HETATM    8  N   UNL     1     -10.724  14.177  67.139  1.00  0.00    -0.279 NA 
HETATM    9  C   UNL     1     -11.309  15.253  70.635  1.00  0.00    -0.345 A  
HETATM   10  C   UNL     1     -11.388  13.078  66.659  1.00  0.00    -0.325 A  
HETATM   11  H   UNL     1     -10.056  14.743  66.616  1.00  0.00     0.000 HD 
HETATM   12  N   UNL     1     -12.177  12.558  67.581  1.00  0.00    -0.333 NA 
BRANCH  10  13
HETATM   13  S   UNL     1     -11.175  12.551  65.014  1.00  0.00    -0.318 S  
HETATM   14  O   UNL     1     -10.276  13.585  64.395  1.00  0.00    -0.399 OA 
BRANCH  13  15
HETATM   15  C   UNL     1     -10.305  10.978  65.240  1.00  0.00    -0.275 C  
BRANCH  15  16
HETATM   16  C   UNL     1      -9.400  11.017  66.463  1.00  0.00    -0.180 A  
HETATM   17  N   UNL     1      -8.515  12.048  66.474  1.00  0.00    -0.121 NA 
HETATM   18  C   UNL     1      -7.679  12.159  67.530  1.00  0.00    -0.159 A  
HETATM   19  C   UNL     1      -7.642  11.273  68.593  1.00  0.00    -0.129 A  
HETATM   20  C   UNL     1      -8.555  10.209  68.581  1.00  0.00    -0.123 A  
HETATM   21  C   UNL     1      -6.638  11.456  69.695  1.00  0.00    -0.128 C  
HETATM   22  C   UNL     1     -10.522   9.001  67.491  1.00  0.00    -0.338 C  
HETATM   23  C   UNL     1      -9.483  10.082  67.521  1.00  0.00    -0.169 A  
BRANCH  20  24
HETATM   24  O   UNL     1      -8.554   9.443  69.722  1.00  0.00    -0.143 OA 
HETATM   25  C   UNL     1      -9.656   9.583  70.611  1.00  0.00    -0.227 C  
ENDBRANCH  20  24
ENDBRANCH  15  16
ENDBRANCH  13  15
ENDBRANCH  10  13
ENDBRANCH   2   3
TORSDOF 5
ENDMDL
MODEL      145
REMARK 921   NORMALIZED FREE ENERGY PREDICTED BY IDOCK:   -4.52 KCAL/MOL
REMARK 922        TOTAL FREE ENERGY PREDICTED BY IDOCK:   -6.49 KCAL/MOL
REMARK 923 INTER-LIGAND FREE ENERGY PREDICTED BY IDOCK:   -6.12 KCAL/MOL
REMARK 924 INTRA-LIGAND FREE ENERGY PREDICTED BY IDOCK:   -0.36 KCAL/MOL
REMARK 927      BINDING AFFINITY PREDICTED BY RF-SCORE:    0.00 PKD
ROOT
HETATM    1  C   UNL     1      -6.914  20.247  68.555  1.00  0.00    -0.210 C  
HETATM    2  O   UNL     1      -7.587  19.956  67.336  1.00  0.00    -0.254 OA 
ENDROOT
BRANCH   2   3
HETATM    3  C   UNL     1      -8.454  18.891  67.373  1.00  0.00    -0.276 A  
HETATM    4  C   UNL     1      -8.545  17.895  66.388  1.00  0.00    -0.254 A  
HETATM    5  C   UNL     1      -9.519  16.889  66.531  1.00  0.00    -0.276 A  
HETATM    6  C   UNL     1     -10.351  16.921  67.643  1.00  0.00    -0.317 A  
HETATM    7  C   UNL     1     -10.283  17.891  68.643  1.00  0.00    -0.387 A  
HETATM    8  N   UNL     1     -11.171  15.840  67.478  1.00  0.00    -0.271 NA 
HETATM    9  C   UNL     1      -9.319  18.890  68.472  1.00  0.00    -0.412 A  
HETATM   10  C   UNL     1     -10.828  15.200  66.316  1.00  0.00    -0.333 A  
HETATM   11  H   UNL     1     -11.916  15.556  68.115  1.00  0.00     0.000 HD 
HETATM   12  N   UNL     1      -9.828  15.815  65.711  1.00  0.00    -0.339 NA 
BRANCH  10  13
HETATM   13  S   UNL     1     -11.644  13.744  65.820  1.00  0.00    -0.344 S  
HETATM   14  O   UNL     1     -12.695  14.207  64.850  1.00  0.00    -0.645 OA 
BRANCH  13  15
HETATM   15  C   UNL     1     -10.318  12.848  64.972  1.00  0.00    -0.315 C  
BRANCH  15  16
HETATM   16  C   UNL     1      -9.832  11.666  65.799  1.00  0.00    -0.239 A  
HETATM   17  N   UNL     1     -10.423  10.482  65.487  1.00  0.00    -0.201 NA 
HETATM   18  C   UNL     1     -10.043   9.380  66.170  1.00  0.00    -0.254 A  
HETATM   19  C   UNL     1      -9.108   9.379  67.192  1.00  0.00    -0.148 A  
HETATM   20  C   UNL     1      -8.499  10.600  67.513  1.00  0.00    -0.121 A  
HETATM   21  C   UNL     1      -8.792   8.108  67.925  1.00  0.00    -0.131 C  
HETATM   22  C   UNL     1      -8.162  13.088  67.051  1.00  0.00    -0.071 C  
HETATM   23  C   UNL     1      -8.830  11.770  66.790  1.00  0.00    -0.191 A  
BRANCH  20  24
HETATM   24  O   UNL     1      -7.493  10.509  68.444  1.00  0.00    -0.086 OA 
HETATM   25  C   UNL     1      -6.153  10.471  67.965  1.00  0.00    -0.047 C  
ENDBRANCH  20  24
ENDBRANCH  15  16
ENDBRANCH  13  15
ENDBRANCH  10  13
ENDBRANCH   2   3
TORSDOF 5
ENDMDL
MODEL      146
REMARK 921   NORMALIZED FREE ENERGY PREDICTED BY IDOCK:   -4.50 KCAL/MOL
REMARK 922        TOTAL FREE ENERGY PREDICTED BY IDOCK:   -6.46 KCAL/MOL
REMARK 923 INTER-LIGAND FREE ENERGY PREDICTED BY IDOCK:   -5.87 KCAL/MOL
REMARK 924 INTRA-LIGAND FREE ENERGY PREDICTED BY IDOCK:   -0.58 KCAL/MOL
REMARK 927      BINDING AFFINITY PREDICTED BY RF-SCORE:    0.00 PKD
ROOT
HETATM    1  C   UNL     1     -12.832  12.048  71.254  1.00  0.00    -0.265 C  
HETATM    2  O   UNL     1     -13.384  11.008  72.053  1.00  0.00    -0.455 OA 
ENDROOT
BRANCH   2   3
HETATM    3  C   UNL     1     -12.888   9.749  71.817  1.00  0.00    -0.434 A  
HETATM    4  C   UNL     1     -11.528   9.437  71.665  1.00  0.00    -0.463 A  
HETATM    5  C   UNL     1     -11.167   8.108  71.373  1.00  0.00    -0.254 A  
HETATM    6  C   UNL     1     -12.172   7.157  71.249  1.00  0.00    -0.365 A  
HETATM    7  C   UNL     1     -13.532   7.431  71.402  1.00  0.00    -0.405 A  
HETATM    8  N   UNL     1     -11.504   6.000  70.959  1.00  0.00    -0.239 NA 
HETATM    9  C   UNL     1     -13.868   8.761  71.675  1.00  0.00    -0.443 A  
HETATM   10  C   UNL     1     -10.161   6.265  70.919  1.00  0.00    -0.189 A  
HETATM   11  H   UNL     1     -11.935   5.089  70.799  1.00  0.00     0.000 HD 
HETATM   12  N   UNL     1      -9.920   7.540  71.161  1.00  0.00    -0.181 NA 
BRANCH  10  13
HETATM   13  S   UNL     1      -9.005   4.998  70.620  1.00  0.00    -0.134 S  
HETATM   14  O   UNL     1      -9.479   3.844  71.460  1.00  0.00    -0.133 OA 
BRANCH  13  15
HETATM   15  C   UNL     1      -9.260   4.673  68.857  1.00  0.00    -0.129 C  
BRANCH  15  16
HETATM   16  C   UNL     1      -9.289   5.966  68.055  1.00  0.00    -0.111 A  
HETATM   17  N   UNL     1     -10.538   6.438  67.798  1.00  0.00    -0.231 NA 
HETATM   18  C   UNL     1     -10.653   7.587  67.096  1.00  0.00    -0.345 A  
HETATM   19  C   UNL     1      -9.581   8.305  66.593  1.00  0.00    -0.299 A  
HETATM   20  C   UNL     1      -8.294   7.817  66.858  1.00  0.00    -0.124 A  
HETATM   21  C   UNL     1      -9.817   9.545  65.779  1.00  0.00    -0.363 C  
HETATM   22  C   UNL     1      -6.769   6.116  67.997  1.00  0.00    -0.064 C  
HETATM   23  C   UNL     1      -8.124   6.645  67.631  1.00  0.00    -0.119 A  
BRANCH  20  24
HETATM   24  O   UNL     1      -7.274   8.640  66.442  1.00  0.00    -0.078 OA 
HETATM   25  C   UNL     1      -6.553   8.258  65.276  1.00  0.00    -0.052 C  
ENDBRANCH  20  24
ENDBRANCH  15  16
ENDBRANCH  13  15
ENDBRANCH  10  13
ENDBRANCH   2   3
TORSDOF 5
ENDMDL
MODEL      147
REMARK 921   NORMALIZED FREE ENERGY PREDICTED BY IDOCK:   -4.49 KCAL/MOL
REMARK 922        TOTAL FREE ENERGY PREDICTED BY IDOCK:   -6.45 KCAL/MOL
REMARK 923 INTER-LIGAND FREE ENERGY PREDICTED BY IDOCK:   -5.88 KCAL/MOL
REMARK 924 INTRA-LIGAND FREE ENERGY PREDICTED BY IDOCK:   -0.56 KCAL/MOL
REMARK 927      BINDING AFFINITY PREDICTED BY RF-SCORE:    0.00 PKD
ROOT
HETATM    1  C   UNL     1     -13.525  12.661  72.124  1.00  0.00    -0.460 C  
HETATM    2  O   UNL     1     -12.780  12.039  71.084  1.00  0.00    -0.364 OA 
ENDROOT
BRANCH   2   3
HETATM    3  C   UNL     1     -12.475  10.714  71.281  1.00  0.00    -0.410 A  
HETATM    4  C   UNL     1     -11.288  10.093  70.860  1.00  0.00    -0.420 A  
HETATM    5  C   UNL     1     -11.131   8.713  71.083  1.00  0.00    -0.266 A  
HETATM    6  C   UNL     1     -12.157   8.018  71.712  1.00  0.00    -0.305 A  
HETATM    7  C   UNL     1     -13.345   8.606  72.149  1.00  0.00    -0.431 A  
HETATM    8  N   UNL     1     -11.707   6.729  71.763  1.00  0.00    -0.296 NA 
HETATM    9  C   UNL     1     -13.486   9.975  71.902  1.00  0.00    -0.449 A  
HETATM   10  C   UNL     1     -10.464   6.673  71.189  1.00  0.00    -0.217 A  
HETATM   11  H   UNL     1     -12.213   5.938  72.163  1.00  0.00     0.000 HD 
HETATM   12  N   UNL     1     -10.084   7.863  70.759  1.00  0.00    -0.192 NA 
BRANCH  10  13
HETATM   13  S   UNL     1      -9.571   5.180  71.129  1.00  0.00    -0.175 S  
HETATM   14  O   UNL     1     -10.347   4.236  72.005  1.00  0.00    -0.174 OA 
BRANCH  13  15
HETATM   15  C   UNL     1      -9.724   4.728  69.382  1.00  0.00    -0.196 C  
BRANCH  15  16
HETATM   16  C   UNL     1      -8.961   5.699  68.490  1.00  0.00    -0.115 A  
HETATM   17  N   UNL     1      -7.615   5.693  68.678  1.00  0.00    -0.087 NA 
HETATM   18  C   UNL     1      -6.863   6.521  67.921  1.00  0.00    -0.074 A  
HETATM   19  C   UNL     1      -7.374   7.401  66.982  1.00  0.00    -0.097 A  
HETATM   20  C   UNL     1      -8.763   7.407  66.790  1.00  0.00    -0.133 A  
HETATM   21  C   UNL     1      -6.456   8.318  66.227  1.00  0.00    -0.047 C  
HETATM   22  C   UNL     1     -11.067   6.442  67.311  1.00  0.00    -0.416 C  
HETATM   23  C   UNL     1      -9.585   6.521  67.524  1.00  0.00    -0.137 A  
BRANCH  20  24
HETATM   24  O   UNL     1      -9.193   8.207  65.758  1.00  0.00    -0.139 OA 
HETATM   25  C   UNL     1      -9.817   9.440  66.098  1.00  0.00    -0.285 C  
ENDBRANCH  20  24
ENDBRANCH  15  16
ENDBRANCH  13  15
ENDBRANCH  10  13
ENDBRANCH   2   3
TORSDOF 5
ENDMDL
MODEL      148
REMARK 921   NORMALIZED FREE ENERGY PREDICTED BY IDOCK:   -4.49 KCAL/MOL
REMARK 922        TOTAL FREE ENERGY PREDICTED BY IDOCK:   -6.44 KCAL/MOL
REMARK 923 INTER-LIGAND FREE ENERGY PREDICTED BY IDOCK:   -5.89 KCAL/MOL
REMARK 924 INTRA-LIGAND FREE ENERGY PREDICTED BY IDOCK:   -0.55 KCAL/MOL
REMARK 927      BINDING AFFINITY PREDICTED BY RF-SCORE:    0.00 PKD
ROOT
HETATM    1  C   UNL     1      -7.602   8.342  71.701  1.00  0.00    -0.104 C  
HETATM    2  O   UNL     1      -6.680   9.357  71.322  1.00  0.00    -0.212 OA 
ENDROOT
BRANCH   2   3
HETATM    3  C   UNL     1      -7.090  10.185  70.305  1.00  0.00    -0.138 A  
HETATM    4  C   UNL     1      -8.257  10.006  69.546  1.00  0.00    -0.173 A  
HETATM    5  C   UNL     1      -8.526  10.905  68.497  1.00  0.00    -0.147 A  
HETATM    6  C   UNL     1      -7.625  11.935  68.255  1.00  0.00    -0.116 A  
HETATM    7  C   UNL     1      -6.461  12.146  68.995  1.00  0.00    -0.092 A  
HETATM    8  N   UNL     1      -8.160  12.604  67.189  1.00  0.00    -0.286 NA 
HETATM    9  C   UNL     1      -6.206  11.231  70.021  1.00  0.00    -0.149 A  
HETATM   10  C   UNL     1      -9.329  11.989  66.825  1.00  0.00    -0.205 A  
HETATM   11  H   UNL     1      -7.755  13.425  66.739  1.00  0.00     0.000 HD 
HETATM   12  N   UNL     1      -9.580  10.948  67.597  1.00  0.00    -0.162 NA 
BRANCH  10  13
HETATM   13  S   UNL     1     -10.302  12.613  65.523  1.00  0.00    -0.288 S  
HETATM   14  O   UNL     1     -10.992  11.406  64.950  1.00  0.00    -0.283 OA 
BRANCH  13  15
HETATM   15  C   UNL     1     -11.470  13.675  66.411  1.00  0.00    -0.338 C  
BRANCH  15  16
HETATM   16  C   UNL     1     -10.802  14.958  66.884  1.00  0.00    -0.319 A  
HETATM   17  N   UNL     1     -10.323  14.906  68.155  1.00  0.00    -0.234 NA 
HETATM   18  C   UNL     1      -9.709  16.002  68.650  1.00  0.00    -0.217 A  
HETATM   19  C   UNL     1      -9.558  17.193  67.958  1.00  0.00    -0.267 A  
HETATM   20  C   UNL     1     -10.053  17.246  66.648  1.00  0.00    -0.302 A  
HETATM   21  C   UNL     1      -8.904  18.373  68.618  1.00  0.00    -0.306 C  
HETATM   22  C   UNL     1     -11.146  16.089  64.653  1.00  0.00    -0.346 C  
HETATM   23  C   UNL     1     -10.659  16.106  66.071  1.00  0.00    -0.303 A  
BRANCH  20  24
HETATM   24  O   UNL     1      -9.759  18.407  65.973  1.00  0.00    -0.491 OA 
HETATM   25  C   UNL     1     -10.744  19.435  65.973  1.00  0.00    -0.417 C  
ENDBRANCH  20  24
ENDBRANCH  15  16
ENDBRANCH  13  15
ENDBRANCH  10  13
ENDBRANCH   2   3
TORSDOF 5
ENDMDL
MODEL      149
REMARK 921   NORMALIZED FREE ENERGY PREDICTED BY IDOCK:   -4.47 KCAL/MOL
REMARK 922        TOTAL FREE ENERGY PREDICTED BY IDOCK:   -6.42 KCAL/MOL
REMARK 923 INTER-LIGAND FREE ENERGY PREDICTED BY IDOCK:   -5.77 KCAL/MOL
REMARK 924 INTRA-LIGAND FREE ENERGY PREDICTED BY IDOCK:   -0.65 KCAL/MOL
REMARK 927      BINDING AFFINITY PREDICTED BY RF-SCORE:    0.00 PKD
ROOT
HETATM    1  C   UNL     1      -7.030   8.574  71.219  1.00  0.00    -0.075 C  
HETATM    2  O   UNL     1      -6.619   8.457  69.862  1.00  0.00    -0.038 OA 
ENDROOT
BRANCH   2   3
HETATM    3  C   UNL     1      -7.112   9.411  69.005  1.00  0.00    -0.066 A  
HETATM    4  C   UNL     1      -8.309   9.298  68.282  1.00  0.00    -0.120 A  
HETATM    5  C   UNL     1      -8.666  10.334  67.398  1.00  0.00    -0.128 A  
HETATM    6  C   UNL     1      -7.818  11.428  67.277  1.00  0.00    -0.149 A  
HETATM    7  C   UNL     1      -6.626  11.575  67.987  1.00  0.00    -0.058 A  
HETATM    8  N   UNL     1      -8.432  12.227  66.354  1.00  0.00    -0.403 NA 
HETATM    9  C   UNL     1      -6.284  10.527  68.846  1.00  0.00    -0.043 A  
HETATM   10  C   UNL     1      -9.596  11.623  65.953  1.00  0.00    -0.229 A  
HETATM   11  H   UNL     1      -8.082  13.125  66.018  1.00  0.00     0.000 HD 
HETATM   12  N   UNL     1      -9.767  10.466  66.565  1.00  0.00    -0.186 NA 
BRANCH  10  13
HETATM   13  S   UNL     1     -10.658  12.395  64.810  1.00  0.00    -0.315 S  
HETATM   14  O   UNL     1     -11.173  11.274  63.950  1.00  0.00    -0.356 OA 
BRANCH  13  15
HETATM   15  C   UNL     1     -11.959  13.041  65.892  1.00  0.00    -0.435 C  
BRANCH  15  16
HETATM   16  C   UNL     1     -11.457  14.215  66.721  1.00  0.00    -0.369 A  
HETATM   17  N   UNL     1     -11.127  15.315  65.993  1.00  0.00    -0.314 NA 
HETATM   18  C   UNL     1     -10.679  16.405  66.653  1.00  0.00    -0.173 A  
HETATM   19  C   UNL     1     -10.504  16.469  68.026  1.00  0.00    -0.313 A  
HETATM   20  C   UNL     1     -10.844  15.334  68.775  1.00  0.00    -0.254 A  
HETATM   21  C   UNL     1      -9.949  17.713  68.659  1.00  0.00    -0.367 C  
HETATM   22  C   UNL     1     -11.804  12.973  68.892  1.00  0.00    -0.358 C  
HETATM   23  C   UNL     1     -11.365  14.188  68.131  1.00  0.00    -0.316 A  
BRANCH  20  24
HETATM   24  O   UNL     1     -10.770  15.507  70.137  1.00  0.00    -0.293 OA 
HETATM   25  C   UNL     1     -11.982  15.765  70.836  1.00  0.00    -0.413 C  
ENDBRANCH  20  24
ENDBRANCH  15  16
ENDBRANCH  13  15
ENDBRANCH  10  13
ENDBRANCH   2   3
TORSDOF 5
ENDMDL
MODEL      150
REMARK 921   NORMALIZED FREE ENERGY PREDICTED BY IDOCK:   -4.44 KCAL/MOL
REMARK 922        TOTAL FREE ENERGY PREDICTED BY IDOCK:   -6.38 KCAL/MOL
REMARK 923 INTER-LIGAND FREE ENERGY PREDICTED BY IDOCK:   -6.03 KCAL/MOL
REMARK 924 INTRA-LIGAND FREE ENERGY PREDICTED BY IDOCK:   -0.34 KCAL/MOL
REMARK 927      BINDING AFFINITY PREDICTED BY RF-SCORE:    0.00 PKD
ROOT
HETATM    1  C   UNL     1     -10.783   6.940  68.352  1.00  0.00    -0.211 C  
HETATM    2  O   UNL     1     -10.722   7.504  67.047  1.00  0.00    -0.346 OA 
ENDROOT
BRANCH   2   3
HETATM    3  C   UNL     1     -10.036   8.690  66.943  1.00  0.00    -0.285 A  
HETATM    4  C   UNL     1      -9.791   9.571  68.007  1.00  0.00    -0.181 A  
HETATM    5  C   UNL     1      -9.118  10.779  67.743  1.00  0.00    -0.151 A  
HETATM    6  C   UNL     1      -8.723  11.051  66.439  1.00  0.00    -0.173 A  
HETATM    7  C   UNL     1      -8.944  10.194  65.361  1.00  0.00    -0.208 A  
HETATM    8  N   UNL     1      -8.124  12.277  66.519  1.00  0.00    -0.397 NA 
HETATM    9  C   UNL     1      -9.628   9.007  65.643  1.00  0.00    -0.237 A  
HETATM   10  C   UNL     1      -8.165  12.703  67.821  1.00  0.00    -0.171 A  
HETATM   11  H   UNL     1      -7.713  12.790  65.739  1.00  0.00     0.000 HD 
HETATM   12  N   UNL     1      -8.768  11.818  68.593  1.00  0.00    -0.109 NA 
BRANCH  10  13
HETATM   13  S   UNL     1      -7.443  14.215  68.292  1.00  0.00    -0.140 S  
HETATM   14  O   UNL     1      -6.634  14.640  67.098  1.00  0.00    -0.238 OA 
BRANCH  13  15
HETATM   15  C   UNL     1      -8.900  15.270  68.506  1.00  0.00    -0.185 C  
BRANCH  15  16
HETATM   16  C   UNL     1      -8.594  16.716  68.142  1.00  0.00    -0.200 A  
HETATM   17  N   UNL     1      -7.680  17.316  68.949  1.00  0.00    -0.249 NA 
HETATM   18  C   UNL     1      -7.347  18.599  68.691  1.00  0.00    -0.304 A  
HETATM   19  C   UNL     1      -7.896  19.359  67.671  1.00  0.00    -0.309 A  
HETATM   20  C   UNL     1      -8.840  18.739  66.839  1.00  0.00    -0.294 A  
HETATM   21  C   UNL     1      -7.496  20.796  67.499  1.00  0.00    -0.337 C  
HETATM   22  C   UNL     1     -10.135  16.654  66.142  1.00  0.00    -0.361 C  
HETATM   23  C   UNL     1      -9.182  17.382  67.042  1.00  0.00    -0.252 A  
BRANCH  20  24
HETATM   24  O   UNL     1      -9.250  19.504  65.773  1.00  0.00    -0.377 OA 
HETATM   25  C   UNL     1     -10.526  20.129  65.864  1.00  0.00    -0.321 C  
ENDBRANCH  20  24
ENDBRANCH  15  16
ENDBRANCH  13  15
ENDBRANCH  10  13
ENDBRANCH   2   3
TORSDOF 5
ENDMDL
MODEL      151
REMARK 921   NORMALIZED FREE ENERGY PREDICTED BY IDOCK:   -4.42 KCAL/MOL
REMARK 922        TOTAL FREE ENERGY PREDICTED BY IDOCK:   -6.36 KCAL/MOL
REMARK 923 INTER-LIGAND FREE ENERGY PREDICTED BY IDOCK:   -5.90 KCAL/MOL
REMARK 924 INTRA-LIGAND FREE ENERGY PREDICTED BY IDOCK:   -0.46 KCAL/MOL
REMARK 927      BINDING AFFINITY PREDICTED BY RF-SCORE:    0.00 PKD
ROOT
HETATM    1  C   UNL     1     -10.218   5.329  70.403  1.00  0.00    -0.268 C  
HETATM    2  O   UNL     1      -9.247   6.037  69.643  1.00  0.00    -0.136 OA 
ENDROOT
BRANCH   2   3
HETATM    3  C   UNL     1      -9.469   7.385  69.499  1.00  0.00    -0.155 A  
HETATM    4  C   UNL     1     -10.423   7.954  68.641  1.00  0.00    -0.196 A  
HETATM    5  C   UNL     1     -10.506   9.357  68.556  1.00  0.00    -0.208 A  
HETATM    6  C   UNL     1      -9.640  10.123  69.327  1.00  0.00    -0.225 A  
HETATM    7  C   UNL     1      -8.687   9.590  70.195  1.00  0.00    -0.258 A  
HETATM    8  N   UNL     1      -9.963  11.413  69.011  1.00  0.00    -0.395 NA 
HETATM    9  C   UNL     1      -8.612   8.195  70.251  1.00  0.00    -0.131 A  
HETATM   10  C   UNL     1     -10.981  11.400  68.093  1.00  0.00    -0.232 A  
HETATM   11  H   UNL     1      -9.520  12.248  69.395  1.00  0.00     0.000 HD 
HETATM   12  N   UNL     1     -11.333  10.164  67.789  1.00  0.00    -0.255 NA 
BRANCH  10  13
HETATM   13  S   UNL     1     -11.675  12.884  67.503  1.00  0.00    -0.356 S  
HETATM   14  O   UNL     1     -11.512  13.858  68.637  1.00  0.00    -0.258 OA 
BRANCH  13  15
HETATM   15  C   UNL     1     -10.568  13.289  66.128  1.00  0.00    -0.287 C  
BRANCH  15  16
HETATM   16  C   UNL     1     -10.002  14.695  66.269  1.00  0.00    -0.290 A  
HETATM   17  N   UNL     1     -10.837  15.680  65.844  1.00  0.00    -0.318 NA 
HETATM   18  C   UNL     1     -10.413  16.959  65.941  1.00  0.00    -0.285 A  
HETATM   19  C   UNL     1      -9.169  17.336  66.419  1.00  0.00    -0.278 A  
HETATM   20  C   UNL     1      -8.309  16.319  66.855  1.00  0.00    -0.232 A  
HETATM   21  C   UNL     1      -8.773  18.784  66.437  1.00  0.00    -0.294 C  
HETATM   22  C   UNL     1      -7.874  13.850  67.333  1.00  0.00    -0.177 C  
HETATM   23  C   UNL     1      -8.729  14.969  66.819  1.00  0.00    -0.293 A  
BRANCH  20  24
HETATM   24  O   UNL     1      -7.144  16.765  67.434  1.00  0.00    -0.136 OA 
HETATM   25  C   UNL     1      -7.148  16.978  68.841  1.00  0.00    -0.233 C  
ENDBRANCH  20  24
ENDBRANCH  15  16
ENDBRANCH  13  15
ENDBRANCH  10  13
ENDBRANCH   2   3
TORSDOF 5
ENDMDL
MODEL      152
REMARK 921   NORMALIZED FREE ENERGY PREDICTED BY IDOCK:   -4.42 KCAL/MOL
REMARK 922        TOTAL FREE ENERGY PREDICTED BY IDOCK:   -6.35 KCAL/MOL
REMARK 923 INTER-LIGAND FREE ENERGY PREDICTED BY IDOCK:   -6.00 KCAL/MOL
REMARK 924 INTRA-LIGAND FREE ENERGY PREDICTED BY IDOCK:   -0.34 KCAL/MOL
REMARK 927      BINDING AFFINITY PREDICTED BY RF-SCORE:    0.00 PKD
ROOT
HETATM    1  C   UNL     1      -8.961   3.814  65.216  1.00  0.00    -0.133 C  
HETATM    2  O   UNL     1      -8.326   4.686  66.142  1.00  0.00    -0.110 OA 
ENDROOT
BRANCH   2   3
HETATM    3  C   UNL     1      -9.043   5.802  66.499  1.00  0.00    -0.141 A  
HETATM    4  C   UNL     1      -8.775   7.105  66.050  1.00  0.00    -0.162 A  
HETATM    5  C   UNL     1      -9.561   8.164  66.540  1.00  0.00    -0.234 A  
HETATM    6  C   UNL     1     -10.573   7.878  67.448  1.00  0.00    -0.272 A  
HETATM    7  C   UNL     1     -10.871   6.594  67.907  1.00  0.00    -0.353 A  
HETATM    8  N   UNL     1     -11.126   9.096  67.729  1.00  0.00    -0.474 NA 
HETATM    9  C   UNL     1     -10.067   5.560  67.420  1.00  0.00    -0.215 A  
HETATM   10  C   UNL     1     -10.463  10.056  67.010  1.00  0.00    -0.238 A  
HETATM   11  H   UNL     1     -11.903   9.263  68.368  1.00  0.00     0.000 HD 
HETATM   12  N   UNL     1      -9.501   9.525  66.279  1.00  0.00    -0.192 NA 
BRANCH  10  13
HETATM   13  S   UNL     1     -10.943  11.728  67.092  1.00  0.00    -0.293 S  
HETATM   14  O   UNL     1     -10.918  12.060  68.559  1.00  0.00    -0.214 OA 
BRANCH  13  15
HETATM   15  C   UNL     1      -9.587  12.545  66.212  1.00  0.00    -0.245 C  
BRANCH  15  16
HETATM   16  C   UNL     1      -9.759  14.058  66.213  1.00  0.00    -0.295 A  
HETATM   17  N   UNL     1     -10.678  14.519  65.324  1.00  0.00    -0.349 NA 
HETATM   18  C   UNL     1     -10.896  15.850  65.266  1.00  0.00    -0.387 A  
HETATM   19  C   UNL     1     -10.224  16.786  66.035  1.00  0.00    -0.361 A  
HETATM   20  C   UNL     1      -9.276  16.310  66.951  1.00  0.00    -0.218 A  
HETATM   21  C   UNL     1     -10.504  18.251  65.858  1.00  0.00    -0.324 C  
HETATM   22  C   UNL     1      -8.095  14.355  68.090  1.00  0.00    -0.137 C  
HETATM   23  C   UNL     1      -9.050  14.920  67.081  1.00  0.00    -0.236 A  
BRANCH  20  24
HETATM   24  O   UNL     1      -8.738  17.275  67.770  1.00  0.00    -0.220 OA 
HETATM   25  C   UNL     1      -7.433  17.750  67.458  1.00  0.00    -0.203 C  
ENDBRANCH  20  24
ENDBRANCH  15  16
ENDBRANCH  13  15
ENDBRANCH  10  13
ENDBRANCH   2   3
TORSDOF 5
ENDMDL
MODEL      153
REMARK 921   NORMALIZED FREE ENERGY PREDICTED BY IDOCK:   -4.42 KCAL/MOL
REMARK 922        TOTAL FREE ENERGY PREDICTED BY IDOCK:   -6.35 KCAL/MOL
REMARK 923 INTER-LIGAND FREE ENERGY PREDICTED BY IDOCK:   -6.03 KCAL/MOL
REMARK 924 INTRA-LIGAND FREE ENERGY PREDICTED BY IDOCK:   -0.32 KCAL/MOL
REMARK 927      BINDING AFFINITY PREDICTED BY RF-SCORE:    0.00 PKD
ROOT
HETATM    1  C   UNL     1      -8.286   7.905  70.389  1.00  0.00    -0.119 C  
HETATM    2  O   UNL     1      -7.868   7.877  69.029  1.00  0.00    -0.106 OA 
ENDROOT
BRANCH   2   3
HETATM    3  C   UNL     1      -8.239   8.959  68.269  1.00  0.00    -0.121 A  
HETATM    4  C   UNL     1      -9.305   8.971  67.356  1.00  0.00    -0.167 A  
HETATM    5  C   UNL     1      -9.539  10.137  66.604  1.00  0.00    -0.183 A  
HETATM    6  C   UNL     1      -8.705  11.232  66.796  1.00  0.00    -0.166 A  
HETATM    7  C   UNL     1      -7.643  11.256  67.700  1.00  0.00    -0.106 A  
HETATM    8  N   UNL     1      -9.182  12.172  65.926  1.00  0.00    -0.414 NA 
HETATM    9  C   UNL     1      -7.419  10.081  68.424  1.00  0.00    -0.082 A  
HETATM   10  C   UNL     1     -10.256  11.648  65.255  1.00  0.00    -0.272 A  
HETATM   11  H   UNL     1      -8.802  13.110  65.798  1.00  0.00     0.000 HD 
HETATM   12  N   UNL     1     -10.498  10.408  65.639  1.00  0.00    -0.172 NA 
BRANCH  10  13
HETATM   13  S   UNL     1     -11.140  12.599  64.096  1.00  0.00    -0.416 S  
HETATM   14  O   UNL     1     -11.673  11.598  63.108  1.00  0.00    -0.265 OA 
BRANCH  13  15
HETATM   15  C   UNL     1     -12.470  13.283  65.117  1.00  0.00    -0.470 C  
BRANCH  15  16
HETATM   16  C   UNL     1     -11.917  14.162  66.230  1.00  0.00    -0.429 A  
HETATM   17  N   UNL     1     -12.028  13.628  67.475  1.00  0.00    -0.369 NA 
HETATM   18  C   UNL     1     -11.554  14.343  68.519  1.00  0.00    -0.314 A  
HETATM   19  C   UNL     1     -10.987  15.601  68.411  1.00  0.00    -0.308 A  
HETATM   20  C   UNL     1     -10.874  16.152  67.127  1.00  0.00    -0.216 A  
HETATM   21  C   UNL     1     -10.538  16.336  69.641  1.00  0.00    -0.320 C  
HETATM   22  C   UNL     1     -11.153  15.933  64.599  1.00  0.00    -0.368 C  
HETATM   23  C   UNL     1     -11.310  15.418  65.999  1.00  0.00    -0.089 A  
BRANCH  20  24
HETATM   24  O   UNL     1     -10.189  17.342  67.074  1.00  0.00    -0.305 OA 
HETATM   25  C   UNL     1      -8.807  17.293  66.733  1.00  0.00    -0.247 C  
ENDBRANCH  20  24
ENDBRANCH  15  16
ENDBRANCH  13  15
ENDBRANCH  10  13
ENDBRANCH   2   3
TORSDOF 5
ENDMDL
MODEL      154
REMARK 921   NORMALIZED FREE ENERGY PREDICTED BY IDOCK:   -4.41 KCAL/MOL
REMARK 922        TOTAL FREE ENERGY PREDICTED BY IDOCK:   -6.34 KCAL/MOL
REMARK 923 INTER-LIGAND FREE ENERGY PREDICTED BY IDOCK:   -5.93 KCAL/MOL
REMARK 924 INTRA-LIGAND FREE ENERGY PREDICTED BY IDOCK:   -0.42 KCAL/MOL
REMARK 927      BINDING AFFINITY PREDICTED BY RF-SCORE:    0.00 PKD
ROOT
HETATM    1  C   UNL     1      -9.540  18.766  68.490  1.00  0.00    -0.369 C  
HETATM    2  O   UNL     1     -10.714  17.967  68.397  1.00  0.00    -0.285 OA 
ENDROOT
BRANCH   2   3
HETATM    3  C   UNL     1     -10.576  16.784  67.713  1.00  0.00    -0.341 A  
HETATM    4  C   UNL     1     -10.673  15.508  68.290  1.00  0.00    -0.271 A  
HETATM    5  C   UNL     1     -10.457  14.379  67.477  1.00  0.00    -0.252 A  
HETATM    6  C   UNL     1     -10.158  14.573  66.134  1.00  0.00    -0.305 A  
HETATM    7  C   UNL     1     -10.062  15.826  65.528  1.00  0.00    -0.383 A  
HETATM    8  N   UNL     1      -9.998  13.309  65.640  1.00  0.00    -0.405 NA 
HETATM    9  C   UNL     1     -10.264  16.933  66.358  1.00  0.00    -0.326 A  
HETATM   10  C   UNL     1     -10.199  12.411  66.656  1.00  0.00    -0.224 A  
HETATM   11  H   UNL     1      -9.767  13.072  64.675  1.00  0.00     0.000 HD 
HETATM   12  N   UNL     1     -10.476  13.028  67.790  1.00  0.00    -0.224 NA 
BRANCH  10  13
HETATM   13  S   UNL     1     -10.119  10.696  66.365  1.00  0.00    -0.232 S  
HETATM   14  O   UNL     1      -8.670  10.344  66.555  1.00  0.00    -0.133 OA 
BRANCH  13  15
HETATM   15  C   UNL     1     -11.134  10.044  67.716  1.00  0.00    -0.180 C  
BRANCH  15  16
HETATM   16  C   UNL     1     -10.320   9.145  68.636  1.00  0.00    -0.209 A  
HETATM   17  N   UNL     1      -9.750   9.788  69.689  1.00  0.00    -0.209 NA 
HETATM   18  C   UNL     1      -9.015   9.060  70.558  1.00  0.00    -0.213 A  
HETATM   19  C   UNL     1      -8.778   7.701  70.434  1.00  0.00    -0.143 A  
HETATM   20  C   UNL     1      -9.366   7.039  69.347  1.00  0.00    -0.146 A  
HETATM   21  C   UNL     1      -7.903   6.993  71.427  1.00  0.00    -0.095 C  
HETATM   22  C   UNL     1     -10.888   7.080  67.298  1.00  0.00    -0.403 C  
HETATM   23  C   UNL     1     -10.184   7.752  68.440  1.00  0.00    -0.230 A  
BRANCH  20  24
HETATM   24  O   UNL     1      -9.198   5.675  69.351  1.00  0.00    -0.119 OA 
HETATM   25  C   UNL     1     -10.230   4.886  69.935  1.00  0.00    -0.229 C  
ENDBRANCH  20  24
ENDBRANCH  15  16
ENDBRANCH  13  15
ENDBRANCH  10  13
ENDBRANCH   2   3
TORSDOF 5
ENDMDL
MODEL      155
REMARK 921   NORMALIZED FREE ENERGY PREDICTED BY IDOCK:   -4.41 KCAL/MOL
REMARK 922        TOTAL FREE ENERGY PREDICTED BY IDOCK:   -6.34 KCAL/MOL
REMARK 923 INTER-LIGAND FREE ENERGY PREDICTED BY IDOCK:   -6.08 KCAL/MOL
REMARK 924 INTRA-LIGAND FREE ENERGY PREDICTED BY IDOCK:   -0.26 KCAL/MOL
REMARK 927      BINDING AFFINITY PREDICTED BY RF-SCORE:    0.00 PKD
ROOT
HETATM    1  C   UNL     1     -10.133   5.933  66.667  1.00  0.00    -0.183 C  
HETATM    2  O   UNL     1     -11.035   7.014  66.867  1.00  0.00    -0.371 OA 
ENDROOT
BRANCH   2   3
HETATM    3  C   UNL     1     -10.484   8.165  67.374  1.00  0.00    -0.285 A  
HETATM    4  C   UNL     1     -10.071   9.264  66.605  1.00  0.00    -0.341 A  
HETATM    5  C   UNL     1      -9.472  10.359  67.255  1.00  0.00    -0.154 A  
HETATM    6  C   UNL     1      -9.314  10.309  68.634  1.00  0.00    -0.162 A  
HETATM    7  C   UNL     1      -9.720   9.237  69.430  1.00  0.00    -0.175 A  
HETATM    8  N   UNL     1      -8.704  11.493  68.944  1.00  0.00    -0.368 NA 
HETATM    9  C   UNL     1     -10.297   8.154  68.760  1.00  0.00    -0.220 A  
HETATM   10  C   UNL     1      -8.517  12.208  67.790  1.00  0.00    -0.160 A  
HETATM   11  H   UNL     1      -8.434  11.795  69.880  1.00  0.00     0.000 HD 
HETATM   12  N   UNL     1      -8.969  11.545  66.741  1.00  0.00    -0.175 NA 
BRANCH  10  13
HETATM   13  S   UNL     1      -7.805  13.796  67.824  1.00  0.00    -0.190 S  
HETATM   14  O   UNL     1      -6.432  13.611  67.238  1.00  0.00    -0.279 OA 
BRANCH  13  15
HETATM   15  C   UNL     1      -8.884  14.709  66.693  1.00  0.00    -0.209 C  
BRANCH  15  16
HETATM   16  C   UNL     1      -9.128  16.128  67.187  1.00  0.00    -0.203 A  
HETATM   17  N   UNL     1     -10.244  16.272  67.950  1.00  0.00    -0.254 NA 
HETATM   18  C   UNL     1     -10.531  17.500  68.434  1.00  0.00    -0.372 A  
HETATM   19  C   UNL     1      -9.778  18.635  68.182  1.00  0.00    -0.372 A  
HETATM   20  C   UNL     1      -8.628  18.485  67.394  1.00  0.00    -0.258 A  
HETATM   21  C   UNL     1     -10.211  19.966  68.726  1.00  0.00    -0.451 C  
HETATM   22  C   UNL     1      -7.008  16.984  66.115  1.00  0.00    -0.103 C  
HETATM   23  C   UNL     1      -8.261  17.209  66.907  1.00  0.00    -0.251 A  
BRANCH  20  24
HETATM   24  O   UNL     1      -7.858  19.619  67.287  1.00  0.00    -0.254 OA 
HETATM   25  C   UNL     1      -6.831  19.812  68.255  1.00  0.00    -0.291 C  
ENDBRANCH  20  24
ENDBRANCH  15  16
ENDBRANCH  13  15
ENDBRANCH  10  13
ENDBRANCH   2   3
TORSDOF 5
ENDMDL
MODEL      156
REMARK 921   NORMALIZED FREE ENERGY PREDICTED BY IDOCK:   -4.39 KCAL/MOL
REMARK 922        TOTAL FREE ENERGY PREDICTED BY IDOCK:   -6.32 KCAL/MOL
REMARK 923 INTER-LIGAND FREE ENERGY PREDICTED BY IDOCK:   -5.80 KCAL/MOL
REMARK 924 INTRA-LIGAND FREE ENERGY PREDICTED BY IDOCK:   -0.52 KCAL/MOL
REMARK 927      BINDING AFFINITY PREDICTED BY RF-SCORE:    0.00 PKD
ROOT
HETATM    1  C   UNL     1     -11.686  13.801  69.281  1.00  0.00    -0.327 C  
HETATM    2  O   UNL     1     -11.834  12.471  68.798  1.00  0.00    -0.306 OA 
ENDROOT
BRANCH   2   3
HETATM    3  C   UNL     1     -11.743  11.480  69.745  1.00  0.00    -0.353 A  
HETATM    4  C   UNL     1     -10.680  10.570  69.854  1.00  0.00    -0.301 A  
HETATM    5  C   UNL     1     -10.744   9.570  70.842  1.00  0.00    -0.333 A  
HETATM    6  C   UNL     1     -11.857   9.523  71.671  1.00  0.00    -0.397 A  
HETATM    7  C   UNL     1     -12.927  10.416  71.595  1.00  0.00    -0.581 A  
HETATM    8  N   UNL     1     -11.620   8.455  72.491  1.00  0.00    -0.381 NA 
HETATM    9  C   UNL     1     -12.850  11.391  70.595  1.00  0.00    -0.189 A  
HETATM   10  C   UNL     1     -10.412   7.902  72.155  1.00  0.00    -0.249 A  
HETATM   11  H   UNL     1     -12.239   8.125  73.231  1.00  0.00     0.000 HD 
HETATM   12  N   UNL     1      -9.853   8.553  71.151  1.00  0.00    -0.191 NA 
BRANCH  10  13
HETATM   13  S   UNL     1      -9.772   6.544  73.036  1.00  0.00    -0.159 S  
HETATM   14  O   UNL     1     -10.382   6.656  74.406  1.00  0.00    -0.357 OA 
BRANCH  13  15
HETATM   15  C   UNL     1     -10.472   5.147  72.120  1.00  0.00    -0.220 C  
BRANCH  15  16
HETATM   16  C   UNL     1      -9.598   4.770  70.932  1.00  0.00    -0.177 A  
HETATM   17  N   UNL     1      -8.530   3.990  71.247  1.00  0.00    -0.079 NA 
HETATM   18  C   UNL     1      -7.706   3.604  70.248  1.00  0.00    -0.047 A  
HETATM   19  C   UNL     1      -7.859   3.975  68.923  1.00  0.00    -0.057 A  
HETATM   20  C   UNL     1      -8.960   4.781  68.599  1.00  0.00    -0.107 A  
HETATM   21  C   UNL     1      -6.856   3.536  67.894  1.00  0.00    -0.050 C  
HETATM   22  C   UNL     1     -11.105   5.972  69.301  1.00  0.00    -0.424 C  
HETATM   23  C   UNL     1      -9.877   5.166  69.604  1.00  0.00    -0.286 A  
BRANCH  20  24
HETATM   24  O   UNL     1      -9.126   5.007  67.253  1.00  0.00    -0.113 OA 
HETATM   25  C   UNL     1      -8.742   6.280  66.747  1.00  0.00    -0.117 C  
ENDBRANCH  20  24
ENDBRANCH  15  16
ENDBRANCH  13  15
ENDBRANCH  10  13
ENDBRANCH   2   3
TORSDOF 5
ENDMDL
MODEL      157
REMARK 921   NORMALIZED FREE ENERGY PREDICTED BY IDOCK:   -4.39 KCAL/MOL
REMARK 922        TOTAL FREE ENERGY PREDICTED BY IDOCK:   -6.31 KCAL/MOL
REMARK 923 INTER-LIGAND FREE ENERGY PREDICTED BY IDOCK:   -5.81 KCAL/MOL
REMARK 924 INTRA-LIGAND FREE ENERGY PREDICTED BY IDOCK:   -0.50 KCAL/MOL
REMARK 927      BINDING AFFINITY PREDICTED BY RF-SCORE:    0.00 PKD
ROOT
HETATM    1  C   UNL     1     -12.369  15.570  64.175  1.00  0.00     0.066 C  
HETATM    2  O   UNL     1     -12.547  14.216  63.779  1.00  0.00    -0.804 OA 
ENDROOT
BRANCH   2   3
HETATM    3  C   UNL     1     -11.577  13.339  64.202  1.00  0.00    -0.405 A  
HETATM    4  C   UNL     1     -10.956  13.376  65.460  1.00  0.00    -0.294 A  
HETATM    5  C   UNL     1      -9.939  12.445  65.740  1.00  0.00    -0.254 A  
HETATM    6  C   UNL     1      -9.591  11.524  64.759  1.00  0.00    -0.174 A  
HETATM    7  C   UNL     1     -10.194  11.455  63.502  1.00  0.00    -0.461 A  
HETATM    8  N   UNL     1      -8.588  10.790  65.329  1.00  0.00    -0.255 NA 
HETATM    9  C   UNL     1     -11.190  12.400  63.241  1.00  0.00    -0.377 A  
HETATM   10  C   UNL     1      -8.362  11.263  66.595  1.00  0.00    -0.163 A  
HETATM   11  H   UNL     1      -8.090  10.018  64.885  1.00  0.00     0.000 HD 
HETATM   12  N   UNL     1      -9.163  12.274  66.877  1.00  0.00    -0.204 NA 
BRANCH  10  13
HETATM   13  S   UNL     1      -7.175  10.521  67.630  1.00  0.00    -0.086 S  
HETATM   14  O   UNL     1      -7.163  11.373  68.870  1.00  0.00    -0.099 OA 
BRANCH  13  15
HETATM   15  C   UNL     1      -7.925   8.904  67.953  1.00  0.00    -0.102 C  
BRANCH  15  16
HETATM   16  C   UNL     1      -8.296   8.750  69.422  1.00  0.00    -0.117 A  
HETATM   17  N   UNL     1      -7.281   8.314  70.214  1.00  0.00    -0.050 NA 
HETATM   18  C   UNL     1      -7.525   8.157  71.533  1.00  0.00    -0.081 A  
HETATM   19  C   UNL     1      -8.753   8.383  72.133  1.00  0.00    -0.272 A  
HETATM   20  C   UNL     1      -9.799   8.832  71.315  1.00  0.00    -0.266 A  
HETATM   21  C   UNL     1      -8.935   8.129  73.601  1.00  0.00    -0.275 C  
HETATM   22  C   UNL     1     -10.642   9.600  69.031  1.00  0.00    -0.237 C  
HETATM   23  C   UNL     1      -9.576   9.059  69.937  1.00  0.00    -0.193 A  
BRANCH  20  24
HETATM   24  O   UNL     1     -10.951   9.159  71.990  1.00  0.00    -0.349 OA 
HETATM   25  C   UNL     1     -11.965   8.165  72.082  1.00  0.00    -0.359 C  
ENDBRANCH  20  24
ENDBRANCH  15  16
ENDBRANCH  13  15
ENDBRANCH  10  13
ENDBRANCH   2   3
TORSDOF 5
ENDMDL
MODEL      158
REMARK 921   NORMALIZED FREE ENERGY PREDICTED BY IDOCK:   -4.37 KCAL/MOL
REMARK 922        TOTAL FREE ENERGY PREDICTED BY IDOCK:   -6.28 KCAL/MOL
REMARK 923 INTER-LIGAND FREE ENERGY PREDICTED BY IDOCK:   -6.14 KCAL/MOL
REMARK 924 INTRA-LIGAND FREE ENERGY PREDICTED BY IDOCK:   -0.14 KCAL/MOL
REMARK 927      BINDING AFFINITY PREDICTED BY RF-SCORE:    0.00 PKD
ROOT
HETATM    1  C   UNL     1      -9.883   3.290  72.282  1.00  0.00    -0.162 C  
HETATM    2  O   UNL     1     -10.785   4.263  72.793  1.00  0.00    -0.184 OA 
ENDROOT
BRANCH   2   3
HETATM    3  C   UNL     1     -10.738   5.496  72.189  1.00  0.00    -0.231 A  
HETATM    4  C   UNL     1     -10.323   5.727  70.868  1.00  0.00    -0.299 A  
HETATM    5  C   UNL     1     -10.274   7.052  70.396  1.00  0.00    -0.196 A  
HETATM    6  C   UNL     1     -10.640   8.079  71.256  1.00  0.00    -0.209 A  
HETATM    7  C   UNL     1     -11.064   7.884  72.571  1.00  0.00    -0.423 A  
HETATM    8  N   UNL     1     -10.473   9.214  70.512  1.00  0.00    -0.218 NA 
HETATM    9  C   UNL     1     -11.089   6.562  73.024  1.00  0.00    -0.230 A  
HETATM   10  C   UNL     1     -10.030   8.862  69.264  1.00  0.00    -0.192 A  
HETATM   11  H   UNL     1     -10.650  10.166  70.833  1.00  0.00     0.000 HD 
HETATM   12  N   UNL     1      -9.893   7.553  69.160  1.00  0.00    -0.167 NA 
BRANCH  10  13
HETATM   13  S   UNL     1      -9.758  10.065  68.037  1.00  0.00    -0.141 S  
HETATM   14  O   UNL     1      -9.549   9.280  66.771  1.00  0.00    -0.158 OA 
BRANCH  13  15
HETATM   15  C   UNL     1     -11.347  10.935  68.012  1.00  0.00    -0.312 C  
BRANCH  15  16
HETATM   16  C   UNL     1     -11.156  12.430  67.803  1.00  0.00    -0.247 A  
HETATM   17  N   UNL     1     -11.044  13.147  68.952  1.00  0.00    -0.264 NA 
HETATM   18  C   UNL     1     -10.865  14.483  68.855  1.00  0.00    -0.253 A  
HETATM   19  C   UNL     1     -10.817  15.179  67.659  1.00  0.00    -0.295 A  
HETATM   20  C   UNL     1     -10.934  14.439  66.474  1.00  0.00    -0.316 A  
HETATM   21  C   UNL     1     -10.667  16.673  67.660  1.00  0.00    -0.306 C  
HETATM   22  C   UNL     1     -11.136  12.187  65.290  1.00  0.00    -0.367 C  
HETATM   23  C   UNL     1     -11.072  13.032  66.527  1.00  0.00    -0.315 A  
BRANCH  20  24
HETATM   24  O   UNL     1     -10.751  15.169  65.324  1.00  0.00    -0.345 OA 
HETATM   25  C   UNL     1     -11.795  15.146  64.356  1.00  0.00    -0.305 C  
ENDBRANCH  20  24
ENDBRANCH  15  16
ENDBRANCH  13  15
ENDBRANCH  10  13
ENDBRANCH   2   3
TORSDOF 5
ENDMDL
MODEL      159
REMARK 921   NORMALIZED FREE ENERGY PREDICTED BY IDOCK:   -4.36 KCAL/MOL
REMARK 922        TOTAL FREE ENERGY PREDICTED BY IDOCK:   -6.28 KCAL/MOL
REMARK 923 INTER-LIGAND FREE ENERGY PREDICTED BY IDOCK:   -5.97 KCAL/MOL
REMARK 924 INTRA-LIGAND FREE ENERGY PREDICTED BY IDOCK:   -0.31 KCAL/MOL
REMARK 927      BINDING AFFINITY PREDICTED BY RF-SCORE:    0.00 PKD
ROOT
HETATM    1  C   UNL     1     -14.168  14.938  72.409  1.00  0.00    -0.398 C  
HETATM    2  O   UNL     1     -13.609  13.649  72.628  1.00  0.00    -0.615 OA 
ENDROOT
BRANCH   2   3
HETATM    3  C   UNL     1     -12.967  13.086  71.552  1.00  0.00    -0.305 A  
HETATM    4  C   UNL     1     -12.740  11.711  71.382  1.00  0.00    -0.445 A  
HETATM    5  C   UNL     1     -12.021  11.279  70.251  1.00  0.00    -0.379 A  
HETATM    6  C   UNL     1     -11.566  12.231  69.347  1.00  0.00    -0.314 A  
HETATM    7  C   UNL     1     -11.782  13.603  69.482  1.00  0.00    -0.380 A  
HETATM    8  N   UNL     1     -10.912  11.502  68.394  1.00  0.00    -0.204 NA 
HETATM    9  C   UNL     1     -12.484  14.011  70.620  1.00  0.00    -0.435 A  
HETATM   10  C   UNL     1     -10.985  10.175  68.728  1.00  0.00    -0.223 A  
HETATM   11  H   UNL     1     -10.446  11.882  67.570  1.00  0.00     0.000 HD 
HETATM   12  N   UNL     1     -11.649  10.003  69.856  1.00  0.00    -0.212 NA 
BRANCH  10  13
HETATM   13  S   UNL     1     -10.293   8.953  67.699  1.00  0.00    -0.252 S  
HETATM   14  O   UNL     1      -8.835   9.311  67.608  1.00  0.00    -0.120 OA 
BRANCH  13  15
HETATM   15  C   UNL     1     -10.539   7.455  68.687  1.00  0.00    -0.154 C  
BRANCH  15  16
HETATM   16  C   UNL     1     -10.105   6.211  67.924  1.00  0.00    -0.153 A  
HETATM   17  N   UNL     1     -10.743   6.031  66.737  1.00  0.00    -0.313 NA 
HETATM   18  C   UNL     1     -10.412   4.953  65.993  1.00  0.00    -0.283 A  
HETATM   19  C   UNL     1      -9.483   3.998  66.372  1.00  0.00    -0.202 A  
HETATM   20  C   UNL     1      -8.826   4.185  67.596  1.00  0.00    -0.113 A  
HETATM   21  C   UNL     1      -9.223   2.807  65.496  1.00  0.00    -0.113 C  
HETATM   22  C   UNL     1      -8.384   5.606  69.670  1.00  0.00    -0.107 C  
HETATM   23  C   UNL     1      -9.105   5.326  68.385  1.00  0.00    -0.125 A  
BRANCH  20  24
HETATM   24  O   UNL     1      -7.828   3.275  67.853  1.00  0.00    -0.070 OA 
HETATM   25  C   UNL     1      -8.099   2.251  68.803  1.00  0.00    -0.052 C  
ENDBRANCH  20  24
ENDBRANCH  15  16
ENDBRANCH  13  15
ENDBRANCH  10  13
ENDBRANCH   2   3
TORSDOF 5
ENDMDL
MODEL      160
REMARK 921   NORMALIZED FREE ENERGY PREDICTED BY IDOCK:   -4.32 KCAL/MOL
REMARK 922        TOTAL FREE ENERGY PREDICTED BY IDOCK:   -6.22 KCAL/MOL
REMARK 923 INTER-LIGAND FREE ENERGY PREDICTED BY IDOCK:   -5.76 KCAL/MOL
REMARK 924 INTRA-LIGAND FREE ENERGY PREDICTED BY IDOCK:   -0.46 KCAL/MOL
REMARK 927      BINDING AFFINITY PREDICTED BY RF-SCORE:    0.00 PKD
ROOT
HETATM    1  C   UNL     1     -12.802  13.021  71.291  1.00  0.00    -0.281 C  
HETATM    2  O   UNL     1     -12.529  11.943  70.404  1.00  0.00    -0.253 OA 
ENDROOT
BRANCH   2   3
HETATM    3  C   UNL     1     -12.370  10.713  70.994  1.00  0.00    -0.403 A  
HETATM    4  C   UNL     1     -11.137  10.077  71.205  1.00  0.00    -0.270 A  
HETATM    5  C   UNL     1     -11.127   8.790  71.774  1.00  0.00    -0.347 A  
HETATM    6  C   UNL     1     -12.340   8.199  72.106  1.00  0.00    -0.338 A  
HETATM    7  C   UNL     1     -13.582   8.806  71.917  1.00  0.00    -0.467 A  
HETATM    8  N   UNL     1     -11.991   6.979  72.612  1.00  0.00    -0.506 NA 
HETATM    9  C   UNL     1     -13.569  10.077  71.335  1.00  0.00    -0.263 A  
HETATM   10  C   UNL     1     -10.626   6.863  72.580  1.00  0.00    -0.222 A  
HETATM   11  H   UNL     1     -12.639   6.271  72.957  1.00  0.00     0.000 HD 
HETATM   12  N   UNL     1     -10.068   7.946  72.070  1.00  0.00    -0.190 NA 
BRANCH  10  13
HETATM   13  S   UNL     1      -9.832   5.442  73.198  1.00  0.00    -0.165 S  
HETATM   14  O   UNL     1     -10.750   4.930  74.273  1.00  0.00    -0.292 OA 
BRANCH  13  15
HETATM   15  C   UNL     1      -9.844   4.353  71.752  1.00  0.00    -0.185 C  
BRANCH  15  16
HETATM   16  C   UNL     1      -9.659   5.142  70.463  1.00  0.00    -0.180 A  
HETATM   17  N   UNL     1     -10.820   5.472  69.837  1.00  0.00    -0.299 NA 
HETATM   18  C   UNL     1     -10.745   6.180  68.689  1.00  0.00    -0.307 A  
HETATM   19  C   UNL     1      -9.560   6.569  68.087  1.00  0.00    -0.123 A  
HETATM   20  C   UNL     1      -8.364   6.226  68.733  1.00  0.00    -0.120 A  
HETATM   21  C   UNL     1      -9.583   7.309  66.781  1.00  0.00    -0.240 C  
HETATM   22  C   UNL     1      -7.149   5.196  70.727  1.00  0.00    -0.060 C  
HETATM   23  C   UNL     1      -8.395   5.530  69.963  1.00  0.00    -0.116 A  
BRANCH  20  24
HETATM   24  O   UNL     1      -7.232   6.750  68.154  1.00  0.00    -0.086 OA 
HETATM   25  C   UNL     1      -6.435   5.878  67.359  1.00  0.00    -0.047 C  
ENDBRANCH  20  24
ENDBRANCH  15  16
ENDBRANCH  13  15
ENDBRANCH  10  13
ENDBRANCH   2   3
TORSDOF 5
ENDMDL
MODEL      161
REMARK 921   NORMALIZED FREE ENERGY PREDICTED BY IDOCK:   -4.30 KCAL/MOL
REMARK 922        TOTAL FREE ENERGY PREDICTED BY IDOCK:   -6.20 KCAL/MOL
REMARK 923 INTER-LIGAND FREE ENERGY PREDICTED BY IDOCK:   -5.75 KCAL/MOL
REMARK 924 INTRA-LIGAND FREE ENERGY PREDICTED BY IDOCK:   -0.45 KCAL/MOL
REMARK 927      BINDING AFFINITY PREDICTED BY RF-SCORE:    0.00 PKD
ROOT
HETATM    1  C   UNL     1     -12.501  13.444  63.749  1.00  0.00    -0.246 C  
HETATM    2  O   UNL     1     -12.110  14.313  64.805  1.00  0.00    -0.403 OA 
ENDROOT
BRANCH   2   3
HETATM    3  C   UNL     1     -11.414  13.725  65.833  1.00  0.00    -0.322 A  
HETATM    4  C   UNL     1     -10.316  12.867  65.671  1.00  0.00    -0.295 A  
HETATM    5  C   UNL     1      -9.730  12.294  66.816  1.00  0.00    -0.213 A  
HETATM    6  C   UNL     1     -10.263  12.602  68.062  1.00  0.00    -0.230 A  
HETATM    7  C   UNL     1     -11.348  13.458  68.258  1.00  0.00    -0.330 A  
HETATM    8  N   UNL     1      -9.493  11.891  68.940  1.00  0.00    -0.410 NA 
HETATM    9  C   UNL     1     -11.923  14.002  67.106  1.00  0.00    -0.465 A  
HETATM   10  C   UNL     1      -8.546  11.197  68.234  1.00  0.00    -0.146 A  
HETATM   11  H   UNL     1      -9.605  11.880  69.954  1.00  0.00     0.000 HD 
HETATM   12  N   UNL     1      -8.664  11.415  66.937  1.00  0.00    -0.159 NA 
BRANCH  10  13
HETATM   13  S   UNL     1      -7.359  10.218  69.048  1.00  0.00    -0.102 S  
HETATM   14  O   UNL     1      -7.877  10.082  70.454  1.00  0.00    -0.216 OA 
BRANCH  13  15
HETATM   15  C   UNL     1      -7.490   8.653  68.148  1.00  0.00    -0.096 C  
BRANCH  15  16
HETATM   16  C   UNL     1      -8.227   7.602  68.967  1.00  0.00    -0.127 A  
HETATM   17  N   UNL     1      -7.423   6.839  69.754  1.00  0.00    -0.089 NA 
HETATM   18  C   UNL     1      -7.999   5.887  70.519  1.00  0.00    -0.106 A  
HETATM   19  C   UNL     1      -9.357   5.614  70.537  1.00  0.00    -0.194 A  
HETATM   20  C   UNL     1     -10.185   6.402  69.725  1.00  0.00    -0.186 A  
HETATM   21  C   UNL     1      -9.893   4.497  71.386  1.00  0.00    -0.264 C  
HETATM   22  C   UNL     1     -10.480   8.356  68.110  1.00  0.00    -0.228 C  
HETATM   23  C   UNL     1      -9.632   7.443  68.945  1.00  0.00    -0.148 A  
BRANCH  20  24
HETATM   24  O   UNL     1     -11.530   6.167  69.884  1.00  0.00    -0.421 OA 
HETATM   25  C   UNL     1     -12.216   6.913  70.884  1.00  0.00    -0.353 C  
ENDBRANCH  20  24
ENDBRANCH  15  16
ENDBRANCH  13  15
ENDBRANCH  10  13
ENDBRANCH   2   3
TORSDOF 5
ENDMDL
MODEL      162
REMARK 921   NORMALIZED FREE ENERGY PREDICTED BY IDOCK:   -4.30 KCAL/MOL
REMARK 922        TOTAL FREE ENERGY PREDICTED BY IDOCK:   -6.19 KCAL/MOL
REMARK 923 INTER-LIGAND FREE ENERGY PREDICTED BY IDOCK:   -6.63 KCAL/MOL
REMARK 924 INTRA-LIGAND FREE ENERGY PREDICTED BY IDOCK:    0.44 KCAL/MOL
REMARK 927      BINDING AFFINITY PREDICTED BY RF-SCORE:    0.00 PKD
ROOT
HETATM    1  C   UNL     1      -9.910  19.116  67.393  1.00  0.00    -0.329 C  
HETATM    2  O   UNL     1      -9.387  18.440  68.530  1.00  0.00    -0.318 OA 
ENDROOT
BRANCH   2   3
HETATM    3  C   UNL     1      -9.515  17.072  68.522  1.00  0.00    -0.269 A  
HETATM    4  C   UNL     1     -10.736  16.380  68.550  1.00  0.00    -0.320 A  
HETATM    5  C   UNL     1     -10.716  14.973  68.590  1.00  0.00    -0.244 A  
HETATM    6  C   UNL     1      -9.487  14.325  68.599  1.00  0.00    -0.178 A  
HETATM    7  C   UNL     1      -8.256  14.982  68.564  1.00  0.00    -0.151 A  
HETATM    8  N   UNL     1      -9.809  12.998  68.653  1.00  0.00    -0.396 NA 
HETATM    9  C   UNL     1      -8.301  16.379  68.541  1.00  0.00    -0.202 A  
HETATM   10  C   UNL     1     -11.174  12.876  68.671  1.00  0.00    -0.281 A  
HETATM   11  H   UNL     1      -9.143  12.225  68.676  1.00  0.00     0.000 HD 
HETATM   12  N   UNL     1     -11.758  14.060  68.639  1.00  0.00    -0.332 NA 
BRANCH  10  13
HETATM   13  S   UNL     1     -11.934  11.310  68.689  1.00  0.00    -0.134 S  
HETATM   14  O   UNL     1     -10.869  10.364  68.206  1.00  0.00    -0.218 OA 
BRANCH  13  15
HETATM   15  C   UNL     1     -12.263  11.079  70.455  1.00  0.00    -0.373 C  
BRANCH  15  16
HETATM   16  C   UNL     1     -11.383   9.986  71.043  1.00  0.00    -0.357 A  
HETATM   17  N   UNL     1     -10.074  10.065  70.685  1.00  0.00    -0.077 NA 
HETATM   18  C   UNL     1      -9.223   9.136  71.171  1.00  0.00    -0.231 A  
HETATM   19  C   UNL     1      -9.599   8.084  71.990  1.00  0.00    -0.262 A  
HETATM   20  C   UNL     1     -10.950   8.002  72.358  1.00  0.00    -0.338 A  
HETATM   21  C   UNL     1      -8.584   7.072  72.435  1.00  0.00    -0.130 C  
HETATM   22  C   UNL     1     -13.308   8.978  72.330  1.00  0.00    -0.516 C  
HETATM   23  C   UNL     1     -11.867   8.982  71.914  1.00  0.00    -0.447 A  
BRANCH  20  24
HETATM   24  O   UNL     1     -11.233   7.014  73.271  1.00  0.00    -0.229 OA 
HETATM   25  C   UNL     1     -11.376   5.686  72.781  1.00  0.00    -0.299 C  
ENDBRANCH  20  24
ENDBRANCH  15  16
ENDBRANCH  13  15
ENDBRANCH  10  13
ENDBRANCH   2   3
TORSDOF 5
ENDMDL
MODEL      163
REMARK 921   NORMALIZED FREE ENERGY PREDICTED BY IDOCK:   -4.28 KCAL/MOL
REMARK 922        TOTAL FREE ENERGY PREDICTED BY IDOCK:   -6.18 KCAL/MOL
REMARK 923 INTER-LIGAND FREE ENERGY PREDICTED BY IDOCK:   -5.84 KCAL/MOL
REMARK 924 INTRA-LIGAND FREE ENERGY PREDICTED BY IDOCK:   -0.34 KCAL/MOL
REMARK 927      BINDING AFFINITY PREDICTED BY RF-SCORE:    0.00 PKD
ROOT
HETATM    1  C   UNL     1      -9.788  16.750  65.942  1.00  0.00    -0.249 C  
HETATM    2  O   UNL     1     -10.614  16.541  67.081  1.00  0.00    -0.314 OA 
ENDROOT
BRANCH   2   3
HETATM    3  C   UNL     1     -10.824  15.229  67.432  1.00  0.00    -0.304 A  
HETATM    4  C   UNL     1     -10.180  14.129  66.845  1.00  0.00    -0.267 A  
HETATM    5  C   UNL     1     -10.532  12.834  67.269  1.00  0.00    -0.232 A  
HETATM    6  C   UNL     1     -11.503  12.696  68.254  1.00  0.00    -0.313 A  
HETATM    7  C   UNL     1     -12.156  13.768  68.863  1.00  0.00    -0.348 A  
HETATM    8  N   UNL     1     -11.618  11.345  68.424  1.00  0.00    -0.356 NA 
HETATM    9  C   UNL     1     -11.802  15.044  68.414  1.00  0.00    -0.298 A  
HETATM   10  C   UNL     1     -10.745  10.718  67.574  1.00  0.00    -0.264 A  
HETATM   11  H   UNL     1     -12.249  10.879  69.077  1.00  0.00     0.000 HD 
HETATM   12  N   UNL     1     -10.071  11.594  66.852  1.00  0.00    -0.208 NA 
BRANCH  10  13
HETATM   13  S   UNL     1     -10.594   8.983  67.562  1.00  0.00    -0.175 S  
HETATM   14  O   UNL     1     -10.066   8.655  66.193  1.00  0.00    -0.250 OA 
BRANCH  13  15
HETATM   15  C   UNL     1      -9.334   8.713  68.834  1.00  0.00    -0.145 C  
BRANCH  15  16
HETATM   16  C   UNL     1      -9.880   7.884  69.988  1.00  0.00    -0.181 A  
HETATM   17  N   UNL     1     -10.909   7.063  69.651  1.00  0.00    -0.243 NA 
HETATM   18  C   UNL     1     -11.448   6.287  70.616  1.00  0.00    -0.329 A  
HETATM   19  C   UNL     1     -11.041   6.292  71.940  1.00  0.00    -0.315 A  
HETATM   20  C   UNL     1      -9.979   7.140  72.287  1.00  0.00    -0.172 A  
HETATM   21  C   UNL     1     -11.740   5.428  72.949  1.00  0.00    -0.232 C  
HETATM   22  C   UNL     1      -8.173   8.808  71.603  1.00  0.00    -0.171 C  
HETATM   23  C   UNL     1      -9.352   7.933  71.298  1.00  0.00    -0.172 A  
BRANCH  20  24
HETATM   24  O   UNL     1      -9.541   7.004  73.583  1.00  0.00    -0.180 OA 
HETATM   25  C   UNL     1      -8.451   6.120  73.820  1.00  0.00    -0.123 C  
ENDBRANCH  20  24
ENDBRANCH  15  16
ENDBRANCH  13  15
ENDBRANCH  10  13
ENDBRANCH   2   3
TORSDOF 5
ENDMDL
MODEL      164
REMARK 921   NORMALIZED FREE ENERGY PREDICTED BY IDOCK:   -4.28 KCAL/MOL
REMARK 922        TOTAL FREE ENERGY PREDICTED BY IDOCK:   -6.18 KCAL/MOL
REMARK 923 INTER-LIGAND FREE ENERGY PREDICTED BY IDOCK:   -5.86 KCAL/MOL
REMARK 924 INTRA-LIGAND FREE ENERGY PREDICTED BY IDOCK:   -0.32 KCAL/MOL
REMARK 927      BINDING AFFINITY PREDICTED BY RF-SCORE:    0.00 PKD
ROOT
HETATM    1  C   UNL     1     -11.157  15.269  65.168  1.00  0.00    -0.404 C  
HETATM    2  O   UNL     1     -11.873  14.281  65.899  1.00  0.00    -0.360 OA 
ENDROOT
BRANCH   2   3
HETATM    3  C   UNL     1     -11.409  12.994  65.773  1.00  0.00    -0.301 A  
HETATM    4  C   UNL     1     -11.266  12.085  66.834  1.00  0.00    -0.375 A  
HETATM    5  C   UNL     1     -10.727  10.813  66.567  1.00  0.00    -0.181 A  
HETATM    6  C   UNL     1     -10.359  10.506  65.263  1.00  0.00    -0.229 A  
HETATM    7  C   UNL     1     -10.495  11.381  64.185  1.00  0.00    -0.421 A  
HETATM    8  N   UNL     1      -9.872   9.231  65.344  1.00  0.00    -0.444 NA 
HETATM    9  C   UNL     1     -11.017  12.645  64.477  1.00  0.00    -0.365 A  
HETATM   10  C   UNL     1      -9.956   8.809  66.645  1.00  0.00    -0.285 A  
HETATM   11  H   UNL     1      -9.507   8.683  64.564  1.00  0.00     0.000 HD 
HETATM   12  N   UNL     1     -10.467   9.749  67.418  1.00  0.00    -0.244 NA 
BRANCH  10  13
HETATM   13  S   UNL     1      -9.464   7.203  67.100  1.00  0.00    -0.154 S  
HETATM   14  O   UNL     1      -8.498   6.781  66.027  1.00  0.00    -0.131 OA 
BRANCH  13  15
HETATM   15  C   UNL     1      -8.609   7.508  68.667  1.00  0.00    -0.129 C  
BRANCH  15  16
HETATM   16  C   UNL     1      -8.949   6.442  69.699  1.00  0.00    -0.137 A  
HETATM   17  N   UNL     1      -8.204   5.310  69.603  1.00  0.00    -0.093 NA 
HETATM   18  C   UNL     1      -8.438   4.316  70.488  1.00  0.00    -0.076 A  
HETATM   19  C   UNL     1      -9.410   4.360  71.473  1.00  0.00    -0.203 A  
HETATM   20  C   UNL     1     -10.179   5.528  71.571  1.00  0.00    -0.212 A  
HETATM   21  C   UNL     1      -9.627   3.179  72.375  1.00  0.00    -0.195 C  
HETATM   22  C   UNL     1     -10.684   7.909  70.802  1.00  0.00    -0.230 C  
HETATM   23  C   UNL     1      -9.935   6.614  70.698  1.00  0.00    -0.201 A  
BRANCH  20  24
HETATM   24  O   UNL     1     -11.036   5.560  72.646  1.00  0.00    -0.238 OA 
HETATM   25  C   UNL     1     -10.648   6.335  73.775  1.00  0.00    -0.245 C  
ENDBRANCH  20  24
ENDBRANCH  15  16
ENDBRANCH  13  15
ENDBRANCH  10  13
ENDBRANCH   2   3
TORSDOF 5
ENDMDL
MODEL      165
REMARK 921   NORMALIZED FREE ENERGY PREDICTED BY IDOCK:   -4.28 KCAL/MOL
REMARK 922        TOTAL FREE ENERGY PREDICTED BY IDOCK:   -6.17 KCAL/MOL
REMARK 923 INTER-LIGAND FREE ENERGY PREDICTED BY IDOCK:   -5.76 KCAL/MOL
REMARK 924 INTRA-LIGAND FREE ENERGY PREDICTED BY IDOCK:   -0.41 KCAL/MOL
REMARK 927      BINDING AFFINITY PREDICTED BY RF-SCORE:    0.00 PKD
ROOT
HETATM    1  C   UNL     1      -9.967   4.260  73.592  1.00  0.00    -0.130 C  
HETATM    2  O   UNL     1     -10.820   5.378  73.810  1.00  0.00    -0.284 OA 
ENDROOT
BRANCH   2   3
HETATM    3  C   UNL     1     -10.943   6.248  72.754  1.00  0.00    -0.260 A  
HETATM    4  C   UNL     1     -11.095   7.638  72.874  1.00  0.00    -0.448 A  
HETATM    5  C   UNL     1     -11.263   8.404  71.705  1.00  0.00    -0.293 A  
HETATM    6  C   UNL     1     -11.271   7.752  70.478  1.00  0.00    -0.257 A  
HETATM    7  C   UNL     1     -11.114   6.375  70.323  1.00  0.00    -0.416 A  
HETATM    8  N   UNL     1     -11.462   8.755  69.568  1.00  0.00    -0.332 NA 
HETATM    9  C   UNL     1     -10.965   5.633  71.499  1.00  0.00    -0.268 A  
HETATM   10  C   UNL     1     -11.559   9.946  70.239  1.00  0.00    -0.250 A  
HETATM   11  H   UNL     1     -11.522   8.636  68.557  1.00  0.00     0.000 HD 
HETATM   12  N   UNL     1     -11.447   9.769  71.542  1.00  0.00    -0.366 NA 
BRANCH  10  13
HETATM   13  S   UNL     1     -11.758  11.445  69.377  1.00  0.00    -0.367 S  
HETATM   14  O   UNL     1     -12.055  12.462  70.445  1.00  0.00    -0.359 OA 
BRANCH  13  15
HETATM   15  C   UNL     1     -10.106  11.693  68.678  1.00  0.00    -0.198 C  
BRANCH  15  16
HETATM   16  C   UNL     1      -9.614  10.442  67.965  1.00  0.00    -0.143 A  
HETATM   17  N   UNL     1     -10.209  10.210  66.765  1.00  0.00    -0.221 NA 
HETATM   18  C   UNL     1      -9.824   9.122  66.062  1.00  0.00    -0.272 A  
HETATM   19  C   UNL     1      -8.881   8.206  66.496  1.00  0.00    -0.173 A  
HETATM   20  C   UNL     1      -8.268   8.445  67.734  1.00  0.00    -0.126 A  
HETATM   21  C   UNL     1      -8.560   6.998  65.663  1.00  0.00    -0.121 C  
HETATM   22  C   UNL     1      -7.932   9.935  69.779  1.00  0.00    -0.181 C  
HETATM   23  C   UNL     1      -8.604   9.598  68.481  1.00  0.00    -0.119 A  
BRANCH  20  24
HETATM   24  O   UNL     1      -7.253   7.572  68.048  1.00  0.00    -0.085 OA 
HETATM   25  C   UNL     1      -7.531   6.555  69.004  1.00  0.00    -0.095 C  
ENDBRANCH  20  24
ENDBRANCH  15  16
ENDBRANCH  13  15
ENDBRANCH  10  13
ENDBRANCH   2   3
TORSDOF 5
ENDMDL
MODEL      166
REMARK 921   NORMALIZED FREE ENERGY PREDICTED BY IDOCK:   -4.27 KCAL/MOL
REMARK 922        TOTAL FREE ENERGY PREDICTED BY IDOCK:   -6.16 KCAL/MOL
REMARK 923 INTER-LIGAND FREE ENERGY PREDICTED BY IDOCK:   -5.86 KCAL/MOL
REMARK 924 INTRA-LIGAND FREE ENERGY PREDICTED BY IDOCK:   -0.30 KCAL/MOL
REMARK 927      BINDING AFFINITY PREDICTED BY RF-SCORE:    0.00 PKD
ROOT
HETATM    1  C   UNL     1      -8.618   5.534  65.021  1.00  0.00    -0.128 C  
HETATM    2  O   UNL     1      -8.060   6.841  65.069  1.00  0.00    -0.127 OA 
ENDROOT
BRANCH   2   3
HETATM    3  C   UNL     1      -8.826   7.793  65.697  1.00  0.00    -0.065 A  
HETATM    4  C   UNL     1      -8.662   9.180  65.551  1.00  0.00    -0.210 A  
HETATM    5  C   UNL     1      -9.487  10.041  66.297  1.00  0.00    -0.191 A  
HETATM    6  C   UNL     1     -10.433   9.485  67.149  1.00  0.00    -0.253 A  
HETATM    7  C   UNL     1     -10.628   8.113  67.311  1.00  0.00    -0.344 A  
HETATM    8  N   UNL     1     -11.045  10.565  67.721  1.00  0.00    -0.309 NA 
HETATM    9  C   UNL     1      -9.786   7.276  66.572  1.00  0.00    -0.202 A  
HETATM   10  C   UNL     1     -10.480  11.709  67.219  1.00  0.00    -0.216 A  
HETATM   11  H   UNL     1     -11.799  10.527  68.407  1.00  0.00     0.000 HD 
HETATM   12  N   UNL     1      -9.524  11.427  66.353  1.00  0.00    -0.198 NA 
BRANCH  10  13
HETATM   13  S   UNL     1     -11.057  13.279  67.700  1.00  0.00    -0.280 S  
HETATM   14  O   UNL     1     -12.031  13.004  68.812  1.00  0.00    -0.314 OA 
BRANCH  13  15
HETATM   15  C   UNL     1      -9.545  14.052  68.329  1.00  0.00    -0.224 C  
BRANCH  15  16
HETATM   16  C   UNL     1      -9.631  15.570  68.264  1.00  0.00    -0.201 A  
HETATM   17  N   UNL     1     -10.867  16.050  67.964  1.00  0.00    -0.324 NA 
HETATM   18  C   UNL     1     -11.031  17.389  67.893  1.00  0.00    -0.155 A  
HETATM   19  C   UNL     1     -10.014  18.311  68.077  1.00  0.00    -0.362 A  
HETATM   20  C   UNL     1      -8.740  17.815  68.386  1.00  0.00    -0.292 A  
HETATM   21  C   UNL     1     -10.289  19.779  67.925  1.00  0.00    -0.569 C  
HETATM   22  C   UNL     1      -7.205  15.845  68.911  1.00  0.00    -0.158 C  
HETATM   23  C   UNL     1      -8.533  16.423  68.520  1.00  0.00    -0.211 A  
BRANCH  20  24
HETATM   24  O   UNL     1      -7.808  18.782  68.681  1.00  0.00    -0.317 OA 
HETATM   25  C   UNL     1      -6.822  19.070  67.696  1.00  0.00    -0.212 C  
ENDBRANCH  20  24
ENDBRANCH  15  16
ENDBRANCH  13  15
ENDBRANCH  10  13
ENDBRANCH   2   3
TORSDOF 5
ENDMDL
MODEL      167
REMARK 921   NORMALIZED FREE ENERGY PREDICTED BY IDOCK:   -4.27 KCAL/MOL
REMARK 922        TOTAL FREE ENERGY PREDICTED BY IDOCK:   -6.16 KCAL/MOL
REMARK 923 INTER-LIGAND FREE ENERGY PREDICTED BY IDOCK:   -5.59 KCAL/MOL
REMARK 924 INTRA-LIGAND FREE ENERGY PREDICTED BY IDOCK:   -0.56 KCAL/MOL
REMARK 927      BINDING AFFINITY PREDICTED BY RF-SCORE:    0.00 PKD
ROOT
HETATM    1  C   UNL     1     -10.832   3.815  73.529  1.00  0.00    -0.233 C  
HETATM    2  O   UNL     1     -11.859   4.722  73.145  1.00  0.00    -0.257 OA 
ENDROOT
BRANCH   2   3
HETATM    3  C   UNL     1     -11.455   5.793  72.386  1.00  0.00    -0.288 A  
HETATM    4  C   UNL     1     -10.123   6.210  72.232  1.00  0.00    -0.201 A  
HETATM    5  C   UNL     1      -9.859   7.361  71.465  1.00  0.00    -0.173 A  
HETATM    6  C   UNL     1     -10.928   8.037  70.890  1.00  0.00    -0.243 A  
HETATM    7  C   UNL     1     -12.261   7.646  71.017  1.00  0.00    -0.261 A  
HETATM    8  N   UNL     1     -10.347   9.089  70.238  1.00  0.00    -0.197 NA 
HETATM    9  C   UNL     1     -12.501   6.510  71.797  1.00  0.00    -0.293 A  
HETATM   10  C   UNL     1      -8.990   9.026  70.423  1.00  0.00    -0.205 A  
HETATM   11  H   UNL     1     -10.841   9.803  69.702  1.00  0.00     0.000 HD 
HETATM   12  N   UNL     1      -8.659   7.989  71.170  1.00  0.00    -0.126 NA 
BRANCH  10  13
HETATM   13  S   UNL     1      -7.930  10.193  69.685  1.00  0.00    -0.157 S  
HETATM   14  O   UNL     1      -6.544   9.710  70.012  1.00  0.00    -0.055 OA 
BRANCH  13  15
HETATM   15  C   UNL     1      -8.304   9.972  67.927  1.00  0.00    -0.117 C  
BRANCH  15  16
HETATM   16  C   UNL     1      -9.286  11.025  67.432  1.00  0.00    -0.151 A  
HETATM   17  N   UNL     1     -10.011  11.621  68.416  1.00  0.00    -0.197 NA 
HETATM   18  C   UNL     1     -10.901  12.573  68.062  1.00  0.00    -0.225 A  
HETATM   19  C   UNL     1     -11.149  12.965  66.757  1.00  0.00    -0.315 A  
HETATM   20  C   UNL     1     -10.401  12.349  65.744  1.00  0.00    -0.263 A  
HETATM   21  C   UNL     1     -12.199  13.998  66.465  1.00  0.00    -0.485 C  
HETATM   22  C   UNL     1      -8.550  10.742  65.033  1.00  0.00    -0.115 C  
HETATM   23  C   UNL     1      -9.422  11.383  66.072  1.00  0.00    -0.245 A  
BRANCH  20  24
HETATM   24  O   UNL     1     -10.602  12.872  64.488  1.00  0.00    -0.337 OA 
HETATM   25  C   UNL     1     -11.370  12.102  63.570  1.00  0.00    -0.453 C  
ENDBRANCH  20  24
ENDBRANCH  15  16
ENDBRANCH  13  15
ENDBRANCH  10  13
ENDBRANCH   2   3
TORSDOF 5
ENDMDL
MODEL      168
REMARK 921   NORMALIZED FREE ENERGY PREDICTED BY IDOCK:   -4.27 KCAL/MOL
REMARK 922        TOTAL FREE ENERGY PREDICTED BY IDOCK:   -6.15 KCAL/MOL
REMARK 923 INTER-LIGAND FREE ENERGY PREDICTED BY IDOCK:   -5.84 KCAL/MOL
REMARK 924 INTRA-LIGAND FREE ENERGY PREDICTED BY IDOCK:   -0.32 KCAL/MOL
REMARK 927      BINDING AFFINITY PREDICTED BY RF-SCORE:    0.00 PKD
ROOT
HETATM    1  C   UNL     1     -14.346  15.287  72.272  1.00  0.00    -0.494 C  
HETATM    2  O   UNL     1     -14.296  13.867  72.347  1.00  0.00    -0.647 OA 
ENDROOT
BRANCH   2   3
HETATM    3  C   UNL     1     -13.380  13.259  71.523  1.00  0.00    -0.249 A  
HETATM    4  C   UNL     1     -12.915  11.943  71.674  1.00  0.00    -0.447 A  
HETATM    5  C   UNL     1     -11.934  11.466  70.784  1.00  0.00    -0.252 A  
HETATM    6  C   UNL     1     -11.466  12.317  69.791  1.00  0.00    -0.166 A  
HETATM    7  C   UNL     1     -11.912  13.627  69.609  1.00  0.00    -0.402 A  
HETATM    8  N   UNL     1     -10.535  11.572  69.122  1.00  0.00    -0.394 NA 
HETATM    9  C   UNL     1     -12.875  14.084  70.514  1.00  0.00    -0.284 A  
HETATM   10  C   UNL     1     -10.466  10.332  69.701  1.00  0.00    -0.253 A  
HETATM   11  H   UNL     1      -9.984  11.886  68.324  1.00  0.00     0.000 HD 
HETATM   12  N   UNL     1     -11.300  10.234  70.720  1.00  0.00    -0.345 NA 
BRANCH  10  13
HETATM   13  S   UNL     1      -9.408   9.104  69.066  1.00  0.00    -0.153 S  
HETATM   14  O   UNL     1      -8.199   9.142  69.959  1.00  0.00    -0.113 OA 
BRANCH  13  15
HETATM   15  C   UNL     1     -10.379   7.600  69.342  1.00  0.00    -0.214 C  
BRANCH  15  16
HETATM   16  C   UNL     1      -9.637   6.619  70.238  1.00  0.00    -0.161 A  
HETATM   17  N   UNL     1      -8.621   5.957  69.624  1.00  0.00    -0.120 NA 
HETATM   18  C   UNL     1      -7.906   5.072  70.352  1.00  0.00    -0.073 A  
HETATM   19  C   UNL     1      -8.157   4.769  71.680  1.00  0.00    -0.104 A  
HETATM   20  C   UNL     1      -9.206   5.451  72.312  1.00  0.00    -0.142 A  
HETATM   21  C   UNL     1      -7.335   3.729  72.386  1.00  0.00    -0.050 C  
HETATM   22  C   UNL     1     -11.037   7.227  72.250  1.00  0.00    -0.298 C  
HETATM   23  C   UNL     1      -9.949   6.423  71.603  1.00  0.00    -0.195 A  
BRANCH  20  24
HETATM   24  O   UNL     1      -9.321   5.200  73.659  1.00  0.00    -0.132 OA 
HETATM   25  C   UNL     1      -8.900   6.220  74.557  1.00  0.00    -0.147 C  
ENDBRANCH  20  24
ENDBRANCH  15  16
ENDBRANCH  13  15
ENDBRANCH  10  13
ENDBRANCH   2   3
TORSDOF 5
ENDMDL
MODEL      169
REMARK 921   NORMALIZED FREE ENERGY PREDICTED BY IDOCK:   -4.26 KCAL/MOL
REMARK 922        TOTAL FREE ENERGY PREDICTED BY IDOCK:   -6.15 KCAL/MOL
REMARK 923 INTER-LIGAND FREE ENERGY PREDICTED BY IDOCK:   -5.56 KCAL/MOL
REMARK 924 INTRA-LIGAND FREE ENERGY PREDICTED BY IDOCK:   -0.59 KCAL/MOL
REMARK 927      BINDING AFFINITY PREDICTED BY RF-SCORE:    0.00 PKD
ROOT
HETATM    1  C   UNL     1      -8.465   8.390  64.715  1.00  0.00    -0.101 C  
HETATM    2  O   UNL     1      -8.843   8.519  66.080  1.00  0.00    -0.153 OA 
ENDROOT
BRANCH   2   3
HETATM    3  C   UNL     1      -8.639   9.757  66.640  1.00  0.00    -0.128 A  
HETATM    4  C   UNL     1      -7.486  10.538  66.464  1.00  0.00    -0.128 A  
HETATM    5  C   UNL     1      -7.391  11.767  67.143  1.00  0.00    -0.146 A  
HETATM    6  C   UNL     1      -8.444  12.160  67.960  1.00  0.00    -0.170 A  
HETATM    7  C   UNL     1      -9.607  11.412  68.151  1.00  0.00    -0.190 A  
HETATM    8  N   UNL     1      -8.042  13.363  68.469  1.00  0.00    -0.247 NA 
HETATM    9  C   UNL     1      -9.672  10.187  67.480  1.00  0.00    -0.190 A  
HETATM   10  C   UNL     1      -6.803  13.662  67.966  1.00  0.00    -0.138 A  
HETATM   11  H   UNL     1      -8.576  13.942  69.117  1.00  0.00     0.000 HD 
HETATM   12  N   UNL     1      -6.374  12.710  67.158  1.00  0.00    -0.224 NA 
BRANCH  10  13
HETATM   13  S   UNL     1      -6.008  15.157  68.372  1.00  0.00    -0.114 S  
HETATM   14  O   UNL     1      -5.828  15.863  67.056  1.00  0.00    -0.329 OA 
BRANCH  13  15
HETATM   15  C   UNL     1      -7.262  15.978  69.389  1.00  0.00    -0.213 C  
BRANCH  15  16
HETATM   16  C   UNL     1      -8.034  17.015  68.586  1.00  0.00    -0.258 A  
HETATM   17  N   UNL     1      -9.121  16.524  67.934  1.00  0.00    -0.204 NA 
HETATM   18  C   UNL     1      -9.866  17.381  67.202  1.00  0.00    -0.278 A  
HETATM   19  C   UNL     1      -9.581  18.728  67.047  1.00  0.00    -0.329 A  
HETATM   20  C   UNL     1      -8.459  19.233  67.719  1.00  0.00    -0.305 A  
HETATM   21  C   UNL     1     -10.444  19.587  66.169  1.00  0.00    -0.613 C  
HETATM   22  C   UNL     1      -6.508  18.885  69.327  1.00  0.00    -0.311 C  
HETATM   23  C   UNL     1      -7.679  18.382  68.536  1.00  0.00    -0.321 A  
BRANCH  20  24
HETATM   24  O   UNL     1      -8.305  20.596  67.628  1.00  0.00    -0.241 OA 
HETATM   25  C   UNL     1      -7.159  21.084  66.938  1.00  0.00    -0.228 C  
ENDBRANCH  20  24
ENDBRANCH  15  16
ENDBRANCH  13  15
ENDBRANCH  10  13
ENDBRANCH   2   3
TORSDOF 5
ENDMDL
MODEL      170
REMARK 921   NORMALIZED FREE ENERGY PREDICTED BY IDOCK:   -4.23 KCAL/MOL
REMARK 922        TOTAL FREE ENERGY PREDICTED BY IDOCK:   -6.11 KCAL/MOL
REMARK 923 INTER-LIGAND FREE ENERGY PREDICTED BY IDOCK:   -5.75 KCAL/MOL
REMARK 924 INTRA-LIGAND FREE ENERGY PREDICTED BY IDOCK:   -0.36 KCAL/MOL
REMARK 927      BINDING AFFINITY PREDICTED BY RF-SCORE:    0.00 PKD
ROOT
HETATM    1  C   UNL     1      -9.522   3.710  64.318  1.00  0.00    -0.152 C  
HETATM    2  O   UNL     1      -8.602   4.491  65.071  1.00  0.00    -0.123 OA 
ENDROOT
BRANCH   2   3
HETATM    3  C   UNL     1      -9.157   5.471  65.858  1.00  0.00    -0.155 A  
HETATM    4  C   UNL     1      -8.511   6.657  66.238  1.00  0.00    -0.130 A  
HETATM    5  C   UNL     1      -9.183   7.551  67.093  1.00  0.00    -0.136 A  
HETATM    6  C   UNL     1     -10.461   7.222  67.528  1.00  0.00    -0.266 A  
HETATM    7  C   UNL     1     -11.135   6.056  67.163  1.00  0.00    -0.255 A  
HETATM    8  N   UNL     1     -10.819   8.267  68.334  1.00  0.00    -0.437 NA 
HETATM    9  C   UNL     1     -10.442   5.177  66.326  1.00  0.00    -0.341 A  
HETATM   10  C   UNL     1      -9.790   9.171  68.366  1.00  0.00    -0.164 A  
HETATM   11  H   UNL     1     -11.706   8.358  68.830  1.00  0.00     0.000 HD 
HETATM   12  N   UNL     1      -8.775   8.764  67.626  1.00  0.00    -0.135 NA 
BRANCH  10  13
HETATM   13  S   UNL     1      -9.929  10.655  69.266  1.00  0.00    -0.152 S  
HETATM   14  O   UNL     1      -8.839  11.535  68.721  1.00  0.00    -0.138 OA 
BRANCH  13  15
HETATM   15  C   UNL     1     -11.564  11.244  68.757  1.00  0.00    -0.316 C  
BRANCH  15  16
HETATM   16  C   UNL     1     -11.453  12.392  67.763  1.00  0.00    -0.324 A  
HETATM   17  N   UNL     1     -11.550  13.628  68.321  1.00  0.00    -0.316 NA 
HETATM   18  C   UNL     1     -11.455  14.703  67.508  1.00  0.00    -0.361 A  
HETATM   19  C   UNL     1     -11.293  14.632  66.134  1.00  0.00    -0.350 A  
HETATM   20  C   UNL     1     -11.194  13.356  65.560  1.00  0.00    -0.288 A  
HETATM   21  C   UNL     1     -11.251  15.887  65.312  1.00  0.00    -0.155 C  
HETATM   22  C   UNL     1     -11.071  10.821  65.824  1.00  0.00     0.138 C  
HETATM   23  C   UNL     1     -11.238  12.204  66.379  1.00  0.00    -0.380 A  
BRANCH  20  24
HETATM   24  O   UNL     1     -10.907  13.357  64.216  1.00  0.00    -0.392 OA 
HETATM   25  C   UNL     1     -11.957  13.011  63.319  1.00  0.00    -0.421 C  
ENDBRANCH  20  24
ENDBRANCH  15  16
ENDBRANCH  13  15
ENDBRANCH  10  13
ENDBRANCH   2   3
TORSDOF 5
ENDMDL
MODEL      171
REMARK 921   NORMALIZED FREE ENERGY PREDICTED BY IDOCK:   -4.23 KCAL/MOL
REMARK 922        TOTAL FREE ENERGY PREDICTED BY IDOCK:   -6.11 KCAL/MOL
REMARK 923 INTER-LIGAND FREE ENERGY PREDICTED BY IDOCK:   -6.00 KCAL/MOL
REMARK 924 INTRA-LIGAND FREE ENERGY PREDICTED BY IDOCK:   -0.10 KCAL/MOL
REMARK 927      BINDING AFFINITY PREDICTED BY RF-SCORE:    0.00 PKD
ROOT
HETATM    1  C   UNL     1     -13.562  15.838  72.965  1.00  0.00    -0.555 C  
HETATM    2  O   UNL     1     -14.152  14.578  72.669  1.00  0.00    -0.518 OA 
ENDROOT
BRANCH   2   3
HETATM    3  C   UNL     1     -13.447  13.778  71.802  1.00  0.00    -0.376 A  
HETATM    4  C   UNL     1     -13.232  12.402  71.973  1.00  0.00    -0.514 A  
HETATM    5  C   UNL     1     -12.445  11.717  71.029  1.00  0.00    -0.309 A  
HETATM    6  C   UNL     1     -11.912  12.431  69.963  1.00  0.00    -0.299 A  
HETATM    7  C   UNL     1     -12.113  13.797  69.758  1.00  0.00    -0.400 A  
HETATM    8  N   UNL     1     -11.206  11.499  69.255  1.00  0.00    -0.258 NA 
HETATM    9  C   UNL     1     -12.885  14.459  70.717  1.00  0.00    -0.417 A  
HETATM   10  C   UNL     1     -11.324  10.287  69.883  1.00  0.00    -0.290 A  
HETATM   11  H   UNL     1     -10.677  11.676  68.401  1.00  0.00     0.000 HD 
HETATM   12  N   UNL     1     -12.068  10.384  70.970  1.00  0.00    -0.357 NA 
BRANCH  10  13
HETATM   13  S   UNL     1     -10.584   8.858  69.219  1.00  0.00    -0.170 S  
HETATM   14  O   UNL     1      -9.674   9.367  68.136  1.00  0.00    -0.141 OA 
BRANCH  13  15
HETATM   15  C   UNL     1      -9.636   8.241  70.634  1.00  0.00    -0.171 C  
BRANCH  15  16
HETATM   16  C   UNL     1      -8.775   7.048  70.246  1.00  0.00    -0.144 A  
HETATM   17  N   UNL     1      -7.439   7.296  70.249  1.00  0.00    -0.082 NA 
HETATM   18  C   UNL     1      -6.603   6.286  69.922  1.00  0.00    -0.048 A  
HETATM   19  C   UNL     1      -7.017   5.017  69.554  1.00  0.00    -0.054 A  
HETATM   20  C   UNL     1      -8.396   4.762  69.551  1.00  0.00    -0.082 A  
HETATM   21  C   UNL     1      -6.009   3.977  69.158  1.00  0.00    -0.023 C  
HETATM   22  C   UNL     1     -10.784   5.536  70.010  1.00  0.00    -0.356 C  
HETATM   23  C   UNL     1      -9.306   5.775  69.934  1.00  0.00    -0.177 A  
BRANCH  20  24
HETATM   24  O   UNL     1      -8.734   3.453  69.302  1.00  0.00    -0.066 OA 
HETATM   25  C   UNL     1      -9.174   3.125  67.988  1.00  0.00    -0.198 C  
ENDBRANCH  20  24
ENDBRANCH  15  16
ENDBRANCH  13  15
ENDBRANCH  10  13
ENDBRANCH   2   3
TORSDOF 5
ENDMDL
MODEL      172
REMARK 921   NORMALIZED FREE ENERGY PREDICTED BY IDOCK:   -4.23 KCAL/MOL
REMARK 922        TOTAL FREE ENERGY PREDICTED BY IDOCK:   -6.11 KCAL/MOL
REMARK 923 INTER-LIGAND FREE ENERGY PREDICTED BY IDOCK:   -5.72 KCAL/MOL
REMARK 924 INTRA-LIGAND FREE ENERGY PREDICTED BY IDOCK:   -0.39 KCAL/MOL
REMARK 927      BINDING AFFINITY PREDICTED BY RF-SCORE:    0.00 PKD
ROOT
HETATM    1  C   UNL     1      -9.044   2.792  65.498  1.00  0.00    -0.137 C  
HETATM    2  O   UNL     1     -10.039   3.785  65.283  1.00  0.00    -0.147 OA 
ENDROOT
BRANCH   2   3
HETATM    3  C   UNL     1      -9.781   5.017  65.835  1.00  0.00    -0.166 A  
HETATM    4  C   UNL     1     -10.507   5.591  66.891  1.00  0.00    -0.348 A  
HETATM    5  C   UNL     1     -10.164   6.886  67.322  1.00  0.00    -0.220 A  
HETATM    6  C   UNL     1      -9.119   7.545  66.686  1.00  0.00    -0.158 A  
HETATM    7  C   UNL     1      -8.373   7.000  65.640  1.00  0.00    -0.137 A  
HETATM    8  N   UNL     1      -9.051   8.755  67.318  1.00  0.00    -0.131 NA 
HETATM    9  C   UNL     1      -8.742   5.720  65.217  1.00  0.00    -0.100 A  
HETATM   10  C   UNL     1     -10.018   8.799  68.289  1.00  0.00    -0.176 A  
HETATM   11  H   UNL     1      -8.391   9.502  67.103  1.00  0.00     0.000 HD 
HETATM   12  N   UNL     1     -10.717   7.679  68.316  1.00  0.00    -0.110 NA 
BRANCH  10  13
HETATM   13  S   UNL     1     -10.184  10.187  69.326  1.00  0.00    -0.237 S  
HETATM   14  O   UNL     1      -9.048  11.093  68.935  1.00  0.00    -0.164 OA 
BRANCH  13  15
HETATM   15  C   UNL     1     -11.775  10.862  68.788  1.00  0.00    -0.286 C  
BRANCH  15  16
HETATM   16  C   UNL     1     -11.690  12.365  68.557  1.00  0.00    -0.326 A  
HETATM   17  N   UNL     1     -11.683  13.107  69.696  1.00  0.00    -0.309 NA 
HETATM   18  C   UNL     1     -11.602  14.451  69.580  1.00  0.00    -0.304 A  
HETATM   19  C   UNL     1     -11.554  15.129  68.373  1.00  0.00    -0.356 A  
HETATM   20  C   UNL     1     -11.561  14.362  67.200  1.00  0.00    -0.386 A  
HETATM   21  C   UNL     1     -11.517  16.630  68.351  1.00  0.00    -0.023 C  
HETATM   22  C   UNL     1     -11.539  12.082  66.052  1.00  0.00    -0.371 C  
HETATM   23  C   UNL     1     -11.594  12.950  67.274  1.00  0.00    -0.416 A  
BRANCH  20  24
HETATM   24  O   UNL     1     -11.383  15.085  66.044  1.00  0.00    -0.338 OA 
HETATM   25  C   UNL     1     -10.067  15.154  65.507  1.00  0.00    -0.370 C  
ENDBRANCH  20  24
ENDBRANCH  15  16
ENDBRANCH  13  15
ENDBRANCH  10  13
ENDBRANCH   2   3
TORSDOF 5
ENDMDL
MODEL      173
REMARK 921   NORMALIZED FREE ENERGY PREDICTED BY IDOCK:   -4.23 KCAL/MOL
REMARK 922        TOTAL FREE ENERGY PREDICTED BY IDOCK:   -6.10 KCAL/MOL
REMARK 923 INTER-LIGAND FREE ENERGY PREDICTED BY IDOCK:   -6.55 KCAL/MOL
REMARK 924 INTRA-LIGAND FREE ENERGY PREDICTED BY IDOCK:    0.45 KCAL/MOL
REMARK 927      BINDING AFFINITY PREDICTED BY RF-SCORE:    0.00 PKD
ROOT
HETATM    1  C   UNL     1     -12.266  14.088  66.309  1.00  0.00    -0.462 C  
HETATM    2  O   UNL     1     -11.511  14.361  67.482  1.00  0.00    -0.314 OA 
ENDROOT
BRANCH   2   3
HETATM    3  C   UNL     1     -11.793  13.572  68.570  1.00  0.00    -0.362 A  
HETATM    4  C   UNL     1     -11.737  12.169  68.580  1.00  0.00    -0.382 A  
HETATM    5  C   UNL     1     -12.104  11.485  69.754  1.00  0.00    -0.306 A  
HETATM    6  C   UNL     1     -12.508  12.226  70.858  1.00  0.00    -0.276 A  
HETATM    7  C   UNL     1     -12.568  13.620  70.884  1.00  0.00    -0.421 A  
HETATM    8  N   UNL     1     -12.801  11.285  71.804  1.00  0.00    -0.405 NA 
HETATM    9  C   UNL     1     -12.213  14.277  69.702  1.00  0.00    -0.371 A  
HETATM   10  C   UNL     1     -12.575  10.042  71.274  1.00  0.00    -0.393 A  
HETATM   11  H   UNL     1     -13.134  11.476  72.750  1.00  0.00     0.000 HD 
HETATM   12  N   UNL     1     -12.154  10.126  70.025  1.00  0.00    -0.153 NA 
BRANCH  10  13
HETATM   13  S   UNL     1     -12.803   8.605  72.230  1.00  0.00    -0.360 S  
HETATM   14  O   UNL     1     -13.356   7.590  71.267  1.00  0.00    -0.323 OA 
BRANCH  13  15
HETATM   15  C   UNL     1     -11.102   8.201  72.701  1.00  0.00    -0.380 C  
BRANCH  15  16
HETATM   16  C   UNL     1     -10.475   7.217  71.723  1.00  0.00    -0.197 A  
HETATM   17  N   UNL     1     -11.311   6.228  71.309  1.00  0.00    -0.297 NA 
HETATM   18  C   UNL     1     -10.835   5.316  70.434  1.00  0.00    -0.047 A  
HETATM   19  C   UNL     1      -9.537   5.301  69.949  1.00  0.00    -0.241 A  
HETATM   20  C   UNL     1      -8.676   6.321  70.378  1.00  0.00    -0.146 A  
HETATM   21  C   UNL     1      -9.091   4.212  69.018  1.00  0.00    -0.187 C  
HETATM   22  C   UNL     1      -8.285   8.474  71.692  1.00  0.00    -0.209 C  
HETATM   23  C   UNL     1      -9.146   7.326  71.254  1.00  0.00    -0.146 A  
BRANCH  20  24
HETATM   24  O   UNL     1      -7.446   6.324  69.764  1.00  0.00    -0.077 OA 
HETATM   25  C   UNL     1      -7.278   7.166  68.629  1.00  0.00    -0.094 C  
ENDBRANCH  20  24
ENDBRANCH  15  16
ENDBRANCH  13  15
ENDBRANCH  10  13
ENDBRANCH   2   3
TORSDOF 5
ENDMDL
MODEL      174
REMARK 921   NORMALIZED FREE ENERGY PREDICTED BY IDOCK:   -4.23 KCAL/MOL
REMARK 922        TOTAL FREE ENERGY PREDICTED BY IDOCK:   -6.10 KCAL/MOL
REMARK 923 INTER-LIGAND FREE ENERGY PREDICTED BY IDOCK:   -5.83 KCAL/MOL
REMARK 924 INTRA-LIGAND FREE ENERGY PREDICTED BY IDOCK:   -0.27 KCAL/MOL
REMARK 927      BINDING AFFINITY PREDICTED BY RF-SCORE:    0.00 PKD
ROOT
HETATM    1  C   UNL     1     -10.022  17.447  66.221  1.00  0.00    -0.297 C  
HETATM    2  O   UNL     1     -10.761  17.288  67.427  1.00  0.00    -0.329 OA 
ENDROOT
BRANCH   2   3
HETATM    3  C   UNL     1     -10.803  16.013  67.936  1.00  0.00    -0.333 A  
HETATM    4  C   UNL     1      -9.860  15.009  67.665  1.00  0.00    -0.220 A  
HETATM    5  C   UNL     1     -10.057  13.729  68.216  1.00  0.00    -0.239 A  
HETATM    6  C   UNL     1     -11.178  13.510  69.008  1.00  0.00    -0.269 A  
HETATM    7  C   UNL     1     -12.129  14.487  69.303  1.00  0.00    -0.325 A  
HETATM    8  N   UNL     1     -11.083  12.194  69.367  1.00  0.00    -0.435 NA 
HETATM    9  C   UNL     1     -11.921  15.746  68.732  1.00  0.00    -0.226 A  
HETATM   10  C   UNL     1      -9.948  11.667  68.808  1.00  0.00    -0.135 A  
HETATM   11  H   UNL     1     -11.746  11.689  69.953  1.00  0.00     0.000 HD 
HETATM   12  N   UNL     1      -9.302  12.572  68.097  1.00  0.00    -0.207 NA 
BRANCH  10  13
HETATM   13  S   UNL     1      -9.490  10.013  69.102  1.00  0.00    -0.218 S  
HETATM   14  O   UNL     1      -9.977   9.724  70.496  1.00  0.00    -0.265 OA 
BRANCH  13  15
HETATM   15  C   UNL     1     -10.478   9.131  67.867  1.00  0.00    -0.237 C  
BRANCH  15  16
HETATM   16  C   UNL     1     -10.045   9.490  66.453  1.00  0.00    -0.258 A  
HETATM   17  N   UNL     1     -10.785  10.472  65.872  1.00  0.00    -0.063 NA 
HETATM   18  C   UNL     1     -10.462  10.856  64.618  1.00  0.00    -0.314 A  
HETATM   19  C   UNL     1      -9.441  10.295  63.868  1.00  0.00    -0.356 A  
HETATM   20  C   UNL     1      -8.679   9.283  64.468  1.00  0.00    -0.187 A  
HETATM   21  C   UNL     1      -9.195  10.758  62.461  1.00  0.00    -0.334 C  
HETATM   22  C   UNL     1      -8.124   7.851  66.506  1.00  0.00    -0.107 C  
HETATM   23  C   UNL     1      -8.949   8.883  65.797  1.00  0.00    -0.249 A  
BRANCH  20  24
HETATM   24  O   UNL     1      -7.605   8.859  63.721  1.00  0.00    -0.112 OA 
HETATM   25  C   UNL     1      -7.599   7.503  63.287  1.00  0.00    -0.118 C  
ENDBRANCH  20  24
ENDBRANCH  15  16
ENDBRANCH  13  15
ENDBRANCH  10  13
ENDBRANCH   2   3
TORSDOF 5
ENDMDL
MODEL      175
REMARK 921   NORMALIZED FREE ENERGY PREDICTED BY IDOCK:   -4.22 KCAL/MOL
REMARK 922        TOTAL FREE ENERGY PREDICTED BY IDOCK:   -6.09 KCAL/MOL
REMARK 923 INTER-LIGAND FREE ENERGY PREDICTED BY IDOCK:   -5.58 KCAL/MOL
REMARK 924 INTRA-LIGAND FREE ENERGY PREDICTED BY IDOCK:   -0.51 KCAL/MOL
REMARK 927      BINDING AFFINITY PREDICTED BY RF-SCORE:    0.00 PKD
ROOT
HETATM    1  C   UNL     1      -7.490  10.011  63.676  1.00  0.00    -0.137 C  
HETATM    2  O   UNL     1      -8.728   9.525  64.179  1.00  0.00    -0.195 OA 
ENDROOT
BRANCH   2   3
HETATM    3  C   UNL     1      -8.991   9.814  65.496  1.00  0.00    -0.176 A  
HETATM    4  C   UNL     1      -9.996   9.207  66.266  1.00  0.00    -0.352 A  
HETATM    5  C   UNL     1     -10.187   9.640  67.591  1.00  0.00    -0.216 A  
HETATM    6  C   UNL     1      -9.372  10.650  68.086  1.00  0.00    -0.151 A  
HETATM    7  C   UNL     1      -8.360  11.268  67.352  1.00  0.00    -0.137 A  
HETATM    8  N   UNL     1      -9.814  10.840  69.366  1.00  0.00    -0.407 NA 
HETATM    9  C   UNL     1      -8.199  10.834  66.032  1.00  0.00    -0.164 A  
HETATM   10  C   UNL     1     -10.845   9.971  69.609  1.00  0.00    -0.260 A  
HETATM   11  H   UNL     1      -9.438  11.517  70.030  1.00  0.00     0.000 HD 
HETATM   12  N   UNL     1     -11.103   9.229  68.548  1.00  0.00     0.029 NA 
BRANCH  10  13
HETATM   13  S   UNL     1     -11.616   9.910  71.169  1.00  0.00    -0.384 S  
HETATM   14  O   UNL     1     -12.765  10.874  71.065  1.00  0.00    -0.363 OA 
BRANCH  13  15
HETATM   15  C   UNL     1     -12.202   8.197  71.224  1.00  0.00    -0.279 C  
BRANCH  15  16
HETATM   16  C   UNL     1     -11.182   7.285  71.892  1.00  0.00    -0.248 A  
HETATM   17  N   UNL     1     -10.947   7.569  73.200  1.00  0.00    -0.392 NA 
HETATM   18  C   UNL     1     -10.060   6.801  73.869  1.00  0.00    -0.346 A  
HETATM   19  C   UNL     1      -9.348   5.757  73.304  1.00  0.00    -0.135 A  
HETATM   20  C   UNL     1      -9.591   5.465  71.954  1.00  0.00    -0.154 A  
HETATM   21  C   UNL     1      -8.344   4.996  74.121  1.00  0.00    -0.102 C  
HETATM   22  C   UNL     1     -10.892   5.898  69.802  1.00  0.00    -0.447 C  
HETATM   23  C   UNL     1     -10.548   6.210  71.228  1.00  0.00    -0.295 A  
BRANCH  20  24
HETATM   24  O   UNL     1      -8.950   4.341  71.489  1.00  0.00    -0.113 OA 
HETATM   25  C   UNL     1      -9.661   3.109  71.540  1.00  0.00    -0.157 C  
ENDBRANCH  20  24
ENDBRANCH  15  16
ENDBRANCH  13  15
ENDBRANCH  10  13
ENDBRANCH   2   3
TORSDOF 5
ENDMDL
MODEL      176
REMARK 921   NORMALIZED FREE ENERGY PREDICTED BY IDOCK:   -4.22 KCAL/MOL
REMARK 922        TOTAL FREE ENERGY PREDICTED BY IDOCK:   -6.09 KCAL/MOL
REMARK 923 INTER-LIGAND FREE ENERGY PREDICTED BY IDOCK:   -5.78 KCAL/MOL
REMARK 924 INTRA-LIGAND FREE ENERGY PREDICTED BY IDOCK:   -0.31 KCAL/MOL
REMARK 927      BINDING AFFINITY PREDICTED BY RF-SCORE:    0.00 PKD
ROOT
HETATM    1  C   UNL     1     -11.467   5.937  72.204  1.00  0.00    -0.276 C  
HETATM    2  O   UNL     1     -11.093   7.173  72.799  1.00  0.00    -0.275 OA 
ENDROOT
BRANCH   2   3
HETATM    3  C   UNL     1     -11.534   8.303  72.154  1.00  0.00    -0.361 A  
HETATM    4  C   UNL     1     -10.812   9.000  71.172  1.00  0.00    -0.364 A  
HETATM    5  C   UNL     1     -11.366  10.175  70.632  1.00  0.00    -0.352 A  
HETATM    6  C   UNL     1     -12.607  10.599  71.091  1.00  0.00    -0.423 A  
HETATM    7  C   UNL     1     -13.354   9.927  72.059  1.00  0.00    -0.532 A  
HETATM    8  N   UNL     1     -12.848  11.749  70.392  1.00  0.00     0.045 NA 
HETATM    9  C   UNL     1     -12.777   8.771  72.593  1.00  0.00    -0.286 A  
HETATM   10  C   UNL     1     -11.790  11.985  69.554  1.00  0.00    -0.326 A  
HETATM   11  H   UNL     1     -13.679  12.334  70.479  1.00  0.00     0.000 HD 
HETATM   12  N   UNL     1     -10.866  11.049  69.678  1.00  0.00    -0.221 NA 
BRANCH  10  13
HETATM   13  S   UNL     1     -11.788  13.351  68.475  1.00  0.00    -0.347 S  
HETATM   14  O   UNL     1     -11.456  14.528  69.350  1.00  0.00    -0.255 OA 
BRANCH  13  15
HETATM   15  C   UNL     1     -10.412  12.947  67.369  1.00  0.00    -0.233 C  
BRANCH  15  16
HETATM   16  C   UNL     1      -9.302  13.984  67.466  1.00  0.00    -0.209 A  
HETATM   17  N   UNL     1      -9.623  15.199  66.946  1.00  0.00    -0.231 NA 
HETATM   18  C   UNL     1      -8.695  16.179  66.998  1.00  0.00    -0.202 A  
HETATM   19  C   UNL     1      -7.422  16.023  67.520  1.00  0.00    -0.186 A  
HETATM   20  C   UNL     1      -7.092  14.770  68.055  1.00  0.00    -0.138 A  
HETATM   21  C   UNL     1      -6.445  17.163  67.484  1.00  0.00    -0.158 C  
HETATM   22  C   UNL     1      -7.769  12.391  68.685  1.00  0.00    -0.067 C  
HETATM   23  C   UNL     1      -8.049  13.729  68.068  1.00  0.00    -0.163 A  
BRANCH  20  24
HETATM   24  O   UNL     1      -5.864  14.718  68.671  1.00  0.00    -0.084 OA 
HETATM   25  C   UNL     1      -5.808  15.034  70.058  1.00  0.00    -0.135 C  
ENDBRANCH  20  24
ENDBRANCH  15  16
ENDBRANCH  13  15
ENDBRANCH  10  13
ENDBRANCH   2   3
TORSDOF 5
ENDMDL
MODEL      177
REMARK 921   NORMALIZED FREE ENERGY PREDICTED BY IDOCK:   -4.22 KCAL/MOL
REMARK 922        TOTAL FREE ENERGY PREDICTED BY IDOCK:   -6.09 KCAL/MOL
REMARK 923 INTER-LIGAND FREE ENERGY PREDICTED BY IDOCK:   -5.80 KCAL/MOL
REMARK 924 INTRA-LIGAND FREE ENERGY PREDICTED BY IDOCK:   -0.28 KCAL/MOL
REMARK 927      BINDING AFFINITY PREDICTED BY RF-SCORE:    0.00 PKD
ROOT
HETATM    1  C   UNL     1      -9.778  10.632  62.740  1.00  0.00    -0.242 C  
HETATM    2  O   UNL     1     -11.067  11.225  62.842  1.00  0.00     0.057 OA 
ENDROOT
BRANCH   2   3
HETATM    3  C   UNL     1     -11.170  12.279  63.718  1.00  0.00    -0.440 A  
HETATM    4  C   UNL     1     -10.100  13.088  64.129  1.00  0.00    -0.146 A  
HETATM    5  C   UNL     1     -10.342  14.102  65.074  1.00  0.00    -0.418 A  
HETATM    6  C   UNL     1     -11.633  14.263  65.563  1.00  0.00    -0.338 A  
HETATM    7  C   UNL     1     -12.720  13.481  65.170  1.00  0.00    -0.453 A  
HETATM    8  N   UNL     1     -11.529  15.298  66.450  1.00  0.00    -0.170 NA 
HETATM    9  C   UNL     1     -12.452  12.470  64.243  1.00  0.00    -0.520 A  
HETATM   10  C   UNL     1     -10.228  15.727  66.475  1.00  0.00    -0.286 A  
HETATM   11  H   UNL     1     -12.294  15.686  67.002  1.00  0.00     0.000 HD 
HETATM   12  N   UNL     1      -9.476  15.018  65.653  1.00  0.00    -0.238 NA 
BRANCH  10  13
HETATM   13  S   UNL     1      -9.747  17.073  67.469  1.00  0.00    -0.256 S  
HETATM   14  O   UNL     1     -10.983  17.923  67.584  1.00  0.00    -0.310 OA 
BRANCH  13  15
HETATM   15  C   UNL     1      -9.366  16.256  69.039  1.00  0.00    -0.254 C  
BRANCH  15  16
HETATM   16  C   UNL     1      -9.994  14.871  69.110  1.00  0.00    -0.211 A  
HETATM   17  N   UNL     1     -11.292  14.865  69.514  1.00  0.00    -0.266 NA 
HETATM   18  C   UNL     1     -11.928  13.676  69.597  1.00  0.00    -0.343 A  
HETATM   19  C   UNL     1     -11.336  12.453  69.325  1.00  0.00    -0.315 A  
HETATM   20  C   UNL     1      -9.997  12.461  68.909  1.00  0.00     0.079 A  
HETATM   21  C   UNL     1     -12.115  11.181  69.498  1.00  0.00    -0.396 C  
HETATM   22  C   UNL     1      -7.896  13.755  68.257  1.00  0.00    -0.144 C  
HETATM   23  C   UNL     1      -9.307  13.687  68.760  1.00  0.00     0.034 A  
BRANCH  20  24
HETATM   24  O   UNL     1      -9.509  11.232  68.533  1.00  0.00    -0.182 OA 
HETATM   25  C   UNL     1      -8.498  10.648  69.348  1.00  0.00    -0.044 C  
ENDBRANCH  20  24
ENDBRANCH  15  16
ENDBRANCH  13  15
ENDBRANCH  10  13
ENDBRANCH   2   3
TORSDOF 5
ENDMDL
MODEL      178
REMARK 921   NORMALIZED FREE ENERGY PREDICTED BY IDOCK:   -4.21 KCAL/MOL
REMARK 922        TOTAL FREE ENERGY PREDICTED BY IDOCK:   -6.07 KCAL/MOL
REMARK 923 INTER-LIGAND FREE ENERGY PREDICTED BY IDOCK:   -5.94 KCAL/MOL
REMARK 924 INTRA-LIGAND FREE ENERGY PREDICTED BY IDOCK:   -0.13 KCAL/MOL
REMARK 927      BINDING AFFINITY PREDICTED BY RF-SCORE:    0.00 PKD
ROOT
HETATM    1  C   UNL     1      -5.560  17.401  70.134  1.00  0.00    -0.246 C  
HETATM    2  O   UNL     1      -6.028  16.081  69.885  1.00  0.00    -0.159 OA 
ENDROOT
BRANCH   2   3
HETATM    3  C   UNL     1      -7.142  15.984  69.087  1.00  0.00    -0.197 A  
HETATM    4  C   UNL     1      -7.744  14.779  68.692  1.00  0.00    -0.130 A  
HETATM    5  C   UNL     1      -8.853  14.828  67.827  1.00  0.00    -0.175 A  
HETATM    6  C   UNL     1      -9.308  16.069  67.398  1.00  0.00    -0.217 A  
HETATM    7  C   UNL     1      -8.738  17.285  67.777  1.00  0.00    -0.226 A  
HETATM    8  N   UNL     1     -10.363  15.774  66.579  1.00  0.00    -0.286 NA 
HETATM    9  C   UNL     1      -7.628  17.211  68.623  1.00  0.00    -0.258 A  
HETATM   10  C   UNL     1     -10.519  14.413  66.535  1.00  0.00    -0.289 A  
HETATM   11  H   UNL     1     -10.939  16.454  66.083  1.00  0.00     0.000 HD 
HETATM   12  N   UNL     1      -9.613  13.805  67.279  1.00  0.00    -0.230 NA 
BRANCH  10  13
HETATM   13  S   UNL     1     -11.808  13.688  65.618  1.00  0.00    -0.387 S  
HETATM   14  O   UNL     1     -12.281  14.779  64.696  1.00  0.00    -0.442 OA 
BRANCH  13  15
HETATM   15  C   UNL     1     -10.930  12.394  64.705  1.00  0.00    -0.305 C  
BRANCH  15  16
HETATM   16  C   UNL     1     -10.708  11.160  65.569  1.00  0.00    -0.185 A  
HETATM   17  N   UNL     1     -11.388  11.170  66.745  1.00  0.00    -0.346 NA 
HETATM   18  C   UNL     1     -11.252  10.108  67.569  1.00  0.00    -0.047 A  
HETATM   19  C   UNL     1     -10.439   9.017  67.309  1.00  0.00    -0.343 A  
HETATM   20  C   UNL     1      -9.737   9.009  66.095  1.00  0.00    -0.283 A  
HETATM   21  C   UNL     1     -10.316   7.909  68.315  1.00  0.00    -0.239 C  
HETATM   22  C   UNL     1      -9.212  10.085  63.841  1.00  0.00    -0.317 C  
HETATM   23  C   UNL     1      -9.889  10.076  65.180  1.00  0.00    -0.388 A  
BRANCH  20  24
HETATM   24  O   UNL     1      -9.052   7.844  65.840  1.00  0.00    -0.161 OA 
HETATM   25  C   UNL     1      -7.670   7.805  66.182  1.00  0.00    -0.089 C  
ENDBRANCH  20  24
ENDBRANCH  15  16
ENDBRANCH  13  15
ENDBRANCH  10  13
ENDBRANCH   2   3
TORSDOF 5
ENDMDL
MODEL      179
REMARK 921   NORMALIZED FREE ENERGY PREDICTED BY IDOCK:   -4.20 KCAL/MOL
REMARK 922        TOTAL FREE ENERGY PREDICTED BY IDOCK:   -6.06 KCAL/MOL
REMARK 923 INTER-LIGAND FREE ENERGY PREDICTED BY IDOCK:   -5.90 KCAL/MOL
REMARK 924 INTRA-LIGAND FREE ENERGY PREDICTED BY IDOCK:   -0.17 KCAL/MOL
REMARK 927      BINDING AFFINITY PREDICTED BY RF-SCORE:    0.00 PKD
ROOT
HETATM    1  C   UNL     1     -12.724  15.508  70.681  1.00  0.00    -0.436 C  
HETATM    2  O   UNL     1     -12.295  15.624  69.329  1.00  0.00    -0.246 OA 
ENDROOT
BRANCH   2   3
HETATM    3  C   UNL     1     -11.991  14.442  68.698  1.00  0.00    -0.297 A  
HETATM    4  C   UNL     1     -11.723  13.229  69.350  1.00  0.00    -0.383 A  
HETATM    5  C   UNL     1     -11.373  12.107  68.576  1.00  0.00    -0.275 A  
HETATM    6  C   UNL     1     -11.308  12.245  67.195  1.00  0.00    -0.335 A  
HETATM    7  C   UNL     1     -11.577  13.433  66.514  1.00  0.00    -0.394 A  
HETATM    8  N   UNL     1     -10.939  11.006  66.752  1.00  0.00    -0.251 NA 
HETATM    9  C   UNL     1     -11.906  14.538  67.305  1.00  0.00    -0.419 A  
HETATM   10  C   UNL     1     -10.797  10.176  67.833  1.00  0.00    -0.284 A  
HETATM   11  H   UNL     1     -10.793  10.742  65.777  1.00  0.00     0.000 HD 
HETATM   12  N   UNL     1     -11.048  10.815  68.960  1.00  0.00    -0.233 NA 
BRANCH  10  13
HETATM   13  S   UNL     1     -10.377   8.499  67.626  1.00  0.00    -0.248 S  
HETATM   14  O   UNL     1      -8.928   8.514  67.226  1.00  0.00    -0.128 OA 
BRANCH  13  15
HETATM   15  C   UNL     1     -10.586   7.855  69.306  1.00  0.00    -0.188 C  
BRANCH  15  16
HETATM   16  C   UNL     1     -10.183   6.390  69.392  1.00  0.00    -0.192 A  
HETATM   17  N   UNL     1     -10.069   5.769  68.188  1.00  0.00    -0.152 NA 
HETATM   18  C   UNL     1      -9.707   4.467  68.175  1.00  0.00    -0.127 A  
HETATM   19  C   UNL     1      -9.471   3.711  69.311  1.00  0.00    -0.244 A  
HETATM   20  C   UNL     1      -9.589   4.353  70.552  1.00  0.00    -0.199 A  
HETATM   21  C   UNL     1      -9.124   2.255  69.191  1.00  0.00    -0.183 C  
HETATM   22  C   UNL     1      -9.993   6.477  71.908  1.00  0.00    -0.192 C  
HETATM   23  C   UNL     1      -9.917   5.727  70.612  1.00  0.00    -0.251 A  
BRANCH  20  24
HETATM   24  O   UNL     1      -9.219   3.584  71.630  1.00  0.00    -0.106 OA 
HETATM   25  C   UNL     1     -10.252   2.933  72.361  1.00  0.00    -0.134 C  
ENDBRANCH  20  24
ENDBRANCH  15  16
ENDBRANCH  13  15
ENDBRANCH  10  13
ENDBRANCH   2   3
TORSDOF 5
ENDMDL
MODEL      180
REMARK 921   NORMALIZED FREE ENERGY PREDICTED BY IDOCK:   -4.19 KCAL/MOL
REMARK 922        TOTAL FREE ENERGY PREDICTED BY IDOCK:   -6.06 KCAL/MOL
REMARK 923 INTER-LIGAND FREE ENERGY PREDICTED BY IDOCK:   -5.37 KCAL/MOL
REMARK 924 INTRA-LIGAND FREE ENERGY PREDICTED BY IDOCK:   -0.69 KCAL/MOL
REMARK 927      BINDING AFFINITY PREDICTED BY RF-SCORE:    0.00 PKD
ROOT
HETATM    1  C   UNL     1     -14.004  13.173  72.528  1.00  0.00    -0.303 C  
HETATM    2  O   UNL     1     -13.041  14.115  72.071  1.00  0.00    -0.342 OA 
ENDROOT
BRANCH   2   3
HETATM    3  C   UNL     1     -12.614  13.951  70.776  1.00  0.00    -0.354 A  
HETATM    4  C   UNL     1     -12.529  12.718  70.109  1.00  0.00    -0.126 A  
HETATM    5  C   UNL     1     -12.022  12.693  68.796  1.00  0.00    -0.237 A  
HETATM    6  C   UNL     1     -11.628  13.890  68.211  1.00  0.00    -0.337 A  
HETATM    7  C   UNL     1     -11.707  15.132  68.842  1.00  0.00    -0.357 A  
HETATM    8  N   UNL     1     -11.183  13.525  66.971  1.00  0.00    -0.303 NA 
HETATM    9  C   UNL     1     -12.197  15.131  70.151  1.00  0.00    -0.395 A  
HETATM   10  C   UNL     1     -11.316  12.168  66.836  1.00  0.00    -0.343 A  
HETATM   11  H   UNL     1     -10.813  14.159  66.262  1.00  0.00     0.000 HD 
HETATM   12  N   UNL     1     -11.819  11.628  67.931  1.00  0.00    -0.596 NA 
BRANCH  10  13
HETATM   13  S   UNL     1     -10.887  11.368  65.351  1.00  0.00    -0.184 S  
HETATM   14  O   UNL     1     -11.308  12.323  64.268  1.00  0.00    -0.313 OA 
BRANCH  13  15
HETATM   15  C   UNL     1      -9.082  11.285  65.484  1.00  0.00    -0.170 C  
BRANCH  15  16
HETATM   16  C   UNL     1      -8.649  10.888  66.889  1.00  0.00    -0.136 A  
HETATM   17  N   UNL     1      -8.982   9.618  67.240  1.00  0.00    -0.134 NA 
HETATM   18  C   UNL     1      -8.627   9.183  68.469  1.00  0.00    -0.129 A  
HETATM   19  C   UNL     1      -7.970   9.957  69.412  1.00  0.00    -0.135 A  
HETATM   20  C   UNL     1      -7.629  11.267  69.048  1.00  0.00    -0.106 A  
HETATM   21  C   UNL     1      -7.667   9.397  70.771  1.00  0.00    -0.144 C  
HETATM   22  C   UNL     1      -7.535  13.118  67.293  1.00  0.00    -0.076 C  
HETATM   23  C   UNL     1      -7.935  11.748  67.754  1.00  0.00    -0.141 A  
BRANCH  20  24
HETATM   24  O   UNL     1      -6.869  11.938  69.977  1.00  0.00     0.076 OA 
HETATM   25  C   UNL     1      -5.458  11.951  69.788  1.00  0.00    -0.087 C  
ENDBRANCH  20  24
ENDBRANCH  15  16
ENDBRANCH  13  15
ENDBRANCH  10  13
ENDBRANCH   2   3
TORSDOF 5
ENDMDL
MODEL      181
REMARK 921   NORMALIZED FREE ENERGY PREDICTED BY IDOCK:   -4.19 KCAL/MOL
REMARK 922        TOTAL FREE ENERGY PREDICTED BY IDOCK:   -6.06 KCAL/MOL
REMARK 923 INTER-LIGAND FREE ENERGY PREDICTED BY IDOCK:   -6.14 KCAL/MOL
REMARK 924 INTRA-LIGAND FREE ENERGY PREDICTED BY IDOCK:    0.09 KCAL/MOL
REMARK 927      BINDING AFFINITY PREDICTED BY RF-SCORE:    0.00 PKD
ROOT
HETATM    1  C   UNL     1      -9.636   3.035  72.179  1.00  0.00    -0.140 C  
HETATM    2  O   UNL     1     -10.099   3.958  73.157  1.00  0.00    -0.132 OA 
ENDROOT
BRANCH   2   3
HETATM    3  C   UNL     1     -10.156   5.271  72.757  1.00  0.00    -0.168 A  
HETATM    4  C   UNL     1     -10.265   5.700  71.425  1.00  0.00    -0.270 A  
HETATM    5  C   UNL     1     -10.260   7.082  71.156  1.00  0.00    -0.195 A  
HETATM    6  C   UNL     1     -10.148   7.967  72.221  1.00  0.00    -0.236 A  
HETATM    7  C   UNL     1     -10.046   7.575  73.556  1.00  0.00    -0.378 A  
HETATM    8  N   UNL     1     -10.161   9.201  71.634  1.00  0.00    -0.341 NA 
HETATM    9  C   UNL     1     -10.037   6.197  73.798  1.00  0.00    -0.245 A  
HETATM   10  C   UNL     1     -10.279   9.042  70.278  1.00  0.00    -0.201 A  
HETATM   11  H   UNL     1     -10.094  10.094  72.124  1.00  0.00     0.000 HD 
HETATM   12  N   UNL     1     -10.337   7.764  69.951  1.00  0.00    -0.218 NA 
BRANCH  10  13
HETATM   13  S   UNL     1     -10.377  10.421  69.219  1.00  0.00    -0.241 S  
HETATM   14  O   UNL     1     -10.473   9.835  67.837  1.00  0.00    -0.208 OA 
BRANCH  13  15
HETATM   15  C   UNL     1     -11.947  11.166  69.726  1.00  0.00    -0.357 C  
BRANCH  15  16
HETATM   16  C   UNL     1     -11.936  12.674  69.520  1.00  0.00    -0.270 A  
HETATM   17  N   UNL     1     -11.502  13.070  68.294  1.00  0.00    -0.290 NA 
HETATM   18  C   UNL     1     -11.468  14.394  68.027  1.00  0.00    -0.310 A  
HETATM   19  C   UNL     1     -11.819  15.383  68.932  1.00  0.00    -0.350 A  
HETATM   20  C   UNL     1     -12.265  14.973  70.196  1.00  0.00    -0.343 A  
HETATM   21  C   UNL     1     -11.696  16.831  68.554  1.00  0.00     0.406 C  
HETATM   22  C   UNL     1     -12.897  13.105  71.816  1.00  0.00    -0.358 C  
HETATM   23  C   UNL     1     -12.365  13.596  70.502  1.00  0.00    -0.425 A  
BRANCH  20  24
HETATM   24  O   UNL     1     -12.717  15.993  71.000  1.00  0.00    -0.375 OA 
HETATM   25  C   UNL     1     -12.299  15.994  72.361  1.00  0.00    -0.497 C  
ENDBRANCH  20  24
ENDBRANCH  15  16
ENDBRANCH  13  15
ENDBRANCH  10  13
ENDBRANCH   2   3
TORSDOF 5
ENDMDL
MODEL      182
REMARK 921   NORMALIZED FREE ENERGY PREDICTED BY IDOCK:   -4.19 KCAL/MOL
REMARK 922        TOTAL FREE ENERGY PREDICTED BY IDOCK:   -6.06 KCAL/MOL
REMARK 923 INTER-LIGAND FREE ENERGY PREDICTED BY IDOCK:   -5.64 KCAL/MOL
REMARK 924 INTRA-LIGAND FREE ENERGY PREDICTED BY IDOCK:   -0.41 KCAL/MOL
REMARK 927      BINDING AFFINITY PREDICTED BY RF-SCORE:    0.00 PKD
ROOT
HETATM    1  C   UNL     1     -12.918  12.737  71.520  1.00  0.00    -0.292 C  
HETATM    2  O   UNL     1     -13.398  11.611  72.245  1.00  0.00    -0.443 OA 
ENDROOT
BRANCH   2   3
HETATM    3  C   UNL     1     -12.998  10.384  71.775  1.00  0.00    -0.475 A  
HETATM    4  C   UNL     1     -11.881  10.165  70.954  1.00  0.00    -0.468 A  
HETATM    5  C   UNL     1     -11.618   8.858  70.503  1.00  0.00    -0.160 A  
HETATM    6  C   UNL     1     -12.476   7.836  70.889  1.00  0.00    -0.059 A  
HETATM    7  C   UNL     1     -13.589   8.017  71.711  1.00  0.00    -0.395 A  
HETATM    8  N   UNL     1     -11.961   6.721  70.287  1.00  0.00    -0.609 NA 
HETATM    9  C   UNL     1     -13.839   9.326  72.133  1.00  0.00    -0.478 A  
HETATM   10  C   UNL     1     -10.845   7.080  69.578  1.00  0.00    -0.238 A  
HETATM   11  H   UNL     1     -12.345   5.779  70.354  1.00  0.00     0.000 HD 
HETATM   12  N   UNL     1     -10.609   8.375  69.683  1.00  0.00    -0.225 NA 
BRANCH  10  13
HETATM   13  S   UNL     1      -9.907   5.890  68.721  1.00  0.00    -0.150 S  
HETATM   14  O   UNL     1     -10.681   5.630  67.458  1.00  0.00    -0.243 OA 
BRANCH  13  15
HETATM   15  C   UNL     1      -8.379   6.800  68.377  1.00  0.00    -0.123 C  
BRANCH  15  16
HETATM   16  C   UNL     1      -8.387   7.383  66.971  1.00  0.00    -0.121 A  
HETATM   17  N   UNL     1      -8.949   8.618  66.879  1.00  0.00    -0.134 NA 
HETATM   18  C   UNL     1      -8.990   9.210  65.665  1.00  0.00    -0.203 A  
HETATM   19  C   UNL     1      -8.522   8.631  64.497  1.00  0.00    -0.128 A  
HETATM   20  C   UNL     1      -7.944   7.357  64.594  1.00  0.00    -0.127 A  
HETATM   21  C   UNL     1      -8.661   9.352  63.188  1.00  0.00    -0.222 C  
HETATM   22  C   UNL     1      -7.167   5.388  66.019  1.00  0.00    -0.076 C  
HETATM   23  C   UNL     1      -7.834   6.720  65.852  1.00  0.00    -0.103 A  
BRANCH  20  24
HETATM   24  O   UNL     1      -7.386   6.894  63.426  1.00  0.00    -0.067 OA 
HETATM   25  C   UNL     1      -8.071   5.853  62.736  1.00  0.00    -0.104 C  
ENDBRANCH  20  24
ENDBRANCH  15  16
ENDBRANCH  13  15
ENDBRANCH  10  13
ENDBRANCH   2   3
TORSDOF 5
ENDMDL
MODEL      183
REMARK 921   NORMALIZED FREE ENERGY PREDICTED BY IDOCK:   -4.18 KCAL/MOL
REMARK 922        TOTAL FREE ENERGY PREDICTED BY IDOCK:   -6.05 KCAL/MOL
REMARK 923 INTER-LIGAND FREE ENERGY PREDICTED BY IDOCK:   -5.58 KCAL/MOL
REMARK 924 INTRA-LIGAND FREE ENERGY PREDICTED BY IDOCK:   -0.46 KCAL/MOL
REMARK 927      BINDING AFFINITY PREDICTED BY RF-SCORE:    0.00 PKD
ROOT
HETATM    1  C   UNL     1     -11.542  15.919  64.420  1.00  0.00    -0.234 C  
HETATM    2  O   UNL     1     -10.613  16.512  65.319  1.00  0.00    -0.575 OA 
ENDROOT
BRANCH   2   3
HETATM    3  C   UNL     1      -9.967  15.645  66.167  1.00  0.00    -0.312 A  
HETATM    4  C   UNL     1      -9.723  14.290  65.895  1.00  0.00    -0.289 A  
HETATM    5  C   UNL     1      -9.095  13.504  66.880  1.00  0.00    -0.239 A  
HETATM    6  C   UNL     1      -8.741  14.103  68.083  1.00  0.00    -0.181 A  
HETATM    7  C   UNL     1      -8.961  15.448  68.382  1.00  0.00    -0.189 A  
HETATM    8  N   UNL     1      -8.178  13.090  68.808  1.00  0.00    -0.349 NA 
HETATM    9  C   UNL     1      -9.601  16.204  67.395  1.00  0.00    -0.229 A  
HETATM   10  C   UNL     1      -8.200  11.945  68.055  1.00  0.00    -0.157 A  
HETATM   11  H   UNL     1      -7.803  13.172  69.753  1.00  0.00     0.000 HD 
HETATM   12  N   UNL     1      -8.756  12.160  66.877  1.00  0.00    -0.192 NA 
BRANCH  10  13
HETATM   13  S   UNL     1      -7.514  10.463  68.658  1.00  0.00    -0.094 S  
HETATM   14  O   UNL     1      -7.723  10.523  70.146  1.00  0.00    -0.090 OA 
BRANCH  13  15
HETATM   15  C   UNL     1      -8.589   9.220  67.895  1.00  0.00    -0.120 C  
BRANCH  15  16
HETATM   16  C   UNL     1      -9.298   8.381  68.948  1.00  0.00    -0.147 A  
HETATM   17  N   UNL     1      -8.615   7.271  69.335  1.00  0.00    -0.133 NA 
HETATM   18  C   UNL     1      -9.173   6.475  70.272  1.00  0.00    -0.155 A  
HETATM   19  C   UNL     1     -10.413   6.696  70.848  1.00  0.00    -0.249 A  
HETATM   20  C   UNL     1     -11.117   7.840  70.448  1.00  0.00    -0.251 A  
HETATM   21  C   UNL     1     -10.968   5.720  71.846  1.00  0.00    -0.318 C  
HETATM   22  C   UNL     1     -11.231  10.000  69.093  1.00  0.00    -0.197 C  
HETATM   23  C   UNL     1     -10.549   8.730  69.507  1.00  0.00    -0.224 A  
BRANCH  20  24
HETATM   24  O   UNL     1     -12.278   8.070  71.148  1.00  0.00    -0.302 OA 
HETATM   25  C   UNL     1     -12.233   9.024  72.203  1.00  0.00    -0.357 C  
ENDBRANCH  20  24
ENDBRANCH  15  16
ENDBRANCH  13  15
ENDBRANCH  10  13
ENDBRANCH   2   3
TORSDOF 5
ENDMDL
MODEL      184
REMARK 921   NORMALIZED FREE ENERGY PREDICTED BY IDOCK:   -4.16 KCAL/MOL
REMARK 922        TOTAL FREE ENERGY PREDICTED BY IDOCK:   -6.02 KCAL/MOL
REMARK 923 INTER-LIGAND FREE ENERGY PREDICTED BY IDOCK:   -5.75 KCAL/MOL
REMARK 924 INTRA-LIGAND FREE ENERGY PREDICTED BY IDOCK:   -0.26 KCAL/MOL
REMARK 927      BINDING AFFINITY PREDICTED BY RF-SCORE:    0.00 PKD
ROOT
HETATM    1  C   UNL     1      -8.395  10.188  62.909  1.00  0.00    -0.167 C  
HETATM    2  O   UNL     1      -9.788  10.262  63.183  1.00  0.00    -0.253 OA 
ENDROOT
BRANCH   2   3
HETATM    3  C   UNL     1     -10.211  11.408  63.813  1.00  0.00    -0.382 A  
HETATM    4  C   UNL     1      -9.583  11.990  64.925  1.00  0.00    -0.040 A  
HETATM    5  C   UNL     1     -10.158  13.138  65.503  1.00  0.00    -0.261 A  
HETATM    6  C   UNL     1     -11.325  13.649  64.949  1.00  0.00    -0.344 A  
HETATM    7  C   UNL     1     -11.970  13.099  63.840  1.00  0.00    -0.550 A  
HETATM    8  N   UNL     1     -11.622  14.730  65.731  1.00  0.00    -0.327 NA 
HETATM    9  C   UNL     1     -11.390  11.951  63.293  1.00  0.00    -0.373 A  
HETATM   10  C   UNL     1     -10.663  14.846  66.703  1.00  0.00    -0.312 A  
HETATM   11  H   UNL     1     -12.425  15.348  65.612  1.00  0.00     0.000 HD 
HETATM   12  N   UNL     1      -9.759  13.890  66.597  1.00  0.00    -0.280 NA 
BRANCH  10  13
HETATM   13  S   UNL     1     -10.707  16.153  67.852  1.00  0.00    -0.322 S  
HETATM   14  O   UNL     1     -12.171  16.407  68.086  1.00  0.00     0.476 OA 
BRANCH  13  15
HETATM   15  C   UNL     1      -9.933  15.395  69.304  1.00  0.00    -0.256 C  
BRANCH  15  16
HETATM   16  C   UNL     1     -10.951  14.628  70.136  1.00  0.00    -0.076 A  
HETATM   17  N   UNL     1     -11.123  13.333  69.758  1.00  0.00     0.043 NA 
HETATM   18  C   UNL     1     -12.005  12.579  70.450  1.00  0.00    -0.251 A  
HETATM   19  C   UNL     1     -12.771  13.045  71.506  1.00  0.00    -0.349 A  
HETATM   20  C   UNL     1     -12.594  14.380  71.894  1.00  0.00    -0.337 A  
HETATM   21  C   UNL     1     -13.763  12.139  72.177  1.00  0.00    -0.145 C  
HETATM   22  C   UNL     1     -11.370  16.607  71.648  1.00  0.00     0.179 C  
HETATM   23  C   UNL     1     -11.645  15.193  71.231  1.00  0.00    -0.406 A  
BRANCH  20  24
HETATM   24  O   UNL     1     -13.287  14.743  73.024  1.00  0.00    -0.478 OA 
HETATM   25  C   UNL     1     -12.530  15.102  74.175  1.00  0.00    -0.540 C  
ENDBRANCH  20  24
ENDBRANCH  15  16
ENDBRANCH  13  15
ENDBRANCH  10  13
ENDBRANCH   2   3
TORSDOF 5
ENDMDL
MODEL      185
REMARK 921   NORMALIZED FREE ENERGY PREDICTED BY IDOCK:   -4.16 KCAL/MOL
REMARK 922        TOTAL FREE ENERGY PREDICTED BY IDOCK:   -6.02 KCAL/MOL
REMARK 923 INTER-LIGAND FREE ENERGY PREDICTED BY IDOCK:   -5.43 KCAL/MOL
REMARK 924 INTRA-LIGAND FREE ENERGY PREDICTED BY IDOCK:   -0.58 KCAL/MOL
REMARK 927      BINDING AFFINITY PREDICTED BY RF-SCORE:    0.00 PKD
ROOT
HETATM    1  C   UNL     1     -12.238  14.234  69.231  1.00  0.00    -0.252 C  
HETATM    2  O   UNL     1     -12.437  13.595  70.486  1.00  0.00    -0.338 OA 
ENDROOT
BRANCH   2   3
HETATM    3  C   UNL     1     -12.196  12.243  70.511  1.00  0.00    -0.300 A  
HETATM    4  C   UNL     1     -11.356  11.561  69.617  1.00  0.00    -0.329 A  
HETATM    5  C   UNL     1     -11.244  10.162  69.728  1.00  0.00    -0.272 A  
HETATM    6  C   UNL     1     -11.968   9.512  70.719  1.00  0.00    -0.252 A  
HETATM    7  C   UNL     1     -12.805  10.160  71.628  1.00  0.00    -0.559 A  
HETATM    8  N   UNL     1     -11.655   8.192  70.552  1.00  0.00    -0.438 NA 
HETATM    9  C   UNL     1     -12.914  11.547  71.489  1.00  0.00    -0.485 A  
HETATM   10  C   UNL     1     -10.778   8.077  69.505  1.00  0.00    -0.181 A  
HETATM   11  H   UNL     1     -12.014   7.420  71.114  1.00  0.00     0.000 HD 
HETATM   12  N   UNL     1     -10.510   9.257  68.976  1.00  0.00    -0.215 NA 
BRANCH  10  13
HETATM   13  S   UNL     1     -10.129   6.528  69.045  1.00  0.00    -0.175 S  
HETATM   14  O   UNL     1      -9.478   6.768  67.711  1.00  0.00    -0.120 OA 
BRANCH  13  15
HETATM   15  C   UNL     1      -8.891   6.247  70.337  1.00  0.00    -0.147 C  
BRANCH  15  16
HETATM   16  C   UNL     1      -9.341   5.165  71.309  1.00  0.00    -0.148 A  
HETATM   17  N   UNL     1     -10.417   5.505  72.067  1.00  0.00    -0.216 NA 
HETATM   18  C   UNL     1     -10.885   4.597  72.951  1.00  0.00    -0.221 A  
HETATM   19  C   UNL     1     -10.323   3.349  73.160  1.00  0.00    -0.244 A  
HETATM   20  C   UNL     1      -9.213   3.000  72.378  1.00  0.00    -0.098 A  
HETATM   21  C   UNL     1     -10.887   2.431  74.206  1.00  0.00    -0.180 C  
HETATM   22  C   UNL     1      -7.577   3.551  70.498  1.00  0.00    -0.040 C  
HETATM   23  C   UNL     1      -8.720   3.899  71.405  1.00  0.00    -0.129 A  
BRANCH  20  24
HETATM   24  O   UNL     1      -8.783   1.705  72.543  1.00  0.00    -0.060 OA 
HETATM   25  C   UNL     1      -7.592   1.497  73.295  1.00  0.00    -0.033 C  
ENDBRANCH  20  24
ENDBRANCH  15  16
ENDBRANCH  13  15
ENDBRANCH  10  13
ENDBRANCH   2   3
TORSDOF 5
ENDMDL
MODEL      186
REMARK 921   NORMALIZED FREE ENERGY PREDICTED BY IDOCK:   -4.15 KCAL/MOL
REMARK 922        TOTAL FREE ENERGY PREDICTED BY IDOCK:   -6.00 KCAL/MOL
REMARK 923 INTER-LIGAND FREE ENERGY PREDICTED BY IDOCK:   -5.89 KCAL/MOL
REMARK 924 INTRA-LIGAND FREE ENERGY PREDICTED BY IDOCK:   -0.11 KCAL/MOL
REMARK 927      BINDING AFFINITY PREDICTED BY RF-SCORE:    0.00 PKD
ROOT
HETATM    1  C   UNL     1     -13.916  14.599  72.497  1.00  0.00    -0.417 C  
HETATM    2  O   UNL     1     -13.303  13.320  72.398  1.00  0.00    -0.525 OA 
ENDROOT
BRANCH   2   3
HETATM    3  C   UNL     1     -12.736  13.023  71.183  1.00  0.00    -0.283 A  
HETATM    4  C   UNL     1     -12.320  11.743  70.783  1.00  0.00    -0.433 A  
HETATM    5  C   UNL     1     -11.705  11.594  69.525  1.00  0.00    -0.344 A  
HETATM    6  C   UNL     1     -11.536  12.720  68.729  1.00  0.00    -0.304 A  
HETATM    7  C   UNL     1     -11.944  14.004  69.093  1.00  0.00    -0.400 A  
HETATM    8  N   UNL     1     -10.912  12.247  67.608  1.00  0.00    -0.233 NA 
HETATM    9  C   UNL     1     -12.538  14.130  70.353  1.00  0.00    -0.397 A  
HETATM   10  C   UNL     1     -10.728  10.895  67.744  1.00  0.00    -0.235 A  
HETATM   11  H   UNL     1     -10.630  12.807  66.804  1.00  0.00     0.000 HD 
HETATM   12  N   UNL     1     -11.195  10.465  68.902  1.00  0.00    -0.243 NA 
BRANCH  10  13
HETATM   13  S   UNL     1     -10.001   9.958  66.471  1.00  0.00    -0.236 S  
HETATM   14  O   UNL     1      -8.739  10.699  66.123  1.00  0.00    -0.158 OA 
BRANCH  13  15
HETATM   15  C   UNL     1      -9.633   8.402  67.321  1.00  0.00    -0.165 C  
BRANCH  15  16
HETATM   16  C   UNL     1      -9.080   7.362  66.357  1.00  0.00    -0.160 A  
HETATM   17  N   UNL     1      -8.004   7.779  65.638  1.00  0.00    -0.110 NA 
HETATM   18  C   UNL     1      -7.448   6.913  64.764  1.00  0.00    -0.096 A  
HETATM   19  C   UNL     1      -7.918   5.632  64.527  1.00  0.00    -0.124 A  
HETATM   20  C   UNL     1      -9.027   5.203  65.269  1.00  0.00    -0.142 A  
HETATM   21  C   UNL     1      -7.258   4.764  63.494  1.00  0.00    -0.049 C  
HETATM   22  C   UNL     1     -10.758   5.625  67.096  1.00  0.00    -0.316 C  
HETATM   23  C   UNL     1      -9.611   6.058  66.232  1.00  0.00    -0.136 A  
BRANCH  20  24
HETATM   24  O   UNL     1      -9.364   3.883  65.080  1.00  0.00    -0.139 OA 
HETATM   25  C   UNL     1     -10.399   3.594  64.147  1.00  0.00    -0.246 C  
ENDBRANCH  20  24
ENDBRANCH  15  16
ENDBRANCH  13  15
ENDBRANCH  10  13
ENDBRANCH   2   3
TORSDOF 5
ENDMDL
MODEL      187
REMARK 921   NORMALIZED FREE ENERGY PREDICTED BY IDOCK:   -4.13 KCAL/MOL
REMARK 922        TOTAL FREE ENERGY PREDICTED BY IDOCK:   -5.98 KCAL/MOL
REMARK 923 INTER-LIGAND FREE ENERGY PREDICTED BY IDOCK:   -5.44 KCAL/MOL
REMARK 924 INTRA-LIGAND FREE ENERGY PREDICTED BY IDOCK:   -0.54 KCAL/MOL
REMARK 927      BINDING AFFINITY PREDICTED BY RF-SCORE:    0.00 PKD
ROOT
HETATM    1  C   UNL     1     -14.370   7.967  71.696  1.00  0.00    -0.473 C  
HETATM    2  O   UNL     1     -13.331   8.716  72.314  1.00  0.00    -0.370 OA 
ENDROOT
BRANCH   2   3
HETATM    3  C   UNL     1     -12.438   9.315  71.458  1.00  0.00    -0.355 A  
HETATM    4  C   UNL     1     -11.113   8.897  71.258  1.00  0.00    -0.367 A  
HETATM    5  C   UNL     1     -10.293   9.639  70.388  1.00  0.00    -0.291 A  
HETATM    6  C   UNL     1     -10.829  10.757  69.760  1.00  0.00    -0.226 A  
HETATM    7  C   UNL     1     -12.143  11.195  69.931  1.00  0.00    -0.418 A  
HETATM    8  N   UNL     1      -9.795  11.248  69.012  1.00  0.00    -0.389 NA 
HETATM    9  C   UNL     1     -12.934  10.452  70.812  1.00  0.00    -0.422 A  
HETATM   10  C   UNL     1      -8.700  10.445  69.194  1.00  0.00    -0.166 A  
HETATM   11  H   UNL     1      -9.833  12.075  68.417  1.00  0.00     0.000 HD 
HETATM   12  N   UNL     1      -8.966   9.459  70.030  1.00  0.00    -0.194 NA 
BRANCH  10  13
HETATM   13  S   UNL     1      -7.211  10.755  68.347  1.00  0.00    -0.090 S  
HETATM   14  O   UNL     1      -6.205   9.845  68.997  1.00  0.00    -0.040 OA 
BRANCH  13  15
HETATM   15  C   UNL     1      -7.615  10.195  66.673  1.00  0.00    -0.107 C  
BRANCH  15  16
HETATM   16  C   UNL     1      -8.305   8.838  66.694  1.00  0.00    -0.108 A  
HETATM   17  N   UNL     1      -9.662   8.899  66.743  1.00  0.00    -0.197 NA 
HETATM   18  C   UNL     1     -10.352   7.738  66.758  1.00  0.00    -0.277 A  
HETATM   19  C   UNL     1      -9.767   6.482  66.757  1.00  0.00    -0.208 A  
HETATM   20  C   UNL     1      -8.368   6.420  66.707  1.00  0.00    -0.111 A  
HETATM   21  C   UNL     1     -10.623   5.250  66.828  1.00  0.00    -0.309 C  
HETATM   22  C   UNL     1      -6.112   7.599  66.520  1.00  0.00    -0.044 C  
HETATM   23  C   UNL     1      -7.606   7.610  66.639  1.00  0.00    -0.097 A  
BRANCH  20  24
HETATM   24  O   UNL     1      -7.857   5.151  66.579  1.00  0.00    -0.101 OA 
HETATM   25  C   UNL     1      -7.572   4.684  65.265  1.00  0.00    -0.081 C  
ENDBRANCH  20  24
ENDBRANCH  15  16
ENDBRANCH  13  15
ENDBRANCH  10  13
ENDBRANCH   2   3
TORSDOF 5
ENDMDL
MODEL      188
REMARK 921   NORMALIZED FREE ENERGY PREDICTED BY IDOCK:   -4.11 KCAL/MOL
REMARK 922        TOTAL FREE ENERGY PREDICTED BY IDOCK:   -5.96 KCAL/MOL
REMARK 923 INTER-LIGAND FREE ENERGY PREDICTED BY IDOCK:   -5.77 KCAL/MOL
REMARK 924 INTRA-LIGAND FREE ENERGY PREDICTED BY IDOCK:   -0.19 KCAL/MOL
REMARK 927      BINDING AFFINITY PREDICTED BY RF-SCORE:    0.00 PKD
ROOT
HETATM    1  C   UNL     1     -10.307   6.450  74.160  1.00  0.00    -0.317 C  
HETATM    2  O   UNL     1     -11.075   7.400  73.432  1.00  0.00    -0.340 OA 
ENDROOT
BRANCH   2   3
HETATM    3  C   UNL     1     -10.674   7.625  72.138  1.00  0.00    -0.241 A  
HETATM    4  C   UNL     1      -9.869   8.697  71.723  1.00  0.00    -0.365 A  
HETATM    5  C   UNL     1      -9.578   8.835  70.353  1.00  0.00    -0.182 A  
HETATM    6  C   UNL     1     -10.100   7.902  69.465  1.00  0.00    -0.195 A  
HETATM    7  C   UNL     1     -10.896   6.821  69.845  1.00  0.00    -0.310 A  
HETATM    8  N   UNL     1      -9.652   8.317  68.241  1.00  0.00    -0.145 NA 
HETATM    9  C   UNL     1     -11.185   6.714  71.208  1.00  0.00    -0.329 A  
HETATM   10  C   UNL     1      -8.896   9.448  68.410  1.00  0.00    -0.128 A  
HETATM   11  H   UNL     1      -9.849   7.861  67.350  1.00  0.00     0.000 HD 
HETATM   12  N   UNL     1      -8.834   9.794  69.682  1.00  0.00    -0.195 NA 
BRANCH  10  13
HETATM   13  S   UNL     1      -8.126  10.221  67.054  1.00  0.00    -0.123 S  
HETATM   14  O   UNL     1      -7.651   9.087  66.187  1.00  0.00    -0.093 OA 
BRANCH  13  15
HETATM   15  C   UNL     1      -9.515  11.093  66.287  1.00  0.00    -0.196 C  
BRANCH  15  16
HETATM   16  C   UNL     1     -10.229  11.987  67.292  1.00  0.00    -0.204 A  
HETATM   17  N   UNL     1     -11.257  11.386  67.946  1.00  0.00    -0.264 NA 
HETATM   18  C   UNL     1     -11.940  12.108  68.861  1.00  0.00    -0.242 A  
HETATM   19  C   UNL     1     -11.681  13.436  69.159  1.00  0.00    -0.375 A  
HETATM   20  C   UNL     1     -10.620  14.055  68.483  1.00  0.00    -0.254 A  
HETATM   21  C   UNL     1     -12.533  14.166  70.156  1.00  0.00    -0.391 C  
HETATM   22  C   UNL     1      -8.662  13.918  66.852  1.00  0.00    -0.177 C  
HETATM   23  C   UNL     1      -9.846  13.323  67.554  1.00  0.00    -0.220 A  
BRANCH  20  24
HETATM   24  O   UNL     1     -10.335  15.329  68.915  1.00  0.00    -0.226 OA 
HETATM   25  C   UNL     1      -9.056  15.555  69.498  1.00  0.00    -0.260 C  
ENDBRANCH  20  24
ENDBRANCH  15  16
ENDBRANCH  13  15
ENDBRANCH  10  13
ENDBRANCH   2   3
TORSDOF 5
ENDMDL
MODEL      189
REMARK 921   NORMALIZED FREE ENERGY PREDICTED BY IDOCK:   -4.09 KCAL/MOL
REMARK 922        TOTAL FREE ENERGY PREDICTED BY IDOCK:   -5.92 KCAL/MOL
REMARK 923 INTER-LIGAND FREE ENERGY PREDICTED BY IDOCK:   -6.05 KCAL/MOL
REMARK 924 INTRA-LIGAND FREE ENERGY PREDICTED BY IDOCK:    0.13 KCAL/MOL
REMARK 927      BINDING AFFINITY PREDICTED BY RF-SCORE:    0.00 PKD
ROOT
HETATM    1  C   UNL     1     -10.666  17.415  65.108  1.00  0.00     0.139 C  
HETATM    2  O   UNL     1     -10.807  16.157  64.459  1.00  0.00    -0.628 OA 
ENDROOT
BRANCH   2   3
HETATM    3  C   UNL     1     -11.170  15.107  65.267  1.00  0.00    -0.358 A  
HETATM    4  C   UNL     1     -10.652  14.864  66.548  1.00  0.00    -0.306 A  
HETATM    5  C   UNL     1     -11.077  13.717  67.244  1.00  0.00    -0.293 A  
HETATM    6  C   UNL     1     -11.994  12.870  66.634  1.00  0.00    -0.366 A  
HETATM    7  C   UNL     1     -12.535  13.086  65.366  1.00  0.00    -0.531 A  
HETATM    8  N   UNL     1     -12.184  11.870  67.546  1.00  0.00    -0.364 NA 
HETATM    9  C   UNL     1     -12.086  14.223  64.687  1.00  0.00    -0.478 A  
HETATM   10  C   UNL     1     -11.409  12.125  68.647  1.00  0.00    -0.280 A  
HETATM   11  H   UNL     1     -12.801  11.066  67.427  1.00  0.00     0.000 HD 
HETATM   12  N   UNL     1     -10.718  13.239  68.495  1.00  0.00    -0.257 NA 
BRANCH  10  13
HETATM   13  S   UNL     1     -11.444  11.069  70.031  1.00  0.00    -0.302 S  
HETATM   14  O   UNL     1     -12.903  10.781  70.255  1.00  0.00    -0.299 OA 
BRANCH  13  15
HETATM   15  C   UNL     1     -10.577   9.608  69.404  1.00  0.00    -0.225 C  
BRANCH  15  16
HETATM   16  C   UNL     1      -9.253   9.398  70.126  1.00  0.00    -0.234 A  
HETATM   17  N   UNL     1      -8.192  10.017  69.543  1.00  0.00    -0.153 NA 
HETATM   18  C   UNL     1      -6.980   9.886  70.126  1.00  0.00    -0.138 A  
HETATM   19  C   UNL     1      -6.738   9.138  71.265  1.00  0.00    -0.073 A  
HETATM   20  C   UNL     1      -7.832   8.499  71.865  1.00  0.00    -0.111 A  
HETATM   21  C   UNL     1      -5.342   9.013  71.805  1.00  0.00    -0.052 C  
HETATM   22  C   UNL     1     -10.341   8.042  71.957  1.00  0.00    -0.298 C  
HETATM   23  C   UNL     1      -9.128   8.649  71.318  1.00  0.00    -0.272 A  
BRANCH  20  24
HETATM   24  O   UNL     1      -7.548   7.880  73.059  1.00  0.00    -0.103 OA 
HETATM   25  C   UNL     1      -6.740   6.710  73.018  1.00  0.00    -0.068 C  
ENDBRANCH  20  24
ENDBRANCH  15  16
ENDBRANCH  13  15
ENDBRANCH  10  13
ENDBRANCH   2   3
TORSDOF 5
ENDMDL
MODEL      190
REMARK 921   NORMALIZED FREE ENERGY PREDICTED BY IDOCK:   -4.08 KCAL/MOL
REMARK 922        TOTAL FREE ENERGY PREDICTED BY IDOCK:   -5.91 KCAL/MOL
REMARK 923 INTER-LIGAND FREE ENERGY PREDICTED BY IDOCK:   -6.19 KCAL/MOL
REMARK 924 INTRA-LIGAND FREE ENERGY PREDICTED BY IDOCK:    0.28 KCAL/MOL
REMARK 927      BINDING AFFINITY PREDICTED BY RF-SCORE:    0.00 PKD
ROOT
HETATM    1  C   UNL     1     -10.260  10.645  63.096  1.00  0.00    -0.008 C  
HETATM    2  O   UNL     1     -11.304  11.599  62.943  1.00  0.00    -0.009 OA 
ENDROOT
BRANCH   2   3
HETATM    3  C   UNL     1     -11.359  12.582  63.901  1.00  0.00    -0.438 A  
HETATM    4  C   UNL     1     -10.304  13.453  64.218  1.00  0.00    -0.249 A  
HETATM    5  C   UNL     1     -10.483  14.380  65.262  1.00  0.00    -0.390 A  
HETATM    6  C   UNL     1     -11.697  14.397  65.937  1.00  0.00    -0.369 A  
HETATM    7  C   UNL     1     -12.768  13.552  65.642  1.00  0.00    -0.478 A  
HETATM    8  N   UNL     1     -11.545  15.379  66.876  1.00  0.00    -0.081 NA 
HETATM    9  C   UNL     1     -12.562  12.628  64.613  1.00  0.00    -0.517 A  
HETATM   10  C   UNL     1     -10.290  15.916  66.751  1.00  0.00    -0.298 A  
HETATM   11  H   UNL     1     -12.248  15.664  67.557  1.00  0.00     0.000 HD 
HETATM   12  N   UNL     1      -9.614  15.328  65.781  1.00  0.00    -0.342 NA 
BRANCH  10  13
HETATM   13  S   UNL     1      -9.774  17.233  67.767  1.00  0.00    -0.278 S  
HETATM   14  O   UNL     1     -10.934  18.190  67.769  1.00  0.00    -0.315 OA 
BRANCH  13  15
HETATM   15  C   UNL     1      -9.597  16.414  69.372  1.00  0.00    -0.137 C  
BRANCH  15  16
HETATM   16  C   UNL     1     -10.182  15.009  69.345  1.00  0.00    -0.223 A  
HETATM   17  N   UNL     1      -9.391  14.083  68.741  1.00  0.00    -0.120 NA 
HETATM   18  C   UNL     1      -9.833  12.809  68.680  1.00  0.00    -0.063 A  
HETATM   19  C   UNL     1     -11.058  12.383  69.167  1.00  0.00    -0.260 A  
HETATM   20  C   UNL     1     -11.874  13.339  69.789  1.00  0.00    -0.325 A  
HETATM   21  C   UNL     1     -11.481  10.951  69.004  1.00  0.00    -0.371 C  
HETATM   22  C   UNL     1     -12.235  15.720  70.633  1.00  0.00    -0.422 C  
HETATM   23  C   UNL     1     -11.430  14.675  69.920  1.00  0.00    -0.320 A  
BRANCH  20  24
HETATM   24  O   UNL     1     -13.015  12.829  70.362  1.00  0.00     0.136 OA 
HETATM   25  C   UNL     1     -13.007  12.617  71.770  1.00  0.00    -0.313 C  
ENDBRANCH  20  24
ENDBRANCH  15  16
ENDBRANCH  13  15
ENDBRANCH  10  13
ENDBRANCH   2   3
TORSDOF 5
ENDMDL
MODEL      191
REMARK 921   NORMALIZED FREE ENERGY PREDICTED BY IDOCK:   -4.08 KCAL/MOL
REMARK 922        TOTAL FREE ENERGY PREDICTED BY IDOCK:   -5.91 KCAL/MOL
REMARK 923 INTER-LIGAND FREE ENERGY PREDICTED BY IDOCK:   -5.44 KCAL/MOL
REMARK 924 INTRA-LIGAND FREE ENERGY PREDICTED BY IDOCK:   -0.47 KCAL/MOL
REMARK 927      BINDING AFFINITY PREDICTED BY RF-SCORE:    0.00 PKD
ROOT
HETATM    1  C   UNL     1     -10.859  19.610  66.873  1.00  0.00    -0.389 C  
HETATM    2  O   UNL     1     -10.294  18.668  65.970  1.00  0.00    -0.445 OA 
ENDROOT
BRANCH   2   3
HETATM    3  C   UNL     1     -10.407  17.349  66.336  1.00  0.00    -0.317 A  
HETATM    4  C   UNL     1     -10.298  16.259  65.458  1.00  0.00    -0.363 A  
HETATM    5  C   UNL     1     -10.489  14.960  65.964  1.00  0.00    -0.316 A  
HETATM    6  C   UNL     1     -10.777  14.807  67.314  1.00  0.00    -0.294 A  
HETATM    7  C   UNL     1     -10.884  15.867  68.216  1.00  0.00    -0.315 A  
HETATM    8  N   UNL     1     -10.913  13.456  67.477  1.00  0.00    -0.263 NA 
HETATM    9  C   UNL     1     -10.707  17.149  67.687  1.00  0.00    -0.302 A  
HETATM   10  C   UNL     1     -10.709  12.845  66.267  1.00  0.00    -0.274 A  
HETATM   11  H   UNL     1     -11.131  12.982  68.353  1.00  0.00     0.000 HD 
HETATM   12  N   UNL     1     -10.454  13.731  65.322  1.00  0.00    -0.343 NA 
BRANCH  10  13
HETATM   13  S   UNL     1     -10.761  11.111  66.120  1.00  0.00    -0.183 S  
HETATM   14  O   UNL     1      -9.387  10.727  65.644  1.00  0.00    -0.189 OA 
BRANCH  13  15
HETATM   15  C   UNL     1     -11.026  10.602  67.838  1.00  0.00    -0.295 C  
BRANCH  15  16
HETATM   16  C   UNL     1      -9.720  10.180  68.497  1.00  0.00    -0.154 A  
HETATM   17  N   UNL     1      -8.940  11.214  68.909  1.00  0.00    -0.128 NA 
HETATM   18  C   UNL     1      -7.766  10.926  69.511  1.00  0.00    -0.013 A  
HETATM   19  C   UNL     1      -7.285   9.643  69.713  1.00  0.00    -0.094 A  
HETATM   20  C   UNL     1      -8.090   8.577  69.287  1.00  0.00    -0.113 A  
HETATM   21  C   UNL     1      -5.941   9.430  70.347  1.00  0.00    -0.051 C  
HETATM   22  C   UNL     1     -10.277   7.727  68.284  1.00  0.00    -0.236 C  
HETATM   23  C   UNL     1      -9.350   8.830  68.697  1.00  0.00    -0.141 A  
BRANCH  20  24
HETATM   24  O   UNL     1      -7.618   7.333  69.630  1.00  0.00    -0.094 OA 
HETATM   25  C   UNL     1      -8.394   6.562  70.541  1.00  0.00    -0.133 C  
ENDBRANCH  20  24
ENDBRANCH  15  16
ENDBRANCH  13  15
ENDBRANCH  10  13
ENDBRANCH   2   3
TORSDOF 5
ENDMDL
MODEL      192
REMARK 921   NORMALIZED FREE ENERGY PREDICTED BY IDOCK:   -4.08 KCAL/MOL
REMARK 922        TOTAL FREE ENERGY PREDICTED BY IDOCK:   -5.91 KCAL/MOL
REMARK 923 INTER-LIGAND FREE ENERGY PREDICTED BY IDOCK:   -5.92 KCAL/MOL
REMARK 924 INTRA-LIGAND FREE ENERGY PREDICTED BY IDOCK:    0.01 KCAL/MOL
REMARK 927      BINDING AFFINITY PREDICTED BY RF-SCORE:    0.00 PKD
ROOT
HETATM    1  C   UNL     1      -6.262   8.164  74.404  1.00  0.00    -0.112 C  
HETATM    2  O   UNL     1      -6.717   7.584  73.187  1.00  0.00    -0.063 OA 
ENDROOT
BRANCH   2   3
HETATM    3  C   UNL     1      -6.932   8.461  72.153  1.00  0.00    -0.090 A  
HETATM    4  C   UNL     1      -8.160   8.643  71.497  1.00  0.00    -0.188 A  
HETATM    5  C   UNL     1      -8.223   9.541  70.415  1.00  0.00    -0.190 A  
HETATM    6  C   UNL     1      -7.067  10.214  70.040  1.00  0.00    -0.154 A  
HETATM    7  C   UNL     1      -5.834  10.063  70.675  1.00  0.00    -0.087 A  
HETATM    8  N   UNL     1      -7.456  10.980  68.976  1.00  0.00    -0.122 NA 
HETATM    9  C   UNL     1      -5.791   9.154  71.736  1.00  0.00    -0.072 A  
HETATM   10  C   UNL     1      -8.788  10.764  68.742  1.00  0.00    -0.163 A  
HETATM   11  H   UNL     1      -6.853  11.608  68.445  1.00  0.00     0.000 HD 
HETATM   12  N   UNL     1      -9.287   9.890  69.596  1.00  0.00    -0.217 NA 
BRANCH  10  13
HETATM   13  S   UNL     1      -9.627  11.622  67.480  1.00  0.00    -0.173 S  
HETATM   14  O   UNL     1      -9.177  10.961  66.206  1.00  0.00    -0.167 OA 
BRANCH  13  15
HETATM   15  C   UNL     1     -11.355  11.225  67.848  1.00  0.00    -0.299 C  
BRANCH  15  16
HETATM   16  C   UNL     1     -11.861  12.017  69.046  1.00  0.00    -0.315 A  
HETATM   17  N   UNL     1     -12.118  11.264  70.148  1.00  0.00    -0.345 NA 
HETATM   18  C   UNL     1     -12.565  11.890  71.258  1.00  0.00    -0.277 A  
HETATM   19  C   UNL     1     -12.808  13.251  71.343  1.00  0.00    -0.411 A  
HETATM   20  C   UNL     1     -12.542  14.027  70.205  1.00  0.00    -0.291 A  
HETATM   21  C   UNL     1     -13.354  13.844  72.609  1.00  0.00    -0.640 C  
HETATM   22  C   UNL     1     -11.665  14.213  67.816  1.00  0.00    -0.408 C  
HETATM   23  C   UNL     1     -12.026  13.421  69.037  1.00  0.00    -0.357 A  
BRANCH  20  24
HETATM   24  O   UNL     1     -12.682  15.382  70.394  1.00  0.00    -0.404 OA 
HETATM   25  C   UNL     1     -11.516  16.122  70.738  1.00  0.00    -0.378 C  
ENDBRANCH  20  24
ENDBRANCH  15  16
ENDBRANCH  13  15
ENDBRANCH  10  13
ENDBRANCH   2   3
TORSDOF 5
ENDMDL
MODEL      193
REMARK 921   NORMALIZED FREE ENERGY PREDICTED BY IDOCK:   -4.07 KCAL/MOL
REMARK 922        TOTAL FREE ENERGY PREDICTED BY IDOCK:   -5.89 KCAL/MOL
REMARK 923 INTER-LIGAND FREE ENERGY PREDICTED BY IDOCK:   -5.59 KCAL/MOL
REMARK 924 INTRA-LIGAND FREE ENERGY PREDICTED BY IDOCK:   -0.31 KCAL/MOL
REMARK 927      BINDING AFFINITY PREDICTED BY RF-SCORE:    0.00 PKD
ROOT
HETATM    1  C   UNL     1     -13.840  14.738  72.631  1.00  0.00    -0.406 C  
HETATM    2  O   UNL     1     -13.333  13.485  72.187  1.00  0.00    -0.424 OA 
ENDROOT
BRANCH   2   3
HETATM    3  C   UNL     1     -12.674  13.502  70.982  1.00  0.00    -0.322 A  
HETATM    4  C   UNL     1     -12.093  12.380  70.369  1.00  0.00    -0.381 A  
HETATM    5  C   UNL     1     -11.401  12.555  69.156  1.00  0.00    -0.274 A  
HETATM    6  C   UNL     1     -11.321  13.831  68.612  1.00  0.00    -0.287 A  
HETATM    7  C   UNL     1     -11.893  14.964  69.191  1.00  0.00    -0.340 A  
HETATM    8  N   UNL     1     -10.590  13.662  67.469  1.00  0.00    -0.240 NA 
HETATM    9  C   UNL     1     -12.561  14.770  70.403  1.00  0.00    -0.399 A  
HETATM   10  C   UNL     1     -10.259  12.338  67.349  1.00  0.00    -0.203 A  
HETATM   11  H   UNL     1     -10.333  14.401  66.814  1.00  0.00     0.000 HD 
HETATM   12  N   UNL     1     -10.732  11.635  68.362  1.00  0.00    -0.206 NA 
BRANCH  10  13
HETATM   13  S   UNL     1      -9.364  11.759  65.973  1.00  0.00    -0.192 S  
HETATM   14  O   UNL     1      -7.992  11.456  66.511  1.00  0.00    -0.164 OA 
BRANCH  13  15
HETATM   15  C   UNL     1     -10.257  10.238  65.564  1.00  0.00    -0.238 C  
BRANCH  15  16
HETATM   16  C   UNL     1      -9.372   9.012  65.737  1.00  0.00    -0.236 A  
HETATM   17  N   UNL     1      -8.423   8.865  64.774  1.00  0.00    -0.175 NA 
HETATM   18  C   UNL     1      -7.590   7.805  64.858  1.00  0.00    -0.102 A  
HETATM   19  C   UNL     1      -7.654   6.837  65.846  1.00  0.00    -0.087 A  
HETATM   20  C   UNL     1      -8.633   6.990  66.838  1.00  0.00    -0.120 A  
HETATM   21  C   UNL     1      -6.713   5.667  65.821  1.00  0.00    -0.055 C  
HETATM   22  C   UNL     1     -10.515   8.355  67.891  1.00  0.00    -0.255 C  
HETATM   23  C   UNL     1      -9.495   8.111  66.819  1.00  0.00    -0.256 A  
BRANCH  20  24
HETATM   24  O   UNL     1      -8.562   6.069  67.857  1.00  0.00    -0.114 OA 
HETATM   25  C   UNL     1      -7.823   6.429  69.019  1.00  0.00    -0.110 C  
ENDBRANCH  20  24
ENDBRANCH  15  16
ENDBRANCH  13  15
ENDBRANCH  10  13
ENDBRANCH   2   3
TORSDOF 5
ENDMDL
MODEL      194
REMARK 921   NORMALIZED FREE ENERGY PREDICTED BY IDOCK:   -4.06 KCAL/MOL
REMARK 922        TOTAL FREE ENERGY PREDICTED BY IDOCK:   -5.88 KCAL/MOL
REMARK 923 INTER-LIGAND FREE ENERGY PREDICTED BY IDOCK:   -5.40 KCAL/MOL
REMARK 924 INTRA-LIGAND FREE ENERGY PREDICTED BY IDOCK:   -0.48 KCAL/MOL
REMARK 927      BINDING AFFINITY PREDICTED BY RF-SCORE:    0.00 PKD
ROOT
HETATM    1  C   UNL     1      -7.812  17.874  66.833  1.00  0.00    -0.221 C  
HETATM    2  O   UNL     1      -8.234  16.995  65.797  1.00  0.00    -0.486 OA 
ENDROOT
BRANCH   2   3
HETATM    3  C   UNL     1      -9.031  15.948  66.192  1.00  0.00    -0.341 A  
HETATM    4  C   UNL     1      -8.638  14.929  67.073  1.00  0.00    -0.265 A  
HETATM    5  C   UNL     1      -9.543  13.887  67.349  1.00  0.00    -0.235 A  
HETATM    6  C   UNL     1     -10.791  13.909  66.739  1.00  0.00    -0.286 A  
HETATM    7  C   UNL     1     -11.216  14.911  65.865  1.00  0.00    -0.328 A  
HETATM    8  N   UNL     1     -11.408  12.778  67.196  1.00  0.00    -0.296 NA 
HETATM    9  C   UNL     1     -10.295  15.927  65.593  1.00  0.00    -0.413 A  
HETATM   10  C   UNL     1     -10.553  12.123  68.044  1.00  0.00    -0.210 A  
HETATM   11  H   UNL     1     -12.349  12.473  66.948  1.00  0.00     0.000 HD 
HETATM   12  N   UNL     1      -9.406  12.767  68.156  1.00  0.00    -0.211 NA 
BRANCH  10  13
HETATM   13  S   UNL     1     -11.039  10.658  68.849  1.00  0.00    -0.281 S  
HETATM   14  O   UNL     1     -12.476  10.889  69.229  1.00  0.00    -0.392 OA 
BRANCH  13  15
HETATM   15  C   UNL     1     -10.902   9.440  67.516  1.00  0.00    -0.138 C  
BRANCH  15  16
HETATM   16  C   UNL     1      -9.619   9.633  66.720  1.00  0.00    -0.173 A  
HETATM   17  N   UNL     1      -9.794  10.228  65.510  1.00  0.00    -0.262 NA 
HETATM   18  C   UNL     1      -8.703  10.443  64.742  1.00  0.00    -0.186 A  
HETATM   19  C   UNL     1      -7.416  10.070  65.092  1.00  0.00    -0.139 A  
HETATM   20  C   UNL     1      -7.237   9.456  66.339  1.00  0.00    -0.089 A  
HETATM   21  C   UNL     1      -6.276  10.307  64.143  1.00  0.00    -0.107 C  
HETATM   22  C   UNL     1      -8.197   8.663  68.567  1.00  0.00    -0.122 C  
HETATM   23  C   UNL     1      -8.343   9.256  67.198  1.00  0.00    -0.124 A  
BRANCH  20  24
HETATM   24  O   UNL     1      -5.925   9.227  66.680  1.00  0.00    -0.057 OA 
HETATM   25  C   UNL     1      -5.237  10.259  67.379  1.00  0.00    -0.040 C  
ENDBRANCH  20  24
ENDBRANCH  15  16
ENDBRANCH  13  15
ENDBRANCH  10  13
ENDBRANCH   2   3
TORSDOF 5
ENDMDL
MODEL      195
REMARK 921   NORMALIZED FREE ENERGY PREDICTED BY IDOCK:   -4.05 KCAL/MOL
REMARK 922        TOTAL FREE ENERGY PREDICTED BY IDOCK:   -5.87 KCAL/MOL
REMARK 923 INTER-LIGAND FREE ENERGY PREDICTED BY IDOCK:   -5.28 KCAL/MOL
REMARK 924 INTRA-LIGAND FREE ENERGY PREDICTED BY IDOCK:   -0.59 KCAL/MOL
REMARK 927      BINDING AFFINITY PREDICTED BY RF-SCORE:    0.00 PKD
ROOT
HETATM    1  C   UNL     1     -14.188   7.767  71.680  1.00  0.00    -0.457 C  
HETATM    2  O   UNL     1     -13.019   8.303  72.288  1.00  0.00    -0.316 OA 
ENDROOT
BRANCH   2   3
HETATM    3  C   UNL     1     -11.849   8.126  71.589  1.00  0.00    -0.292 A  
HETATM    4  C   UNL     1     -11.746   7.477  70.349  1.00  0.00    -0.116 A  
HETATM    5  C   UNL     1     -10.472   7.322  69.770  1.00  0.00    -0.227 A  
HETATM    6  C   UNL     1      -9.367   7.818  70.450  1.00  0.00    -0.160 A  
HETATM    7  C   UNL     1      -9.435   8.475  71.680  1.00  0.00    -0.316 A  
HETATM    8  N   UNL     1      -8.308   7.501  69.645  1.00  0.00    -0.129 NA 
HETATM    9  C   UNL     1     -10.709   8.603  72.243  1.00  0.00    -0.383 A  
HETATM   10  C   UNL     1      -8.778   6.847  68.537  1.00  0.00    -0.125 A  
HETATM   11  H   UNL     1      -7.330   7.716  69.838  1.00  0.00     0.000 HD 
HETATM   12  N   UNL     1     -10.091   6.716  68.582  1.00  0.00    -0.154 NA 
BRANCH  10  13
HETATM   13  S   UNL     1      -7.697   6.338  67.271  1.00  0.00    -0.101 S  
HETATM   14  O   UNL     1      -8.595   5.767  66.208  1.00  0.00    -0.121 OA 
BRANCH  13  15
HETATM   15  C   UNL     1      -6.978   7.915  66.743  1.00  0.00    -0.073 C  
BRANCH  15  16
HETATM   16  C   UNL     1      -8.058   8.904  66.328  1.00  0.00    -0.110 A  
HETATM   17  N   UNL     1      -8.572   9.636  67.351  1.00  0.00    -0.125 NA 
HETATM   18  C   UNL     1      -9.532  10.543  67.067  1.00  0.00    -0.163 A  
HETATM   19  C   UNL     1     -10.052  10.760  65.802  1.00  0.00    -0.320 A  
HETATM   20  C   UNL     1      -9.522  10.004  64.747  1.00  0.00    -0.304 A  
HETATM   21  C   UNL     1     -11.156  11.757  65.599  1.00  0.00    -0.340 C  
HETATM   22  C   UNL     1      -7.835   8.292  63.888  1.00  0.00    -0.147 C  
HETATM   23  C   UNL     1      -8.480   9.078  64.990  1.00  0.00    -0.191 A  
BRANCH  20  24
HETATM   24  O   UNL     1      -9.988  10.356  63.502  1.00  0.00    -0.277 OA 
HETATM   25  C   UNL     1      -9.160  11.191  62.700  1.00  0.00    -0.330 C  
ENDBRANCH  20  24
ENDBRANCH  15  16
ENDBRANCH  13  15
ENDBRANCH  10  13
ENDBRANCH   2   3
TORSDOF 5
ENDMDL
MODEL      196
REMARK 921   NORMALIZED FREE ENERGY PREDICTED BY IDOCK:   -4.04 KCAL/MOL
REMARK 922        TOTAL FREE ENERGY PREDICTED BY IDOCK:   -5.86 KCAL/MOL
REMARK 923 INTER-LIGAND FREE ENERGY PREDICTED BY IDOCK:   -5.38 KCAL/MOL
REMARK 924 INTRA-LIGAND FREE ENERGY PREDICTED BY IDOCK:   -0.48 KCAL/MOL
REMARK 927      BINDING AFFINITY PREDICTED BY RF-SCORE:    0.00 PKD
ROOT
HETATM    1  C   UNL     1     -12.258  14.027  66.649  1.00  0.00    -0.428 C  
HETATM    2  O   UNL     1     -11.147  13.651  67.454  1.00  0.00    -0.271 OA 
ENDROOT
BRANCH   2   3
HETATM    3  C   UNL     1     -11.419  12.767  68.469  1.00  0.00    -0.309 A  
HETATM    4  C   UNL     1     -11.129  11.394  68.438  1.00  0.00    -0.296 A  
HETATM    5  C   UNL     1     -11.513  10.596  69.532  1.00  0.00    -0.291 A  
HETATM    6  C   UNL     1     -12.164  11.200  70.601  1.00  0.00    -0.397 A  
HETATM    7  C   UNL     1     -12.460  12.562  70.667  1.00  0.00    -0.323 A  
HETATM    8  N   UNL     1     -12.404  10.172  71.470  1.00  0.00    -0.397 NA 
HETATM    9  C   UNL     1     -12.084  13.332  69.563  1.00  0.00    -0.315 A  
HETATM   10  C   UNL     1     -11.910   9.014  70.929  1.00  0.00    -0.253 A  
HETATM   11  H   UNL     1     -12.874  10.254  72.371  1.00  0.00     0.000 HD 
HETATM   12  N   UNL     1     -11.365   9.234  69.747  1.00  0.00    -0.084 NA 
BRANCH  10  13
HETATM   13  S   UNL     1     -12.004   7.508  71.798  1.00  0.00    -0.315 S  
HETATM   14  O   UNL     1     -11.473   6.480  70.839  1.00  0.00    -0.312 OA 
BRANCH  13  15
HETATM   15  C   UNL     1     -10.845   7.794  73.160  1.00  0.00    -0.339 C  
BRANCH  15  16
HETATM   16  C   UNL     1      -9.684   6.811  73.114  1.00  0.00    -0.168 A  
HETATM   17  N   UNL     1      -9.897   5.659  73.803  1.00  0.00    -0.164 NA 
HETATM   18  C   UNL     1      -8.917   4.729  73.807  1.00  0.00    -0.106 A  
HETATM   19  C   UNL     1      -7.693   4.881  73.178  1.00  0.00    -0.093 A  
HETATM   20  C   UNL     1      -7.474   6.070  72.469  1.00  0.00    -0.098 A  
HETATM   21  C   UNL     1      -6.649   3.807  73.287  1.00  0.00    -0.034 C  
HETATM   22  C   UNL     1      -8.331   8.310  71.597  1.00  0.00    -0.187 C  
HETATM   23  C   UNL     1      -8.490   7.051  72.395  1.00  0.00    -0.122 A  
BRANCH  20  24
HETATM   24  O   UNL     1      -6.294   6.105  71.764  1.00  0.00    -0.043 OA 
HETATM   25  C   UNL     1      -5.196   6.794  72.352  1.00  0.00    -0.036 C  
ENDBRANCH  20  24
ENDBRANCH  15  16
ENDBRANCH  13  15
ENDBRANCH  10  13
ENDBRANCH   2   3
TORSDOF 5
ENDMDL
MODEL      197
REMARK 921   NORMALIZED FREE ENERGY PREDICTED BY IDOCK:   -4.04 KCAL/MOL
REMARK 922        TOTAL FREE ENERGY PREDICTED BY IDOCK:   -5.86 KCAL/MOL
REMARK 923 INTER-LIGAND FREE ENERGY PREDICTED BY IDOCK:   -6.28 KCAL/MOL
REMARK 924 INTRA-LIGAND FREE ENERGY PREDICTED BY IDOCK:    0.42 KCAL/MOL
REMARK 927      BINDING AFFINITY PREDICTED BY RF-SCORE:    0.00 PKD
ROOT
HETATM    1  C   UNL     1     -11.114   9.062  71.873  1.00  0.00    -0.363 C  
HETATM    2  O   UNL     1     -11.332   8.392  70.637  1.00  0.00    -0.263 OA 
ENDROOT
BRANCH   2   3
HETATM    3  C   UNL     1     -10.996   9.100  69.508  1.00  0.00    -0.123 A  
HETATM    4  C   UNL     1     -11.785  10.104  68.927  1.00  0.00     0.036 A  
HETATM    5  C   UNL     1     -11.340  10.711  67.738  1.00  0.00    -0.244 A  
HETATM    6  C   UNL     1     -10.136  10.292  67.186  1.00  0.00    -0.210 A  
HETATM    7  C   UNL     1      -9.324   9.302  67.743  1.00  0.00    -0.145 A  
HETATM    8  N   UNL     1     -10.001  11.051  66.058  1.00  0.00    -0.228 NA 
HETATM    9  C   UNL     1      -9.794   8.703  68.915  1.00  0.00    -0.184 A  
HETATM   10  C   UNL     1     -11.084  11.884  65.956  1.00  0.00    -0.322 A  
HETATM   11  H   UNL     1      -9.223  11.006  65.400  1.00  0.00     0.000 HD 
HETATM   12  N   UNL     1     -11.923  11.700  66.959  1.00  0.00    -0.539 NA 
BRANCH  10  13
HETATM   13  S   UNL     1     -11.214  13.030  64.652  1.00  0.00    -0.345 S  
HETATM   14  O   UNL     1     -12.608  13.583  64.767  1.00  0.00    -0.583 OA 
BRANCH  13  15
HETATM   15  C   UNL     1      -9.978  14.267  65.123  1.00  0.00    -0.231 C  
BRANCH  15  16
HETATM   16  C   UNL     1     -10.318  14.908  66.461  1.00  0.00    -0.293 A  
HETATM   17  N   UNL     1     -10.371  14.037  67.503  1.00  0.00    -0.244 NA 
HETATM   18  C   UNL     1     -10.660  14.526  68.728  1.00  0.00    -0.248 A  
HETATM   19  C   UNL     1     -10.937  15.857  68.993  1.00  0.00    -0.277 A  
HETATM   20  C   UNL     1     -10.883  16.755  67.917  1.00  0.00    -0.311 A  
HETATM   21  C   UNL     1     -11.299  16.292  70.384  1.00  0.00    -0.313 C  
HETATM   22  C   UNL     1     -10.400  17.223  65.456  1.00  0.00    -0.108 C  
HETATM   23  C   UNL     1     -10.535  16.295  66.626  1.00  0.00    -0.290 A  
BRANCH  20  24
HETATM   24  O   UNL     1     -11.041  18.075  68.268  1.00  0.00    -0.054 OA 
HETATM   25  C   UNL     1      -9.865  18.830  68.536  1.00  0.00    -0.396 C  
ENDBRANCH  20  24
ENDBRANCH  15  16
ENDBRANCH  13  15
ENDBRANCH  10  13
ENDBRANCH   2   3
TORSDOF 5
ENDMDL
MODEL      198
REMARK 921   NORMALIZED FREE ENERGY PREDICTED BY IDOCK:   -3.97 KCAL/MOL
REMARK 922        TOTAL FREE ENERGY PREDICTED BY IDOCK:   -5.77 KCAL/MOL
REMARK 923 INTER-LIGAND FREE ENERGY PREDICTED BY IDOCK:   -5.44 KCAL/MOL
REMARK 924 INTRA-LIGAND FREE ENERGY PREDICTED BY IDOCK:   -0.33 KCAL/MOL
REMARK 927      BINDING AFFINITY PREDICTED BY RF-SCORE:    0.00 PKD
ROOT
HETATM    1  C   UNL     1     -12.120  11.700  70.515  1.00  0.00    -0.366 C  
HETATM    2  O   UNL     1     -13.262  10.913  70.833  1.00  0.00    -0.230 OA 
ENDROOT
BRANCH   2   3
HETATM    3  C   UNL     1     -13.001   9.662  71.339  1.00  0.00    -0.385 A  
HETATM    4  C   UNL     1     -11.790   9.273  71.932  1.00  0.00    -0.426 A  
HETATM    5  C   UNL     1     -11.644   7.940  72.360  1.00  0.00    -0.380 A  
HETATM    6  C   UNL     1     -12.706   7.063  72.181  1.00  0.00    -0.088 A  
HETATM    7  C   UNL     1     -13.925   7.419  71.604  1.00  0.00    -0.523 A  
HETATM    8  N   UNL     1     -12.247   5.875  72.680  1.00  0.00    -0.524 NA 
HETATM    9  C   UNL     1     -14.042   8.743  71.171  1.00  0.00    -0.114 A  
HETATM   10  C   UNL     1     -10.967   6.054  73.135  1.00  0.00    -0.239 A  
HETATM   11  H   UNL     1     -12.771   5.001  72.708  1.00  0.00     0.000 HD 
HETATM   12  N   UNL     1     -10.566   7.299  72.952  1.00  0.00    -0.269 NA 
BRANCH  10  13
HETATM   13  S   UNL     1     -10.092   4.749  73.883  1.00  0.00    -0.204 S  
HETATM   14  O   UNL     1     -10.930   3.528  73.622  1.00  0.00    -0.213 OA 
BRANCH  13  15
HETATM   15  C   UNL     1      -8.567   4.718  72.906  1.00  0.00    -0.111 C  
BRANCH  15  16
HETATM   16  C   UNL     1      -8.800   4.094  71.538  1.00  0.00    -0.112 A  
HETATM   17  N   UNL     1      -9.040   2.756  71.565  1.00  0.00    -0.094 NA 
HETATM   18  C   UNL     1      -9.264   2.125  70.392  1.00  0.00    -0.116 A  
HETATM   19  C   UNL     1      -9.236   2.744  69.154  1.00  0.00    -0.215 A  
HETATM   20  C   UNL     1      -8.987   4.124  69.127  1.00  0.00    -0.110 A  
HETATM   21  C   UNL     1      -9.446   1.942  67.902  1.00  0.00    -0.168 C  
HETATM   22  C   UNL     1      -8.592   6.320  70.365  1.00  0.00    -0.142 C  
HETATM   23  C   UNL     1      -8.797   4.835  70.334  1.00  0.00    -0.138 A  
BRANCH  20  24
HETATM   24  O   UNL     1      -9.099   4.700  67.883  1.00  0.00    -0.110 OA 
HETATM   25  C   UNL     1     -10.352   5.280  67.537  1.00  0.00    -0.162 C  
ENDBRANCH  20  24
ENDBRANCH  15  16
ENDBRANCH  13  15
ENDBRANCH  10  13
ENDBRANCH   2   3
TORSDOF 5
ENDMDL
MODEL      199
REMARK 921   NORMALIZED FREE ENERGY PREDICTED BY IDOCK:   -3.96 KCAL/MOL
REMARK 922        TOTAL FREE ENERGY PREDICTED BY IDOCK:   -5.76 KCAL/MOL
REMARK 923 INTER-LIGAND FREE ENERGY PREDICTED BY IDOCK:   -6.00 KCAL/MOL
REMARK 924 INTRA-LIGAND FREE ENERGY PREDICTED BY IDOCK:    0.24 KCAL/MOL
REMARK 927      BINDING AFFINITY PREDICTED BY RF-SCORE:    0.00 PKD
ROOT
HETATM    1  C   UNL     1      -6.742  20.461  69.001  1.00  0.00    -0.130 C  
HETATM    2  O   UNL     1      -8.083  20.268  68.569  1.00  0.00    -0.042 OA 
ENDROOT
BRANCH   2   3
HETATM    3  C   UNL     1      -8.315  19.132  67.832  1.00  0.00    -0.298 A  
HETATM    4  C   UNL     1      -9.093  18.044  68.258  1.00  0.00    -0.284 A  
HETATM    5  C   UNL     1      -9.202  16.920  67.418  1.00  0.00    -0.222 A  
HETATM    6  C   UNL     1      -8.534  16.933  66.199  1.00  0.00    -0.246 A  
HETATM    7  C   UNL     1      -7.760  18.000  65.743  1.00  0.00    -0.015 A  
HETATM    8  N   UNL     1      -8.828  15.718  65.644  1.00  0.00    -0.213 NA 
HETATM    9  C   UNL     1      -7.653  19.099  66.601  1.00  0.00    -0.255 A  
HETATM   10  C   UNL     1      -9.638  15.025  66.505  1.00  0.00    -0.277 A  
HETATM   11  H   UNL     1      -8.498  15.383  64.739  1.00  0.00     0.000 HD 
HETATM   12  N   UNL     1      -9.882  15.725  67.598  1.00  0.00    -0.231 NA 
BRANCH  10  13
HETATM   13  S   UNL     1     -10.245  13.447  66.090  1.00  0.00    -0.306 S  
HETATM   14  O   UNL     1      -9.132  12.502  66.452  1.00  0.00    -0.208 OA 
BRANCH  13  15
HETATM   15  C   UNL     1     -11.644  13.278  67.227  1.00  0.00    -0.359 C  
BRANCH  15  16
HETATM   16  C   UNL     1     -11.510  12.030  68.088  1.00  0.00    -0.322 A  
HETATM   17  N   UNL     1     -11.046  10.938  67.425  1.00  0.00    -0.310 NA 
HETATM   18  C   UNL     1     -10.890   9.790  68.118  1.00  0.00    -0.214 A  
HETATM   19  C   UNL     1     -11.201   9.639  69.459  1.00  0.00    -0.144 A  
HETATM   20  C   UNL     1     -11.680  10.765  70.143  1.00  0.00    -0.339 A  
HETATM   21  C   UNL     1     -11.041   8.303  70.127  1.00  0.00    -0.189 C  
HETATM   22  C   UNL     1     -12.258  13.251  70.168  1.00  0.00    -0.376 C  
HETATM   23  C   UNL     1     -11.811  12.002  69.469  1.00  0.00    -0.390 A  
BRANCH  20  24
HETATM   24  O   UNL     1     -11.848  10.584  71.495  1.00  0.00    -0.255 OA 
HETATM   25  C   UNL     1     -13.180  10.553  71.996  1.00  0.00    -0.378 C  
ENDBRANCH  20  24
ENDBRANCH  15  16
ENDBRANCH  13  15
ENDBRANCH  10  13
ENDBRANCH   2   3
TORSDOF 5
ENDMDL
MODEL      200
REMARK 921   NORMALIZED FREE ENERGY PREDICTED BY IDOCK:   -3.96 KCAL/MOL
REMARK 922        TOTAL FREE ENERGY PREDICTED BY IDOCK:   -5.75 KCAL/MOL
REMARK 923 INTER-LIGAND FREE ENERGY PREDICTED BY IDOCK:   -5.00 KCAL/MOL
REMARK 924 INTRA-LIGAND FREE ENERGY PREDICTED BY IDOCK:   -0.76 KCAL/MOL
REMARK 927      BINDING AFFINITY PREDICTED BY RF-SCORE:    0.00 PKD
ROOT
HETATM    1  C   UNL     1     -12.265  14.718  64.380  1.00  0.00    -0.428 C  
HETATM    2  O   UNL     1     -12.423  13.881  65.519  1.00  0.00    -0.452 OA 
ENDROOT
BRANCH   2   3
HETATM    3  C   UNL     1     -11.701  12.713  65.504  1.00  0.00    -0.402 A  
HETATM    4  C   UNL     1     -11.367  11.961  66.642  1.00  0.00    -0.400 A  
HETATM    5  C   UNL     1     -10.576  10.808  66.483  1.00  0.00    -0.218 A  
HETATM    6  C   UNL     1     -10.158  10.458  65.205  1.00  0.00    -0.300 A  
HETATM    7  C   UNL     1     -10.478  11.178  64.053  1.00  0.00    -0.447 A  
HETATM    8  N   UNL     1      -9.415   9.326  65.394  1.00  0.00    -0.397 NA 
HETATM    9  C   UNL     1     -11.251  12.328  64.237  1.00  0.00    -0.409 A  
HETATM   10  C   UNL     1      -9.404   9.025  66.731  1.00  0.00    -0.165 A  
HETATM   11  H   UNL     1      -8.947   8.793  64.661  1.00  0.00     0.000 HD 
HETATM   12  N   UNL     1     -10.096   9.910  67.424  1.00  0.00    -0.192 NA 
BRANCH  10  13
HETATM   13  S   UNL     1      -8.585   7.608  67.323  1.00  0.00    -0.122 S  
HETATM   14  O   UNL     1      -8.959   6.519  66.355  1.00  0.00    -0.140 OA 
BRANCH  13  15
HETATM   15  C   UNL     1      -6.846   8.080  67.137  1.00  0.00    -0.073 C  
BRANCH  15  16
HETATM   16  C   UNL     1      -6.500   9.272  68.019  1.00  0.00    -0.059 A  
HETATM   17  N   UNL     1      -6.499   9.003  69.351  1.00  0.00    -0.044 NA 
HETATM   18  C   UNL     1      -6.195  10.005  70.204  1.00  0.00    -0.077 A  
HETATM   19  C   UNL     1      -5.909  11.303  69.813  1.00  0.00    -0.091 A  
HETATM   20  C   UNL     1      -5.911  11.580  68.438  1.00  0.00    -0.045 A  
HETATM   21  C   UNL     1      -5.634  12.359  70.844  1.00  0.00    -0.109 C  
HETATM   22  C   UNL     1      -6.125  10.777  66.026  1.00  0.00    -0.133 C  
HETATM   23  C   UNL     1      -6.175  10.549  67.507  1.00  0.00    -0.056 A  
BRANCH  20  24
HETATM   24  O   UNL     1      -5.496  12.849  68.112  1.00  0.00    -0.069 OA 
HETATM   25  C   UNL     1      -6.500  13.817  67.828  1.00  0.00    -0.170 C  
ENDBRANCH  20  24
ENDBRANCH  15  16
ENDBRANCH  13  15
ENDBRANCH  10  13
ENDBRANCH   2   3
TORSDOF 5
ENDMDL
MODEL      201
REMARK 921   NORMALIZED FREE ENERGY PREDICTED BY IDOCK:   -3.95 KCAL/MOL
REMARK 922        TOTAL FREE ENERGY PREDICTED BY IDOCK:   -5.74 KCAL/MOL
REMARK 923 INTER-LIGAND FREE ENERGY PREDICTED BY IDOCK:   -5.33 KCAL/MOL
REMARK 924 INTRA-LIGAND FREE ENERGY PREDICTED BY IDOCK:   -0.41 KCAL/MOL
REMARK 927      BINDING AFFINITY PREDICTED BY RF-SCORE:    0.00 PKD
ROOT
HETATM    1  C   UNL     1     -12.860  12.635  71.339  1.00  0.00    -0.261 C  
HETATM    2  O   UNL     1     -13.180  11.528  72.173  1.00  0.00    -0.505 OA 
ENDROOT
BRANCH   2   3
HETATM    3  C   UNL     1     -12.792  10.297  71.703  1.00  0.00    -0.463 A  
HETATM    4  C   UNL     1     -11.767  10.081  70.769  1.00  0.00    -0.437 A  
HETATM    5  C   UNL     1     -11.511   8.766  70.337  1.00  0.00    -0.144 A  
HETATM    6  C   UNL     1     -12.283   7.733  70.855  1.00  0.00    -0.145 A  
HETATM    7  C   UNL     1     -13.303   7.912  71.790  1.00  0.00    -0.364 A  
HETATM    8  N   UNL     1     -11.800   6.613  70.237  1.00  0.00    -0.559 NA 
HETATM    9  C   UNL     1     -13.550   9.228  72.192  1.00  0.00    -0.536 A  
HETATM   10  C   UNL     1     -10.783   6.978  69.394  1.00  0.00    -0.238 A  
HETATM   11  H   UNL     1     -12.140   5.662  70.381  1.00  0.00     0.000 HD 
HETATM   12  N   UNL     1     -10.584   8.283  69.426  1.00  0.00    -0.219 NA 
BRANCH  10  13
HETATM   13  S   UNL     1      -9.906   5.785  68.479  1.00  0.00    -0.151 S  
HETATM   14  O   UNL     1      -9.239   6.563  67.378  1.00  0.00    -0.121 OA 
BRANCH  13  15
HETATM   15  C   UNL     1      -8.697   5.202  69.695  1.00  0.00    -0.092 C  
BRANCH  15  16
HETATM   16  C   UNL     1      -7.925   6.361  70.307  1.00  0.00    -0.112 A  
HETATM   17  N   UNL     1      -7.017   6.934  69.473  1.00  0.00    -0.061 NA 
HETATM   18  C   UNL     1      -6.293   7.976  69.937  1.00  0.00    -0.030 A  
HETATM   19  C   UNL     1      -6.392   8.485  71.221  1.00  0.00    -0.047 A  
HETATM   20  C   UNL     1      -7.328   7.893  72.081  1.00  0.00    -0.083 A  
HETATM   21  C   UNL     1      -5.504   9.614  71.656  1.00  0.00    -0.072 C  
HETATM   22  C   UNL     1      -9.202   6.208  72.480  1.00  0.00    -0.137 C  
HETATM   23  C   UNL     1      -8.143   6.833  71.622  1.00  0.00    -0.106 A  
BRANCH  20  24
HETATM   24  O   UNL     1      -7.466   8.524  73.294  1.00  0.00    -0.306 OA 
HETATM   25  C   UNL     1      -7.193   7.765  74.467  1.00  0.00    -0.143 C  
ENDBRANCH  20  24
ENDBRANCH  15  16
ENDBRANCH  13  15
ENDBRANCH  10  13
ENDBRANCH   2   3
TORSDOF 5
ENDMDL
MODEL      202
REMARK 921   NORMALIZED FREE ENERGY PREDICTED BY IDOCK:   -3.95 KCAL/MOL
REMARK 922        TOTAL FREE ENERGY PREDICTED BY IDOCK:   -5.74 KCAL/MOL
REMARK 923 INTER-LIGAND FREE ENERGY PREDICTED BY IDOCK:   -5.44 KCAL/MOL
REMARK 924 INTRA-LIGAND FREE ENERGY PREDICTED BY IDOCK:   -0.30 KCAL/MOL
REMARK 927      BINDING AFFINITY PREDICTED BY RF-SCORE:    0.00 PKD
ROOT
HETATM    1  C   UNL     1     -10.656   6.341  73.740  1.00  0.00    -0.245 C  
HETATM    2  O   UNL     1     -10.841   5.658  72.506  1.00  0.00    -0.224 OA 
ENDROOT
BRANCH   2   3
HETATM    3  C   UNL     1     -10.443   6.340  71.382  1.00  0.00    -0.219 A  
HETATM    4  C   UNL     1      -9.594   7.458  71.381  1.00  0.00    -0.167 A  
HETATM    5  C   UNL     1      -9.311   8.092  70.156  1.00  0.00    -0.156 A  
HETATM    6  C   UNL     1      -9.883   7.584  68.996  1.00  0.00    -0.170 A  
HETATM    7  C   UNL     1     -10.724   6.471  68.962  1.00  0.00    -0.324 A  
HETATM    8  N   UNL     1      -9.430   8.413  68.009  1.00  0.00    -0.142 NA 
HETATM    9  C   UNL     1     -11.004   5.868  70.192  1.00  0.00    -0.412 A  
HETATM   10  C   UNL     1      -8.621   9.367  68.571  1.00  0.00    -0.123 A  
HETATM   11  H   UNL     1      -9.655   8.335  67.017  1.00  0.00     0.000 HD 
HETATM   12  N   UNL     1      -8.531   9.204  69.878  1.00  0.00    -0.133 NA 
BRANCH  10  13
HETATM   13  S   UNL     1      -7.830  10.565  67.586  1.00  0.00    -0.105 S  
HETATM   14  O   UNL     1      -8.640  10.613  66.320  1.00  0.00    -0.142 OA 
BRANCH  13  15
HETATM   15  C   UNL     1      -8.064  12.066  68.572  1.00  0.00    -0.123 C  
BRANCH  15  16
HETATM   16  C   UNL     1      -8.880  13.104  67.814  1.00  0.00    -0.191 A  
HETATM   17  N   UNL     1      -8.135  14.035  67.160  1.00  0.00    -0.147 NA 
HETATM   18  C   UNL     1      -8.782  14.989  66.457  1.00  0.00    -0.208 A  
HETATM   19  C   UNL     1     -10.160  15.102  66.379  1.00  0.00    -0.286 A  
HETATM   20  C   UNL     1     -10.927  14.142  67.053  1.00  0.00    -0.300 A  
HETATM   21  C   UNL     1     -10.784  16.232  65.611  1.00  0.00    -0.297 C  
HETATM   22  C   UNL     1     -11.065  12.007  68.445  1.00  0.00    -0.290 C  
HETATM   23  C   UNL     1     -10.292  13.095  67.761  1.00  0.00    -0.230 A  
BRANCH  20  24
HETATM   24  O   UNL     1     -12.281  14.235  66.832  1.00  0.00    -0.438 OA 
HETATM   25  C   UNL     1     -12.800  13.621  65.657  1.00  0.00    -0.371 C  
ENDBRANCH  20  24
ENDBRANCH  15  16
ENDBRANCH  13  15
ENDBRANCH  10  13
ENDBRANCH   2   3
TORSDOF 5
ENDMDL
MODEL      203
REMARK 921   NORMALIZED FREE ENERGY PREDICTED BY IDOCK:   -3.94 KCAL/MOL
REMARK 922        TOTAL FREE ENERGY PREDICTED BY IDOCK:   -5.73 KCAL/MOL
REMARK 923 INTER-LIGAND FREE ENERGY PREDICTED BY IDOCK:   -5.75 KCAL/MOL
REMARK 924 INTRA-LIGAND FREE ENERGY PREDICTED BY IDOCK:    0.02 KCAL/MOL
REMARK 927      BINDING AFFINITY PREDICTED BY RF-SCORE:    0.00 PKD
ROOT
HETATM    1  C   UNL     1     -14.140   7.233  71.717  1.00  0.00    -0.348 C  
HETATM    2  O   UNL     1     -12.865   7.538  72.269  1.00  0.00    -0.152 OA 
ENDROOT
BRANCH   2   3
HETATM    3  C   UNL     1     -12.153   8.516  71.618  1.00  0.00    -0.321 A  
HETATM    4  C   UNL     1     -12.721   9.602  70.934  1.00  0.00    -0.280 A  
HETATM    5  C   UNL     1     -11.869  10.502  70.266  1.00  0.00    -0.331 A  
HETATM    6  C   UNL     1     -10.499  10.280  70.311  1.00  0.00    -0.146 A  
HETATM    7  C   UNL     1      -9.901   9.216  70.988  1.00  0.00    -0.366 A  
HETATM    8  N   UNL     1      -9.969  11.300  69.571  1.00  0.00    -0.394 NA 
HETATM    9  C   UNL     1     -10.767   8.326  71.631  1.00  0.00    -0.320 A  
HETATM   10  C   UNL     1     -10.992  12.089  69.114  1.00  0.00    -0.178 A  
HETATM   11  H   UNL     1      -8.977  11.450  69.389  1.00  0.00     0.000 HD 
HETATM   12  N   UNL     1     -12.163  11.629  69.514  1.00  0.00    -0.239 NA 
BRANCH  10  13
HETATM   13  S   UNL     1     -10.670  13.517  68.172  1.00  0.00    -0.260 S  
HETATM   14  O   UNL     1     -10.817  14.656  69.142  1.00  0.00    -0.245 OA 
BRANCH  13  15
HETATM   15  C   UNL     1      -8.937  13.271  67.708  1.00  0.00    -0.196 C  
BRANCH  15  16
HETATM   16  C   UNL     1      -8.772  12.053  66.810  1.00  0.00    -0.192 A  
HETATM   17  N   UNL     1      -7.945  11.096  67.309  1.00  0.00    -0.131 NA 
HETATM   18  C   UNL     1      -7.750   9.978  66.576  1.00  0.00    -0.105 A  
HETATM   19  C   UNL     1      -8.314   9.751  65.331  1.00  0.00    -0.143 A  
HETATM   20  C   UNL     1      -9.166  10.739  64.818  1.00  0.00    -0.214 A  
HETATM   21  C   UNL     1      -7.992   8.496  64.573  1.00  0.00    -0.145 C  
HETATM   22  C   UNL     1     -10.392  12.960  65.098  1.00  0.00    -0.320 C  
HETATM   23  C   UNL     1      -9.439  11.903  65.572  1.00  0.00    -0.152 A  
BRANCH  20  24
HETATM   24  O   UNL     1      -9.791  10.398  63.642  1.00  0.00    -0.310 OA 
HETATM   25  C   UNL     1      -9.222  10.880  62.429  1.00  0.00    -0.262 C  
ENDBRANCH  20  24
ENDBRANCH  15  16
ENDBRANCH  13  15
ENDBRANCH  10  13
ENDBRANCH   2   3
TORSDOF 5
ENDMDL
MODEL      204
REMARK 921   NORMALIZED FREE ENERGY PREDICTED BY IDOCK:   -3.93 KCAL/MOL
REMARK 922        TOTAL FREE ENERGY PREDICTED BY IDOCK:   -5.72 KCAL/MOL
REMARK 923 INTER-LIGAND FREE ENERGY PREDICTED BY IDOCK:   -5.44 KCAL/MOL
REMARK 924 INTRA-LIGAND FREE ENERGY PREDICTED BY IDOCK:   -0.28 KCAL/MOL
REMARK 927      BINDING AFFINITY PREDICTED BY RF-SCORE:    0.00 PKD
ROOT
HETATM    1  C   UNL     1     -10.315  19.114  66.148  1.00  0.00    -0.484 C  
HETATM    2  O   UNL     1     -10.407  18.755  67.522  1.00  0.00    -0.369 OA 
ENDROOT
BRANCH   2   3
HETATM    3  C   UNL     1     -10.132  17.441  67.814  1.00  0.00    -0.323 A  
HETATM    4  C   UNL     1     -10.983  16.361  67.533  1.00  0.00    -0.184 A  
HETATM    5  C   UNL     1     -10.595  15.070  67.936  1.00  0.00    -0.259 A  
HETATM    6  C   UNL     1      -9.382  14.915  68.597  1.00  0.00    -0.194 A  
HETATM    7  C   UNL     1      -8.509  15.965  68.884  1.00  0.00    -0.220 A  
HETATM    8  N   UNL     1      -9.311  13.575  68.856  1.00  0.00    -0.392 NA 
HETATM    9  C   UNL     1      -8.923  17.240  68.488  1.00  0.00    -0.273 A  
HETATM   10  C   UNL     1     -10.437  12.970  68.363  1.00  0.00    -0.252 A  
HETATM   11  H   UNL     1      -8.545  13.103  69.337  1.00  0.00     0.000 HD 
HETATM   12  N   UNL     1     -11.244  13.852  67.801  1.00  0.00    -0.282 NA 
BRANCH  10  13
HETATM   13  S   UNL     1     -10.653  11.247  68.479  1.00  0.00    -0.211 S  
HETATM   14  O   UNL     1     -11.856  10.954  67.624  1.00  0.00    -0.572 OA 
BRANCH  13  15
HETATM   15  C   UNL     1      -9.135  10.631  67.708  1.00  0.00    -0.143 C  
BRANCH  15  16
HETATM   16  C   UNL     1      -8.973   9.133  67.923  1.00  0.00    -0.128 A  
HETATM   17  N   UNL     1      -9.416   8.367  66.891  1.00  0.00    -0.171 NA 
HETATM   18  C   UNL     1      -9.302   7.025  66.999  1.00  0.00    -0.146 A  
HETATM   19  C   UNL     1      -8.790   6.371  68.107  1.00  0.00    -0.114 A  
HETATM   20  C   UNL     1      -8.334   7.162  69.171  1.00  0.00    -0.129 A  
HETATM   21  C   UNL     1      -8.754   4.871  68.150  1.00  0.00    -0.108 C  
HETATM   22  C   UNL     1      -7.854   9.465  70.162  1.00  0.00    -0.148 C  
HETATM   23  C   UNL     1      -8.387   8.573  69.081  1.00  0.00    -0.120 A  
BRANCH  20  24
HETATM   24  O   UNL     1      -7.722   6.461  70.182  1.00  0.00    -0.094 OA 
HETATM   25  C   UNL     1      -8.470   6.230  71.371  1.00  0.00    -0.127 C  
ENDBRANCH  20  24
ENDBRANCH  15  16
ENDBRANCH  13  15
ENDBRANCH  10  13
ENDBRANCH   2   3
TORSDOF 5
ENDMDL
MODEL      205
REMARK 921   NORMALIZED FREE ENERGY PREDICTED BY IDOCK:   -3.93 KCAL/MOL
REMARK 922        TOTAL FREE ENERGY PREDICTED BY IDOCK:   -5.71 KCAL/MOL
REMARK 923 INTER-LIGAND FREE ENERGY PREDICTED BY IDOCK:   -5.35 KCAL/MOL
REMARK 924 INTRA-LIGAND FREE ENERGY PREDICTED BY IDOCK:   -0.36 KCAL/MOL
REMARK 927      BINDING AFFINITY PREDICTED BY RF-SCORE:    0.00 PKD
ROOT
HETATM    1  C   UNL     1      -5.469   8.439  65.606  1.00  0.00    -0.032 C  
HETATM    2  O   UNL     1      -6.864   8.172  65.677  1.00  0.00    -0.064 OA 
ENDROOT
BRANCH   2   3
HETATM    3  C   UNL     1      -7.687   9.263  65.542  1.00  0.00    -0.095 A  
HETATM    4  C   UNL     1      -7.747  10.340  66.441  1.00  0.00    -0.116 A  
HETATM    5  C   UNL     1      -8.678  11.368  66.203  1.00  0.00    -0.153 A  
HETATM    6  C   UNL     1      -9.500  11.279  65.087  1.00  0.00    -0.215 A  
HETATM    7  C   UNL     1      -9.460  10.228  64.170  1.00  0.00    -0.358 A  
HETATM    8  N   UNL     1     -10.277  12.401  65.152  1.00  0.00    -0.281 NA 
HETATM    9  C   UNL     1      -8.540   9.209  64.434  1.00  0.00    -0.204 A  
HETATM   10  C   UNL     1      -9.919  13.121  66.262  1.00  0.00    -0.285 A  
HETATM   11  H   UNL     1     -11.003  12.661  64.484  1.00  0.00     0.000 HD 
HETATM   12  N   UNL     1      -8.952  12.518  66.929  1.00  0.00    -0.210 NA 
BRANCH  10  13
HETATM   13  S   UNL     1     -10.680  14.643  66.626  1.00  0.00    -0.311 S  
HETATM   14  O   UNL     1     -12.145  14.322  66.734  1.00  0.00    -0.430 OA 
BRANCH  13  15
HETATM   15  C   UNL     1      -9.974  15.031  68.248  1.00  0.00    -0.225 C  
BRANCH  15  16
HETATM   16  C   UNL     1      -8.833  16.033  68.130  1.00  0.00    -0.178 A  
HETATM   17  N   UNL     1      -7.631  15.480  67.818  1.00  0.00    -0.133 NA 
HETATM   18  C   UNL     1      -6.567  16.302  67.688  1.00  0.00    -0.148 A  
HETATM   19  C   UNL     1      -6.611  17.673  67.879  1.00  0.00    -0.190 A  
HETATM   20  C   UNL     1      -7.851  18.242  68.201  1.00  0.00    -0.288 A  
HETATM   21  C   UNL     1      -5.358  18.493  67.761  1.00  0.00    -0.168 C  
HETATM   22  C   UNL     1     -10.363  17.992  68.577  1.00  0.00    -0.359 C  
HETATM   23  C   UNL     1      -9.002  17.426  68.299  1.00  0.00    -0.268 A  
BRANCH  20  24
HETATM   24  O   UNL     1      -7.853  19.616  68.252  1.00  0.00    -0.310 OA 
HETATM   25  C   UNL     1      -8.266  20.317  67.084  1.00  0.00    -0.334 C  
ENDBRANCH  20  24
ENDBRANCH  15  16
ENDBRANCH  13  15
ENDBRANCH  10  13
ENDBRANCH   2   3
TORSDOF 5
ENDMDL
MODEL      206
REMARK 921   NORMALIZED FREE ENERGY PREDICTED BY IDOCK:   -3.92 KCAL/MOL
REMARK 922        TOTAL FREE ENERGY PREDICTED BY IDOCK:   -5.71 KCAL/MOL
REMARK 923 INTER-LIGAND FREE ENERGY PREDICTED BY IDOCK:   -5.25 KCAL/MOL
REMARK 924 INTRA-LIGAND FREE ENERGY PREDICTED BY IDOCK:   -0.46 KCAL/MOL
REMARK 927      BINDING AFFINITY PREDICTED BY RF-SCORE:    0.00 PKD
ROOT
HETATM    1  C   UNL     1     -12.539  12.312  71.016  1.00  0.00    -0.257 C  
HETATM    2  O   UNL     1     -13.263  11.281  71.677  1.00  0.00    -0.419 OA 
ENDROOT
BRANCH   2   3
HETATM    3  C   UNL     1     -12.768  10.010  71.519  1.00  0.00    -0.429 A  
HETATM    4  C   UNL     1     -11.464   9.702  71.100  1.00  0.00    -0.456 A  
HETATM    5  C   UNL     1     -11.109   8.351  70.930  1.00  0.00    -0.254 A  
HETATM    6  C   UNL     1     -12.063   7.374  71.185  1.00  0.00    -0.325 A  
HETATM    7  C   UNL     1     -13.364   7.645  71.610  1.00  0.00    -0.400 A  
HETATM    8  N   UNL     1     -11.418   6.199  70.919  1.00  0.00    -0.297 NA 
HETATM    9  C   UNL     1     -13.700   8.994  71.756  1.00  0.00    -0.474 A  
HETATM   10  C   UNL     1     -10.135   6.479  70.527  1.00  0.00    -0.185 A  
HETATM   11  H   UNL     1     -11.825   5.266  71.000  1.00  0.00     0.000 HD 
HETATM   12  N   UNL     1      -9.914   7.781  70.517  1.00  0.00    -0.187 NA 
BRANCH  10  13
HETATM   13  S   UNL     1      -9.013   5.202  70.155  1.00  0.00    -0.122 S  
HETATM   14  O   UNL     1      -9.858   4.115  69.551  1.00  0.00    -0.206 OA 
BRANCH  13  15
HETATM   15  C   UNL     1      -7.961   5.985  68.906  1.00  0.00    -0.100 C  
BRANCH  15  16
HETATM   16  C   UNL     1      -7.913   5.161  67.627  1.00  0.00    -0.099 A  
HETATM   17  N   UNL     1      -6.993   4.161  67.640  1.00  0.00    -0.055 NA 
HETATM   18  C   UNL     1      -6.890   3.376  66.545  1.00  0.00    -0.053 A  
HETATM   19  C   UNL     1      -7.642   3.540  65.393  1.00  0.00    -0.078 A  
HETATM   20  C   UNL     1      -8.590   4.573  65.381  1.00  0.00    -0.126 A  
HETATM   21  C   UNL     1      -7.414   2.646  64.208  1.00  0.00    -0.070 C  
HETATM   22  C   UNL     1      -9.810   6.462  66.587  1.00  0.00    -0.203 C  
HETATM   23  C   UNL     1      -8.767   5.387  66.524  1.00  0.00    -0.117 A  
BRANCH  20  24
HETATM   24  O   UNL     1      -9.388   4.602  64.263  1.00  0.00    -0.131 OA 
HETATM   25  C   UNL     1     -10.658   3.964  64.343  1.00  0.00    -0.208 C  
ENDBRANCH  20  24
ENDBRANCH  15  16
ENDBRANCH  13  15
ENDBRANCH  10  13
ENDBRANCH   2   3
TORSDOF 5
ENDMDL
MODEL      207
REMARK 921   NORMALIZED FREE ENERGY PREDICTED BY IDOCK:   -3.91 KCAL/MOL
REMARK 922        TOTAL FREE ENERGY PREDICTED BY IDOCK:   -5.69 KCAL/MOL
REMARK 923 INTER-LIGAND FREE ENERGY PREDICTED BY IDOCK:   -5.35 KCAL/MOL
REMARK 924 INTRA-LIGAND FREE ENERGY PREDICTED BY IDOCK:   -0.34 KCAL/MOL
REMARK 927      BINDING AFFINITY PREDICTED BY RF-SCORE:    0.00 PKD
ROOT
HETATM    1  C   UNL     1     -10.126  17.973  67.643  1.00  0.00    -0.347 C  
HETATM    2  O   UNL     1     -11.396  17.337  67.718  1.00  0.00    -0.022 OA 
ENDROOT
BRANCH   2   3
HETATM    3  C   UNL     1     -11.377  16.007  68.061  1.00  0.00    -0.266 A  
HETATM    4  C   UNL     1     -11.910  15.477  69.247  1.00  0.00    -0.372 A  
HETATM    5  C   UNL     1     -11.773  14.099  69.493  1.00  0.00    -0.312 A  
HETATM    6  C   UNL     1     -11.116  13.316  68.551  1.00  0.00    -0.265 A  
HETATM    7  C   UNL     1     -10.583  13.809  67.360  1.00  0.00    -0.260 A  
HETATM    8  N   UNL     1     -11.142  12.058  69.085  1.00  0.00    -0.318 NA 
HETATM    9  C   UNL     1     -10.716  15.184  67.144  1.00  0.00    -0.310 A  
HETATM   10  C   UNL     1     -11.792  12.104  70.291  1.00  0.00    -0.254 A  
HETATM   11  H   UNL     1     -10.744  11.222  68.656  1.00  0.00     0.000 HD 
HETATM   12  N   UNL     1     -12.185  13.332  70.573  1.00  0.00    -0.364 NA 
BRANCH  10  13
HETATM   13  S   UNL     1     -12.049  10.658  71.226  1.00  0.00    -0.242 S  
HETATM   14  O   UNL     1     -13.535  10.605  71.446  1.00  0.00    -0.248 OA 
BRANCH  13  15
HETATM   15  C   UNL     1     -11.511   9.371  70.072  1.00  0.00    -0.077 C  
BRANCH  15  16
HETATM   16  C   UNL     1     -10.472   8.457  70.708  1.00  0.00    -0.197 A  
HETATM   17  N   UNL     1     -10.194   8.743  72.007  1.00  0.00    -0.334 NA 
HETATM   18  C   UNL     1      -9.287   7.974  72.648  1.00  0.00    -0.248 A  
HETATM   19  C   UNL     1      -8.596   6.926  72.061  1.00  0.00    -0.121 A  
HETATM   20  C   UNL     1      -8.884   6.633  70.721  1.00  0.00    -0.147 A  
HETATM   21  C   UNL     1      -7.568   6.164  72.846  1.00  0.00    -0.101 C  
HETATM   22  C   UNL     1     -10.254   7.065  68.612  1.00  0.00    -0.182 C  
HETATM   23  C   UNL     1      -9.863   7.379  70.025  1.00  0.00    -0.179 A  
BRANCH  20  24
HETATM   24  O   UNL     1      -8.262   5.507  70.237  1.00  0.00    -0.099 OA 
HETATM   25  C   UNL     1      -9.014   4.298  70.211  1.00  0.00    -0.090 C  
ENDBRANCH  20  24
ENDBRANCH  15  16
ENDBRANCH  13  15
ENDBRANCH  10  13
ENDBRANCH   2   3
TORSDOF 5
ENDMDL
MODEL      208
REMARK 921   NORMALIZED FREE ENERGY PREDICTED BY IDOCK:   -3.90 KCAL/MOL
REMARK 922        TOTAL FREE ENERGY PREDICTED BY IDOCK:   -5.68 KCAL/MOL
REMARK 923 INTER-LIGAND FREE ENERGY PREDICTED BY IDOCK:   -5.75 KCAL/MOL
REMARK 924 INTRA-LIGAND FREE ENERGY PREDICTED BY IDOCK:    0.07 KCAL/MOL
REMARK 927      BINDING AFFINITY PREDICTED BY RF-SCORE:    0.00 PKD
ROOT
HETATM    1  C   UNL     1      -7.820   1.758  67.678  1.00  0.00    -0.059 C  
HETATM    2  O   UNL     1      -9.175   2.114  67.924  1.00  0.00    -0.162 OA 
ENDROOT
BRANCH   2   3
HETATM    3  C   UNL     1      -9.367   3.189  68.757  1.00  0.00    -0.165 A  
HETATM    4  C   UNL     1      -9.701   4.484  68.332  1.00  0.00    -0.188 A  
HETATM    5  C   UNL     1      -9.816   5.504  69.295  1.00  0.00    -0.172 A  
HETATM    6  C   UNL     1      -9.595   5.188  70.629  1.00  0.00    -0.180 A  
HETATM    7  C   UNL     1      -9.269   3.910  71.087  1.00  0.00    -0.201 A  
HETATM    8  N   UNL     1      -9.768   6.373  71.288  1.00  0.00    -0.174 NA 
HETATM    9  C   UNL     1      -9.144   2.917  70.111  1.00  0.00    -0.189 A  
HETATM   10  C   UNL     1     -10.081   7.344  70.372  1.00  0.00    -0.192 A  
HETATM   11  H   UNL     1      -9.678   6.513  72.294  1.00  0.00     0.000 HD 
HETATM   12  N   UNL     1     -10.114   6.850  69.148  1.00  0.00    -0.169 NA 
BRANCH  10  13
HETATM   13  S   UNL     1     -10.417   8.976  70.876  1.00  0.00    -0.281 S  
HETATM   14  O   UNL     1      -9.081   9.530  71.289  1.00  0.00    -0.236 OA 
BRANCH  13  15
HETATM   15  C   UNL     1     -10.989   9.729  69.331  1.00  0.00    -0.212 C  
BRANCH  15  16
HETATM   16  C   UNL     1     -11.240  11.221  69.503  1.00  0.00    -0.272 A  
HETATM   17  N   UNL     1     -10.463  12.014  68.720  1.00  0.00    -0.211 NA 
HETATM   18  C   UNL     1     -10.628  13.352  68.806  1.00  0.00    -0.210 A  
HETATM   19  C   UNL     1     -11.520  13.976  69.663  1.00  0.00    -0.317 A  
HETATM   20  C   UNL     1     -12.321  13.156  70.471  1.00  0.00    -0.304 A  
HETATM   21  C   UNL     1     -11.590  15.474  69.721  1.00  0.00    -0.345 C  
HETATM   22  C   UNL     1     -13.095  10.827  71.171  1.00  0.00    -0.381 C  
HETATM   23  C   UNL     1     -12.217  11.749  70.378  1.00  0.00    -0.416 A  
BRANCH  20  24
HETATM   24  O   UNL     1     -13.270  13.829  71.202  1.00  0.00    -0.289 OA 
HETATM   25  C   UNL     1     -13.091  13.893  72.613  1.00  0.00    -0.429 C  
ENDBRANCH  20  24
ENDBRANCH  15  16
ENDBRANCH  13  15
ENDBRANCH  10  13
ENDBRANCH   2   3
TORSDOF 5
ENDMDL
MODEL      209
REMARK 921   NORMALIZED FREE ENERGY PREDICTED BY IDOCK:   -3.90 KCAL/MOL
REMARK 922        TOTAL FREE ENERGY PREDICTED BY IDOCK:   -5.68 KCAL/MOL
REMARK 923 INTER-LIGAND FREE ENERGY PREDICTED BY IDOCK:   -5.40 KCAL/MOL
REMARK 924 INTRA-LIGAND FREE ENERGY PREDICTED BY IDOCK:   -0.28 KCAL/MOL
REMARK 927      BINDING AFFINITY PREDICTED BY RF-SCORE:    0.00 PKD
ROOT
HETATM    1  C   UNL     1     -12.177  15.114  64.313  1.00  0.00    -0.240 C  
HETATM    2  O   UNL     1     -10.931  15.626  64.769  1.00  0.00    -0.436 OA 
ENDROOT
BRANCH   2   3
HETATM    3  C   UNL     1     -10.186  14.775  65.550  1.00  0.00    -0.374 A  
HETATM    4  C   UNL     1     -10.447  13.407  65.719  1.00  0.00    -0.291 A  
HETATM    5  C   UNL     1      -9.630  12.665  66.593  1.00  0.00    -0.249 A  
HETATM    6  C   UNL     1      -8.597  13.318  67.254  1.00  0.00    -0.210 A  
HETATM    7  C   UNL     1      -8.306  14.674  67.103  1.00  0.00    -0.236 A  
HETATM    8  N   UNL     1      -8.018  12.342  68.016  1.00  0.00    -0.140 NA 
HETATM    9  C   UNL     1      -9.140  15.394  66.242  1.00  0.00    -0.355 A  
HETATM   10  C   UNL     1      -8.686  11.164  67.806  1.00  0.00    -0.132 A  
HETATM   11  H   UNL     1      -7.220  12.469  68.639  1.00  0.00     0.000 HD 
HETATM   12  N   UNL     1      -9.677  11.325  66.949  1.00  0.00    -0.189 NA 
BRANCH  10  13
HETATM   13  S   UNL     1      -8.178   9.694  68.588  1.00  0.00    -0.107 S  
HETATM   14  O   UNL     1      -7.620  10.139  69.911  1.00  0.00    -0.152 OA 
BRANCH  13  15
HETATM   15  C   UNL     1      -9.753   8.825  68.800  1.00  0.00    -0.165 C  
BRANCH  15  16
HETATM   16  C   UNL     1      -9.843   8.169  70.171  1.00  0.00    -0.184 A  
HETATM   17  N   UNL     1     -10.495   8.910  71.106  1.00  0.00    -0.242 NA 
HETATM   18  C   UNL     1     -10.624   8.396  72.348  1.00  0.00    -0.335 A  
HETATM   19  C   UNL     1     -10.111   7.172  72.745  1.00  0.00    -0.230 A  
HETATM   20  C   UNL     1      -9.438   6.410  71.780  1.00  0.00    -0.153 A  
HETATM   21  C   UNL     1     -10.264   6.713  74.167  1.00  0.00    -0.390 C  
HETATM   22  C   UNL     1      -8.670   6.082  69.369  1.00  0.00    -0.121 C  
HETATM   23  C   UNL     1      -9.322   6.885  70.454  1.00  0.00    -0.159 A  
BRANCH  20  24
HETATM   24  O   UNL     1      -9.066   5.155  72.202  1.00  0.00    -0.135 OA 
HETATM   25  C   UNL     1      -9.949   4.075  71.916  1.00  0.00    -0.176 C  
ENDBRANCH  20  24
ENDBRANCH  15  16
ENDBRANCH  13  15
ENDBRANCH  10  13
ENDBRANCH   2   3
TORSDOF 5
ENDMDL
MODEL      210
REMARK 921   NORMALIZED FREE ENERGY PREDICTED BY IDOCK:   -3.89 KCAL/MOL
REMARK 922        TOTAL FREE ENERGY PREDICTED BY IDOCK:   -5.67 KCAL/MOL
REMARK 923 INTER-LIGAND FREE ENERGY PREDICTED BY IDOCK:   -5.36 KCAL/MOL
REMARK 924 INTRA-LIGAND FREE ENERGY PREDICTED BY IDOCK:   -0.31 KCAL/MOL
REMARK 927      BINDING AFFINITY PREDICTED BY RF-SCORE:    0.00 PKD
ROOT
HETATM    1  C   UNL     1     -11.829  14.752  64.619  1.00  0.00    -0.436 C  
HETATM    2  O   UNL     1     -10.545  15.143  65.089  1.00  0.00    -0.370 OA 
ENDROOT
BRANCH   2   3
HETATM    3  C   UNL     1      -9.945  14.280  65.974  1.00  0.00    -0.319 A  
HETATM    4  C   UNL     1     -10.332  12.947  66.181  1.00  0.00    -0.286 A  
HETATM    5  C   UNL     1      -9.660  12.192  67.161  1.00  0.00    -0.194 A  
HETATM    6  C   UNL     1      -8.640  12.797  67.884  1.00  0.00    -0.181 A  
HETATM    7  C   UNL     1      -8.226  14.116  67.698  1.00  0.00    -0.193 A  
HETATM    8  N   UNL     1      -8.213  11.822  68.742  1.00  0.00    -0.327 NA 
HETATM    9  C   UNL     1      -8.918  14.852  66.731  1.00  0.00    -0.295 A  
HETATM   10  C   UNL     1      -8.954  10.689  68.525  1.00  0.00    -0.156 A  
HETATM   11  H   UNL     1      -7.466  11.920  69.430  1.00  0.00     0.000 HD 
HETATM   12  N   UNL     1      -9.848  10.881  67.572  1.00  0.00    -0.167 NA 
BRANCH  10  13
HETATM   13  S   UNL     1      -8.641   9.229  69.418  1.00  0.00    -0.152 S  
HETATM   14  O   UNL     1      -8.382   9.690  70.826  1.00  0.00    -0.264 OA 
BRANCH  13  15
HETATM   15  C   UNL     1     -10.231   8.371  69.292  1.00  0.00    -0.208 C  
BRANCH  15  16
HETATM   16  C   UNL     1     -10.095   6.897  69.651  1.00  0.00    -0.184 A  
HETATM   17  N   UNL     1     -10.045   6.648  70.987  1.00  0.00    -0.187 NA 
HETATM   18  C   UNL     1      -9.932   5.364  71.391  1.00  0.00    -0.184 A  
HETATM   19  C   UNL     1      -9.833   4.281  70.533  1.00  0.00    -0.269 A  
HETATM   20  C   UNL     1      -9.883   4.540  69.156  1.00  0.00    -0.152 A  
HETATM   21  C   UNL     1      -9.657   2.895  71.083  1.00  0.00    -0.226 C  
HETATM   22  C   UNL     1     -10.177   6.187  67.229  1.00  0.00    -0.236 C  
HETATM   23  C   UNL     1     -10.052   5.863  68.688  1.00  0.00    -0.213 A  
BRANCH  20  24
HETATM   24  O   UNL     1      -9.909   3.416  68.365  1.00  0.00    -0.043 OA 
HETATM   25  C   UNL     1      -8.721   3.084  67.654  1.00  0.00    -0.117 C  
ENDBRANCH  20  24
ENDBRANCH  15  16
ENDBRANCH  13  15
ENDBRANCH  10  13
ENDBRANCH   2   3
TORSDOF 5
ENDMDL
MODEL      211
REMARK 921   NORMALIZED FREE ENERGY PREDICTED BY IDOCK:   -3.89 KCAL/MOL
REMARK 922        TOTAL FREE ENERGY PREDICTED BY IDOCK:   -5.66 KCAL/MOL
REMARK 923 INTER-LIGAND FREE ENERGY PREDICTED BY IDOCK:   -5.38 KCAL/MOL
REMARK 924 INTRA-LIGAND FREE ENERGY PREDICTED BY IDOCK:   -0.29 KCAL/MOL
REMARK 927      BINDING AFFINITY PREDICTED BY RF-SCORE:    0.00 PKD
ROOT
HETATM    1  C   UNL     1      -9.526   3.887  68.368  1.00  0.00    -0.147 C  
HETATM    2  O   UNL     1      -9.203   4.958  69.247  1.00  0.00    -0.098 OA 
ENDROOT
BRANCH   2   3
HETATM    3  C   UNL     1      -9.045   6.187  68.655  1.00  0.00    -0.125 A  
HETATM    4  C   UNL     1     -10.031   6.852  67.909  1.00  0.00    -0.174 A  
HETATM    5  C   UNL     1      -9.712   8.086  67.314  1.00  0.00    -0.177 A  
HETATM    6  C   UNL     1      -8.433   8.600  67.489  1.00  0.00    -0.124 A  
HETATM    7  C   UNL     1      -7.433   7.970  68.230  1.00  0.00    -0.100 A  
HETATM    8  N   UNL     1      -8.445   9.775  66.791  1.00  0.00    -0.124 NA 
HETATM    9  C   UNL     1      -7.767   6.737  68.799  1.00  0.00    -0.110 A  
HETATM   10  C   UNL     1      -9.685   9.942  66.232  1.00  0.00    -0.222 A  
HETATM   11  H   UNL     1      -7.661  10.421  66.701  1.00  0.00     0.000 HD 
HETATM   12  N   UNL     1     -10.481   8.930  66.525  1.00  0.00    -0.191 NA 
BRANCH  10  13
HETATM   13  S   UNL     1     -10.067  11.368  65.308  1.00  0.00    -0.282 S  
HETATM   14  O   UNL     1     -10.766  10.851  64.081  1.00  0.00    -0.362 OA 
BRANCH  13  15
HETATM   15  C   UNL     1     -11.221  12.224  66.409  1.00  0.00    -0.324 C  
BRANCH  15  16
HETATM   16  C   UNL     1     -10.613  13.506  66.960  1.00  0.00    -0.269 A  
HETATM   17  N   UNL     1      -9.985  14.274  66.030  1.00  0.00    -0.307 NA 
HETATM   18  C   UNL     1      -9.424  15.433  66.436  1.00  0.00    -0.296 A  
HETATM   19  C   UNL     1      -9.418  15.883  67.746  1.00  0.00    -0.216 A  
HETATM   20  C   UNL     1     -10.066  15.090  68.704  1.00  0.00    -0.233 A  
HETATM   21  C   UNL     1      -8.720  17.163  68.103  1.00  0.00    -0.232 C  
HETATM   22  C   UNL     1     -11.471  13.041  69.289  1.00  0.00    -0.348 C  
HETATM   23  C   UNL     1     -10.711  13.892  68.316  1.00  0.00    -0.261 A  
BRANCH  20  24
HETATM   24  O   UNL     1     -10.135  15.651  69.957  1.00  0.00    -0.293 OA 
HETATM   25  C   UNL     1     -11.393  16.169  70.378  1.00  0.00    -0.363 C  
ENDBRANCH  20  24
ENDBRANCH  15  16
ENDBRANCH  13  15
ENDBRANCH  10  13
ENDBRANCH   2   3
TORSDOF 5
ENDMDL
MODEL      212
REMARK 921   NORMALIZED FREE ENERGY PREDICTED BY IDOCK:   -3.88 KCAL/MOL
REMARK 922        TOTAL FREE ENERGY PREDICTED BY IDOCK:   -5.65 KCAL/MOL
REMARK 923 INTER-LIGAND FREE ENERGY PREDICTED BY IDOCK:   -5.43 KCAL/MOL
REMARK 924 INTRA-LIGAND FREE ENERGY PREDICTED BY IDOCK:   -0.22 KCAL/MOL
REMARK 927      BINDING AFFINITY PREDICTED BY RF-SCORE:    0.00 PKD
ROOT
HETATM    1  C   UNL     1      -8.005   6.788  74.541  1.00  0.00    -0.129 C  
HETATM    2  O   UNL     1      -7.319   6.896  73.300  1.00  0.00    -0.075 OA 
ENDROOT
BRANCH   2   3
HETATM    3  C   UNL     1      -7.867   7.767  72.390  1.00  0.00    -0.106 A  
HETATM    4  C   UNL     1      -9.204   8.195  72.394  1.00  0.00    -0.292 A  
HETATM    5  C   UNL     1      -9.643   9.052  71.367  1.00  0.00    -0.285 A  
HETATM    6  C   UNL     1      -8.734   9.441  70.390  1.00  0.00    -0.240 A  
HETATM    7  C   UNL     1      -7.398   9.041  70.362  1.00  0.00    -0.084 A  
HETATM    8  N   UNL     1      -9.463  10.241  69.555  1.00  0.00    -0.316 NA 
HETATM    9  C   UNL     1      -6.988   8.178  71.383  1.00  0.00    -0.059 A  
HETATM   10  C   UNL     1     -10.747  10.318  70.028  1.00  0.00    -0.292 A  
HETATM   11  H   UNL     1      -9.109  10.705  68.718  1.00  0.00     0.000 HD 
HETATM   12  N   UNL     1     -10.893   9.602  71.127  1.00  0.00    -0.353 NA 
BRANCH  10  13
HETATM   13  S   UNL     1     -11.939  11.301  69.226  1.00  0.00    -0.317 S  
HETATM   14  O   UNL     1     -12.267  12.386  70.215  1.00  0.00    -0.327 OA 
BRANCH  13  15
HETATM   15  C   UNL     1     -10.998  11.954  67.824  1.00  0.00    -0.228 C  
BRANCH  15  16
HETATM   16  C   UNL     1     -10.749  13.449  67.974  1.00  0.00    -0.248 A  
HETATM   17  N   UNL     1     -11.871  14.213  67.920  1.00  0.00    -0.364 NA 
HETATM   18  C   UNL     1     -11.739  15.551  68.051  1.00  0.00    -0.186 A  
HETATM   19  C   UNL     1     -10.527  16.204  68.209  1.00  0.00    -0.276 A  
HETATM   20  C   UNL     1      -9.370  15.414  68.264  1.00  0.00    -0.193 A  
HETATM   21  C   UNL     1     -10.482  17.702  68.294  1.00  0.00    -0.376 C  
HETATM   22  C   UNL     1      -8.267  13.113  68.298  1.00  0.00    -0.154 C  
HETATM   23  C   UNL     1      -9.466  14.006  68.181  1.00  0.00    -0.215 A  
BRANCH  20  24
HETATM   24  O   UNL     1      -8.218  16.109  68.549  1.00  0.00    -0.168 OA 
HETATM   25  C   UNL     1      -7.327  16.378  67.471  1.00  0.00    -0.145 C  
ENDBRANCH  20  24
ENDBRANCH  15  16
ENDBRANCH  13  15
ENDBRANCH  10  13
ENDBRANCH   2   3
TORSDOF 5
ENDMDL
MODEL      213
REMARK 921   NORMALIZED FREE ENERGY PREDICTED BY IDOCK:   -3.88 KCAL/MOL
REMARK 922        TOTAL FREE ENERGY PREDICTED BY IDOCK:   -5.65 KCAL/MOL
REMARK 923 INTER-LIGAND FREE ENERGY PREDICTED BY IDOCK:   -5.24 KCAL/MOL
REMARK 924 INTRA-LIGAND FREE ENERGY PREDICTED BY IDOCK:   -0.41 KCAL/MOL
REMARK 927      BINDING AFFINITY PREDICTED BY RF-SCORE:    0.00 PKD
ROOT
HETATM    1  C   UNL     1     -14.108  15.544  72.499  1.00  0.00    -0.506 C  
HETATM    2  O   UNL     1     -14.027  14.245  71.927  1.00  0.00    -0.409 OA 
ENDROOT
BRANCH   2   3
HETATM    3  C   UNL     1     -13.003  14.050  71.032  1.00  0.00    -0.308 A  
HETATM    4  C   UNL     1     -12.567  12.798  70.572  1.00  0.00    -0.191 A  
HETATM    5  C   UNL     1     -11.468  12.745  69.693  1.00  0.00    -0.185 A  
HETATM    6  C   UNL     1     -10.859  13.936  69.316  1.00  0.00    -0.135 A  
HETATM    7  C   UNL     1     -11.272  15.196  69.749  1.00  0.00    -0.298 A  
HETATM    8  N   UNL     1      -9.843  13.545  68.490  1.00  0.00    -0.324 NA 
HETATM    9  C   UNL     1     -12.354  15.223  70.634  1.00  0.00    -0.427 A  
HETATM   10  C   UNL     1      -9.861  12.179  68.385  1.00  0.00    -0.200 A  
HETATM   11  H   UNL     1      -9.181  14.167  68.026  1.00  0.00     0.000 HD 
HETATM   12  N   UNL     1     -10.835  11.658  69.110  1.00  0.00    -0.211 NA 
BRANCH  10  13
HETATM   13  S   UNL     1      -8.725  11.343  67.365  1.00  0.00    -0.149 S  
HETATM   14  O   UNL     1      -7.566  12.291  67.227  1.00  0.00    -0.148 OA 
BRANCH  13  15
HETATM   15  C   UNL     1      -8.286   9.916  68.391  1.00  0.00    -0.107 C  
BRANCH  15  16
HETATM   16  C   UNL     1      -8.779   8.616  67.771  1.00  0.00    -0.137 A  
HETATM   17  N   UNL     1     -10.062   8.296  68.087  1.00  0.00    -0.192 NA 
HETATM   18  C   UNL     1     -10.580   7.160  67.572  1.00  0.00    -0.278 A  
HETATM   19  C   UNL     1      -9.881   6.279  66.763  1.00  0.00    -0.208 A  
HETATM   20  C   UNL     1      -8.558   6.610  66.439  1.00  0.00    -0.130 A  
HETATM   21  C   UNL     1     -10.532   5.014  66.283  1.00  0.00    -0.352 C  
HETATM   22  C   UNL     1      -6.603   8.248  66.545  1.00  0.00    -0.056 C  
HETATM   23  C   UNL     1      -7.990   7.815  66.914  1.00  0.00    -0.112 A  
BRANCH  20  24
HETATM   24  O   UNL     1      -7.963   5.764  65.533  1.00  0.00    -0.103 OA 
HETATM   25  C   UNL     1      -7.051   4.795  66.037  1.00  0.00    -0.075 C  
ENDBRANCH  20  24
ENDBRANCH  15  16
ENDBRANCH  13  15
ENDBRANCH  10  13
ENDBRANCH   2   3
TORSDOF 5
ENDMDL
MODEL      214
REMARK 921   NORMALIZED FREE ENERGY PREDICTED BY IDOCK:   -3.87 KCAL/MOL
REMARK 922        TOTAL FREE ENERGY PREDICTED BY IDOCK:   -5.65 KCAL/MOL
REMARK 923 INTER-LIGAND FREE ENERGY PREDICTED BY IDOCK:   -5.25 KCAL/MOL
REMARK 924 INTRA-LIGAND FREE ENERGY PREDICTED BY IDOCK:   -0.39 KCAL/MOL
REMARK 927      BINDING AFFINITY PREDICTED BY RF-SCORE:    0.00 PKD
ROOT
HETATM    1  C   UNL     1      -6.139   8.512  73.558  1.00  0.00    -0.118 C  
HETATM    2  O   UNL     1      -6.457   8.047  72.252  1.00  0.00    -0.056 OA 
ENDROOT
BRANCH   2   3
HETATM    3  C   UNL     1      -6.755   9.020  71.329  1.00  0.00    -0.085 A  
HETATM    4  C   UNL     1      -7.949   9.089  70.594  1.00  0.00    -0.159 A  
HETATM    5  C   UNL     1      -8.098  10.115  69.642  1.00  0.00    -0.168 A  
HETATM    6  C   UNL     1      -7.058  11.018  69.467  1.00  0.00    -0.113 A  
HETATM    7  C   UNL     1      -5.862  10.982  70.186  1.00  0.00    -0.117 A  
HETATM    8  N   UNL     1      -7.504  11.858  68.485  1.00  0.00    -0.112 NA 
HETATM    9  C   UNL     1      -5.730   9.946  71.115  1.00  0.00    -0.071 A  
HETATM   10  C   UNL     1      -8.759  11.461  68.103  1.00  0.00    -0.154 A  
HETATM   11  H   UNL     1      -6.989  12.649  68.100  1.00  0.00     0.000 HD 
HETATM   12  N   UNL     1      -9.150  10.399  68.784  1.00  0.00    -0.156 NA 
BRANCH  10  13
HETATM   13  S   UNL     1      -9.650  12.344  66.897  1.00  0.00    -0.224 S  
HETATM   14  O   UNL     1      -9.549  11.502  65.655  1.00  0.00    -0.223 OA 
BRANCH  13  15
HETATM   15  C   UNL     1     -11.328  12.309  67.577  1.00  0.00    -0.325 C  
BRANCH  15  16
HETATM   16  C   UNL     1     -11.498  13.340  68.684  1.00  0.00    -0.304 A  
HETATM   17  N   UNL     1     -11.236  14.619  68.305  1.00  0.00    -0.272 NA 
HETATM   18  C   UNL     1     -11.370  15.597  69.227  1.00  0.00    -0.345 A  
HETATM   19  C   UNL     1     -11.730  15.382  70.547  1.00  0.00    -0.356 A  
HETATM   20  C   UNL     1     -11.999  14.063  70.937  1.00  0.00    -0.267 A  
HETATM   21  C   UNL     1     -11.801  16.534  71.508  1.00  0.00    -0.081 C  
HETATM   22  C   UNL     1     -12.261  11.595  70.342  1.00  0.00    -0.434 C  
HETATM   23  C   UNL     1     -11.921  13.013  69.993  1.00  0.00    -0.383 A  
BRANCH  20  24
HETATM   24  O   UNL     1     -12.474  13.933  72.221  1.00  0.00    -0.165 OA 
HETATM   25  C   UNL     1     -13.792  13.423  72.388  1.00  0.00    -0.564 C  
ENDBRANCH  20  24
ENDBRANCH  15  16
ENDBRANCH  13  15
ENDBRANCH  10  13
ENDBRANCH   2   3
TORSDOF 5
ENDMDL
MODEL      215
REMARK 921   NORMALIZED FREE ENERGY PREDICTED BY IDOCK:   -3.85 KCAL/MOL
REMARK 922        TOTAL FREE ENERGY PREDICTED BY IDOCK:   -5.62 KCAL/MOL
REMARK 923 INTER-LIGAND FREE ENERGY PREDICTED BY IDOCK:   -5.22 KCAL/MOL
REMARK 924 INTRA-LIGAND FREE ENERGY PREDICTED BY IDOCK:   -0.39 KCAL/MOL
REMARK 927      BINDING AFFINITY PREDICTED BY RF-SCORE:    0.00 PKD
ROOT
HETATM    1  C   UNL     1     -13.320  12.370  72.082  1.00  0.00    -0.403 C  
HETATM    2  O   UNL     1     -12.786  11.647  70.980  1.00  0.00    -0.328 OA 
ENDROOT
BRANCH   2   3
HETATM    3  C   UNL     1     -12.479  10.330  71.224  1.00  0.00    -0.408 A  
HETATM    4  C   UNL     1     -11.183   9.792  71.208  1.00  0.00    -0.417 A  
HETATM    5  C   UNL     1     -11.021   8.411  71.425  1.00  0.00    -0.253 A  
HETATM    6  C   UNL     1     -12.151   7.634  71.646  1.00  0.00    -0.306 A  
HETATM    7  C   UNL     1     -13.452   8.138  71.676  1.00  0.00    -0.363 A  
HETATM    8  N   UNL     1     -11.662   6.367  71.804  1.00  0.00    -0.317 NA 
HETATM    9  C   UNL     1     -13.590   9.509  71.443  1.00  0.00    -0.353 A  
HETATM   10  C   UNL     1     -10.297   6.404  71.682  1.00  0.00    -0.205 A  
HETATM   11  H   UNL     1     -12.220   5.532  71.983  1.00  0.00     0.000 HD 
HETATM   12  N   UNL     1      -9.873   7.632  71.445  1.00  0.00    -0.173 NA 
BRANCH  10  13
HETATM   13  S   UNL     1      -9.341   4.963  71.876  1.00  0.00    -0.146 S  
HETATM   14  O   UNL     1     -10.283   3.834  71.560  1.00  0.00    -0.108 OA 
BRANCH  13  15
HETATM   15  C   UNL     1      -8.099   5.164  70.574  1.00  0.00    -0.095 C  
BRANCH  15  16
HETATM   16  C   UNL     1      -8.672   4.824  69.205  1.00  0.00    -0.083 A  
HETATM   17  N   UNL     1      -9.265   5.869  68.570  1.00  0.00    -0.117 NA 
HETATM   18  C   UNL     1      -9.794   5.652  67.345  1.00  0.00    -0.143 A  
HETATM   19  C   UNL     1      -9.799   4.426  66.702  1.00  0.00    -0.246 A  
HETATM   20  C   UNL     1      -9.188   3.349  67.359  1.00  0.00    -0.195 A  
HETATM   21  C   UNL     1     -10.460   4.278  65.362  1.00  0.00    -0.192 C  
HETATM   22  C   UNL     1      -7.855   2.438  69.336  1.00  0.00    -0.050 C  
HETATM   23  C   UNL     1      -8.577   3.540  68.620  1.00  0.00    -0.122 A  
BRANCH  20  24
HETATM   24  O   UNL     1      -9.114   2.195  66.616  1.00  0.00    -0.126 OA 
HETATM   25  C   UNL     1      -7.895   1.929  65.931  1.00  0.00    -0.072 C  
ENDBRANCH  20  24
ENDBRANCH  15  16
ENDBRANCH  13  15
ENDBRANCH  10  13
ENDBRANCH   2   3
TORSDOF 5
ENDMDL
MODEL      216
REMARK 921   NORMALIZED FREE ENERGY PREDICTED BY IDOCK:   -3.84 KCAL/MOL
REMARK 922        TOTAL FREE ENERGY PREDICTED BY IDOCK:   -5.61 KCAL/MOL
REMARK 923 INTER-LIGAND FREE ENERGY PREDICTED BY IDOCK:   -5.66 KCAL/MOL
REMARK 924 INTRA-LIGAND FREE ENERGY PREDICTED BY IDOCK:    0.05 KCAL/MOL
REMARK 927      BINDING AFFINITY PREDICTED BY RF-SCORE:    0.00 PKD
ROOT
HETATM    1  C   UNL     1     -13.542  15.605  72.072  1.00  0.00    -0.441 C  
HETATM    2  O   UNL     1     -14.090  14.294  72.147  1.00  0.00    -0.467 OA 
ENDROOT
BRANCH   2   3
HETATM    3  C   UNL     1     -13.337  13.299  71.573  1.00  0.00    -0.249 A  
HETATM    4  C   UNL     1     -13.274  11.974  72.033  1.00  0.00    -0.481 A  
HETATM    5  C   UNL     1     -12.417  11.071  71.377  1.00  0.00    -0.331 A  
HETATM    6  C   UNL     1     -11.668  11.526  70.299  1.00  0.00    -0.289 A  
HETATM    7  C   UNL     1     -11.713  12.833  69.812  1.00  0.00    -0.352 A  
HETATM    8  N   UNL     1     -10.949  10.432  69.905  1.00  0.00    -0.286 NA 
HETATM    9  C   UNL     1     -12.558  13.717  70.490  1.00  0.00    -0.361 A  
HETATM   10  C   UNL     1     -11.269   9.378  70.720  1.00  0.00    -0.302 A  
HETATM   11  H   UNL     1     -10.284  10.405  69.132  1.00  0.00     0.000 HD 
HETATM   12  N   UNL     1     -12.156   9.733  71.631  1.00  0.00    -0.398 NA 
BRANCH  10  13
HETATM   13  S   UNL     1     -10.567   7.805  70.468  1.00  0.00    -0.230 S  
HETATM   14  O   UNL     1     -11.474   6.859  71.206  1.00  0.00    -0.267 OA 
BRANCH  13  15
HETATM   15  C   UNL     1     -10.735   7.609  68.675  1.00  0.00    -0.059 C  
BRANCH  15  16
HETATM   16  C   UNL     1      -9.741   6.590  68.135  1.00  0.00    -0.126 A  
HETATM   17  N   UNL     1      -9.619   5.469  68.894  1.00  0.00    -0.129 NA 
HETATM   18  C   UNL     1      -8.761   4.510  68.480  1.00  0.00    -0.099 A  
HETATM   19  C   UNL     1      -7.973   4.604  67.345  1.00  0.00    -0.101 A  
HETATM   20  C   UNL     1      -8.100   5.761  66.563  1.00  0.00    -0.102 A  
HETATM   21  C   UNL     1      -7.012   3.503  66.999  1.00  0.00    -0.054 C  
HETATM   22  C   UNL     1      -9.243   7.994  66.096  1.00  0.00    -0.219 C  
HETATM   23  C   UNL     1      -9.022   6.768  66.931  1.00  0.00    -0.133 A  
BRANCH  20  24
HETATM   24  O   UNL     1      -7.389   5.736  65.387  1.00  0.00    -0.072 OA 
HETATM   25  C   UNL     1      -8.115   5.899  64.174  1.00  0.00    -0.110 C  
ENDBRANCH  20  24
ENDBRANCH  15  16
ENDBRANCH  13  15
ENDBRANCH  10  13
ENDBRANCH   2   3
TORSDOF 5
ENDMDL
MODEL      217
REMARK 921   NORMALIZED FREE ENERGY PREDICTED BY IDOCK:   -3.84 KCAL/MOL
REMARK 922        TOTAL FREE ENERGY PREDICTED BY IDOCK:   -5.60 KCAL/MOL
REMARK 923 INTER-LIGAND FREE ENERGY PREDICTED BY IDOCK:   -5.02 KCAL/MOL
REMARK 924 INTRA-LIGAND FREE ENERGY PREDICTED BY IDOCK:   -0.58 KCAL/MOL
REMARK 927      BINDING AFFINITY PREDICTED BY RF-SCORE:    0.00 PKD
ROOT
HETATM    1  C   UNL     1     -12.769  12.167  63.337  1.00  0.00    -0.381 C  
HETATM    2  O   UNL     1     -11.445  12.687  63.368  1.00  0.00    -0.487 OA 
ENDROOT
BRANCH   2   3
HETATM    3  C   UNL     1     -10.582  12.066  64.238  1.00  0.00    -0.334 A  
HETATM    4  C   UNL     1     -10.067  10.771  64.070  1.00  0.00    -0.410 A  
HETATM    5  C   UNL     1      -9.231  10.241  65.070  1.00  0.00    -0.213 A  
HETATM    6  C   UNL     1      -8.947  11.021  66.184  1.00  0.00    -0.191 A  
HETATM    7  C   UNL     1      -9.436  12.313  66.379  1.00  0.00    -0.240 A  
HETATM    8  N   UNL     1      -8.140  10.228  66.951  1.00  0.00    -0.118 NA 
HETATM    9  C   UNL     1     -10.277  12.814  65.380  1.00  0.00    -0.299 A  
HETATM   10  C   UNL     1      -7.957   9.032  66.308  1.00  0.00    -0.103 A  
HETATM   11  H   UNL     1      -7.740  10.484  67.854  1.00  0.00     0.000 HD 
HETATM   12  N   UNL     1      -8.611   9.003  65.161  1.00  0.00    -0.170 NA 
BRANCH  10  13
HETATM   13  S   UNL     1      -6.935   7.797  66.986  1.00  0.00    -0.078 S  
HETATM   14  O   UNL     1      -6.205   8.479  68.110  1.00  0.00    -0.049 OA 
BRANCH  13  15
HETATM   15  C   UNL     1      -8.153   6.615  67.618  1.00  0.00    -0.119 C  
BRANCH  15  16
HETATM   16  C   UNL     1      -8.909   7.184  68.811  1.00  0.00    -0.130 A  
HETATM   17  N   UNL     1      -9.973   7.963  68.481  1.00  0.00    -0.181 NA 
HETATM   18  C   UNL     1     -10.703   8.502  69.482  1.00  0.00    -0.174 A  
HETATM   19  C   UNL     1     -10.422   8.339  70.828  1.00  0.00    -0.223 A  
HETATM   20  C   UNL     1      -9.324   7.536  71.167  1.00  0.00    -0.151 A  
HETATM   21  C   UNL     1     -11.266   9.024  71.865  1.00  0.00    -0.438 C  
HETATM   22  C   UNL     1      -7.419   5.991  70.463  1.00  0.00    -0.090 C  
HETATM   23  C   UNL     1      -8.562   6.910  70.153  1.00  0.00    -0.141 A  
BRANCH  20  24
HETATM   24  O   UNL     1      -9.177   7.310  72.515  1.00  0.00    -0.136 OA 
HETATM   25  C   UNL     1      -9.804   6.155  73.062  1.00  0.00    -0.168 C  
ENDBRANCH  20  24
ENDBRANCH  15  16
ENDBRANCH  13  15
ENDBRANCH  10  13
ENDBRANCH   2   3
TORSDOF 5
ENDMDL
MODEL      218
REMARK 921   NORMALIZED FREE ENERGY PREDICTED BY IDOCK:   -3.84 KCAL/MOL
REMARK 922        TOTAL FREE ENERGY PREDICTED BY IDOCK:   -5.60 KCAL/MOL
REMARK 923 INTER-LIGAND FREE ENERGY PREDICTED BY IDOCK:   -5.19 KCAL/MOL
REMARK 924 INTRA-LIGAND FREE ENERGY PREDICTED BY IDOCK:   -0.41 KCAL/MOL
REMARK 927      BINDING AFFINITY PREDICTED BY RF-SCORE:    0.00 PKD
ROOT
HETATM    1  C   UNL     1     -10.104   6.928  73.839  1.00  0.00    -0.357 C  
HETATM    2  O   UNL     1      -8.927   7.392  73.190  1.00  0.00    -0.133 OA 
ENDROOT
BRANCH   2   3
HETATM    3  C   UNL     1      -9.002   7.497  71.822  1.00  0.00    -0.122 A  
HETATM    4  C   UNL     1      -7.915   7.769  70.977  1.00  0.00    -0.090 A  
HETATM    5  C   UNL     1      -8.148   7.900  69.595  1.00  0.00    -0.117 A  
HETATM    6  C   UNL     1      -9.447   7.755  69.122  1.00  0.00    -0.151 A  
HETATM    7  C   UNL     1     -10.548   7.477  69.933  1.00  0.00    -0.243 A  
HETATM    8  N   UNL     1      -9.336   7.950  67.774  1.00  0.00    -0.140 NA 
HETATM    9  C   UNL     1     -10.295   7.367  71.304  1.00  0.00    -0.203 A  
HETATM   10  C   UNL     1      -8.022   8.196  67.471  1.00  0.00    -0.122 A  
HETATM   11  H   UNL     1     -10.104   7.917  67.103  1.00  0.00     0.000 HD 
HETATM   12  N   UNL     1      -7.272   8.178  68.557  1.00  0.00    -0.086 NA 
BRANCH  10  13
HETATM   13  S   UNL     1      -7.513   8.442  65.825  1.00  0.00    -0.078 S  
HETATM   14  O   UNL     1      -8.634   7.887  64.991  1.00  0.00    -0.104 OA 
BRANCH  13  15
HETATM   15  C   UNL     1      -7.454  10.250  65.723  1.00  0.00    -0.144 C  
BRANCH  15  16
HETATM   16  C   UNL     1      -8.647  10.883  66.425  1.00  0.00    -0.160 A  
HETATM   17  N   UNL     1      -8.411  11.249  67.712  1.00  0.00    -0.121 NA 
HETATM   18  C   UNL     1      -9.417  11.826  68.405  1.00  0.00    -0.188 A  
HETATM   19  C   UNL     1     -10.688  12.044  67.901  1.00  0.00    -0.243 A  
HETATM   20  C   UNL     1     -10.931  11.664  66.573  1.00  0.00    -0.299 A  
HETATM   21  C   UNL     1     -11.754  12.645  68.772  1.00  0.00    -0.364 C  
HETATM   22  C   UNL     1     -10.082  10.741  64.351  1.00  0.00    -0.419 C  
HETATM   23  C   UNL     1      -9.893  11.103  65.794  1.00  0.00    -0.279 A  
BRANCH  20  24
HETATM   24  O   UNL     1     -12.169  12.023  66.095  1.00  0.00    -0.552 OA 
HETATM   25  C   UNL     1     -12.288  13.293  65.464  1.00  0.00    -0.480 C  
ENDBRANCH  20  24
ENDBRANCH  15  16
ENDBRANCH  13  15
ENDBRANCH  10  13
ENDBRANCH   2   3
TORSDOF 5
ENDMDL
MODEL      219
REMARK 921   NORMALIZED FREE ENERGY PREDICTED BY IDOCK:   -3.83 KCAL/MOL
REMARK 922        TOTAL FREE ENERGY PREDICTED BY IDOCK:   -5.59 KCAL/MOL
REMARK 923 INTER-LIGAND FREE ENERGY PREDICTED BY IDOCK:   -5.36 KCAL/MOL
REMARK 924 INTRA-LIGAND FREE ENERGY PREDICTED BY IDOCK:   -0.23 KCAL/MOL
REMARK 927      BINDING AFFINITY PREDICTED BY RF-SCORE:    0.00 PKD
ROOT
HETATM    1  C   UNL     1     -13.127  11.362  71.809  1.00  0.00    -0.418 C  
HETATM    2  O   UNL     1     -12.330  11.015  70.683  1.00  0.00    -0.328 OA 
ENDROOT
BRANCH   2   3
HETATM    3  C   UNL     1     -11.982  12.056  69.856  1.00  0.00    -0.318 A  
HETATM    4  C   UNL     1     -11.594  13.332  70.292  1.00  0.00    -0.096 A  
HETATM    5  C   UNL     1     -11.315  14.320  69.330  1.00  0.00    -0.283 A  
HETATM    6  C   UNL     1     -11.435  13.993  67.985  1.00  0.00    -0.311 A  
HETATM    7  C   UNL     1     -11.811  12.733  67.518  1.00  0.00    -0.402 A  
HETATM    8  N   UNL     1     -11.115  15.149  67.329  1.00  0.00    -0.328 NA 
HETATM    9  C   UNL     1     -12.098  11.772  68.492  1.00  0.00    -0.134 A  
HETATM   10  C   UNL     1     -10.816  16.113  68.256  1.00  0.00    -0.326 A  
HETATM   11  H   UNL     1     -11.100  15.273  66.317  1.00  0.00     0.000 HD 
HETATM   12  N   UNL     1     -10.933  15.644  69.485  1.00  0.00    -0.256 NA 
BRANCH  10  13
HETATM   13  S   UNL     1     -10.316  17.706  67.763  1.00  0.00    -0.377 S  
HETATM   14  O   UNL     1     -10.098  18.453  69.050  1.00  0.00    -0.379 OA 
BRANCH  13  15
HETATM   15  C   UNL     1      -8.743  17.359  66.933  1.00  0.00    -0.246 C  
BRANCH  15  16
HETATM   16  C   UNL     1      -8.031  16.174  67.571  1.00  0.00    -0.150 A  
HETATM   17  N   UNL     1      -8.319  14.974  67.002  1.00  0.00    -0.215 NA 
HETATM   18  C   UNL     1      -7.722  13.871  67.504  1.00  0.00    -0.179 A  
HETATM   19  C   UNL     1      -6.855  13.875  68.584  1.00  0.00    -0.101 A  
HETATM   20  C   UNL     1      -6.559  15.114  69.170  1.00  0.00    -0.128 A  
HETATM   21  C   UNL     1      -6.283  12.586  69.100  1.00  0.00    -0.094 C  
HETATM   22  C   UNL     1      -6.788  17.656  69.194  1.00  0.00    -0.229 C  
HETATM   23  C   UNL     1      -7.121  16.301  68.645  1.00  0.00    -0.155 A  
BRANCH  20  24
HETATM   24  O   UNL     1      -5.596  15.066  70.151  1.00  0.00    -0.114 OA 
HETATM   25  C   UNL     1      -6.021  14.765  71.476  1.00  0.00     0.213 C  
ENDBRANCH  20  24
ENDBRANCH  15  16
ENDBRANCH  13  15
ENDBRANCH  10  13
ENDBRANCH   2   3
TORSDOF 5
ENDMDL
MODEL      220
REMARK 921   NORMALIZED FREE ENERGY PREDICTED BY IDOCK:   -3.82 KCAL/MOL
REMARK 922        TOTAL FREE ENERGY PREDICTED BY IDOCK:   -5.57 KCAL/MOL
REMARK 923 INTER-LIGAND FREE ENERGY PREDICTED BY IDOCK:   -5.11 KCAL/MOL
REMARK 924 INTRA-LIGAND FREE ENERGY PREDICTED BY IDOCK:   -0.46 KCAL/MOL
REMARK 927      BINDING AFFINITY PREDICTED BY RF-SCORE:    0.00 PKD
ROOT
HETATM    1  C   UNL     1      -9.801   6.997  66.477  1.00  0.00    -0.108 C  
HETATM    2  O   UNL     1      -8.530   7.139  67.099  1.00  0.00    -0.119 OA 
ENDROOT
BRANCH   2   3
HETATM    3  C   UNL     1      -8.288   8.356  67.688  1.00  0.00    -0.130 A  
HETATM    4  C   UNL     1      -7.605   9.421  67.078  1.00  0.00    -0.091 A  
HETATM    5  C   UNL     1      -7.382  10.595  67.820  1.00  0.00    -0.089 A  
HETATM    6  C   UNL     1      -7.848  10.655  69.128  1.00  0.00    -0.142 A  
HETATM    7  C   UNL     1      -8.536   9.620  69.761  1.00  0.00    -0.200 A  
HETATM    8  N   UNL     1      -7.467  11.894  69.562  1.00  0.00    -0.322 NA 
HETATM    9  C   UNL     1      -8.732   8.457  69.010  1.00  0.00    -0.142 A  
HETATM   10  C   UNL     1      -6.807  12.534  68.546  1.00  0.00    -0.083 A  
HETATM   11  H   UNL     1      -7.645  12.279  70.490  1.00  0.00     0.000 HD 
HETATM   12  N   UNL     1      -6.733  11.770  67.471  1.00  0.00    -0.095 NA 
BRANCH  10  13
HETATM   13  S   UNL     1      -6.223  14.162  68.741  1.00  0.00    -0.093 S  
HETATM   14  O   UNL     1      -5.800  14.584  67.361  1.00  0.00    -0.342 OA 
BRANCH  13  15
HETATM   15  C   UNL     1      -7.723  15.033  69.262  1.00  0.00    -0.194 C  
BRANCH  15  16
HETATM   16  C   UNL     1      -8.575  15.433  68.065  1.00  0.00    -0.151 A  
HETATM   17  N   UNL     1      -9.397  14.452  67.610  1.00  0.00    -0.195 NA 
HETATM   18  C   UNL     1     -10.193  14.727  66.553  1.00  0.00    -0.276 A  
HETATM   19  C   UNL     1     -10.207  15.937  65.880  1.00  0.00    -0.373 A  
HETATM   20  C   UNL     1      -9.358  16.948  66.351  1.00  0.00    -0.276 A  
HETATM   21  C   UNL     1     -11.093  16.126  64.683  1.00  0.00    -0.310 C  
HETATM   22  C   UNL     1      -7.666  17.789  68.067  1.00  0.00    -0.238 C  
HETATM   23  C   UNL     1      -8.544  16.721  67.485  1.00  0.00    -0.203 A  
BRANCH  20  24
HETATM   24  O   UNL     1      -9.512  18.161  65.722  1.00  0.00    -0.483 OA 
HETATM   25  C   UNL     1     -10.335  19.133  66.358  1.00  0.00    -0.455 C  
ENDBRANCH  20  24
ENDBRANCH  15  16
ENDBRANCH  13  15
ENDBRANCH  10  13
ENDBRANCH   2   3
TORSDOF 5
ENDMDL
MODEL      221
REMARK 921   NORMALIZED FREE ENERGY PREDICTED BY IDOCK:   -3.81 KCAL/MOL
REMARK 922        TOTAL FREE ENERGY PREDICTED BY IDOCK:   -5.56 KCAL/MOL
REMARK 923 INTER-LIGAND FREE ENERGY PREDICTED BY IDOCK:   -5.37 KCAL/MOL
REMARK 924 INTRA-LIGAND FREE ENERGY PREDICTED BY IDOCK:   -0.19 KCAL/MOL
REMARK 927      BINDING AFFINITY PREDICTED BY RF-SCORE:    0.00 PKD
ROOT
HETATM    1  C   UNL     1     -12.698  12.186  63.388  1.00  0.00    -0.381 C  
HETATM    2  O   UNL     1     -11.297  12.395  63.269  1.00  0.00    -0.437 OA 
ENDROOT
BRANCH   2   3
HETATM    3  C   UNL     1     -10.568  12.220  64.421  1.00  0.00    -0.327 A  
HETATM    4  C   UNL     1      -9.880  11.046  64.764  1.00  0.00    -0.329 A  
HETATM    5  C   UNL     1      -9.216  10.988  66.003  1.00  0.00    -0.193 A  
HETATM    6  C   UNL     1      -9.268  12.097  66.839  1.00  0.00    -0.203 A  
HETATM    7  C   UNL     1      -9.936  13.281  66.526  1.00  0.00    -0.280 A  
HETATM    8  N   UNL     1      -8.552  11.720  67.941  1.00  0.00    -0.148 NA 
HETATM    9  C   UNL     1     -10.602  13.310  65.296  1.00  0.00    -0.325 A  
HETATM   10  C   UNL     1      -8.097  10.441  67.754  1.00  0.00    -0.103 A  
HETATM   11  H   UNL     1      -8.384  12.296  68.766  1.00  0.00     0.000 HD 
HETATM   12  N   UNL     1      -8.487   9.963  66.587  1.00  0.00    -0.124 NA 
BRANCH  10  13
HETATM   13  S   UNL     1      -7.102   9.660  68.950  1.00  0.00    -0.068 S  
HETATM   14  O   UNL     1      -7.403  10.388  70.231  1.00  0.00    -0.215 OA 
BRANCH  13  15
HETATM   15  C   UNL     1      -7.794   7.986  68.970  1.00  0.00    -0.109 C  
BRANCH  15  16
HETATM   16  C   UNL     1      -8.546   7.714  70.265  1.00  0.00    -0.143 A  
HETATM   17  N   UNL     1      -7.771   7.239  71.275  1.00  0.00    -0.087 NA 
HETATM   18  C   UNL     1      -8.360   6.977  72.462  1.00  0.00    -0.109 A  
HETATM   19  C   UNL     1      -9.713   7.133  72.713  1.00  0.00    -0.190 A  
HETATM   20  C   UNL     1     -10.512   7.623  71.671  1.00  0.00    -0.197 A  
HETATM   21  C   UNL     1     -10.281   6.765  74.054  1.00  0.00    -0.399 C  
HETATM   22  C   UNL     1     -10.727   8.545  69.301  1.00  0.00    -0.147 C  
HETATM   23  C   UNL     1      -9.929   7.958  70.427  1.00  0.00    -0.192 A  
BRANCH  20  24
HETATM   24  O   UNL     1     -11.817   7.876  72.022  1.00  0.00    -0.288 OA 
HETATM   25  C   UNL     1     -12.307   9.198  71.828  1.00  0.00    -0.372 C  
ENDBRANCH  20  24
ENDBRANCH  15  16
ENDBRANCH  13  15
ENDBRANCH  10  13
ENDBRANCH   2   3
TORSDOF 5
ENDMDL
MODEL      222
REMARK 921   NORMALIZED FREE ENERGY PREDICTED BY IDOCK:   -3.78 KCAL/MOL
REMARK 922        TOTAL FREE ENERGY PREDICTED BY IDOCK:   -5.53 KCAL/MOL
REMARK 923 INTER-LIGAND FREE ENERGY PREDICTED BY IDOCK:   -5.53 KCAL/MOL
REMARK 924 INTRA-LIGAND FREE ENERGY PREDICTED BY IDOCK:   -0.00 KCAL/MOL
REMARK 927      BINDING AFFINITY PREDICTED BY RF-SCORE:    0.00 PKD
ROOT
HETATM    1  C   UNL     1     -12.258  14.027  66.649  1.00  0.00    -0.428 C  
HETATM    2  O   UNL     1     -11.147  13.651  67.454  1.00  0.00    -0.271 OA 
ENDROOT
BRANCH   2   3
HETATM    3  C   UNL     1     -11.419  12.767  68.469  1.00  0.00    -0.309 A  
HETATM    4  C   UNL     1     -11.129  11.394  68.438  1.00  0.00    -0.296 A  
HETATM    5  C   UNL     1     -11.513  10.596  69.532  1.00  0.00    -0.291 A  
HETATM    6  C   UNL     1     -12.164  11.200  70.601  1.00  0.00    -0.397 A  
HETATM    7  C   UNL     1     -12.460  12.562  70.667  1.00  0.00    -0.323 A  
HETATM    8  N   UNL     1     -12.404  10.172  71.470  1.00  0.00    -0.397 NA 
HETATM    9  C   UNL     1     -12.084  13.332  69.563  1.00  0.00    -0.315 A  
HETATM   10  C   UNL     1     -11.910   9.014  70.929  1.00  0.00    -0.253 A  
HETATM   11  H   UNL     1     -12.874  10.254  72.371  1.00  0.00     0.000 HD 
HETATM   12  N   UNL     1     -11.365   9.234  69.747  1.00  0.00    -0.084 NA 
BRANCH  10  13
HETATM   13  S   UNL     1     -12.004   7.508  71.798  1.00  0.00    -0.315 S  
HETATM   14  O   UNL     1     -11.473   6.480  70.839  1.00  0.00    -0.312 OA 
BRANCH  13  15
HETATM   15  C   UNL     1     -10.845   7.794  73.160  1.00  0.00    -0.339 C  
BRANCH  15  16
HETATM   16  C   UNL     1      -9.684   6.811  73.114  1.00  0.00    -0.168 A  
HETATM   17  N   UNL     1      -8.484   7.374  72.814  1.00  0.00    -0.110 NA 
HETATM   18  C   UNL     1      -7.399   6.571  72.760  1.00  0.00    -0.089 A  
HETATM   19  C   UNL     1      -7.430   5.201  72.962  1.00  0.00    -0.096 A  
HETATM   20  C   UNL     1      -8.669   4.621  73.270  1.00  0.00    -0.101 A  
HETATM   21  C   UNL     1      -6.175   4.388  72.827  1.00  0.00    -0.017 C  
HETATM   22  C   UNL     1     -11.157   4.871  73.778  1.00  0.00    -0.295 C  
HETATM   23  C   UNL     1      -9.822   5.431  73.387  1.00  0.00    -0.173 A  
BRANCH  20  24
HETATM   24  O   UNL     1      -8.610   3.284  73.584  1.00  0.00    -0.074 OA 
HETATM   25  C   UNL     1      -8.948   2.353  72.562  1.00  0.00    -0.074 C  
ENDBRANCH  20  24
ENDBRANCH  15  16
ENDBRANCH  13  15
ENDBRANCH  10  13
ENDBRANCH   2   3
TORSDOF 5
ENDMDL
MODEL      223
REMARK 921   NORMALIZED FREE ENERGY PREDICTED BY IDOCK:   -3.78 KCAL/MOL
REMARK 922        TOTAL FREE ENERGY PREDICTED BY IDOCK:   -5.52 KCAL/MOL
REMARK 923 INTER-LIGAND FREE ENERGY PREDICTED BY IDOCK:   -6.24 KCAL/MOL
REMARK 924 INTRA-LIGAND FREE ENERGY PREDICTED BY IDOCK:    0.71 KCAL/MOL
REMARK 927      BINDING AFFINITY PREDICTED BY RF-SCORE:    0.00 PKD
ROOT
HETATM    1  C   UNL     1     -14.027   8.341  71.981  1.00  0.00    -0.368 C  
HETATM    2  O   UNL     1     -13.571   9.557  72.560  1.00  0.00    -0.433 OA 
ENDROOT
BRANCH   2   3
HETATM    3  C   UNL     1     -13.053  10.478  71.682  1.00  0.00    -0.446 A  
HETATM    4  C   UNL     1     -13.160  11.871  71.823  1.00  0.00    -0.465 A  
HETATM    5  C   UNL     1     -12.625  12.696  70.817  1.00  0.00    -0.217 A  
HETATM    6  C   UNL     1     -12.012  12.099  69.722  1.00  0.00    -0.302 A  
HETATM    7  C   UNL     1     -11.882  10.720  69.555  1.00  0.00    -0.380 A  
HETATM    8  N   UNL     1     -11.621  13.152  68.942  1.00  0.00    -0.289 NA 
HETATM    9  C   UNL     1     -12.434   9.920  70.559  1.00  0.00    -0.191 A  
HETATM   10  C   UNL     1     -11.990  14.318  69.560  1.00  0.00    -0.336 A  
HETATM   11  H   UNL     1     -11.135  13.081  68.048  1.00  0.00     0.000 HD 
HETATM   12  N   UNL     1     -12.608  14.078  70.701  1.00  0.00    -0.344 NA 
BRANCH  10  13
HETATM   13  S   UNL     1     -11.602  15.864  68.860  1.00  0.00    -0.355 S  
HETATM   14  O   UNL     1     -10.647  16.496  69.835  1.00  0.00    -0.294 OA 
BRANCH  13  15
HETATM   15  C   UNL     1     -10.754  15.378  67.335  1.00  0.00    -0.296 C  
BRANCH  15  16
HETATM   16  C   UNL     1      -9.342  14.885  67.620  1.00  0.00    -0.191 A  
HETATM   17  N   UNL     1      -9.253  13.553  67.875  1.00  0.00    -0.202 NA 
HETATM   18  C   UNL     1      -8.033  13.033  68.131  1.00  0.00    -0.154 A  
HETATM   19  C   UNL     1      -6.863  13.773  68.181  1.00  0.00    -0.122 A  
HETATM   20  C   UNL     1      -6.956  15.147  67.919  1.00  0.00    -0.151 A  
HETATM   21  C   UNL     1      -5.562  13.108  68.526  1.00  0.00    -0.075 C  
HETATM   22  C   UNL     1      -8.349  17.177  67.244  1.00  0.00    -0.208 C  
HETATM   23  C   UNL     1      -8.206  15.726  67.596  1.00  0.00    -0.166 A  
BRANCH  20  24
HETATM   24  O   UNL     1      -5.748  15.799  67.857  1.00  0.00    -0.120 OA 
HETATM   25  C   UNL     1      -5.720  17.172  68.232  1.00  0.00    -0.128 C  
ENDBRANCH  20  24
ENDBRANCH  15  16
ENDBRANCH  13  15
ENDBRANCH  10  13
ENDBRANCH   2   3
TORSDOF 5
ENDMDL
MODEL      224
REMARK 921   NORMALIZED FREE ENERGY PREDICTED BY IDOCK:   -3.78 KCAL/MOL
REMARK 922        TOTAL FREE ENERGY PREDICTED BY IDOCK:   -5.52 KCAL/MOL
REMARK 923 INTER-LIGAND FREE ENERGY PREDICTED BY IDOCK:   -6.49 KCAL/MOL
REMARK 924 INTRA-LIGAND FREE ENERGY PREDICTED BY IDOCK:    0.97 KCAL/MOL
REMARK 927      BINDING AFFINITY PREDICTED BY RF-SCORE:    0.00 PKD
ROOT
HETATM    1  C   UNL     1     -14.096  14.939  72.587  1.00  0.00    -0.263 C  
HETATM    2  O   UNL     1     -13.815  13.544  72.588  1.00  0.00    -0.724 OA 
ENDROOT
BRANCH   2   3
HETATM    3  C   UNL     1     -13.075  13.085  71.526  1.00  0.00    -0.310 A  
HETATM    4  C   UNL     1     -12.477  11.817  71.454  1.00  0.00    -0.281 A  
HETATM    5  C   UNL     1     -11.700  11.498  70.325  1.00  0.00    -0.289 A  
HETATM    6  C   UNL     1     -11.557  12.451  69.324  1.00  0.00    -0.319 A  
HETATM    7  C   UNL     1     -12.144  13.717  69.361  1.00  0.00    -0.364 A  
HETATM    8  N   UNL     1     -10.753  11.847  68.398  1.00  0.00    -0.211 NA 
HETATM    9  C   UNL     1     -12.897  14.017  70.500  1.00  0.00    -0.284 A  
HETATM   10  C   UNL     1     -10.442  10.588  68.840  1.00  0.00    -0.206 A  
HETATM   11  H   UNL     1     -10.438  12.264  67.523  1.00  0.00     0.000 HD 
HETATM   12  N   UNL     1     -10.998  10.344  70.013  1.00  0.00    -0.295 NA 
BRANCH  10  13
HETATM   13  S   UNL     1      -9.467   9.515  67.876  1.00  0.00    -0.132 S  
HETATM   14  O   UNL     1     -10.374   9.074  66.761  1.00  0.00    -0.261 OA 
BRANCH  13  15
HETATM   15  C   UNL     1      -8.178  10.633  67.269  1.00  0.00    -0.116 C  
BRANCH  15  16
HETATM   16  C   UNL     1      -8.774  11.934  66.749  1.00  0.00    -0.193 A  
HETATM   17  N   UNL     1      -9.675  11.776  65.744  1.00  0.00    -0.234 NA 
HETATM   18  C   UNL     1     -10.257  12.882  65.230  1.00  0.00    -0.278 A  
HETATM   19  C   UNL     1      -9.975  14.175  65.640  1.00  0.00    -0.331 A  
HETATM   20  C   UNL     1      -9.045  14.336  66.676  1.00  0.00    -0.226 A  
HETATM   21  C   UNL     1     -10.639  15.342  64.968  1.00  0.00    -0.445 C  
HETATM   22  C   UNL     1      -7.498  13.318  68.432  1.00  0.00    -0.124 C  
HETATM   23  C   UNL     1      -8.449  13.204  67.278  1.00  0.00    -0.199 A  
BRANCH  20  24
HETATM   24  O   UNL     1      -8.906  15.630  67.121  1.00  0.00    -0.187 OA 
HETATM   25  C   UNL     1      -9.776  16.066  68.160  1.00  0.00    -0.217 C  
ENDBRANCH  20  24
ENDBRANCH  15  16
ENDBRANCH  13  15
ENDBRANCH  10  13
ENDBRANCH   2   3
TORSDOF 5
ENDMDL
MODEL      225
REMARK 921   NORMALIZED FREE ENERGY PREDICTED BY IDOCK:   -3.77 KCAL/MOL
REMARK 922        TOTAL FREE ENERGY PREDICTED BY IDOCK:   -5.51 KCAL/MOL
REMARK 923 INTER-LIGAND FREE ENERGY PREDICTED BY IDOCK:   -4.98 KCAL/MOL
REMARK 924 INTRA-LIGAND FREE ENERGY PREDICTED BY IDOCK:   -0.54 KCAL/MOL
REMARK 927      BINDING AFFINITY PREDICTED BY RF-SCORE:    0.00 PKD
ROOT
HETATM    1  C   UNL     1     -10.319  11.256  63.784  1.00  0.00    -0.395 C  
HETATM    2  O   UNL     1      -9.263  10.911  64.673  1.00  0.00    -0.201 OA 
ENDROOT
BRANCH   2   3
HETATM    3  C   UNL     1      -9.587  10.904  66.008  1.00  0.00    -0.209 A  
HETATM    4  C   UNL     1     -10.162   9.820  66.689  1.00  0.00    -0.296 A  
HETATM    5  C   UNL     1     -10.489   9.972  68.049  1.00  0.00    -0.218 A  
HETATM    6  C   UNL     1     -10.230  11.190  68.665  1.00  0.00    -0.205 A  
HETATM    7  C   UNL     1      -9.652  12.284  68.020  1.00  0.00    -0.206 A  
HETATM    8  N   UNL     1     -10.666  11.016  69.949  1.00  0.00    -0.463 NA 
HETATM    9  C   UNL     1      -9.350  12.116  66.666  1.00  0.00    -0.226 A  
HETATM   10  C   UNL     1     -11.158   9.743  70.078  1.00  0.00    -0.267 A  
HETATM   11  H   UNL     1     -10.630  11.717  70.689  1.00  0.00     0.000 HD 
HETATM   12  N   UNL     1     -11.072   9.081  68.939  1.00  0.00     0.065 NA 
BRANCH  10  13
HETATM   13  S   UNL     1     -11.757   9.165  71.607  1.00  0.00    -0.398 S  
HETATM   14  O   UNL     1     -12.665   8.019  71.253  1.00  0.00    -0.296 OA 
BRANCH  13  15
HETATM   15  C   UNL     1     -10.239   8.577  72.400  1.00  0.00    -0.299 C  
BRANCH  15  16
HETATM   16  C   UNL     1      -9.168   8.248  71.369  1.00  0.00    -0.169 A  
HETATM   17  N   UNL     1      -8.292   9.259  71.129  1.00  0.00    -0.315 NA 
HETATM   18  C   UNL     1      -7.304   9.047  70.232  1.00  0.00    -0.076 A  
HETATM   19  C   UNL     1      -7.140   7.873  69.514  1.00  0.00    -0.059 A  
HETATM   20  C   UNL     1      -8.045   6.832  69.763  1.00  0.00    -0.126 A  
HETATM   21  C   UNL     1      -6.040   7.755  68.500  1.00  0.00    -0.036 C  
HETATM   22  C   UNL     1     -10.016   5.888  71.080  1.00  0.00    -0.239 C  
HETATM   23  C   UNL     1      -9.064   6.992  70.730  1.00  0.00    -0.154 A  
BRANCH  20  24
HETATM   24  O   UNL     1      -7.752   5.655  69.115  1.00  0.00    -0.085 OA 
HETATM   25  C   UNL     1      -8.621   5.247  68.065  1.00  0.00    -0.103 C  
ENDBRANCH  20  24
ENDBRANCH  15  16
ENDBRANCH  13  15
ENDBRANCH  10  13
ENDBRANCH   2   3
TORSDOF 5
ENDMDL
MODEL      226
REMARK 921   NORMALIZED FREE ENERGY PREDICTED BY IDOCK:   -3.77 KCAL/MOL
REMARK 922        TOTAL FREE ENERGY PREDICTED BY IDOCK:   -5.51 KCAL/MOL
REMARK 923 INTER-LIGAND FREE ENERGY PREDICTED BY IDOCK:   -5.16 KCAL/MOL
REMARK 924 INTRA-LIGAND FREE ENERGY PREDICTED BY IDOCK:   -0.35 KCAL/MOL
REMARK 927      BINDING AFFINITY PREDICTED BY RF-SCORE:    0.00 PKD
ROOT
HETATM    1  C   UNL     1      -9.999  16.616  66.003  1.00  0.00    -0.324 C  
HETATM    2  O   UNL     1     -10.882  16.636  67.118  1.00  0.00    -0.253 OA 
ENDROOT
BRANCH   2   3
HETATM    3  C   UNL     1     -10.976  15.461  67.824  1.00  0.00    -0.311 A  
HETATM    4  C   UNL     1     -10.229  14.303  67.558  1.00  0.00    -0.240 A  
HETATM    5  C   UNL     1     -10.467  13.152  68.332  1.00  0.00    -0.253 A  
HETATM    6  C   UNL     1     -11.433  13.208  69.330  1.00  0.00    -0.291 A  
HETATM    7  C   UNL     1     -12.187  14.344  69.625  1.00  0.00    -0.353 A  
HETATM    8  N   UNL     1     -11.427  11.953  69.872  1.00  0.00    -0.495 NA 
HETATM    9  C   UNL     1     -11.944  15.471  68.833  1.00  0.00    -0.306 A  
HETATM   10  C   UNL     1     -10.492  11.195  69.218  1.00  0.00    -0.151 A  
HETATM   11  H   UNL     1     -12.021  11.634  70.638  1.00  0.00     0.000 HD 
HETATM   12  N   UNL     1      -9.892  11.891  68.271  1.00  0.00    -0.196 NA 
BRANCH  10  13
HETATM   13  S   UNL     1     -10.185   9.547  69.689  1.00  0.00    -0.235 S  
HETATM   14  O   UNL     1     -11.077   9.318  70.878  1.00  0.00    -0.257 OA 
BRANCH  13  15
HETATM   15  C   UNL     1     -10.775   8.633  68.241  1.00  0.00    -0.052 C  
BRANCH  15  16
HETATM   16  C   UNL     1      -9.753   7.602  67.784  1.00  0.00    -0.148 A  
HETATM   17  N   UNL     1      -8.824   8.081  66.915  1.00  0.00    -0.128 NA 
HETATM   18  C   UNL     1      -7.874   7.231  66.465  1.00  0.00    -0.109 A  
HETATM   19  C   UNL     1      -7.800   5.891  66.807  1.00  0.00    -0.101 A  
HETATM   20  C   UNL     1      -8.759   5.398  67.703  1.00  0.00    -0.106 A  
HETATM   21  C   UNL     1      -6.735   5.017  66.210  1.00  0.00    -0.054 C  
HETATM   22  C   UNL     1     -10.749   5.802  69.249  1.00  0.00    -0.386 C  
HETATM   23  C   UNL     1      -9.741   6.264  68.239  1.00  0.00    -0.122 A  
BRANCH  20  24
HETATM   24  O   UNL     1      -8.554   4.098  68.100  1.00  0.00    -0.092 OA 
HETATM   25  C   UNL     1      -9.371   3.093  67.510  1.00  0.00    -0.198 C  
ENDBRANCH  20  24
ENDBRANCH  15  16
ENDBRANCH  13  15
ENDBRANCH  10  13
ENDBRANCH   2   3
TORSDOF 5
ENDMDL
MODEL      227
REMARK 921   NORMALIZED FREE ENERGY PREDICTED BY IDOCK:   -3.76 KCAL/MOL
REMARK 922        TOTAL FREE ENERGY PREDICTED BY IDOCK:   -5.50 KCAL/MOL
REMARK 923 INTER-LIGAND FREE ENERGY PREDICTED BY IDOCK:   -5.03 KCAL/MOL
REMARK 924 INTRA-LIGAND FREE ENERGY PREDICTED BY IDOCK:   -0.48 KCAL/MOL
REMARK 927      BINDING AFFINITY PREDICTED BY RF-SCORE:    0.00 PKD
ROOT
HETATM    1  C   UNL     1     -10.837   2.544  63.542  1.00  0.00    -0.168 C  
HETATM    2  O   UNL     1      -9.526   2.842  64.008  1.00  0.00    -0.119 OA 
ENDROOT
BRANCH   2   3
HETATM    3  C   UNL     1      -9.423   3.930  64.841  1.00  0.00    -0.170 A  
HETATM    4  C   UNL     1     -10.505   4.565  65.470  1.00  0.00    -0.241 A  
HETATM    5  C   UNL     1     -10.257   5.704  66.257  1.00  0.00    -0.113 A  
HETATM    6  C   UNL     1      -8.949   6.156  66.382  1.00  0.00    -0.150 A  
HETATM    7  C   UNL     1      -7.850   5.544  65.777  1.00  0.00    -0.104 A  
HETATM    8  N   UNL     1      -9.050   7.260  67.181  1.00  0.00    -0.127 NA 
HETATM    9  C   UNL     1      -8.123   4.423  64.987  1.00  0.00    -0.099 A  
HETATM   10  C   UNL     1     -10.367   7.444  67.513  1.00  0.00    -0.251 A  
HETATM   11  H   UNL     1      -8.274   7.849  67.482  1.00  0.00     0.000 HD 
HETATM   12  N   UNL     1     -11.130   6.518  66.963  1.00  0.00    -0.406 NA 
BRANCH  10  13
HETATM   13  S   UNL     1     -10.852   8.740  68.569  1.00  0.00     0.127 S  
HETATM   14  O   UNL     1     -10.885   8.124  69.940  1.00  0.00    -0.247 OA 
BRANCH  13  15
HETATM   15  C   UNL     1      -9.465   9.892  68.402  1.00  0.00    -0.137 C  
BRANCH  15  16
HETATM   16  C   UNL     1      -9.908  11.205  67.771  1.00  0.00    -0.171 A  
HETATM   17  N   UNL     1     -10.304  12.150  68.663  1.00  0.00    -0.218 NA 
HETATM   18  C   UNL     1     -10.707  13.348  68.186  1.00  0.00    -0.253 A  
HETATM   19  C   UNL     1     -10.771  13.671  66.840  1.00  0.00    -0.275 A  
HETATM   20  C   UNL     1     -10.363  12.694  65.921  1.00  0.00    -0.276 A  
HETATM   21  C   UNL     1     -11.283  15.015  66.409  1.00  0.00    -0.310 C  
HETATM   22  C   UNL     1      -9.378  10.390  65.440  1.00  0.00    -0.252 C  
HETATM   23  C   UNL     1      -9.886  11.444  66.378  1.00  0.00    -0.242 A  
BRANCH  20  24
HETATM   24  O   UNL     1     -10.330  13.120  64.614  1.00  0.00    -0.361 OA 
HETATM   25  C   UNL     1     -11.397  12.716  63.763  1.00  0.00    -0.467 C  
ENDBRANCH  20  24
ENDBRANCH  15  16
ENDBRANCH  13  15
ENDBRANCH  10  13
ENDBRANCH   2   3
TORSDOF 5
ENDMDL
MODEL      228
REMARK 921   NORMALIZED FREE ENERGY PREDICTED BY IDOCK:   -3.75 KCAL/MOL
REMARK 922        TOTAL FREE ENERGY PREDICTED BY IDOCK:   -5.48 KCAL/MOL
REMARK 923 INTER-LIGAND FREE ENERGY PREDICTED BY IDOCK:   -5.13 KCAL/MOL
REMARK 924 INTRA-LIGAND FREE ENERGY PREDICTED BY IDOCK:   -0.35 KCAL/MOL
REMARK 927      BINDING AFFINITY PREDICTED BY RF-SCORE:    0.00 PKD
ROOT
HETATM    1  C   UNL     1     -11.456  16.590  64.535  1.00  0.00     0.053 C  
HETATM    2  O   UNL     1     -10.284  16.428  65.326  1.00  0.00    -0.575 OA 
ENDROOT
BRANCH   2   3
HETATM    3  C   UNL     1     -10.223  15.275  66.071  1.00  0.00    -0.317 A  
HETATM    4  C   UNL     1      -9.038  14.672  66.519  1.00  0.00    -0.267 A  
HETATM    5  C   UNL     1      -9.122  13.461  67.231  1.00  0.00    -0.222 A  
HETATM    6  C   UNL     1     -10.377  12.910  67.462  1.00  0.00    -0.223 A  
HETATM    7  C   UNL     1     -11.574  13.487  67.037  1.00  0.00    -0.394 A  
HETATM    8  N   UNL     1     -10.115  11.758  68.150  1.00  0.00    -0.186 NA 
HETATM    9  C   UNL     1     -11.465  14.681  66.319  1.00  0.00    -0.351 A  
HETATM   10  C   UNL     1      -8.760  11.642  68.317  1.00  0.00    -0.163 A  
HETATM   11  H   UNL     1     -10.814  11.094  68.484  1.00  0.00     0.000 HD 
HETATM   12  N   UNL     1      -8.124  12.659  67.765  1.00  0.00    -0.152 NA 
BRANCH  10  13
HETATM   13  S   UNL     1      -8.076  10.306  69.199  1.00  0.00    -0.149 S  
HETATM   14  O   UNL     1      -7.013  10.925  70.065  1.00  0.00    -0.144 OA 
BRANCH  13  15
HETATM   15  C   UNL     1      -9.489   9.755  70.188  1.00  0.00    -0.229 C  
BRANCH  15  16
HETATM   16  C   UNL     1      -9.583   8.236  70.220  1.00  0.00    -0.168 A  
HETATM   17  N   UNL     1      -9.757   7.659  69.002  1.00  0.00    -0.158 NA 
HETATM   18  C   UNL     1      -9.843   6.312  68.941  1.00  0.00    -0.134 A  
HETATM   19  C   UNL     1      -9.796   5.476  70.044  1.00  0.00    -0.262 A  
HETATM   20  C   UNL     1      -9.617   6.072  71.300  1.00  0.00    -0.167 A  
HETATM   21  C   UNL     1      -9.954   3.992  69.875  1.00  0.00    -0.046 C  
HETATM   22  C   UNL     1      -9.215   8.156  72.717  1.00  0.00    -0.341 C  
HETATM   23  C   UNL     1      -9.472   7.475  71.406  1.00  0.00    -0.159 A  
BRANCH  20  24
HETATM   24  O   UNL     1      -9.451   5.183  72.335  1.00  0.00    -0.142 OA 
HETATM   25  C   UNL     1     -10.549   4.991  73.221  1.00  0.00    -0.234 C  
ENDBRANCH  20  24
ENDBRANCH  15  16
ENDBRANCH  13  15
ENDBRANCH  10  13
ENDBRANCH   2   3
TORSDOF 5
ENDMDL
MODEL      229
REMARK 921   NORMALIZED FREE ENERGY PREDICTED BY IDOCK:   -3.74 KCAL/MOL
REMARK 922        TOTAL FREE ENERGY PREDICTED BY IDOCK:   -5.48 KCAL/MOL
REMARK 923 INTER-LIGAND FREE ENERGY PREDICTED BY IDOCK:   -5.21 KCAL/MOL
REMARK 924 INTRA-LIGAND FREE ENERGY PREDICTED BY IDOCK:   -0.27 KCAL/MOL
REMARK 927      BINDING AFFINITY PREDICTED BY RF-SCORE:    0.00 PKD
ROOT
HETATM    1  C   UNL     1      -9.536  19.574  67.952  1.00  0.00    -0.350 C  
HETATM    2  O   UNL     1     -10.730  18.814  68.090  1.00  0.00    -0.291 OA 
ENDROOT
BRANCH   2   3
HETATM    3  C   UNL     1     -10.710  17.564  67.521  1.00  0.00    -0.280 A  
HETATM    4  C   UNL     1     -10.915  16.363  68.218  1.00  0.00    -0.355 A  
HETATM    5  C   UNL     1     -10.814  15.148  67.515  1.00  0.00    -0.301 A  
HETATM    6  C   UNL     1     -10.516  15.186  66.158  1.00  0.00    -0.312 A  
HETATM    7  C   UNL     1     -10.315  16.362  65.435  1.00  0.00    -0.287 A  
HETATM    8  N   UNL     1     -10.479  13.871  65.786  1.00  0.00    -0.298 NA 
HETATM    9  C   UNL     1     -10.404  17.556  66.157  1.00  0.00    -0.330 A  
HETATM   10  C   UNL     1     -10.748  13.095  66.884  1.00  0.00    -0.263 A  
HETATM   11  H   UNL     1     -10.283  13.524  64.847  1.00  0.00     0.000 HD 
HETATM   12  N   UNL     1     -10.952  13.840  67.955  1.00  0.00    -0.248 NA 
BRANCH  10  13
HETATM   13  S   UNL     1     -10.829  11.361  66.757  1.00  0.00    -0.287 S  
HETATM   14  O   UNL     1     -10.647  11.076  65.291  1.00  0.00    -0.268 OA 
BRANCH  13  15
HETATM   15  C   UNL     1      -9.374  10.852  67.708  1.00  0.00    -0.157 C  
BRANCH  15  16
HETATM   16  C   UNL     1      -9.186   9.342  67.668  1.00  0.00    -0.127 A  
HETATM   17  N   UNL     1      -9.880   8.666  68.622  1.00  0.00    -0.165 NA 
HETATM   18  C   UNL     1      -9.775   7.319  68.651  1.00  0.00    -0.146 A  
HETATM   19  C   UNL     1      -8.981   6.579  67.791  1.00  0.00    -0.114 A  
HETATM   20  C   UNL     1      -8.265   7.278  66.809  1.00  0.00    -0.121 A  
HETATM   21  C   UNL     1      -8.891   5.087  67.940  1.00  0.00    -0.107 C  
HETATM   22  C   UNL     1      -7.692   9.471  65.637  1.00  0.00    -0.101 C  
HETATM   23  C   UNL     1      -8.385   8.683  66.708  1.00  0.00    -0.108 A  
BRANCH  20  24
HETATM   24  O   UNL     1      -7.600   6.478  65.910  1.00  0.00    -0.082 OA 
HETATM   25  C   UNL     1      -8.284   6.121  64.714  1.00  0.00    -0.112 C  
ENDBRANCH  20  24
ENDBRANCH  15  16
ENDBRANCH  13  15
ENDBRANCH  10  13
ENDBRANCH   2   3
TORSDOF 5
ENDMDL
MODEL      230
REMARK 921   NORMALIZED FREE ENERGY PREDICTED BY IDOCK:   -3.72 KCAL/MOL
REMARK 922        TOTAL FREE ENERGY PREDICTED BY IDOCK:   -5.45 KCAL/MOL
REMARK 923 INTER-LIGAND FREE ENERGY PREDICTED BY IDOCK:   -5.06 KCAL/MOL
REMARK 924 INTRA-LIGAND FREE ENERGY PREDICTED BY IDOCK:   -0.39 KCAL/MOL
REMARK 927      BINDING AFFINITY PREDICTED BY RF-SCORE:    0.00 PKD
ROOT
HETATM    1  C   UNL     1     -14.337   8.028  71.567  1.00  0.00    -0.434 C  
HETATM    2  O   UNL     1     -13.447   8.897  72.257  1.00  0.00    -0.402 OA 
ENDROOT
BRANCH   2   3
HETATM    3  C   UNL     1     -12.269   9.180  71.609  1.00  0.00    -0.361 A  
HETATM    4  C   UNL     1     -10.998   8.774  72.043  1.00  0.00    -0.438 A  
HETATM    5  C   UNL     1      -9.870   9.182  71.306  1.00  0.00    -0.293 A  
HETATM    6  C   UNL     1     -10.060   9.969  70.178  1.00  0.00    -0.211 A  
HETATM    7  C   UNL     1     -11.310  10.384  69.715  1.00  0.00    -0.353 A  
HETATM    8  N   UNL     1      -8.795  10.197  69.711  1.00  0.00    -0.351 NA 
HETATM    9  C   UNL     1     -12.414   9.981  70.472  1.00  0.00    -0.254 A  
HETATM   10  C   UNL     1      -7.902   9.563  70.534  1.00  0.00    -0.157 A  
HETATM   11  H   UNL     1      -8.557  10.747  68.886  1.00  0.00     0.000 HD 
HETATM   12  N   UNL     1      -8.521   8.939  71.519  1.00  0.00    -0.310 NA 
BRANCH  10  13
HETATM   13  S   UNL     1      -6.193   9.604  70.202  1.00  0.00    -0.073 S  
HETATM   14  O   UNL     1      -5.579   8.720  71.252  1.00  0.00    -0.034 OA 
BRANCH  13  15
HETATM   15  C   UNL     1      -6.115   8.831  68.566  1.00  0.00    -0.046 C  
BRANCH  15  16
HETATM   16  C   UNL     1      -6.961   7.567  68.511  1.00  0.00    -0.079 A  
HETATM   17  N   UNL     1      -6.626   6.627  69.434  1.00  0.00    -0.047 NA 
HETATM   18  C   UNL     1      -7.334   5.476  69.458  1.00  0.00    -0.066 A  
HETATM   19  C   UNL     1      -8.364   5.175  68.582  1.00  0.00    -0.088 A  
HETATM   20  C   UNL     1      -8.708   6.145  67.630  1.00  0.00    -0.105 A  
HETATM   21  C   UNL     1      -9.055   3.844  68.657  1.00  0.00    -0.193 C  
HETATM   22  C   UNL     1      -8.399   8.479  66.647  1.00  0.00    -0.112 C  
HETATM   23  C   UNL     1      -8.028   7.384  67.601  1.00  0.00    -0.114 A  
BRANCH  20  24
HETATM   24  O   UNL     1      -9.817   5.838  66.878  1.00  0.00    -0.136 OA 
HETATM   25  C   UNL     1     -11.025   6.531  67.172  1.00  0.00    -0.408 C  
ENDBRANCH  20  24
ENDBRANCH  15  16
ENDBRANCH  13  15
ENDBRANCH  10  13
ENDBRANCH   2   3
TORSDOF 5
ENDMDL
MODEL      231
REMARK 921   NORMALIZED FREE ENERGY PREDICTED BY IDOCK:   -3.71 KCAL/MOL
REMARK 922        TOTAL FREE ENERGY PREDICTED BY IDOCK:   -5.43 KCAL/MOL
REMARK 923 INTER-LIGAND FREE ENERGY PREDICTED BY IDOCK:   -5.01 KCAL/MOL
REMARK 924 INTRA-LIGAND FREE ENERGY PREDICTED BY IDOCK:   -0.42 KCAL/MOL
REMARK 927      BINDING AFFINITY PREDICTED BY RF-SCORE:    0.00 PKD
ROOT
HETATM    1  C   UNL     1      -9.342   7.009  66.620  1.00  0.00    -0.165 C  
HETATM    2  O   UNL     1      -8.209   7.152  67.469  1.00  0.00    -0.115 OA 
ENDROOT
BRANCH   2   3
HETATM    3  C   UNL     1      -8.008   8.408  67.987  1.00  0.00    -0.119 A  
HETATM    4  C   UNL     1      -7.681   9.545  67.232  1.00  0.00    -0.091 A  
HETATM    5  C   UNL     1      -7.451  10.761  67.903  1.00  0.00    -0.090 A  
HETATM    6  C   UNL     1      -7.558  10.787  69.288  1.00  0.00    -0.129 A  
HETATM    7  C   UNL     1      -7.889   9.678  70.068  1.00  0.00    -0.173 A  
HETATM    8  N   UNL     1      -7.269  12.081  69.622  1.00  0.00    -0.319 NA 
HETATM    9  C   UNL     1      -8.097   8.479  69.381  1.00  0.00    -0.112 A  
HETATM   10  C   UNL     1      -7.006  12.783  68.475  1.00  0.00    -0.095 A  
HETATM   11  H   UNL     1      -7.252  12.461  70.568  1.00  0.00     0.000 HD 
HETATM   12  N   UNL     1      -7.103  12.009  67.410  1.00  0.00    -0.125 NA 
BRANCH  10  13
HETATM   13  S   UNL     1      -6.646  14.486  68.529  1.00  0.00    -0.102 S  
HETATM   14  O   UNL     1      -6.289  14.845  67.113  1.00  0.00    -0.258 OA 
BRANCH  13  15
HETATM   15  C   UNL     1      -8.247  15.188  68.999  1.00  0.00    -0.193 C  
BRANCH  15  16
HETATM   16  C   UNL     1      -9.193  15.255  67.809  1.00  0.00    -0.187 A  
HETATM   17  N   UNL     1      -8.936  16.271  66.944  1.00  0.00    -0.204 NA 
HETATM   18  C   UNL     1      -9.726  16.398  65.855  1.00  0.00    -0.294 A  
HETATM   19  C   UNL     1     -10.804  15.575  65.573  1.00  0.00    -0.372 A  
HETATM   20  C   UNL     1     -11.069  14.528  66.466  1.00  0.00    -0.332 A  
HETATM   21  C   UNL     1     -11.653  15.832  64.362  1.00  0.00    -0.240 C  
HETATM   22  C   UNL     1     -10.439  13.184  68.542  1.00  0.00    -0.262 C  
HETATM   23  C   UNL     1     -10.238  14.327  67.592  1.00  0.00    -0.237 A  
BRANCH  20  24
HETATM   24  O   UNL     1     -12.069  13.674  66.064  1.00  0.00    -0.389 OA 
HETATM   25  C   UNL     1     -11.684  12.404  65.550  1.00  0.00    -0.407 C  
ENDBRANCH  20  24
ENDBRANCH  15  16
ENDBRANCH  13  15
ENDBRANCH  10  13
ENDBRANCH   2   3
TORSDOF 5
ENDMDL
MODEL      232
REMARK 921   NORMALIZED FREE ENERGY PREDICTED BY IDOCK:   -3.70 KCAL/MOL
REMARK 922        TOTAL FREE ENERGY PREDICTED BY IDOCK:   -5.42 KCAL/MOL
REMARK 923 INTER-LIGAND FREE ENERGY PREDICTED BY IDOCK:   -5.71 KCAL/MOL
REMARK 924 INTRA-LIGAND FREE ENERGY PREDICTED BY IDOCK:    0.29 KCAL/MOL
REMARK 927      BINDING AFFINITY PREDICTED BY RF-SCORE:    0.00 PKD
ROOT
HETATM    1  C   UNL     1     -12.277  16.240  73.055  1.00  0.00    -0.523 C  
HETATM    2  O   UNL     1     -12.710  14.887  72.999  1.00  0.00    -0.399 OA 
ENDROOT
BRANCH   2   3
HETATM    3  C   UNL     1     -12.514  14.248  71.798  1.00  0.00    -0.316 A  
HETATM    4  C   UNL     1     -12.359  14.894  70.562  1.00  0.00    -0.400 A  
HETATM    5  C   UNL     1     -12.218  14.110  69.402  1.00  0.00    -0.287 A  
HETATM    6  C   UNL     1     -12.237  12.726  69.527  1.00  0.00    -0.102 A  
HETATM    7  C   UNL     1     -12.382  12.053  70.740  1.00  0.00    -0.403 A  
HETATM    8  N   UNL     1     -12.093  12.272  68.246  1.00  0.00    -0.345 NA 
HETATM    9  C   UNL     1     -12.537  12.852  71.877  1.00  0.00    -0.074 A  
HETATM   10  C   UNL     1     -11.990  13.349  67.405  1.00  0.00    -0.346 A  
HETATM   11  H   UNL     1     -12.066  11.292  67.962  1.00  0.00     0.000 HD 
HETATM   12  N   UNL     1     -12.067  14.485  68.075  1.00  0.00    -0.258 NA 
BRANCH  10  13
HETATM   13  S   UNL     1     -11.747  13.132  65.695  1.00  0.00    -0.386 S  
HETATM   14  O   UNL     1     -11.643  14.528  65.144  1.00  0.00    -0.347 OA 
BRANCH  13  15
HETATM   15  C   UNL     1     -10.143  12.291  65.654  1.00  0.00    -0.252 C  
BRANCH  15  16
HETATM   16  C   UNL     1      -9.056  13.140  66.299  1.00  0.00     0.025 A  
HETATM   17  N   UNL     1      -9.213  14.479  66.125  1.00  0.00    -0.203 NA 
HETATM   18  C   UNL     1      -8.294  15.304  66.672  1.00  0.00    -0.181 A  
HETATM   19  C   UNL     1      -7.182  14.876  67.378  1.00  0.00    -0.213 A  
HETATM   20  C   UNL     1      -7.021  13.495  67.557  1.00  0.00    -0.145 A  
HETATM   21  C   UNL     1      -6.190  15.874  67.904  1.00  0.00    -0.153 C  
HETATM   22  C   UNL     1      -7.895  11.115  67.263  1.00  0.00    -0.137 C  
HETATM   23  C   UNL     1      -7.985  12.596  67.044  1.00  0.00    -0.063 A  
BRANCH  20  24
HETATM   24  O   UNL     1      -5.972  13.143  68.372  1.00  0.00    -0.071 OA 
HETATM   25  C   UNL     1      -6.282  12.518  69.613  1.00  0.00    -0.126 C  
ENDBRANCH  20  24
ENDBRANCH  15  16
ENDBRANCH  13  15
ENDBRANCH  10  13
ENDBRANCH   2   3
TORSDOF 5
ENDMDL
MODEL      233
REMARK 921   NORMALIZED FREE ENERGY PREDICTED BY IDOCK:   -3.68 KCAL/MOL
REMARK 922        TOTAL FREE ENERGY PREDICTED BY IDOCK:   -5.40 KCAL/MOL
REMARK 923 INTER-LIGAND FREE ENERGY PREDICTED BY IDOCK:   -5.31 KCAL/MOL
REMARK 924 INTRA-LIGAND FREE ENERGY PREDICTED BY IDOCK:   -0.10 KCAL/MOL
REMARK 927      BINDING AFFINITY PREDICTED BY RF-SCORE:    0.00 PKD
ROOT
HETATM    1  C   UNL     1     -12.598  15.337  72.063  1.00  0.00    -0.353 C  
HETATM    2  O   UNL     1     -11.937  16.306  71.259  1.00  0.00    -0.401 OA 
ENDROOT
BRANCH   2   3
HETATM    3  C   UNL     1     -11.664  15.923  69.968  1.00  0.00    -0.334 A  
HETATM    4  C   UNL     1     -12.217  14.801  69.330  1.00  0.00    -0.251 A  
HETATM    5  C   UNL     1     -11.806  14.498  68.019  1.00  0.00    -0.315 A  
HETATM    6  C   UNL     1     -10.870  15.322  67.406  1.00  0.00    -0.304 A  
HETATM    7  C   UNL     1     -10.307  16.448  68.008  1.00  0.00    -0.288 A  
HETATM    8  N   UNL     1     -10.682  14.758  66.175  1.00  0.00    -0.305 NA 
HETATM    9  C   UNL     1     -10.718  16.720  69.317  1.00  0.00    -0.324 A  
HETATM   10  C   UNL     1     -11.480  13.649  66.072  1.00  0.00    -0.324 A  
HETATM   11  H   UNL     1     -10.051  15.106  65.452  1.00  0.00     0.000 HD 
HETATM   12  N   UNL     1     -12.175  13.458  67.178  1.00  0.00    -0.312 NA 
BRANCH  10  13
HETATM   13  S   UNL     1     -11.527  12.711  64.606  1.00  0.00    -0.350 S  
HETATM   14  O   UNL     1     -10.422  13.277  63.756  1.00  0.00    -0.232 OA 
BRANCH  13  15
HETATM   15  C   UNL     1     -11.105  11.057  65.211  1.00  0.00     0.062 C  
BRANCH  15  16
HETATM   16  C   UNL     1      -9.600  10.891  65.365  1.00  0.00    -0.225 A  
HETATM   17  N   UNL     1      -8.958  10.514  64.227  1.00  0.00    -0.205 NA 
HETATM   18  C   UNL     1      -7.618  10.351  64.276  1.00  0.00    -0.021 A  
HETATM   19  C   UNL     1      -6.852  10.514  65.418  1.00  0.00    -0.078 A  
HETATM   20  C   UNL     1      -7.515  10.903  66.591  1.00  0.00    -0.139 A  
HETATM   21  C   UNL     1      -5.373  10.258  65.380  1.00  0.00    -0.085 C  
HETATM   22  C   UNL     1      -9.657  11.612  67.784  1.00  0.00    -0.178 C  
HETATM   23  C   UNL     1      -8.910  11.134  66.575  1.00  0.00    -0.174 A  
BRANCH  20  24
HETATM   24  O   UNL     1      -6.685  11.171  67.653  1.00  0.00    -0.066 OA 
HETATM   25  C   UNL     1      -6.313  12.528  67.872  1.00  0.00    -0.103 C  
ENDBRANCH  20  24
ENDBRANCH  15  16
ENDBRANCH  13  15
ENDBRANCH  10  13
ENDBRANCH   2   3
TORSDOF 5
ENDMDL
MODEL      234
REMARK 921   NORMALIZED FREE ENERGY PREDICTED BY IDOCK:   -3.68 KCAL/MOL
REMARK 922        TOTAL FREE ENERGY PREDICTED BY IDOCK:   -5.40 KCAL/MOL
REMARK 923 INTER-LIGAND FREE ENERGY PREDICTED BY IDOCK:   -5.06 KCAL/MOL
REMARK 924 INTRA-LIGAND FREE ENERGY PREDICTED BY IDOCK:   -0.33 KCAL/MOL
REMARK 927      BINDING AFFINITY PREDICTED BY RF-SCORE:    0.00 PKD
ROOT
HETATM    1  C   UNL     1      -6.464   3.900  72.645  1.00  0.00    -0.021 C  
HETATM    2  O   UNL     1      -6.594   5.278  72.974  1.00  0.00    -0.062 OA 
ENDROOT
BRANCH   2   3
HETATM    3  C   UNL     1      -7.493   5.989  72.216  1.00  0.00    -0.095 A  
HETATM    4  C   UNL     1      -7.236   6.496  70.932  1.00  0.00    -0.071 A  
HETATM    5  C   UNL     1      -8.235   7.253  70.292  1.00  0.00    -0.133 A  
HETATM    6  C   UNL     1      -9.436   7.468  70.955  1.00  0.00    -0.160 A  
HETATM    7  C   UNL     1      -9.727   6.972  72.227  1.00  0.00    -0.169 A  
HETATM    8  N   UNL     1     -10.166   8.231  70.087  1.00  0.00    -0.196 NA 
HETATM    9  C   UNL     1      -8.714   6.237  72.850  1.00  0.00    -0.125 A  
HETATM   10  C   UNL     1      -9.420   8.450  68.959  1.00  0.00    -0.151 A  
HETATM   11  H   UNL     1     -11.111   8.580  70.252  1.00  0.00     0.000 HD 
HETATM   12  N   UNL     1      -8.236   7.873  69.051  1.00  0.00    -0.124 NA 
BRANCH  10  13
HETATM   13  S   UNL     1     -10.068   9.351  67.617  1.00  0.00    -0.226 S  
HETATM   14  O   UNL     1     -10.617   8.307  66.685  1.00  0.00    -0.268 OA 
BRANCH  13  15
HETATM   15  C   UNL     1     -11.400  10.288  68.410  1.00  0.00    -0.178 C  
BRANCH  15  16
HETATM   16  C   UNL     1     -11.297  11.773  68.093  1.00  0.00    -0.284 A  
HETATM   17  N   UNL     1     -10.916  12.049  66.817  1.00  0.00    -0.270 NA 
HETATM   18  C   UNL     1     -10.807  13.345  66.451  1.00  0.00    -0.289 A  
HETATM   19  C   UNL     1     -11.029  14.417  67.299  1.00  0.00    -0.301 A  
HETATM   20  C   UNL     1     -11.421  14.132  68.614  1.00  0.00    -0.299 A  
HETATM   21  C   UNL     1     -10.830  15.823  66.808  1.00  0.00    -0.254 C  
HETATM   22  C   UNL     1     -12.076  12.433  70.402  1.00  0.00    -0.381 C  
HETATM   23  C   UNL     1     -11.597  12.791  69.027  1.00  0.00    -0.366 A  
BRANCH  20  24
HETATM   24  O   UNL     1     -11.749  15.236  69.364  1.00  0.00    -0.301 OA 
HETATM   25  C   UNL     1     -10.805  15.677  70.334  1.00  0.00    -0.340 C  
ENDBRANCH  20  24
ENDBRANCH  15  16
ENDBRANCH  13  15
ENDBRANCH  10  13
ENDBRANCH   2   3
TORSDOF 5
ENDMDL
MODEL      235
REMARK 921   NORMALIZED FREE ENERGY PREDICTED BY IDOCK:   -3.68 KCAL/MOL
REMARK 922        TOTAL FREE ENERGY PREDICTED BY IDOCK:   -5.40 KCAL/MOL
REMARK 923 INTER-LIGAND FREE ENERGY PREDICTED BY IDOCK:   -4.87 KCAL/MOL
REMARK 924 INTRA-LIGAND FREE ENERGY PREDICTED BY IDOCK:   -0.53 KCAL/MOL
REMARK 927      BINDING AFFINITY PREDICTED BY RF-SCORE:    0.00 PKD
ROOT
HETATM    1  C   UNL     1      -5.624  14.015  71.733  1.00  0.00    -0.225 C  
HETATM    2  O   UNL     1      -6.044  14.876  70.682  1.00  0.00    -0.145 OA 
ENDROOT
BRANCH   2   3
HETATM    3  C   UNL     1      -6.733  14.273  69.658  1.00  0.00    -0.118 A  
HETATM    4  C   UNL     1      -6.434  13.011  69.122  1.00  0.00    -0.108 A  
HETATM    5  C   UNL     1      -7.194  12.539  68.036  1.00  0.00    -0.105 A  
HETATM    6  C   UNL     1      -8.212  13.341  67.537  1.00  0.00    -0.184 A  
HETATM    7  C   UNL     1      -8.542  14.596  68.051  1.00  0.00    -0.162 A  
HETATM    8  N   UNL     1      -8.735  12.615  66.503  1.00  0.00    -0.419 NA 
HETATM    9  C   UNL     1      -7.763  15.051  69.119  1.00  0.00    -0.179 A  
HETATM   10  C   UNL     1      -8.049  11.433  66.405  1.00  0.00    -0.106 A  
HETATM   11  H   UNL     1      -9.507  12.905  65.904  1.00  0.00     0.000 HD 
HETATM   12  N   UNL     1      -7.100  11.355  67.319  1.00  0.00    -0.110 NA 
BRANCH  10  13
HETATM   13  S   UNL     1      -8.487  10.239  65.216  1.00  0.00    -0.167 S  
HETATM   14  O   UNL     1      -7.364   9.239  65.247  1.00  0.00    -0.091 OA 
BRANCH  13  15
HETATM   15  C   UNL     1     -10.001   9.546  65.928  1.00  0.00    -0.272 C  
BRANCH  15  16
HETATM   16  C   UNL     1      -9.884   9.397  67.438  1.00  0.00    -0.172 A  
HETATM   17  N   UNL     1      -8.942   8.504  67.842  1.00  0.00    -0.137 NA 
HETATM   18  C   UNL     1      -8.769   8.317  69.169  1.00  0.00    -0.143 A  
HETATM   19  C   UNL     1      -9.509   8.954  70.151  1.00  0.00    -0.198 A  
HETATM   20  C   UNL     1     -10.481   9.875  69.733  1.00  0.00    -0.261 A  
HETATM   21  C   UNL     1      -9.275   8.638  71.600  1.00  0.00    -0.326 C  
HETATM   22  C   UNL     1     -11.641  11.161  67.859  1.00  0.00    -0.328 C  
HETATM   23  C   UNL     1     -10.662  10.139  68.356  1.00  0.00    -0.266 A  
BRANCH  20  24
HETATM   24  O   UNL     1     -11.090  10.565  70.754  1.00  0.00    -0.250 OA 
HETATM   25  C   UNL     1     -12.288  10.019  71.295  1.00  0.00    -0.398 C  
ENDBRANCH  20  24
ENDBRANCH  15  16
ENDBRANCH  13  15
ENDBRANCH  10  13
ENDBRANCH   2   3
TORSDOF 5
ENDMDL
MODEL      236
REMARK 921   NORMALIZED FREE ENERGY PREDICTED BY IDOCK:   -3.65 KCAL/MOL
REMARK 922        TOTAL FREE ENERGY PREDICTED BY IDOCK:   -5.36 KCAL/MOL
REMARK 923 INTER-LIGAND FREE ENERGY PREDICTED BY IDOCK:   -4.83 KCAL/MOL
REMARK 924 INTRA-LIGAND FREE ENERGY PREDICTED BY IDOCK:   -0.53 KCAL/MOL
REMARK 927      BINDING AFFINITY PREDICTED BY RF-SCORE:    0.00 PKD
ROOT
HETATM    1  C   UNL     1     -10.340   6.556  74.297  1.00  0.00    -0.287 C  
HETATM    2  O   UNL     1     -10.894   5.437  73.616  1.00  0.00    -0.276 OA 
ENDROOT
BRANCH   2   3
HETATM    3  C   UNL     1     -10.859   5.497  72.244  1.00  0.00    -0.241 A  
HETATM    4  C   UNL     1      -9.939   4.814  71.434  1.00  0.00    -0.267 A  
HETATM    5  C   UNL     1      -9.987   5.010  70.041  1.00  0.00    -0.254 A  
HETATM    6  C   UNL     1     -10.945   5.872  69.522  1.00  0.00    -0.368 A  
HETATM    7  C   UNL     1     -11.879   6.560  70.298  1.00  0.00    -0.361 A  
HETATM    8  N   UNL     1     -10.720   5.851  68.174  1.00  0.00    -0.259 NA 
HETATM    9  C   UNL     1     -11.802   6.363  71.680  1.00  0.00    -0.361 A  
HETATM   10  C   UNL     1      -9.673   5.006  67.916  1.00  0.00    -0.153 A  
HETATM   11  H   UNL     1     -11.245   6.377  67.476  1.00  0.00     0.000 HD 
HETATM   12  N   UNL     1      -9.199   4.480  69.030  1.00  0.00    -0.123 NA 
BRANCH  10  13
HETATM   13  S   UNL     1      -9.147   4.703  66.284  1.00  0.00    -0.129 S  
HETATM   14  O   UNL     1     -10.407   4.739  65.464  1.00  0.00    -0.194 OA 
BRANCH  13  15
HETATM   15  C   UNL     1      -8.110   6.152  65.956  1.00  0.00    -0.118 C  
BRANCH  15  16
HETATM   16  C   UNL     1      -8.695   7.406  66.590  1.00  0.00    -0.135 A  
HETATM   17  N   UNL     1      -9.802   7.887  65.964  1.00  0.00     0.059 NA 
HETATM   18  C   UNL     1     -10.388   8.995  66.468  1.00  0.00    -0.193 A  
HETATM   19  C   UNL     1      -9.919   9.695  67.567  1.00  0.00    -0.231 A  
HETATM   20  C   UNL     1      -8.777   9.199  68.211  1.00  0.00    -0.129 A  
HETATM   21  C   UNL     1     -10.614  10.948  68.018  1.00  0.00    -0.239 C  
HETATM   22  C   UNL     1      -6.976   7.405  68.439  1.00  0.00    -0.079 C  
HETATM   23  C   UNL     1      -8.160   8.013  67.748  1.00  0.00    -0.128 A  
BRANCH  20  24
HETATM   24  O   UNL     1      -8.439   9.863  69.366  1.00  0.00    -0.137 OA 
HETATM   25  C   UNL     1      -8.986   9.380  70.588  1.00  0.00    -0.228 C  
ENDBRANCH  20  24
ENDBRANCH  15  16
ENDBRANCH  13  15
ENDBRANCH  10  13
ENDBRANCH   2   3
TORSDOF 5
ENDMDL
MODEL      237
REMARK 921   NORMALIZED FREE ENERGY PREDICTED BY IDOCK:   -3.65 KCAL/MOL
REMARK 922        TOTAL FREE ENERGY PREDICTED BY IDOCK:   -5.36 KCAL/MOL
REMARK 923 INTER-LIGAND FREE ENERGY PREDICTED BY IDOCK:   -5.47 KCAL/MOL
REMARK 924 INTRA-LIGAND FREE ENERGY PREDICTED BY IDOCK:    0.12 KCAL/MOL
REMARK 927      BINDING AFFINITY PREDICTED BY RF-SCORE:    0.00 PKD
ROOT
HETATM    1  C   UNL     1     -10.364  19.958  67.138  1.00  0.00    -0.446 C  
HETATM    2  O   UNL     1      -9.956  19.013  68.119  1.00  0.00    -0.341 OA 
ENDROOT
BRANCH   2   3
HETATM    3  C   UNL     1     -10.229  17.698  67.830  1.00  0.00    -0.357 A  
HETATM    4  C   UNL     1     -10.696  16.753  68.757  1.00  0.00    -0.341 A  
HETATM    5  C   UNL     1     -10.883  15.425  68.332  1.00  0.00    -0.268 A  
HETATM    6  C   UNL     1     -10.598  15.101  67.012  1.00  0.00    -0.300 A  
HETATM    7  C   UNL     1     -10.140  16.017  66.063  1.00  0.00    -0.362 A  
HETATM    8  N   UNL     1     -10.867  13.763  66.929  1.00  0.00    -0.283 NA 
HETATM    9  C   UNL     1      -9.946  17.327  66.512  1.00  0.00    -0.310 A  
HETATM   10  C   UNL     1     -11.295  13.324  68.155  1.00  0.00    -0.288 A  
HETATM   11  H   UNL     1     -10.765  13.187  66.094  1.00  0.00     0.000 HD 
HETATM   12  N   UNL     1     -11.312  14.308  69.034  1.00  0.00    -0.256 NA 
BRANCH  10  13
HETATM   13  S   UNL     1     -11.772  11.667  68.396  1.00  0.00    -0.284 S  
HETATM   14  O   UNL     1     -11.945  11.113  67.008  1.00  0.00    -0.272 OA 
BRANCH  13  15
HETATM   15  C   UNL     1     -10.305  10.973  69.200  1.00  0.00    -0.188 C  
BRANCH  15  16
HETATM   16  C   UNL     1      -9.374  10.322  68.187  1.00  0.00    -0.139 A  
HETATM   17  N   UNL     1      -9.617   9.002  67.970  1.00  0.00    -0.145 NA 
HETATM   18  C   UNL     1      -8.839   8.350  67.079  1.00  0.00    -0.134 A  
HETATM   19  C   UNL     1      -7.787   8.929  66.388  1.00  0.00    -0.103 A  
HETATM   20  C   UNL     1      -7.538  10.290  66.613  1.00  0.00    -0.110 A  
HETATM   21  C   UNL     1      -6.948   8.103  65.456  1.00  0.00    -0.063 C  
HETATM   22  C   UNL     1      -8.176  12.497  67.726  1.00  0.00    -0.166 C  
HETATM   23  C   UNL     1      -8.359  11.025  67.499  1.00  0.00    -0.118 A  
BRANCH  20  24
HETATM   24  O   UNL     1      -6.568  10.834  65.805  1.00  0.00    -0.120 OA 
HETATM   25  C   UNL     1      -5.474  11.488  66.439  1.00  0.00    -0.078 C  
ENDBRANCH  20  24
ENDBRANCH  15  16
ENDBRANCH  13  15
ENDBRANCH  10  13
ENDBRANCH   2   3
TORSDOF 5
ENDMDL
MODEL      238
REMARK 921   NORMALIZED FREE ENERGY PREDICTED BY IDOCK:   -3.64 KCAL/MOL
REMARK 922        TOTAL FREE ENERGY PREDICTED BY IDOCK:   -5.34 KCAL/MOL
REMARK 923 INTER-LIGAND FREE ENERGY PREDICTED BY IDOCK:   -4.76 KCAL/MOL
REMARK 924 INTRA-LIGAND FREE ENERGY PREDICTED BY IDOCK:   -0.58 KCAL/MOL
REMARK 927      BINDING AFFINITY PREDICTED BY RF-SCORE:    0.00 PKD
ROOT
HETATM    1  C   UNL     1      -5.981  10.842  62.419  1.00  0.00    -0.131 C  
HETATM    2  O   UNL     1      -6.964   9.847  62.675  1.00  0.00    -0.108 OA 
ENDROOT
BRANCH   2   3
HETATM    3  C   UNL     1      -7.437   9.794  63.964  1.00  0.00    -0.130 A  
HETATM    4  C   UNL     1      -8.697  10.255  64.376  1.00  0.00    -0.209 A  
HETATM    5  C   UNL     1      -9.030  10.185  65.742  1.00  0.00    -0.160 A  
HETATM    6  C   UNL     1      -8.097   9.662  66.629  1.00  0.00    -0.119 A  
HETATM    7  C   UNL     1      -6.840   9.189  66.252  1.00  0.00    -0.082 A  
HETATM    8  N   UNL     1      -8.710   9.746  67.847  1.00  0.00    -0.125 NA 
HETATM    9  C   UNL     1      -6.525   9.282  64.893  1.00  0.00    -0.075 A  
HETATM   10  C   UNL     1      -9.955  10.294  67.678  1.00  0.00    -0.179 A  
HETATM   11  H   UNL     1      -8.308   9.449  68.737  1.00  0.00     0.000 HD 
HETATM   12  N   UNL     1     -10.181  10.578  66.408  1.00  0.00    -0.234 NA 
BRANCH  10  13
HETATM   13  S   UNL     1     -11.034  10.502  69.028  1.00  0.00    -0.261 S  
HETATM   14  O   UNL     1     -12.263  11.139  68.439  1.00  0.00    -0.610 OA 
BRANCH  13  15
HETATM   15  C   UNL     1     -11.354   8.787  69.513  1.00  0.00     0.249 C  
BRANCH  15  16
HETATM   16  C   UNL     1     -10.617   8.428  70.796  1.00  0.00    -0.207 A  
HETATM   17  N   UNL     1      -9.423   9.058  70.951  1.00  0.00    -0.244 NA 
HETATM   18  C   UNL     1      -8.707   8.801  72.068  1.00  0.00    -0.090 A  
HETATM   19  C   UNL     1      -9.096   7.912  73.057  1.00  0.00    -0.300 A  
HETATM   20  C   UNL     1     -10.328   7.263  72.895  1.00  0.00    -0.262 A  
HETATM   21  C   UNL     1      -8.203   7.657  74.237  1.00  0.00    -0.264 C  
HETATM   22  C   UNL     1     -12.487   6.922  71.578  1.00  0.00    -0.420 C  
HETATM   23  C   UNL     1     -11.133   7.540  71.767  1.00  0.00    -0.276 A  
BRANCH  20  24
HETATM   24  O   UNL     1     -10.713   6.495  73.969  1.00  0.00    -0.247 OA 
HETATM   25  C   UNL     1     -10.501   5.090  73.883  1.00  0.00    -0.271 C  
ENDBRANCH  20  24
ENDBRANCH  15  16
ENDBRANCH  13  15
ENDBRANCH  10  13
ENDBRANCH   2   3
TORSDOF 5
ENDMDL
MODEL      239
REMARK 921   NORMALIZED FREE ENERGY PREDICTED BY IDOCK:   -3.63 KCAL/MOL
REMARK 922        TOTAL FREE ENERGY PREDICTED BY IDOCK:   -5.33 KCAL/MOL
REMARK 923 INTER-LIGAND FREE ENERGY PREDICTED BY IDOCK:   -4.81 KCAL/MOL
REMARK 924 INTRA-LIGAND FREE ENERGY PREDICTED BY IDOCK:   -0.52 KCAL/MOL
REMARK 927      BINDING AFFINITY PREDICTED BY RF-SCORE:    0.00 PKD
ROOT
HETATM    1  C   UNL     1     -11.287   1.583  62.834  1.00  0.00    -0.264 C  
HETATM    2  O   UNL     1     -10.033   2.229  62.655  1.00  0.00    -0.088 OA 
ENDROOT
BRANCH   2   3
HETATM    3  C   UNL     1      -9.760   3.253  63.528  1.00  0.00    -0.126 A  
HETATM    4  C   UNL     1     -10.634   3.712  64.526  1.00  0.00    -0.107 A  
HETATM    5  C   UNL     1     -10.243   4.808  65.318  1.00  0.00    -0.012 A  
HETATM    6  C   UNL     1      -9.005   5.392  65.080  1.00  0.00    -0.067 A  
HETATM    7  C   UNL     1      -8.109   4.957  64.103  1.00  0.00    -0.115 A  
HETATM    8  N   UNL     1      -8.937   6.413  65.987  1.00  0.00    -0.216 NA 
HETATM    9  C   UNL     1      -8.526   3.877  63.318  1.00  0.00    -0.093 A  
HETATM   10  C   UNL     1     -10.090   6.421  66.728  1.00  0.00    -0.179 A  
HETATM   11  H   UNL     1      -8.157   7.061  66.096  1.00  0.00     0.000 HD 
HETATM   12  N   UNL     1     -10.910   5.460  66.343  1.00  0.00    -0.235 NA 
BRANCH  10  13
HETATM   13  S   UNL     1     -10.320   7.569  68.016  1.00  0.00    -0.197 S  
HETATM   14  O   UNL     1     -10.073   6.784  69.275  1.00  0.00    -0.161 OA 
BRANCH  13  15
HETATM   15  C   UNL     1      -8.980   8.746  67.706  1.00  0.00    -0.135 C  
BRANCH  15  16
HETATM   16  C   UNL     1      -9.418   9.843  66.746  1.00  0.00    -0.169 A  
HETATM   17  N   UNL     1      -9.485   9.456  65.444  1.00  0.00    -0.268 NA 
HETATM   18  C   UNL     1      -9.874  10.369  64.527  1.00  0.00    -0.339 A  
HETATM   19  C   UNL     1     -10.182  11.687  64.820  1.00  0.00    -0.321 A  
HETATM   20  C   UNL     1     -10.112  12.086  66.162  1.00  0.00    -0.226 A  
HETATM   21  C   UNL     1     -10.554  12.639  63.719  1.00  0.00    -0.432 C  
HETATM   22  C   UNL     1      -9.732  11.508  68.619  1.00  0.00    -0.172 C  
HETATM   23  C   UNL     1      -9.759  11.151  67.162  1.00  0.00    -0.199 A  
BRANCH  20  24
HETATM   24  O   UNL     1     -10.552  13.366  66.401  1.00  0.00    -0.280 OA 
HETATM   25  C   UNL     1     -11.890  13.528  66.859  1.00  0.00    -0.407 C  
ENDBRANCH  20  24
ENDBRANCH  15  16
ENDBRANCH  13  15
ENDBRANCH  10  13
ENDBRANCH   2   3
TORSDOF 5
ENDMDL
MODEL      240
REMARK 921   NORMALIZED FREE ENERGY PREDICTED BY IDOCK:   -3.62 KCAL/MOL
REMARK 922        TOTAL FREE ENERGY PREDICTED BY IDOCK:   -5.32 KCAL/MOL
REMARK 923 INTER-LIGAND FREE ENERGY PREDICTED BY IDOCK:   -4.79 KCAL/MOL
REMARK 924 INTRA-LIGAND FREE ENERGY PREDICTED BY IDOCK:   -0.53 KCAL/MOL
REMARK 927      BINDING AFFINITY PREDICTED BY RF-SCORE:    0.00 PKD
ROOT
HETATM    1  C   UNL     1     -14.202   7.397  71.584  1.00  0.00    -0.440 C  
HETATM    2  O   UNL     1     -13.661   8.682  71.305  1.00  0.00    -0.265 OA 
ENDROOT
BRANCH   2   3
HETATM    3  C   UNL     1     -12.295   8.790  71.414  1.00  0.00    -0.306 A  
HETATM    4  C   UNL     1     -11.469   9.469  70.505  1.00  0.00    -0.337 A  
HETATM    5  C   UNL     1     -10.077   9.454  70.714  1.00  0.00    -0.298 A  
HETATM    6  C   UNL     1      -9.576   8.768  71.813  1.00  0.00    -0.301 A  
HETATM    7  C   UNL     1     -10.370   8.090  72.740  1.00  0.00    -0.408 A  
HETATM    8  N   UNL     1      -8.222   8.933  71.723  1.00  0.00    -0.354 NA 
HETATM    9  C   UNL     1     -11.747   8.105  72.503  1.00  0.00    -0.457 A  
HETATM   10  C   UNL     1      -7.944   9.689  70.614  1.00  0.00    -0.037 A  
HETATM   11  H   UNL     1      -7.533   8.556  72.373  1.00  0.00     0.000 HD 
HETATM   12  N   UNL     1      -9.050  10.020  69.974  1.00  0.00    -0.165 NA 
BRANCH  10  13
HETATM   13  S   UNL     1      -6.308  10.135  70.221  1.00  0.00    -0.131 S  
HETATM   14  O   UNL     1      -5.565  10.050  71.526  1.00  0.00    -0.154 OA 
BRANCH  13  15
HETATM   15  C   UNL     1      -5.820   8.799  69.101  1.00  0.00    -0.039 C  
BRANCH  15  16
HETATM   16  C   UNL     1      -6.597   8.861  67.794  1.00  0.00    -0.061 A  
HETATM   17  N   UNL     1      -6.602  10.084  67.202  1.00  0.00    -0.069 NA 
HETATM   18  C   UNL     1      -7.264  10.224  66.032  1.00  0.00    -0.128 A  
HETATM   19  C   UNL     1      -7.967   9.207  65.407  1.00  0.00    -0.106 A  
HETATM   20  C   UNL     1      -7.961   7.946  66.019  1.00  0.00    -0.103 A  
HETATM   21  C   UNL     1      -8.715   9.478  64.133  1.00  0.00    -0.239 C  
HETATM   22  C   UNL     1      -7.148   6.398  67.878  1.00  0.00    -0.085 C  
HETATM   23  C   UNL     1      -7.239   7.741  67.217  1.00  0.00    -0.090 A  
BRANCH  20  24
HETATM   24  O   UNL     1      -8.567   6.953  65.285  1.00  0.00    -0.105 OA 
HETATM   25  C   UNL     1      -7.763   6.240  64.352  1.00  0.00    -0.107 C  
ENDBRANCH  20  24
ENDBRANCH  15  16
ENDBRANCH  13  15
ENDBRANCH  10  13
ENDBRANCH   2   3
TORSDOF 5
ENDMDL
MODEL      241
REMARK 921   NORMALIZED FREE ENERGY PREDICTED BY IDOCK:   -3.61 KCAL/MOL
REMARK 922        TOTAL FREE ENERGY PREDICTED BY IDOCK:   -5.31 KCAL/MOL
REMARK 923 INTER-LIGAND FREE ENERGY PREDICTED BY IDOCK:   -4.86 KCAL/MOL
REMARK 924 INTRA-LIGAND FREE ENERGY PREDICTED BY IDOCK:   -0.45 KCAL/MOL
REMARK 927      BINDING AFFINITY PREDICTED BY RF-SCORE:    0.00 PKD
ROOT
HETATM    1  C   UNL     1     -11.998  15.248  65.558  1.00  0.00     0.224 C  
HETATM    2  O   UNL     1     -12.628  14.125  64.956  1.00  0.00    -0.562 OA 
ENDROOT
BRANCH   2   3
HETATM    3  C   UNL     1     -11.809  13.055  64.687  1.00  0.00    -0.372 A  
HETATM    4  C   UNL     1     -10.850  12.537  65.571  1.00  0.00    -0.312 A  
HETATM    5  C   UNL     1     -10.042  11.468  65.142  1.00  0.00    -0.268 A  
HETATM    6  C   UNL     1     -10.227  10.965  63.860  1.00  0.00    -0.354 A  
HETATM    7  C   UNL     1     -11.176  11.451  62.960  1.00  0.00     0.150 A  
HETATM    8  N   UNL     1      -9.300   9.966  63.754  1.00  0.00    -0.356 NA 
HETATM    9  C   UNL     1     -11.956  12.524  63.402  1.00  0.00    -0.602 A  
HETATM   10  C   UNL     1      -8.602   9.887  64.931  1.00  0.00    -0.169 A  
HETATM   11  H   UNL     1      -9.151   9.377  62.935  1.00  0.00     0.000 HD 
HETATM   12  N   UNL     1      -9.024  10.790  65.797  1.00  0.00    -0.181 NA 
BRANCH  10  13
HETATM   13  S   UNL     1      -7.367   8.681  65.161  1.00  0.00    -0.090 S  
HETATM   14  O   UNL     1      -6.607   9.141  66.375  1.00  0.00    -0.065 OA 
BRANCH  13  15
HETATM   15  C   UNL     1      -8.354   7.207  65.526  1.00  0.00    -0.129 C  
BRANCH  15  16
HETATM   16  C   UNL     1      -8.424   6.945  67.024  1.00  0.00    -0.121 A  
HETATM   17  N   UNL     1      -7.334   6.312  67.534  1.00  0.00    -0.079 NA 
HETATM   18  C   UNL     1      -7.313   6.048  68.859  1.00  0.00    -0.085 A  
HETATM   19  C   UNL     1      -8.344   6.352  69.732  1.00  0.00    -0.127 A  
HETATM   20  C   UNL     1      -9.468   7.004  69.205  1.00  0.00    -0.143 A  
HETATM   21  C   UNL     1      -8.245   5.969  71.181  1.00  0.00    -0.123 C  
HETATM   22  C   UNL     1     -10.660   8.099  67.232  1.00  0.00    -0.344 C  
HETATM   23  C   UNL     1      -9.511   7.345  67.833  1.00  0.00    -0.150 A  
BRANCH  20  24
HETATM   24  O   UNL     1     -10.395   7.391  70.142  1.00  0.00    -0.206 OA 
HETATM   25  C   UNL     1     -11.589   6.623  70.244  1.00  0.00    -0.395 C  
ENDBRANCH  20  24
ENDBRANCH  15  16
ENDBRANCH  13  15
ENDBRANCH  10  13
ENDBRANCH   2   3
TORSDOF 5
ENDMDL
MODEL      242
REMARK 921   NORMALIZED FREE ENERGY PREDICTED BY IDOCK:   -3.56 KCAL/MOL
REMARK 922        TOTAL FREE ENERGY PREDICTED BY IDOCK:   -5.24 KCAL/MOL
REMARK 923 INTER-LIGAND FREE ENERGY PREDICTED BY IDOCK:   -4.86 KCAL/MOL
REMARK 924 INTRA-LIGAND FREE ENERGY PREDICTED BY IDOCK:   -0.38 KCAL/MOL
REMARK 927      BINDING AFFINITY PREDICTED BY RF-SCORE:    0.00 PKD
ROOT
HETATM    1  C   UNL     1     -11.722  15.593  69.709  1.00  0.00    -0.357 C  
HETATM    2  O   UNL     1     -11.855  15.674  68.295  1.00  0.00    -0.318 OA 
ENDROOT
BRANCH   2   3
HETATM    3  C   UNL     1     -11.494  14.547  67.597  1.00  0.00    -0.353 A  
HETATM    4  C   UNL     1     -10.297  13.838  67.782  1.00  0.00    -0.241 A  
HETATM    5  C   UNL     1     -10.034  12.728  66.957  1.00  0.00    -0.231 A  
HETATM    6  C   UNL     1     -10.970  12.378  65.993  1.00  0.00    -0.289 A  
HETATM    7  C   UNL     1     -12.173  13.056  65.788  1.00  0.00    -0.511 A  
HETATM    8  N   UNL     1     -10.420  11.293  65.369  1.00  0.00    -0.266 NA 
HETATM    9  C   UNL     1     -12.405  14.165  66.608  1.00  0.00    -0.375 A  
HETATM   10  C   UNL     1      -9.209  11.019  65.950  1.00  0.00    -0.199 A  
HETATM   11  H   UNL     1     -10.841  10.773  64.599  1.00  0.00     0.000 HD 
HETATM   12  N   UNL     1      -8.940  11.876  66.918  1.00  0.00    -0.190 NA 
BRANCH  10  13
HETATM   13  S   UNL     1      -8.252   9.661  65.429  1.00  0.00    -0.135 S  
HETATM   14  O   UNL     1      -7.472  10.174  64.251  1.00  0.00    -0.138 OA 
BRANCH  13  15
HETATM   15  C   UNL     1      -7.177   9.395  66.862  1.00  0.00    -0.087 C  
BRANCH  15  16
HETATM   16  C   UNL     1      -7.821   8.455  67.871  1.00  0.00    -0.107 A  
HETATM   17  N   UNL     1      -8.585   9.076  68.808  1.00  0.00    -0.130 NA 
HETATM   18  C   UNL     1      -9.198   8.312  69.738  1.00  0.00    -0.154 A  
HETATM   19  C   UNL     1      -9.079   6.935  69.820  1.00  0.00    -0.144 A  
HETATM   20  C   UNL     1      -8.291   6.295  68.853  1.00  0.00    -0.120 A  
HETATM   21  C   UNL     1      -9.762   6.182  70.925  1.00  0.00    -0.203 C  
HETATM   22  C   UNL     1      -6.871   6.409  66.736  1.00  0.00    -0.066 C  
HETATM   23  C   UNL     1      -7.670   7.050  67.831  1.00  0.00    -0.113 A  
BRANCH  20  24
HETATM   24  O   UNL     1      -8.317   4.922  68.912  1.00  0.00    -0.083 OA 
HETATM   25  C   UNL     1      -7.196   4.267  69.496  1.00  0.00    -0.050 C  
ENDBRANCH  20  24
ENDBRANCH  15  16
ENDBRANCH  13  15
ENDBRANCH  10  13
ENDBRANCH   2   3
TORSDOF 5
ENDMDL
MODEL      243
REMARK 921   NORMALIZED FREE ENERGY PREDICTED BY IDOCK:   -3.55 KCAL/MOL
REMARK 922        TOTAL FREE ENERGY PREDICTED BY IDOCK:   -5.23 KCAL/MOL
REMARK 923 INTER-LIGAND FREE ENERGY PREDICTED BY IDOCK:   -5.45 KCAL/MOL
REMARK 924 INTRA-LIGAND FREE ENERGY PREDICTED BY IDOCK:    0.22 KCAL/MOL
REMARK 927      BINDING AFFINITY PREDICTED BY RF-SCORE:    0.00 PKD
ROOT
HETATM    1  C   UNL     1      -8.339   7.688  64.517  1.00  0.00     0.029 C  
HETATM    2  O   UNL     1      -8.809   7.624  65.858  1.00  0.00    -0.164 OA 
ENDROOT
BRANCH   2   3
HETATM    3  C   UNL     1      -8.816   8.814  66.545  1.00  0.00    -0.131 A  
HETATM    4  C   UNL     1      -8.054   9.942  66.203  1.00  0.00    -0.119 A  
HETATM    5  C   UNL     1      -8.121  11.080  67.029  1.00  0.00    -0.136 A  
HETATM    6  C   UNL     1      -8.941  11.041  68.150  1.00  0.00    -0.152 A  
HETATM    7  C   UNL     1      -9.717   9.940  68.514  1.00  0.00    -0.163 A  
HETATM    8  N   UNL     1      -8.774  12.268  68.729  1.00  0.00    -0.371 NA 
HETATM    9  C   UNL     1      -9.622   8.816  67.688  1.00  0.00    -0.179 A  
HETATM   10  C   UNL     1      -7.893  12.996  67.973  1.00  0.00    -0.146 A  
HETATM   11  H   UNL     1      -9.230  12.589  69.584  1.00  0.00     0.000 HD 
HETATM   12  N   UNL     1      -7.471  12.301  66.933  1.00  0.00    -0.051 NA 
BRANCH  10  13
HETATM   13  S   UNL     1      -7.487  14.634  68.399  1.00  0.00    -0.127 S  
HETATM   14  O   UNL     1      -6.998  15.252  67.118  1.00  0.00    -0.222 OA 
BRANCH  13  15
HETATM   15  C   UNL     1      -9.101  15.303  68.876  1.00  0.00    -0.209 C  
BRANCH  15  16
HETATM   16  C   UNL     1      -9.567  16.372  67.897  1.00  0.00    -0.228 A  
HETATM   17  N   UNL     1      -9.349  17.647  68.313  1.00  0.00    -0.281 NA 
HETATM   18  C   UNL     1      -9.728  18.657  67.500  1.00  0.00    -0.310 A  
HETATM   19  C   UNL     1     -10.353  18.481  66.276  1.00  0.00    -0.459 A  
HETATM   20  C   UNL     1     -10.579  17.165  65.849  1.00  0.00    -0.215 A  
HETATM   21  C   UNL     1     -10.783  19.672  65.469  1.00  0.00    -0.323 C  
HETATM   22  C   UNL     1     -10.312  14.652  66.205  1.00  0.00    -0.309 C  
HETATM   23  C   UNL     1     -10.153  16.077  66.645  1.00  0.00    -0.287 A  
BRANCH  20  24
HETATM   24  O   UNL     1     -11.085  17.058  64.575  1.00  0.00    -1.098 OA 
HETATM   25  C   UNL     1     -12.057  16.046  64.335  1.00  0.00     0.200 C  
ENDBRANCH  20  24
ENDBRANCH  15  16
ENDBRANCH  13  15
ENDBRANCH  10  13
ENDBRANCH   2   3
TORSDOF 5
ENDMDL
MODEL      244
REMARK 921   NORMALIZED FREE ENERGY PREDICTED BY IDOCK:   -3.55 KCAL/MOL
REMARK 922        TOTAL FREE ENERGY PREDICTED BY IDOCK:   -5.22 KCAL/MOL
REMARK 923 INTER-LIGAND FREE ENERGY PREDICTED BY IDOCK:   -4.74 KCAL/MOL
REMARK 924 INTRA-LIGAND FREE ENERGY PREDICTED BY IDOCK:   -0.48 KCAL/MOL
REMARK 927      BINDING AFFINITY PREDICTED BY RF-SCORE:    0.00 PKD
ROOT
HETATM    1  C   UNL     1     -13.092  12.117  71.737  1.00  0.00    -0.352 C  
HETATM    2  O   UNL     1     -13.471  10.844  72.246  1.00  0.00    -0.324 OA 
ENDROOT
BRANCH   2   3
HETATM    3  C   UNL     1     -12.748   9.775  71.774  1.00  0.00    -0.426 A  
HETATM    4  C   UNL     1     -11.479   9.863  71.182  1.00  0.00    -0.459 A  
HETATM    5  C   UNL     1     -10.876   8.688  70.695  1.00  0.00    -0.229 A  
HETATM    6  C   UNL     1     -11.561   7.486  70.822  1.00  0.00    -0.277 A  
HETATM    7  C   UNL     1     -12.819   7.362  71.412  1.00  0.00    -0.408 A  
HETATM    8  N   UNL     1     -10.728   6.564  70.253  1.00  0.00    -0.236 NA 
HETATM    9  C   UNL     1     -13.406   8.545  71.873  1.00  0.00    -0.401 A  
HETATM   10  C   UNL     1      -9.598   7.203  69.814  1.00  0.00    -0.155 A  
HETATM   11  H   UNL     1     -10.916   5.565  70.169  1.00  0.00     0.000 HD 
HETATM   12  N   UNL     1      -9.656   8.499  70.062  1.00  0.00    -0.167 NA 
BRANCH  10  13
HETATM   13  S   UNL     1      -8.295   6.315  69.076  1.00  0.00    -0.117 S  
HETATM   14  O   UNL     1      -8.948   5.518  67.981  1.00  0.00    -0.109 OA 
BRANCH  13  15
HETATM   15  C   UNL     1      -7.275   7.649  68.398  1.00  0.00    -0.090 C  
BRANCH  15  16
HETATM   16  C   UNL     1      -7.188   7.562  66.880  1.00  0.00    -0.085 A  
HETATM   17  N   UNL     1      -6.291   6.650  66.422  1.00  0.00    -0.041 NA 
HETATM   18  C   UNL     1      -6.157   6.505  65.085  1.00  0.00    -0.034 A  
HETATM   19  C   UNL     1      -6.854   7.246  64.145  1.00  0.00    -0.048 A  
HETATM   20  C   UNL     1      -7.779   8.186  64.620  1.00  0.00    -0.118 A  
HETATM   21  C   UNL     1      -6.594   7.045  62.680  1.00  0.00    -0.052 C  
HETATM   22  C   UNL     1      -9.011   9.282  66.568  1.00  0.00    -0.178 C  
HETATM   23  C   UNL     1      -7.988   8.337  66.010  1.00  0.00    -0.098 A  
BRANCH  20  24
HETATM   24  O   UNL     1      -8.527   8.795  63.640  1.00  0.00    -0.175 OA 
HETATM   25  C   UNL     1      -8.252  10.163  63.356  1.00  0.00    -0.164 C  
ENDBRANCH  20  24
ENDBRANCH  15  16
ENDBRANCH  13  15
ENDBRANCH  10  13
ENDBRANCH   2   3
TORSDOF 5
ENDMDL
MODEL      245
REMARK 921   NORMALIZED FREE ENERGY PREDICTED BY IDOCK:   -3.54 KCAL/MOL
REMARK 922        TOTAL FREE ENERGY PREDICTED BY IDOCK:   -5.22 KCAL/MOL
REMARK 923 INTER-LIGAND FREE ENERGY PREDICTED BY IDOCK:   -5.02 KCAL/MOL
REMARK 924 INTRA-LIGAND FREE ENERGY PREDICTED BY IDOCK:   -0.19 KCAL/MOL
REMARK 927      BINDING AFFINITY PREDICTED BY RF-SCORE:    0.00 PKD
ROOT
HETATM    1  C   UNL     1      -7.598   5.738  65.453  1.00  0.00    -0.084 C  
HETATM    2  O   UNL     1      -7.759   6.650  64.373  1.00  0.00    -0.100 OA 
ENDROOT
BRANCH   2   3
HETATM    3  C   UNL     1      -8.028   7.950  64.726  1.00  0.00    -0.140 A  
HETATM    4  C   UNL     1      -7.697   8.532  65.960  1.00  0.00    -0.093 A  
HETATM    5  C   UNL     1      -8.082   9.863  66.205  1.00  0.00    -0.114 A  
HETATM    6  C   UNL     1      -8.774  10.549  65.215  1.00  0.00    -0.188 A  
HETATM    7  C   UNL     1      -9.112  10.004  63.976  1.00  0.00    -0.296 A  
HETATM    8  N   UNL     1      -9.004  11.782  65.760  1.00  0.00    -0.399 NA 
HETATM    9  C   UNL     1      -8.734   8.675  63.760  1.00  0.00     0.090 A  
HETATM   10  C   UNL     1      -8.464  11.814  67.019  1.00  0.00    -0.175 A  
HETATM   11  H   UNL     1      -9.497  12.551  65.305  1.00  0.00     0.000 HD 
HETATM   12  N   UNL     1      -7.899  10.660  67.325  1.00  0.00    -0.110 NA 
BRANCH  10  13
HETATM   13  S   UNL     1      -8.534  13.259  67.988  1.00  0.00    -0.179 S  
HETATM   14  O   UNL     1      -7.396  14.107  67.491  1.00  0.00    -0.170 OA 
BRANCH  13  15
HETATM   15  C   UNL     1     -10.132  13.956  67.497  1.00  0.00    -0.244 C  
BRANCH  15  16
HETATM   16  C   UNL     1     -10.157  15.467  67.682  1.00  0.00    -0.236 A  
HETATM   17  N   UNL     1     -10.281  15.872  68.974  1.00  0.00    -0.214 NA 
HETATM   18  C   UNL     1     -10.304  17.199  69.226  1.00  0.00    -0.257 A  
HETATM   19  C   UNL     1     -10.239  18.180  68.251  1.00  0.00    -0.402 A  
HETATM   20  C   UNL     1     -10.113  17.761  66.919  1.00  0.00    -0.342 A  
HETATM   21  C   UNL     1     -10.326  19.630  68.631  1.00  0.00    -0.404 C  
HETATM   22  C   UNL     1      -9.833  15.884  65.213  1.00  0.00    -0.031 C  
HETATM   23  C   UNL     1     -10.034  16.383  66.613  1.00  0.00    -0.281 A  
BRANCH  20  24
HETATM   24  O   UNL     1      -9.926  18.780  66.015  1.00  0.00    -0.473 OA 
HETATM   25  C   UNL     1      -8.646  19.402  65.979  1.00  0.00    -0.183 C  
ENDBRANCH  20  24
ENDBRANCH  15  16
ENDBRANCH  13  15
ENDBRANCH  10  13
ENDBRANCH   2   3
TORSDOF 5
ENDMDL
MODEL      246
REMARK 921   NORMALIZED FREE ENERGY PREDICTED BY IDOCK:   -3.52 KCAL/MOL
REMARK 922        TOTAL FREE ENERGY PREDICTED BY IDOCK:   -5.19 KCAL/MOL
REMARK 923 INTER-LIGAND FREE ENERGY PREDICTED BY IDOCK:   -4.87 KCAL/MOL
REMARK 924 INTRA-LIGAND FREE ENERGY PREDICTED BY IDOCK:   -0.33 KCAL/MOL
REMARK 927      BINDING AFFINITY PREDICTED BY RF-SCORE:    0.00 PKD
ROOT
HETATM    1  C   UNL     1     -14.411  14.280  72.437  1.00  0.00    -0.303 C  
HETATM    2  O   UNL     1     -13.787  13.448  71.467  1.00  0.00    -0.162 OA 
ENDROOT
BRANCH   2   3
HETATM    3  C   UNL     1     -12.623  13.934  70.923  1.00  0.00    -0.361 A  
HETATM    4  C   UNL     1     -11.992  13.415  69.783  1.00  0.00    -0.396 A  
HETATM    5  C   UNL     1     -10.772  13.982  69.367  1.00  0.00    -0.052 A  
HETATM    6  C   UNL     1     -10.242  15.034  70.102  1.00  0.00     0.021 A  
HETATM    7  C   UNL     1     -10.848  15.580  71.235  1.00  0.00    -0.087 A  
HETATM    8  N   UNL     1      -9.076  15.340  69.458  1.00  0.00    -0.389 NA 
HETATM    9  C   UNL     1     -12.050  14.990  71.639  1.00  0.00    -0.410 A  
HETATM   10  C   UNL     1      -8.933  14.499  68.385  1.00  0.00    -0.186 A  
HETATM   11  H   UNL     1      -8.421  16.072  69.730  1.00  0.00     0.000 HD 
HETATM   12  N   UNL     1      -9.945  13.655  68.303  1.00  0.00    -0.233 NA 
BRANCH  10  13
HETATM   13  S   UNL     1      -7.572  14.643  67.309  1.00  0.00    -0.061 S  
HETATM   14  O   UNL     1      -7.293  13.236  66.857  1.00  0.00     0.145 OA 
BRANCH  13  15
HETATM   15  C   UNL     1      -8.267  15.638  65.965  1.00  0.00     0.574 C  
BRANCH  15  16
HETATM   16  C   UNL     1      -8.619  17.040  66.440  1.00  0.00    -0.276 A  
HETATM   17  N   UNL     1      -9.885  17.170  66.916  1.00  0.00    -0.273 NA 
HETATM   18  C   UNL     1     -10.276  18.383  67.364  1.00  0.00    -0.372 A  
HETATM   19  C   UNL     1      -9.480  19.517  67.346  1.00  0.00    -0.415 A  
HETATM   20  C   UNL     1      -8.174  19.381  66.854  1.00  0.00    -0.281 A  
HETATM   21  C   UNL     1     -10.027  20.832  67.820  1.00  0.00    -0.228 C  
HETATM   22  C   UNL     1      -6.299  17.907  65.948  1.00  0.00    -0.287 C  
HETATM   23  C   UNL     1      -7.706  18.120  66.421  1.00  0.00    -0.295 A  
BRANCH  20  24
HETATM   24  O   UNL     1      -7.397  20.509  66.982  1.00  0.00    -0.295 OA 
HETATM   25  C   UNL     1      -6.220  20.411  67.775  1.00  0.00    -0.246 C  
ENDBRANCH  20  24
ENDBRANCH  15  16
ENDBRANCH  13  15
ENDBRANCH  10  13
ENDBRANCH   2   3
TORSDOF 5
ENDMDL
MODEL      247
REMARK 921   NORMALIZED FREE ENERGY PREDICTED BY IDOCK:   -3.51 KCAL/MOL
REMARK 922        TOTAL FREE ENERGY PREDICTED BY IDOCK:   -5.18 KCAL/MOL
REMARK 923 INTER-LIGAND FREE ENERGY PREDICTED BY IDOCK:   -5.04 KCAL/MOL
REMARK 924 INTRA-LIGAND FREE ENERGY PREDICTED BY IDOCK:   -0.14 KCAL/MOL
REMARK 927      BINDING AFFINITY PREDICTED BY RF-SCORE:    0.00 PKD
ROOT
HETATM    1  C   UNL     1      -9.197   3.177  64.663  1.00  0.00    -0.142 C  
HETATM    2  O   UNL     1      -8.433   3.995  65.541  1.00  0.00    -0.108 OA 
ENDROOT
BRANCH   2   3
HETATM    3  C   UNL     1      -9.047   5.148  65.966  1.00  0.00    -0.149 A  
HETATM    4  C   UNL     1      -8.650   6.447  65.610  1.00  0.00    -0.138 A  
HETATM    5  C   UNL     1      -9.341   7.541  66.164  1.00  0.00    -0.069 A  
HETATM    6  C   UNL     1     -10.390   7.292  67.040  1.00  0.00    -0.306 A  
HETATM    7  C   UNL     1     -10.815   6.015  67.407  1.00  0.00    -0.394 A  
HETATM    8  N   UNL     1     -10.829   8.536  67.398  1.00  0.00    -0.472 NA 
HETATM    9  C   UNL     1     -10.104   4.944  66.858  1.00  0.00    -0.257 A  
HETATM   10  C   UNL     1     -10.067   9.475  66.753  1.00  0.00    -0.245 A  
HETATM   11  H   UNL     1     -11.597   8.733  68.039  1.00  0.00     0.000 HD 
HETATM   12  N   UNL     1      -9.147   8.904  65.997  1.00  0.00    -0.199 NA 
BRANCH  10  13
HETATM   13  S   UNL     1     -10.387  11.175  66.945  1.00  0.00    -0.241 S  
HETATM   14  O   UNL     1     -10.315  11.412  68.428  1.00  0.00    -0.181 OA 
BRANCH  13  15
HETATM   15  C   UNL     1      -8.971  11.917  66.093  1.00  0.00    -0.116 C  
BRANCH  15  16
HETATM   16  C   UNL     1      -8.619  13.274  66.685  1.00  0.00     0.072 A  
HETATM   17  N   UNL     1      -7.447  13.298  67.374  1.00  0.00    -0.154 NA 
HETATM   18  C   UNL     1      -7.056  14.468  67.926  1.00  0.00    -0.157 A  
HETATM   19  C   UNL     1      -7.785  15.643  67.862  1.00  0.00    -0.143 A  
HETATM   20  C   UNL     1      -8.994  15.617  67.152  1.00  0.00    -0.214 A  
HETATM   21  C   UNL     1      -7.288  16.879  68.555  1.00  0.00    -0.206 C  
HETATM   22  C   UNL     1     -10.669  14.363  65.691  1.00  0.00    -0.326 C  
HETATM   23  C   UNL     1      -9.418  14.428  66.516  1.00  0.00    -0.309 A  
BRANCH  20  24
HETATM   24  O   UNL     1      -9.604  16.842  67.019  1.00  0.00    -0.229 OA 
HETATM   25  C   UNL     1     -10.683  17.140  67.899  1.00  0.00    -0.355 C  
ENDBRANCH  20  24
ENDBRANCH  15  16
ENDBRANCH  13  15
ENDBRANCH  10  13
ENDBRANCH   2   3
TORSDOF 5
ENDMDL
MODEL      248
REMARK 921   NORMALIZED FREE ENERGY PREDICTED BY IDOCK:   -3.51 KCAL/MOL
REMARK 922        TOTAL FREE ENERGY PREDICTED BY IDOCK:   -5.18 KCAL/MOL
REMARK 923 INTER-LIGAND FREE ENERGY PREDICTED BY IDOCK:   -4.96 KCAL/MOL
REMARK 924 INTRA-LIGAND FREE ENERGY PREDICTED BY IDOCK:   -0.21 KCAL/MOL
REMARK 927      BINDING AFFINITY PREDICTED BY RF-SCORE:    0.00 PKD
ROOT
HETATM    1  C   UNL     1     -10.504   2.514  63.726  1.00  0.00    -0.111 C  
HETATM    2  O   UNL     1      -9.627   2.767  64.816  1.00  0.00    -0.148 OA 
ENDROOT
BRANCH   2   3
HETATM    3  C   UNL     1      -9.520   4.081  65.202  1.00  0.00    -0.172 A  
HETATM    4  C   UNL     1     -10.450   4.759  66.006  1.00  0.00    -0.332 A  
HETATM    5  C   UNL     1     -10.240   6.124  66.280  1.00  0.00     0.050 A  
HETATM    6  C   UNL     1      -9.119   6.746  65.744  1.00  0.00     0.051 A  
HETATM    7  C   UNL     1      -8.172   6.100  64.949  1.00  0.00    -0.125 A  
HETATM    8  N   UNL     1      -9.214   8.039  66.178  1.00  0.00    -0.279 NA 
HETATM    9  C   UNL     1      -8.410   4.749  64.676  1.00  0.00    -0.130 A  
HETATM   10  C   UNL     1     -10.346   8.165  66.941  1.00  0.00    -0.331 A  
HETATM   11  H   UNL     1      -8.552   8.786  65.969  1.00  0.00     0.000 HD 
HETATM   12  N   UNL     1     -10.997   7.019  67.020  1.00  0.00    -0.365 NA 
BRANCH  10  13
HETATM   13  S   UNL     1     -10.752   9.679  67.697  1.00  0.00    -0.210 S  
HETATM   14  O   UNL     1      -9.837   9.769  68.888  1.00  0.00    -0.162 OA 
BRANCH  13  15
HETATM   15  C   UNL     1     -10.280  10.870  66.417  1.00  0.00    -0.238 C  
BRANCH  15  16
HETATM   16  C   UNL     1      -9.858  12.200  67.027  1.00  0.00    -0.203 A  
HETATM   17  N   UNL     1      -8.562  12.244  67.434  1.00  0.00    -0.169 NA 
HETATM   18  C   UNL     1      -8.105  13.392  67.981  1.00  0.00    -0.160 A  
HETATM   19  C   UNL     1      -8.878  14.523  68.183  1.00  0.00    -0.177 A  
HETATM   20  C   UNL     1     -10.215  14.476  67.763  1.00  0.00    -0.226 A  
HETATM   21  C   UNL     1      -8.288  15.733  68.847  1.00  0.00    -0.213 C  
HETATM   22  C   UNL     1     -12.125  13.233  66.615  1.00  0.00    -0.421 C  
HETATM   23  C   UNL     1     -10.723  13.313  67.140  1.00  0.00    -0.264 A  
BRANCH  20  24
HETATM   24  O   UNL     1     -10.890  15.668  67.874  1.00  0.00    -0.288 OA 
HETATM   25  C   UNL     1     -11.867  15.779  68.903  1.00  0.00    -0.341 C  
ENDBRANCH  20  24
ENDBRANCH  15  16
ENDBRANCH  13  15
ENDBRANCH  10  13
ENDBRANCH   2   3
TORSDOF 5
ENDMDL
MODEL      249
REMARK 921   NORMALIZED FREE ENERGY PREDICTED BY IDOCK:   -3.51 KCAL/MOL
REMARK 922        TOTAL FREE ENERGY PREDICTED BY IDOCK:   -5.18 KCAL/MOL
REMARK 923 INTER-LIGAND FREE ENERGY PREDICTED BY IDOCK:   -4.54 KCAL/MOL
REMARK 924 INTRA-LIGAND FREE ENERGY PREDICTED BY IDOCK:   -0.64 KCAL/MOL
REMARK 927      BINDING AFFINITY PREDICTED BY RF-SCORE:    0.00 PKD
ROOT
HETATM    1  C   UNL     1      -5.882   7.648  73.235  1.00  0.00    -0.048 C  
HETATM    2  O   UNL     1      -6.616   7.075  72.159  1.00  0.00    -0.055 OA 
ENDROOT
BRANCH   2   3
HETATM    3  C   UNL     1      -6.698   7.839  71.020  1.00  0.00    -0.038 A  
HETATM    4  C   UNL     1      -6.867   7.330  69.723  1.00  0.00    -0.053 A  
HETATM    5  C   UNL     1      -6.883   8.228  68.640  1.00  0.00    -0.063 A  
HETATM    6  C   UNL     1      -6.731   9.585  68.898  1.00  0.00    -0.051 A  
HETATM    7  C   UNL     1      -6.570  10.125  70.175  1.00  0.00    -0.128 A  
HETATM    8  N   UNL     1      -6.778  10.168  67.663  1.00  0.00    -0.074 NA 
HETATM    9  C   UNL     1      -6.541   9.212  71.234  1.00  0.00    -0.080 A  
HETATM   10  C   UNL     1      -6.953   9.189  66.720  1.00  0.00    -0.081 A  
HETATM   11  H   UNL     1      -6.696  11.167  67.474  1.00  0.00     0.000 HD 
HETATM   12  N   UNL     1      -7.016   7.995  67.280  1.00  0.00    -0.073 NA 
BRANCH  10  13
HETATM   13  S   UNL     1      -7.105   9.587  65.032  1.00  0.00    -0.115 S  
HETATM   14  O   UNL     1      -6.245   8.577  64.323  1.00  0.00    -0.066 OA 
BRANCH  13  15
HETATM   15  C   UNL     1      -8.863   9.274  64.735  1.00  0.00    -0.185 C  
BRANCH  15  16
HETATM   16  C   UNL     1      -9.733  10.341  65.385  1.00  0.00    -0.278 A  
HETATM   17  N   UNL     1      -9.796  11.510  64.694  1.00  0.00    -0.248 NA 
HETATM   18  C   UNL     1     -10.553  12.508  65.199  1.00  0.00    -0.293 A  
HETATM   19  C   UNL     1     -11.251  12.432  66.393  1.00  0.00    -0.365 A  
HETATM   20  C   UNL     1     -11.184  11.226  67.105  1.00  0.00    -0.275 A  
HETATM   21  C   UNL     1     -12.023  13.618  66.895  1.00  0.00    -0.454 C  
HETATM   22  C   UNL     1     -10.394   8.806  67.277  1.00  0.00    -0.360 C  
HETATM   23  C   UNL     1     -10.445  10.137  66.589  1.00  0.00    -0.254 A  
BRANCH  20  24
HETATM   24  O   UNL     1     -11.998  11.171  68.212  1.00  0.00    -0.592 OA 
HETATM   25  C   UNL     1     -11.425  11.517  69.468  1.00  0.00    -0.311 C  
ENDBRANCH  20  24
ENDBRANCH  15  16
ENDBRANCH  13  15
ENDBRANCH  10  13
ENDBRANCH   2   3
TORSDOF 5
ENDMDL
MODEL      250
REMARK 921   NORMALIZED FREE ENERGY PREDICTED BY IDOCK:   -3.51 KCAL/MOL
REMARK 922        TOTAL FREE ENERGY PREDICTED BY IDOCK:   -5.17 KCAL/MOL
REMARK 923 INTER-LIGAND FREE ENERGY PREDICTED BY IDOCK:   -4.73 KCAL/MOL
REMARK 924 INTRA-LIGAND FREE ENERGY PREDICTED BY IDOCK:   -0.44 KCAL/MOL
REMARK 927      BINDING AFFINITY PREDICTED BY RF-SCORE:    0.00 PKD
ROOT
HETATM    1  C   UNL     1      -5.379  14.220  70.910  1.00  0.00    -0.145 C  
HETATM    2  O   UNL     1      -5.147  14.060  69.516  1.00  0.00    -0.084 OA 
ENDROOT
BRANCH   2   3
HETATM    3  C   UNL     1      -5.744  12.967  68.934  1.00  0.00    -0.074 A  
HETATM    4  C   UNL     1      -6.619  12.087  69.590  1.00  0.00    -0.043 A  
HETATM    5  C   UNL     1      -7.117  10.977  68.883  1.00  0.00    -0.098 A  
HETATM    6  C   UNL     1      -6.722  10.796  67.563  1.00  0.00    -0.073 A  
HETATM    7  C   UNL     1      -5.861  11.655  66.880  1.00  0.00    -0.143 A  
HETATM    8  N   UNL     1      -7.356   9.648  67.178  1.00  0.00    -0.087 NA 
HETATM    9  C   UNL     1      -5.366  12.743  67.607  1.00  0.00    -0.112 A  
HETATM   10  C   UNL     1      -8.095   9.178  68.232  1.00  0.00    -0.104 A  
HETATM   11  H   UNL     1      -7.291   9.212  66.258  1.00  0.00     0.000 HD 
HETATM   12  N   UNL     1      -7.969   9.960  69.288  1.00  0.00    -0.109 NA 
BRANCH  10  13
HETATM   13  S   UNL     1      -9.075   7.748  68.073  1.00  0.00    -0.127 S  
HETATM   14  O   UNL     1      -9.539   7.446  69.472  1.00  0.00    -0.156 OA 
BRANCH  13  15
HETATM   15  C   UNL     1     -10.440   8.347  67.045  1.00  0.00    -0.305 C  
BRANCH  15  16
HETATM   16  C   UNL     1     -10.776   9.798  67.361  1.00  0.00    -0.249 A  
HETATM   17  N   UNL     1     -11.215  10.008  68.630  1.00  0.00    -0.171 NA 
HETATM   18  C   UNL     1     -11.529  11.270  68.995  1.00  0.00    -0.302 A  
HETATM   19  C   UNL     1     -11.460  12.367  68.152  1.00  0.00    -0.370 A  
HETATM   20  C   UNL     1     -11.008  12.148  66.843  1.00  0.00    -0.270 A  
HETATM   21  C   UNL     1     -11.882  13.723  68.639  1.00  0.00    -0.409 C  
HETATM   22  C   UNL     1     -10.069  10.576  65.065  1.00  0.00    -0.390 C  
HETATM   23  C   UNL     1     -10.621  10.852  66.432  1.00  0.00    -0.289 A  
BRANCH  20  24
HETATM   24  O   UNL     1     -10.842  13.292  66.098  1.00  0.00    -0.278 OA 
HETATM   25  C   UNL     1     -11.820  13.580  65.105  1.00  0.00    -0.343 C  
ENDBRANCH  20  24
ENDBRANCH  15  16
ENDBRANCH  13  15
ENDBRANCH  10  13
ENDBRANCH   2   3
TORSDOF 5
ENDMDL
MODEL      251
REMARK 921   NORMALIZED FREE ENERGY PREDICTED BY IDOCK:   -3.51 KCAL/MOL
REMARK 922        TOTAL FREE ENERGY PREDICTED BY IDOCK:   -5.17 KCAL/MOL
REMARK 923 INTER-LIGAND FREE ENERGY PREDICTED BY IDOCK:   -5.08 KCAL/MOL
REMARK 924 INTRA-LIGAND FREE ENERGY PREDICTED BY IDOCK:   -0.09 KCAL/MOL
REMARK 927      BINDING AFFINITY PREDICTED BY RF-SCORE:    0.00 PKD
ROOT
HETATM    1  C   UNL     1     -13.003  11.725  63.352  1.00  0.00    -0.037 C  
HETATM    2  O   UNL     1     -13.126  12.382  64.607  1.00  0.00    -0.825 OA 
ENDROOT
BRANCH   2   3
HETATM    3  C   UNL     1     -12.011  13.062  65.035  1.00  0.00    -0.397 A  
HETATM    4  C   UNL     1     -11.096  12.584  65.986  1.00  0.00    -0.329 A  
HETATM    5  C   UNL     1     -10.025  13.412  66.370  1.00  0.00    -0.293 A  
HETATM    6  C   UNL     1      -9.915  14.670  65.792  1.00  0.00    -0.338 A  
HETATM    7  C   UNL     1     -10.802  15.172  64.839  1.00  0.00    -0.437 A  
HETATM    8  N   UNL     1      -8.803  15.211  66.375  1.00  0.00    -0.421 NA 
HETATM    9  C   UNL     1     -11.867  14.339  64.485  1.00  0.00    -0.456 A  
HETATM   10  C   UNL     1      -8.282  14.302  67.258  1.00  0.00    -0.192 A  
HETATM   11  H   UNL     1      -8.424  16.139  66.184  1.00  0.00     0.000 HD 
HETATM   12  N   UNL     1      -9.004  13.196  67.284  1.00  0.00    -0.207 NA 
BRANCH  10  13
HETATM   13  S   UNL     1      -6.826  14.648  68.146  1.00  0.00    -0.141 S  
HETATM   14  O   UNL     1      -7.216  14.502  69.591  1.00  0.00    -0.130 OA 
BRANCH  13  15
HETATM   15  C   UNL     1      -5.742  13.295  67.620  1.00  0.00    -0.087 C  
BRANCH  15  16
HETATM   16  C   UNL     1      -5.808  12.124  68.591  1.00  0.00    -0.053 A  
HETATM   17  N   UNL     1      -5.311  12.392  69.828  1.00  0.00    -0.078 NA 
HETATM   18  C   UNL     1      -5.339  11.408  70.752  1.00  0.00    -0.131 A  
HETATM   19  C   UNL     1      -5.815  10.129  70.517  1.00  0.00    -0.091 A  
HETATM   20  C   UNL     1      -6.326   9.853  69.242  1.00  0.00    -0.044 A  
HETATM   21  C   UNL     1      -5.753   9.089  71.599  1.00  0.00    -0.061 C  
HETATM   22  C   UNL     1      -6.959  10.644  66.899  1.00  0.00    -0.100 C  
HETATM   23  C   UNL     1      -6.364  10.868  68.257  1.00  0.00    -0.056 A  
BRANCH  20  24
HETATM   24  O   UNL     1      -6.898   8.610  69.112  1.00  0.00    -0.053 OA 
HETATM   25  C   UNL     1      -8.317   8.526  69.185  1.00  0.00    -0.120 C  
ENDBRANCH  20  24
ENDBRANCH  15  16
ENDBRANCH  13  15
ENDBRANCH  10  13
ENDBRANCH   2   3
TORSDOF 5
ENDMDL
MODEL      252
REMARK 921   NORMALIZED FREE ENERGY PREDICTED BY IDOCK:   -3.47 KCAL/MOL
REMARK 922        TOTAL FREE ENERGY PREDICTED BY IDOCK:   -5.13 KCAL/MOL
REMARK 923 INTER-LIGAND FREE ENERGY PREDICTED BY IDOCK:   -4.94 KCAL/MOL
REMARK 924 INTRA-LIGAND FREE ENERGY PREDICTED BY IDOCK:   -0.19 KCAL/MOL
REMARK 927      BINDING AFFINITY PREDICTED BY RF-SCORE:    0.00 PKD
ROOT
HETATM    1  C   UNL     1     -11.539   6.800  71.449  1.00  0.00    -0.305 C  
HETATM    2  O   UNL     1     -10.372   6.103  71.031  1.00  0.00    -0.197 OA 
ENDROOT
BRANCH   2   3
HETATM    3  C   UNL     1     -10.113   6.130  69.682  1.00  0.00    -0.179 A  
HETATM    4  C   UNL     1      -8.837   6.023  69.108  1.00  0.00    -0.119 A  
HETATM    5  C   UNL     1      -8.714   6.120  67.709  1.00  0.00    -0.112 A  
HETATM    6  C   UNL     1      -9.862   6.315  66.952  1.00  0.00    -0.156 A  
HETATM    7  C   UNL     1     -11.146   6.417  67.490  1.00  0.00    -0.401 A  
HETATM    8  N   UNL     1      -9.408   6.376  65.664  1.00  0.00    -0.377 NA 
HETATM    9  C   UNL     1     -11.242   6.334  68.882  1.00  0.00    -0.387 A  
HETATM   10  C   UNL     1      -8.046   6.219  65.670  1.00  0.00    -0.129 A  
HETATM   11  H   UNL     1      -9.986   6.516  64.835  1.00  0.00     0.000 HD 
HETATM   12  N   UNL     1      -7.590   6.066  66.899  1.00  0.00    -0.094 NA 
BRANCH  10  13
HETATM   13  S   UNL     1      -7.140   6.197  64.183  1.00  0.00    -0.057 S  
HETATM   14  O   UNL     1      -8.164   5.922  63.116  1.00  0.00    -0.117 OA 
BRANCH  13  15
HETATM   15  C   UNL     1      -6.540   7.903  64.091  1.00  0.00    -0.061 C  
BRANCH  15  16
HETATM   16  C   UNL     1      -7.694   8.893  64.011  1.00  0.00    -0.128 A  
HETATM   17  N   UNL     1      -8.228   9.032  62.768  1.00  0.00    -0.173 NA 
HETATM   18  C   UNL     1      -9.262   9.887  62.612  1.00  0.00    -0.273 A  
HETATM   19  C   UNL     1      -9.801  10.657  63.630  1.00  0.00    -0.392 A  
HETATM   20  C   UNL     1      -9.249  10.512  64.910  1.00  0.00    -0.215 A  
HETATM   21  C   UNL     1     -10.918  11.617  63.341  1.00  0.00    -0.442 C  
HETATM   22  C   UNL     1      -7.616   9.352  66.492  1.00  0.00    -0.093 C  
HETATM   23  C   UNL     1      -8.198   9.592  65.131  1.00  0.00    -0.134 A  
BRANCH  20  24
HETATM   24  O   UNL     1      -9.908  11.205  65.897  1.00  0.00    -0.213 OA 
HETATM   25  C   UNL     1      -9.363  12.457  66.300  1.00  0.00    -0.189 C  
ENDBRANCH  20  24
ENDBRANCH  15  16
ENDBRANCH  13  15
ENDBRANCH  10  13
ENDBRANCH   2   3
TORSDOF 5
ENDMDL
MODEL      253
REMARK 921   NORMALIZED FREE ENERGY PREDICTED BY IDOCK:   -3.47 KCAL/MOL
REMARK 922        TOTAL FREE ENERGY PREDICTED BY IDOCK:   -5.12 KCAL/MOL
REMARK 923 INTER-LIGAND FREE ENERGY PREDICTED BY IDOCK:   -4.61 KCAL/MOL
REMARK 924 INTRA-LIGAND FREE ENERGY PREDICTED BY IDOCK:   -0.52 KCAL/MOL
REMARK 927      BINDING AFFINITY PREDICTED BY RF-SCORE:    0.00 PKD
ROOT
HETATM    1  C   UNL     1     -14.407   8.082  72.375  1.00  0.00    -0.148 C  
HETATM    2  O   UNL     1     -13.537   9.124  71.950  1.00  0.00    -0.383 OA 
ENDROOT
BRANCH   2   3
HETATM    3  C   UNL     1     -12.230   8.758  71.737  1.00  0.00    -0.349 A  
HETATM    4  C   UNL     1     -11.220   9.618  71.277  1.00  0.00    -0.446 A  
HETATM    5  C   UNL     1      -9.934   9.094  71.054  1.00  0.00    -0.297 A  
HETATM    6  C   UNL     1      -9.713   7.744  71.298  1.00  0.00    -0.157 A  
HETATM    7  C   UNL     1     -10.691   6.864  71.763  1.00  0.00    -0.247 A  
HETATM    8  N   UNL     1      -8.398   7.556  70.977  1.00  0.00    -0.112 NA 
HETATM    9  C   UNL     1     -11.965   7.403  71.962  1.00  0.00    -0.333 A  
HETATM   10  C   UNL     1      -7.870   8.752  70.565  1.00  0.00    -0.103 A  
HETATM   11  H   UNL     1      -7.892   6.672  71.036  1.00  0.00     0.000 HD 
HETATM   12  N   UNL     1      -8.779   9.709  70.594  1.00  0.00    -0.207 NA 
BRANCH  10  13
HETATM   13  S   UNL     1      -6.191   8.885  70.124  1.00  0.00    -0.039 S  
HETATM   14  O   UNL     1      -5.535   7.688  70.753  1.00  0.00    -0.026 OA 
BRANCH  13  15
HETATM   15  C   UNL     1      -6.268   8.719  68.322  1.00  0.00    -0.054 C  
BRANCH  15  16
HETATM   16  C   UNL     1      -7.168   9.781  67.706  1.00  0.00    -0.088 A  
HETATM   17  N   UNL     1      -6.813  11.059  68.005  1.00  0.00    -0.066 NA 
HETATM   18  C   UNL     1      -7.556  12.063  67.491  1.00  0.00    -0.147 A  
HETATM   19  C   UNL     1      -8.678  11.879  66.700  1.00  0.00    -0.185 A  
HETATM   20  C   UNL     1      -9.044  10.561  66.393  1.00  0.00    -0.162 A  
HETATM   21  C   UNL     1      -9.468  13.063  66.221  1.00  0.00    -0.199 C  
HETATM   22  C   UNL     1      -8.575   8.055  66.516  1.00  0.00    -0.148 C  
HETATM   23  C   UNL     1      -8.265   9.479  66.868  1.00  0.00    -0.113 A  
BRANCH  20  24
HETATM   24  O   UNL     1     -10.086  10.450  65.504  1.00  0.00    -0.274 OA 
HETATM   25  C   UNL     1      -9.767  10.412  64.117  1.00  0.00    -0.324 C  
ENDBRANCH  20  24
ENDBRANCH  15  16
ENDBRANCH  13  15
ENDBRANCH  10  13
ENDBRANCH   2   3
TORSDOF 5
ENDMDL
MODEL      254
REMARK 921   NORMALIZED FREE ENERGY PREDICTED BY IDOCK:   -3.47 KCAL/MOL
REMARK 922        TOTAL FREE ENERGY PREDICTED BY IDOCK:   -5.12 KCAL/MOL
REMARK 923 INTER-LIGAND FREE ENERGY PREDICTED BY IDOCK:   -4.77 KCAL/MOL
REMARK 924 INTRA-LIGAND FREE ENERGY PREDICTED BY IDOCK:   -0.35 KCAL/MOL
REMARK 927      BINDING AFFINITY PREDICTED BY RF-SCORE:    0.00 PKD
ROOT
HETATM    1  C   UNL     1     -12.309  15.675  63.961  1.00  0.00     0.253 C  
HETATM    2  O   UNL     1     -11.208  16.353  64.552  1.00  0.00    -0.697 OA 
ENDROOT
BRANCH   2   3
HETATM    3  C   UNL     1     -10.555  15.671  65.550  1.00  0.00    -0.404 A  
HETATM    4  C   UNL     1     -10.102  14.346  65.454  1.00  0.00    -0.388 A  
HETATM    5  C   UNL     1      -9.493  13.756  66.577  1.00  0.00    -0.269 A  
HETATM    6  C   UNL     1      -9.364  14.509  67.738  1.00  0.00    -0.198 A  
HETATM    7  C   UNL     1      -9.795  15.830  67.864  1.00  0.00    -0.217 A  
HETATM    8  N   UNL     1      -8.759  13.660  68.622  1.00  0.00    -0.348 NA 
HETATM    9  C   UNL     1     -10.411  16.390  66.741  1.00  0.00    -0.273 A  
HETATM   10  C   UNL     1      -8.540  12.459  68.000  1.00  0.00    -0.180 A  
HETATM   11  H   UNL     1      -8.510  13.884  69.586  1.00  0.00     0.000 HD 
HETATM   12  N   UNL     1      -8.980  12.480  66.755  1.00  0.00    -0.211 NA 
BRANCH  10  13
HETATM   13  S   UNL     1      -7.737  11.155  68.827  1.00  0.00    -0.135 S  
HETATM   14  O   UNL     1      -8.845  10.384  69.491  1.00  0.00    -0.167 OA 
BRANCH  13  15
HETATM   15  C   UNL     1      -7.027  10.222  67.447  1.00  0.00    -0.082 C  
BRANCH  15  16
HETATM   16  C   UNL     1      -7.341   8.737  67.562  1.00  0.00    -0.081 A  
HETATM   17  N   UNL     1      -6.470   8.039  68.337  1.00  0.00    -0.056 NA 
HETATM   18  C   UNL     1      -6.681   6.714  68.498  1.00  0.00    -0.064 A  
HETATM   19  C   UNL     1      -7.713   6.009  67.900  1.00  0.00    -0.098 A  
HETATM   20  C   UNL     1      -8.610   6.731  67.100  1.00  0.00    -0.120 A  
HETATM   21  C   UNL     1      -7.830   4.526  68.101  1.00  0.00    -0.080 C  
HETATM   22  C   UNL     1      -9.425   8.956  66.153  1.00  0.00    -0.318 C  
HETATM   23  C   UNL     1      -8.457   8.128  66.945  1.00  0.00    -0.119 A  
BRANCH  20  24
HETATM   24  O   UNL     1      -9.680   6.000  66.642  1.00  0.00    -0.149 OA 
HETATM   25  C   UNL     1     -10.960   6.288  67.195  1.00  0.00    -0.370 C  
ENDBRANCH  20  24
ENDBRANCH  15  16
ENDBRANCH  13  15
ENDBRANCH  10  13
ENDBRANCH   2   3
TORSDOF 5
ENDMDL
MODEL      255
REMARK 921   NORMALIZED FREE ENERGY PREDICTED BY IDOCK:   -3.46 KCAL/MOL
REMARK 922        TOTAL FREE ENERGY PREDICTED BY IDOCK:   -5.10 KCAL/MOL
REMARK 923 INTER-LIGAND FREE ENERGY PREDICTED BY IDOCK:   -4.74 KCAL/MOL
REMARK 924 INTRA-LIGAND FREE ENERGY PREDICTED BY IDOCK:   -0.36 KCAL/MOL
REMARK 927      BINDING AFFINITY PREDICTED BY RF-SCORE:    0.00 PKD
ROOT
HETATM    1  C   UNL     1     -11.886  16.063  64.103  1.00  0.00     0.114 C  
HETATM    2  O   UNL     1     -10.676  16.346  64.796  1.00  0.00    -0.700 OA 
ENDROOT
BRANCH   2   3
HETATM    3  C   UNL     1     -10.378  15.507  65.842  1.00  0.00    -0.347 A  
HETATM    4  C   UNL     1     -10.506  14.109  65.811  1.00  0.00    -0.320 A  
HETATM    5  C   UNL     1     -10.214  13.377  66.977  1.00  0.00    -0.249 A  
HETATM    6  C   UNL     1      -9.809  14.067  68.113  1.00  0.00    -0.235 A  
HETATM    7  C   UNL     1      -9.664  15.454  68.175  1.00  0.00    -0.212 A  
HETATM    8  N   UNL     1      -9.621  13.089  69.049  1.00  0.00    -0.327 NA 
HETATM    9  C   UNL     1      -9.975  16.161  67.010  1.00  0.00    -0.259 A  
HETATM   10  C   UNL     1      -9.903  11.875  68.481  1.00  0.00    -0.183 A  
HETATM   11  H   UNL     1      -9.321  13.239  70.013  1.00  0.00     0.000 HD 
HETATM   12  N   UNL     1     -10.272  12.013  67.220  1.00  0.00    -0.203 NA 
BRANCH  10  13
HETATM   13  S   UNL     1      -9.720  10.398  69.384  1.00  0.00    -0.163 S  
HETATM   14  O   UNL     1     -11.024   9.672  69.197  1.00  0.00    -0.218 OA 
BRANCH  13  15
HETATM   15  C   UNL     1      -8.379   9.578  68.485  1.00  0.00    -0.118 C  
BRANCH  15  16
HETATM   16  C   UNL     1      -8.756   8.153  68.108  1.00  0.00    -0.136 A  
HETATM   17  N   UNL     1      -9.238   8.016  66.844  1.00  0.00    -0.145 NA 
HETATM   18  C   UNL     1      -9.591   6.781  66.426  1.00  0.00    -0.095 A  
HETATM   19  C   UNL     1      -9.522   5.642  67.211  1.00  0.00    -0.115 A  
HETATM   20  C   UNL     1      -9.025   5.784  68.515  1.00  0.00    -0.112 A  
HETATM   21  C   UNL     1      -9.988   4.321  66.669  1.00  0.00    -0.202 C  
HETATM   22  C   UNL     1      -7.999   7.244  70.339  1.00  0.00    -0.104 C  
HETATM   23  C   UNL     1      -8.597   7.050  68.977  1.00  0.00    -0.129 A  
BRANCH  20  24
HETATM   24  O   UNL     1      -8.863   4.601  69.195  1.00  0.00    -0.089 OA 
HETATM   25  C   UNL     1      -9.862   4.244  70.145  1.00  0.00    -0.201 C  
ENDBRANCH  20  24
ENDBRANCH  15  16
ENDBRANCH  13  15
ENDBRANCH  10  13
ENDBRANCH   2   3
TORSDOF 5
ENDMDL
MODEL      256
REMARK 921   NORMALIZED FREE ENERGY PREDICTED BY IDOCK:   -3.45 KCAL/MOL
REMARK 922        TOTAL FREE ENERGY PREDICTED BY IDOCK:   -5.10 KCAL/MOL
REMARK 923 INTER-LIGAND FREE ENERGY PREDICTED BY IDOCK:   -4.87 KCAL/MOL
REMARK 924 INTRA-LIGAND FREE ENERGY PREDICTED BY IDOCK:   -0.23 KCAL/MOL
REMARK 927      BINDING AFFINITY PREDICTED BY RF-SCORE:    0.00 PKD
ROOT
HETATM    1  C   UNL     1      -7.955   1.671  67.414  1.00  0.00    -0.064 C  
HETATM    2  O   UNL     1      -9.238   1.797  68.015  1.00  0.00    -0.145 OA 
ENDROOT
BRANCH   2   3
HETATM    3  C   UNL     1      -9.467   2.971  68.690  1.00  0.00    -0.126 A  
HETATM    4  C   UNL     1      -9.633   4.227  68.083  1.00  0.00    -0.196 A  
HETATM    5  C   UNL     1      -9.809   5.356  68.904  1.00  0.00    -0.166 A  
HETATM    6  C   UNL     1      -9.814   5.184  70.282  1.00  0.00    -0.225 A  
HETATM    7  C   UNL     1      -9.661   3.951  70.917  1.00  0.00    -0.258 A  
HETATM    8  N   UNL     1      -9.990   6.447  70.777  1.00  0.00    -0.184 NA 
HETATM    9  C   UNL     1      -9.470   2.845  70.083  1.00  0.00    -0.198 A  
HETATM   10  C   UNL     1     -10.087   7.322  69.726  1.00  0.00    -0.194 A  
HETATM   11  H   UNL     1     -10.040   6.696  71.764  1.00  0.00     0.000 HD 
HETATM   12  N   UNL     1      -9.976   6.692  68.571  1.00  0.00    -0.146 NA 
BRANCH  10  13
HETATM   13  S   UNL     1     -10.365   9.019  69.996  1.00  0.00    -0.217 S  
HETATM   14  O   UNL     1      -9.051   9.545  70.505  1.00  0.00    -0.247 OA 
BRANCH  13  15
HETATM   15  C   UNL     1     -10.702   9.610  68.318  1.00  0.00    -0.217 C  
BRANCH  15  16
HETATM   16  C   UNL     1     -10.078  10.978  68.078  1.00  0.00    -0.179 A  
HETATM   17  N   UNL     1      -8.939  10.952  67.337  1.00  0.00    -0.136 NA 
HETATM   18  C   UNL     1      -8.325  12.126  67.071  1.00  0.00    -0.173 A  
HETATM   19  C   UNL     1      -8.764  13.358  67.529  1.00  0.00    -0.205 A  
HETATM   20  C   UNL     1      -9.939  13.382  68.293  1.00  0.00    -0.240 A  
HETATM   21  C   UNL     1      -7.981  14.601  67.221  1.00  0.00    -0.223 C  
HETATM   22  C   UNL     1     -11.937  12.162  69.310  1.00  0.00    -0.318 C  
HETATM   23  C   UNL     1     -10.642  12.183  68.553  1.00  0.00    -0.252 A  
BRANCH  20  24
HETATM   24  O   UNL     1     -10.389  14.643  68.607  1.00  0.00    -0.232 OA 
HETATM   25  C   UNL     1     -11.402  15.206  67.780  1.00  0.00    -0.328 C  
ENDBRANCH  20  24
ENDBRANCH  15  16
ENDBRANCH  13  15
ENDBRANCH  10  13
ENDBRANCH   2   3
TORSDOF 5
ENDMDL
MODEL      257
REMARK 921   NORMALIZED FREE ENERGY PREDICTED BY IDOCK:   -3.44 KCAL/MOL
REMARK 922        TOTAL FREE ENERGY PREDICTED BY IDOCK:   -5.09 KCAL/MOL
REMARK 923 INTER-LIGAND FREE ENERGY PREDICTED BY IDOCK:   -4.57 KCAL/MOL
REMARK 924 INTRA-LIGAND FREE ENERGY PREDICTED BY IDOCK:   -0.52 KCAL/MOL
REMARK 927      BINDING AFFINITY PREDICTED BY RF-SCORE:    0.00 PKD
ROOT
HETATM    1  C   UNL     1     -12.230  14.237  69.170  1.00  0.00    -0.237 C  
HETATM    2  O   UNL     1     -12.147  13.519  70.395  1.00  0.00    -0.338 OA 
ENDROOT
BRANCH   2   3
HETATM    3  C   UNL     1     -11.916  12.170  70.281  1.00  0.00    -0.305 A  
HETATM    4  C   UNL     1     -11.260  11.556  69.203  1.00  0.00    -0.337 A  
HETATM    5  C   UNL     1     -11.139  10.154  69.193  1.00  0.00    -0.212 A  
HETATM    6  C   UNL     1     -11.674   9.432  70.253  1.00  0.00    -0.083 A  
HETATM    7  C   UNL     1     -12.324  10.011  71.343  1.00  0.00    -0.512 A  
HETATM    8  N   UNL     1     -11.406   8.129  69.940  1.00  0.00    -0.455 NA 
HETATM    9  C   UNL     1     -12.447  11.403  71.323  1.00  0.00    -0.423 A  
HETATM   10  C   UNL     1     -10.737   8.092  68.744  1.00  0.00    -0.040 A  
HETATM   11  H   UNL     1     -11.661   7.318  70.503  1.00  0.00     0.000 HD 
HETATM   12  N   UNL     1     -10.562   9.307  68.258  1.00  0.00    -0.211 NA 
BRANCH  10  13
HETATM   13  S   UNL     1     -10.195   6.583  68.066  1.00  0.00    -0.184 S  
HETATM   14  O   UNL     1      -9.861   6.905  66.636  1.00  0.00    -0.181 OA 
BRANCH  13  15
HETATM   15  C   UNL     1      -8.698   6.260  69.032  1.00  0.00    -0.125 C  
BRANCH  15  16
HETATM   16  C   UNL     1      -7.794   7.484  69.078  1.00  0.00    -0.120 A  
HETATM   17  N   UNL     1      -7.347   7.896  67.862  1.00  0.00    -0.090 NA 
HETATM   18  C   UNL     1      -6.543   8.981  67.813  1.00  0.00    -0.061 A  
HETATM   19  C   UNL     1      -6.118   9.689  68.924  1.00  0.00    -0.042 A  
HETATM   20  C   UNL     1      -6.580   9.263  70.178  1.00  0.00    -0.052 A  
HETATM   21  C   UNL     1      -5.182  10.852  68.767  1.00  0.00    -0.041 C  
HETATM   22  C   UNL     1      -8.036   7.706  71.581  1.00  0.00    -0.109 C  
HETATM   23  C   UNL     1      -7.463   8.162  70.273  1.00  0.00    -0.067 A  
BRANCH  20  24
HETATM   24  O   UNL     1      -6.227  10.081  71.224  1.00  0.00    -0.280 OA 
HETATM   25  C   UNL     1      -5.251   9.596  72.140  1.00  0.00    -0.068 C  
ENDBRANCH  20  24
ENDBRANCH  15  16
ENDBRANCH  13  15
ENDBRANCH  10  13
ENDBRANCH   2   3
TORSDOF 5
ENDMDL
MODEL      258
REMARK 921   NORMALIZED FREE ENERGY PREDICTED BY IDOCK:   -3.43 KCAL/MOL
REMARK 922        TOTAL FREE ENERGY PREDICTED BY IDOCK:   -5.07 KCAL/MOL
REMARK 923 INTER-LIGAND FREE ENERGY PREDICTED BY IDOCK:   -5.63 KCAL/MOL
REMARK 924 INTRA-LIGAND FREE ENERGY PREDICTED BY IDOCK:    0.56 KCAL/MOL
REMARK 927      BINDING AFFINITY PREDICTED BY RF-SCORE:    0.00 PKD
ROOT
HETATM    1  C   UNL     1     -13.016  12.648  71.576  1.00  0.00    -0.282 C  
HETATM    2  O   UNL     1     -13.600  11.550  72.267  1.00  0.00    -0.274 OA 
ENDROOT
BRANCH   2   3
HETATM    3  C   UNL     1     -13.135  10.307  71.911  1.00  0.00    -0.463 A  
HETATM    4  C   UNL     1     -11.944  10.067  71.208  1.00  0.00    -0.483 A  
HETATM    5  C   UNL     1     -11.618   8.742  70.863  1.00  0.00    -0.277 A  
HETATM    6  C   UNL     1     -12.488   7.724  71.234  1.00  0.00    -0.279 A  
HETATM    7  C   UNL     1     -13.675   7.927  71.939  1.00  0.00    -0.366 A  
HETATM    8  N   UNL     1     -11.900   6.588  70.749  1.00  0.00    -0.371 NA 
HETATM    9  C   UNL     1     -13.986   9.253  72.256  1.00  0.00    -0.439 A  
HETATM   10  C   UNL     1     -10.731   6.931  70.123  1.00  0.00    -0.237 A  
HETATM   11  H   UNL     1     -12.271   5.642  70.839  1.00  0.00     0.000 HD 
HETATM   12  N   UNL     1     -10.530   8.235  70.169  1.00  0.00    -0.220 NA 
BRANCH  10  13
HETATM   13  S   UNL     1      -9.697   5.715  69.428  1.00  0.00    -0.170 S  
HETATM   14  O   UNL     1     -10.382   5.315  68.151  1.00  0.00    -0.169 OA 
BRANCH  13  15
HETATM   15  C   UNL     1      -8.188   6.659  69.094  1.00  0.00    -0.120 C  
BRANCH  15  16
HETATM   16  C   UNL     1      -8.462   7.826  68.156  1.00  0.00    -0.124 A  
HETATM   17  N   UNL     1      -9.217   7.508  67.071  1.00  0.00    -0.133 NA 
HETATM   18  C   UNL     1      -9.512   8.489  66.191  1.00  0.00    -0.217 A  
HETATM   19  C   UNL     1      -9.072   9.798  66.303  1.00  0.00    -0.192 A  
HETATM   20  C   UNL     1      -8.293  10.124  67.422  1.00  0.00    -0.118 A  
HETATM   21  C   UNL     1      -9.412  10.803  65.242  1.00  0.00    -0.263 C  
HETATM   22  C   UNL     1      -7.227   9.452  69.642  1.00  0.00    -0.067 C  
HETATM   23  C   UNL     1      -8.001   9.141  68.395  1.00  0.00    -0.103 A  
BRANCH  20  24
HETATM   24  O   UNL     1      -7.996  11.461  67.541  1.00  0.00    -0.117 OA 
HETATM   25  C   UNL     1      -6.687  11.881  67.173  1.00  0.00    -0.142 C  
ENDBRANCH  20  24
ENDBRANCH  15  16
ENDBRANCH  13  15
ENDBRANCH  10  13
ENDBRANCH   2   3
TORSDOF 5
ENDMDL
MODEL      259
REMARK 921   NORMALIZED FREE ENERGY PREDICTED BY IDOCK:   -3.43 KCAL/MOL
REMARK 922        TOTAL FREE ENERGY PREDICTED BY IDOCK:   -5.07 KCAL/MOL
REMARK 923 INTER-LIGAND FREE ENERGY PREDICTED BY IDOCK:   -4.31 KCAL/MOL
REMARK 924 INTRA-LIGAND FREE ENERGY PREDICTED BY IDOCK:   -0.76 KCAL/MOL
REMARK 927      BINDING AFFINITY PREDICTED BY RF-SCORE:    0.00 PKD
ROOT
HETATM    1  C   UNL     1     -13.392  10.134  71.848  1.00  0.00    -0.402 C  
HETATM    2  O   UNL     1     -12.014  10.254  71.518  1.00  0.00    -0.358 OA 
ENDROOT
BRANCH   2   3
HETATM    3  C   UNL     1     -11.257   9.122  71.699  1.00  0.00    -0.377 A  
HETATM    4  C   UNL     1      -9.890   9.013  71.399  1.00  0.00    -0.381 A  
HETATM    5  C   UNL     1      -9.252   7.773  71.587  1.00  0.00    -0.136 A  
HETATM    6  C   UNL     1     -10.001   6.704  72.063  1.00  0.00    -0.165 A  
HETATM    7  C   UNL     1     -11.358   6.780  72.379  1.00  0.00    -0.306 A  
HETATM    8  N   UNL     1      -9.109   5.669  72.119  1.00  0.00    -0.140 NA 
HETATM    9  C   UNL     1     -11.974   8.017  72.170  1.00  0.00    -0.399 A  
HETATM   10  C   UNL     1      -7.886   6.118  71.694  1.00  0.00    -0.102 A  
HETATM   11  H   UNL     1      -9.320   4.720  72.427  1.00  0.00     0.000 HD 
HETATM   12  N   UNL     1      -7.938   7.394  71.357  1.00  0.00    -0.095 NA 
BRANCH  10  13
HETATM   13  S   UNL     1      -6.500   5.066  71.683  1.00  0.00    -0.032 S  
HETATM   14  O   UNL     1      -6.605   4.283  72.963  1.00  0.00    -0.042 OA 
BRANCH  13  15
HETATM   15  C   UNL     1      -6.841   4.019  70.245  1.00  0.00    -0.034 C  
BRANCH  15  16
HETATM   16  C   UNL     1      -7.256   4.853  69.040  1.00  0.00    -0.053 A  
HETATM   17  N   UNL     1      -6.258   5.611  68.514  1.00  0.00    -0.031 NA 
HETATM   18  C   UNL     1      -6.541   6.376  67.437  1.00  0.00    -0.058 A  
HETATM   19  C   UNL     1      -7.791   6.463  66.847  1.00  0.00    -0.104 A  
HETATM   20  C   UNL     1      -8.819   5.681  67.391  1.00  0.00    -0.105 A  
HETATM   21  C   UNL     1      -8.015   7.385  65.682  1.00  0.00    -0.118 C  
HETATM   22  C   UNL     1      -9.603   3.922  69.067  1.00  0.00    -0.209 C  
HETATM   23  C   UNL     1      -8.556   4.827  68.488  1.00  0.00    -0.101 A  
BRANCH  20  24
HETATM   24  O   UNL     1      -9.998   5.714  66.685  1.00  0.00    -0.154 OA 
HETATM   25  C   UNL     1     -11.028   6.573  67.163  1.00  0.00    -0.408 C  
ENDBRANCH  20  24
ENDBRANCH  15  16
ENDBRANCH  13  15
ENDBRANCH  10  13
ENDBRANCH   2   3
TORSDOF 5
ENDMDL
MODEL      260
REMARK 921   NORMALIZED FREE ENERGY PREDICTED BY IDOCK:   -3.42 KCAL/MOL
REMARK 922        TOTAL FREE ENERGY PREDICTED BY IDOCK:   -5.06 KCAL/MOL
REMARK 923 INTER-LIGAND FREE ENERGY PREDICTED BY IDOCK:   -4.58 KCAL/MOL
REMARK 924 INTRA-LIGAND FREE ENERGY PREDICTED BY IDOCK:   -0.49 KCAL/MOL
REMARK 927      BINDING AFFINITY PREDICTED BY RF-SCORE:    0.00 PKD
ROOT
HETATM    1  C   UNL     1     -11.435  16.060  64.355  1.00  0.00    -0.242 C  
HETATM    2  O   UNL     1     -10.355  16.268  65.256  1.00  0.00    -0.552 OA 
ENDROOT
BRANCH   2   3
HETATM    3  C   UNL     1     -10.098  15.238  66.128  1.00  0.00    -0.296 A  
HETATM    4  C   UNL     1     -10.281  13.877  65.837  1.00  0.00    -0.326 A  
HETATM    5  C   UNL     1     -10.027  12.929  66.846  1.00  0.00    -0.238 A  
HETATM    6  C   UNL     1      -9.603  13.379  68.091  1.00  0.00    -0.222 A  
HETATM    7  C   UNL     1      -9.404  14.723  68.410  1.00  0.00    -0.197 A  
HETATM    8  N   UNL     1      -9.461  12.237  68.829  1.00  0.00    -0.403 NA 
HETATM    9  C   UNL     1      -9.678  15.647  67.397  1.00  0.00    -0.222 A  
HETATM   10  C   UNL     1      -9.786  11.162  68.044  1.00  0.00    -0.174 A  
HETATM   11  H   UNL     1      -9.162  12.193  69.803  1.00  0.00     0.000 HD 
HETATM   12  N   UNL     1     -10.141  11.547  66.832  1.00  0.00    -0.209 NA 
BRANCH  10  13
HETATM   13  S   UNL     1      -9.669   9.537  68.657  1.00  0.00    -0.159 S  
HETATM   14  O   UNL     1     -10.681   8.756  67.864  1.00  0.00    -0.203 OA 
BRANCH  13  15
HETATM   15  C   UNL     1      -7.979   9.086  68.187  1.00  0.00    -0.101 C  
BRANCH  15  16
HETATM   16  C   UNL     1      -7.963   7.854  67.293  1.00  0.00    -0.118 A  
HETATM   17  N   UNL     1      -7.969   6.673  67.965  1.00  0.00    -0.109 NA 
HETATM   18  C   UNL     1      -7.963   5.530  67.244  1.00  0.00    -0.101 A  
HETATM   19  C   UNL     1      -7.922   5.479  65.861  1.00  0.00    -0.106 A  
HETATM   20  C   UNL     1      -7.915   6.699  65.169  1.00  0.00    -0.124 A  
HETATM   21  C   UNL     1      -7.865   4.155  65.154  1.00  0.00    -0.089 C  
HETATM   22  C   UNL     1      -8.032   9.248  65.188  1.00  0.00    -0.116 C  
HETATM   23  C   UNL     1      -7.971   7.919  65.881  1.00  0.00    -0.106 A  
BRANCH  20  24
HETATM   24  O   UNL     1      -8.003   6.579  63.802  1.00  0.00    -0.116 OA 
HETATM   25  C   UNL     1      -6.809   6.761  63.047  1.00  0.00    -0.047 C  
ENDBRANCH  20  24
ENDBRANCH  15  16
ENDBRANCH  13  15
ENDBRANCH  10  13
ENDBRANCH   2   3
TORSDOF 5
ENDMDL
MODEL      261
REMARK 921   NORMALIZED FREE ENERGY PREDICTED BY IDOCK:   -3.42 KCAL/MOL
REMARK 922        TOTAL FREE ENERGY PREDICTED BY IDOCK:   -5.06 KCAL/MOL
REMARK 923 INTER-LIGAND FREE ENERGY PREDICTED BY IDOCK:   -4.81 KCAL/MOL
REMARK 924 INTRA-LIGAND FREE ENERGY PREDICTED BY IDOCK:   -0.25 KCAL/MOL
REMARK 927      BINDING AFFINITY PREDICTED BY RF-SCORE:    0.00 PKD
ROOT
HETATM    1  C   UNL     1     -13.567  15.203  70.999  1.00  0.00    -0.409 C  
HETATM    2  O   UNL     1     -14.075  13.984  71.527  1.00  0.00    -0.318 OA 
ENDROOT
BRANCH   2   3
HETATM    3  C   UNL     1     -13.286  12.876  71.334  1.00  0.00    -0.176 A  
HETATM    4  C   UNL     1     -13.296  11.732  72.148  1.00  0.00    -0.334 A  
HETATM    5  C   UNL     1     -12.394  10.691  71.863  1.00  0.00     0.053 A  
HETATM    6  C   UNL     1     -11.528  10.836  70.786  1.00  0.00    -0.122 A  
HETATM    7  C   UNL     1     -11.498  11.955  69.952  1.00  0.00    -0.264 A  
HETATM    8  N   UNL     1     -10.793   9.683  70.789  1.00  0.00    -0.307 NA 
HETATM    9  C   UNL     1     -12.392  12.983  70.265  1.00  0.00    -0.311 A  
HETATM   10  C   UNL     1     -11.216   8.894  71.827  1.00  0.00    -0.362 A  
HETATM   11  H   UNL     1     -10.053   9.448  70.128  1.00  0.00     0.000 HD 
HETATM   12  N   UNL     1     -12.186   9.479  72.505  1.00  0.00     0.052 NA 
BRANCH  10  13
HETATM   13  S   UNL     1     -10.522   7.321  72.097  1.00  0.00    -0.209 S  
HETATM   14  O   UNL     1     -11.027   6.908  73.452  1.00  0.00    -0.282 OA 
BRANCH  13  15
HETATM   15  C   UNL     1     -11.298   6.344  70.784  1.00  0.00    -0.350 C  
BRANCH  15  16
HETATM   16  C   UNL     1     -10.400   5.197  70.342  1.00  0.00    -0.256 A  
HETATM   17  N   UNL     1     -10.131   4.289  71.317  1.00  0.00    -0.151 NA 
HETATM   18  C   UNL     1      -9.346   3.234  71.006  1.00  0.00    -0.143 A  
HETATM   19  C   UNL     1      -8.769   3.030  69.763  1.00  0.00    -0.130 A  
HETATM   20  C   UNL     1      -9.046   3.968  68.759  1.00  0.00    -0.134 A  
HETATM   21  C   UNL     1      -7.867   1.851  69.533  1.00  0.00    -0.049 C  
HETATM   22  C   UNL     1     -10.284   6.056  67.970  1.00  0.00    -0.218 C  
HETATM   23  C   UNL     1      -9.904   5.061  69.026  1.00  0.00    -0.252 A  
BRANCH  20  24
HETATM   24  O   UNL     1      -8.550   3.641  67.520  1.00  0.00    -0.094 OA 
HETATM   25  C   UNL     1      -9.474   3.180  66.541  1.00  0.00    -0.045 C  
ENDBRANCH  20  24
ENDBRANCH  15  16
ENDBRANCH  13  15
ENDBRANCH  10  13
ENDBRANCH   2   3
TORSDOF 5
ENDMDL
MODEL      262
REMARK 921   NORMALIZED FREE ENERGY PREDICTED BY IDOCK:   -3.38 KCAL/MOL
REMARK 922        TOTAL FREE ENERGY PREDICTED BY IDOCK:   -5.01 KCAL/MOL
REMARK 923 INTER-LIGAND FREE ENERGY PREDICTED BY IDOCK:   -5.34 KCAL/MOL
REMARK 924 INTRA-LIGAND FREE ENERGY PREDICTED BY IDOCK:    0.33 KCAL/MOL
REMARK 927      BINDING AFFINITY PREDICTED BY RF-SCORE:    0.00 PKD
ROOT
HETATM    1  C   UNL     1      -5.888  20.428  69.884  1.00  0.00    -0.354 C  
HETATM    2  O   UNL     1      -7.030  19.746  69.380  1.00  0.00    -0.348 OA 
ENDROOT
BRANCH   2   3
HETATM    3  C   UNL     1      -6.794  18.503  68.845  1.00  0.00    -0.278 A  
HETATM    4  C   UNL     1      -7.546  17.352  69.127  1.00  0.00    -0.088 A  
HETATM    5  C   UNL     1      -7.158  16.131  68.546  1.00  0.00    -0.139 A  
HETATM    6  C   UNL     1      -6.045  16.113  67.714  1.00  0.00    -0.139 A  
HETATM    7  C   UNL     1      -5.281  17.239  67.407  1.00  0.00    -0.145 A  
HETATM    8  N   UNL     1      -5.932  14.805  67.333  1.00  0.00    -0.316 NA 
HETATM    9  C   UNL     1      -5.676  18.438  68.008  1.00  0.00    -0.165 A  
HETATM   10  C   UNL     1      -6.943  14.087  67.918  1.00  0.00    -0.161 A  
HETATM   11  H   UNL     1      -5.214  14.425  66.716  1.00  0.00     0.000 HD 
HETATM   12  N   UNL     1      -7.705  14.862  68.667  1.00  0.00    -0.120 NA 
BRANCH  10  13
HETATM   13  S   UNL     1      -7.129  12.385  67.607  1.00  0.00    -0.147 S  
HETATM   14  O   UNL     1      -6.833  11.721  68.924  1.00  0.00    -0.088 OA 
BRANCH  13  15
HETATM   15  C   UNL     1      -8.890  12.273  67.199  1.00  0.00    -0.194 C  
BRANCH  15  16
HETATM   16  C   UNL     1      -9.642  11.430  68.218  1.00  0.00    -0.192 A  
HETATM   17  N   UNL     1      -8.972  10.322  68.633  1.00  0.00    -0.137 NA 
HETATM   18  C   UNL     1      -9.567   9.522  69.544  1.00  0.00    -0.188 A  
HETATM   19  C   UNL     1     -10.832   9.737  70.066  1.00  0.00    -0.319 A  
HETATM   20  C   UNL     1     -11.522  10.879  69.636  1.00  0.00    -0.305 A  
HETATM   21  C   UNL     1     -11.427   8.757  71.036  1.00  0.00    -0.337 C  
HETATM   22  C   UNL     1     -11.586  13.040  68.280  1.00  0.00    -0.375 C  
HETATM   23  C   UNL     1     -10.918  11.772  68.722  1.00  0.00    -0.281 A  
BRANCH  20  24
HETATM   24  O   UNL     1     -12.714  11.103  70.284  1.00  0.00    -0.236 OA 
HETATM   25  C   UNL     1     -12.689  11.935  71.439  1.00  0.00    -0.290 C  
ENDBRANCH  20  24
ENDBRANCH  15  16
ENDBRANCH  13  15
ENDBRANCH  10  13
ENDBRANCH   2   3
TORSDOF 5
ENDMDL
MODEL      263
REMARK 921   NORMALIZED FREE ENERGY PREDICTED BY IDOCK:   -3.37 KCAL/MOL
REMARK 922        TOTAL FREE ENERGY PREDICTED BY IDOCK:   -5.00 KCAL/MOL
REMARK 923 INTER-LIGAND FREE ENERGY PREDICTED BY IDOCK:   -4.53 KCAL/MOL
REMARK 924 INTRA-LIGAND FREE ENERGY PREDICTED BY IDOCK:   -0.47 KCAL/MOL
REMARK 927      BINDING AFFINITY PREDICTED BY RF-SCORE:    0.00 PKD
ROOT
HETATM    1  C   UNL     1     -12.036  15.280  69.855  1.00  0.00    -0.343 C  
HETATM    2  O   UNL     1     -12.072  14.775  68.525  1.00  0.00    -0.272 OA 
ENDROOT
BRANCH   2   3
HETATM    3  C   UNL     1     -11.289  13.672  68.285  1.00  0.00    -0.289 A  
HETATM    4  C   UNL     1      -9.957  13.527  68.703  1.00  0.00    -0.149 A  
HETATM    5  C   UNL     1      -9.257  12.361  68.340  1.00  0.00    -0.145 A  
HETATM    6  C   UNL     1      -9.913  11.399  67.583  1.00  0.00    -0.179 A  
HETATM    7  C   UNL     1     -11.238  11.508  67.158  1.00  0.00    -0.365 A  
HETATM    8  N   UNL     1      -8.975  10.423  67.395  1.00  0.00    -0.135 NA 
HETATM    9  C   UNL     1     -11.908  12.681  67.516  1.00  0.00    -0.396 A  
HETATM   10  C   UNL     1      -7.816  10.800  68.021  1.00  0.00    -0.106 A  
HETATM   11  H   UNL     1      -9.114   9.557  66.874  1.00  0.00     0.000 HD 
HETATM   12  N   UNL     1      -7.950  11.978  68.603  1.00  0.00    -0.119 NA 
BRANCH  10  13
HETATM   13  S   UNL     1      -6.419   9.761  68.023  1.00  0.00    -0.056 S  
HETATM   14  O   UNL     1      -5.246  10.698  67.936  1.00  0.00    -0.037 OA 
BRANCH  13  15
HETATM   15  C   UNL     1      -6.528   8.999  69.663  1.00  0.00    -0.042 C  
BRANCH  15  16
HETATM   16  C   UNL     1      -7.878   8.328  69.872  1.00  0.00    -0.102 A  
HETATM   17  N   UNL     1      -8.846   9.154  70.353  1.00  0.00    -0.200 NA 
HETATM   18  C   UNL     1     -10.077   8.639  70.561  1.00  0.00    -0.196 A  
HETATM   19  C   UNL     1     -10.416   7.313  70.345  1.00  0.00    -0.232 A  
HETATM   20  C   UNL     1      -9.417   6.463  69.850  1.00  0.00    -0.154 A  
HETATM   21  C   UNL     1     -11.802   6.827  70.658  1.00  0.00    -0.442 C  
HETATM   22  C   UNL     1      -7.043   6.119  68.980  1.00  0.00    -0.081 C  
HETATM   23  C   UNL     1      -8.128   6.970  69.570  1.00  0.00    -0.130 A  
BRANCH  20  24
HETATM   24  O   UNL     1      -9.850   5.196  69.538  1.00  0.00    -0.169 OA 
HETATM   25  C   UNL     1      -9.594   4.161  70.481  1.00  0.00    -0.191 C  
ENDBRANCH  20  24
ENDBRANCH  15  16
ENDBRANCH  13  15
ENDBRANCH  10  13
ENDBRANCH   2   3
TORSDOF 5
ENDMDL
MODEL      264
REMARK 921   NORMALIZED FREE ENERGY PREDICTED BY IDOCK:   -3.37 KCAL/MOL
REMARK 922        TOTAL FREE ENERGY PREDICTED BY IDOCK:   -5.00 KCAL/MOL
REMARK 923 INTER-LIGAND FREE ENERGY PREDICTED BY IDOCK:   -4.51 KCAL/MOL
REMARK 924 INTRA-LIGAND FREE ENERGY PREDICTED BY IDOCK:   -0.49 KCAL/MOL
REMARK 927      BINDING AFFINITY PREDICTED BY RF-SCORE:    0.00 PKD
ROOT
HETATM    1  C   UNL     1      -9.657  15.976  68.966  1.00  0.00    -0.247 C  
HETATM    2  O   UNL     1     -10.484  15.152  68.153  1.00  0.00    -0.239 OA 
ENDROOT
BRANCH   2   3
HETATM    3  C   UNL     1      -9.948  13.939  67.796  1.00  0.00    -0.241 A  
HETATM    4  C   UNL     1     -10.689  12.764  67.591  1.00  0.00    -0.236 A  
HETATM    5  C   UNL     1     -10.001  11.576  67.278  1.00  0.00    -0.191 A  
HETATM    6  C   UNL     1      -8.615  11.614  67.184  1.00  0.00    -0.164 A  
HETATM    7  C   UNL     1      -7.850  12.766  67.374  1.00  0.00    -0.172 A  
HETATM    8  N   UNL     1      -8.264  10.327  66.888  1.00  0.00    -0.122 NA 
HETATM    9  C   UNL     1      -8.553  13.930  67.699  1.00  0.00    -0.190 A  
HETATM   10  C   UNL     1      -9.402   9.567  66.809  1.00  0.00    -0.153 A  
HETATM   11  H   UNL     1      -7.312   9.987  66.748  1.00  0.00     0.000 HD 
HETATM   12  N   UNL     1     -10.478  10.295  67.046  1.00  0.00    -0.242 NA 
BRANCH  10  13
HETATM   13  S   UNL     1      -9.325   7.878  66.397  1.00  0.00    -0.169 S  
HETATM   14  O   UNL     1      -7.985   7.422  66.905  1.00  0.00    -0.111 OA 
BRANCH  13  15
HETATM   15  C   UNL     1     -10.671   7.192  67.395  1.00  0.00    -0.298 C  
BRANCH  15  16
HETATM   16  C   UNL     1     -10.136   6.455  68.615  1.00  0.00    -0.158 A  
HETATM   17  N   UNL     1      -9.708   5.190  68.362  1.00  0.00    -0.139 NA 
HETATM   18  C   UNL     1      -9.211   4.468  69.391  1.00  0.00    -0.129 A  
HETATM   19  C   UNL     1      -9.134   4.921  70.697  1.00  0.00    -0.174 A  
HETATM   20  C   UNL     1      -9.577   6.225  70.957  1.00  0.00    -0.175 A  
HETATM   21  C   UNL     1      -8.613   4.020  71.780  1.00  0.00    -0.117 C  
HETATM   22  C   UNL     1     -10.483   8.457  70.114  1.00  0.00    -0.230 C  
HETATM   23  C   UNL     1     -10.058   7.035  69.902  1.00  0.00    -0.202 A  
BRANCH  20  24
HETATM   24  O   UNL     1      -9.357   6.657  72.243  1.00  0.00    -0.139 OA 
HETATM   25  C   UNL     1     -10.481   6.741  73.112  1.00  0.00    -0.270 C  
ENDBRANCH  20  24
ENDBRANCH  15  16
ENDBRANCH  13  15
ENDBRANCH  10  13
ENDBRANCH   2   3
TORSDOF 5
ENDMDL
MODEL      265
REMARK 921   NORMALIZED FREE ENERGY PREDICTED BY IDOCK:   -3.36 KCAL/MOL
REMARK 922        TOTAL FREE ENERGY PREDICTED BY IDOCK:   -4.98 KCAL/MOL
REMARK 923 INTER-LIGAND FREE ENERGY PREDICTED BY IDOCK:   -4.68 KCAL/MOL
REMARK 924 INTRA-LIGAND FREE ENERGY PREDICTED BY IDOCK:   -0.29 KCAL/MOL
REMARK 927      BINDING AFFINITY PREDICTED BY RF-SCORE:    0.00 PKD
ROOT
HETATM    1  C   UNL     1      -7.449  17.986  67.760  1.00  0.00    -0.211 C  
HETATM    2  O   UNL     1      -7.507  16.972  66.765  1.00  0.00    -0.181 OA 
ENDROOT
BRANCH   2   3
HETATM    3  C   UNL     1      -8.359  15.927  67.028  1.00  0.00    -0.223 A  
HETATM    4  C   UNL     1      -7.979  14.709  67.613  1.00  0.00    -0.193 A  
HETATM    5  C   UNL     1      -8.951  13.704  67.776  1.00  0.00    -0.196 A  
HETATM    6  C   UNL     1     -10.249  13.958  67.352  1.00  0.00    -0.252 A  
HETATM    7  C   UNL     1     -10.662  15.160  66.774  1.00  0.00    -0.311 A  
HETATM    8  N   UNL     1     -10.926  12.805  67.634  1.00  0.00    -0.237 NA 
HETATM    9  C   UNL     1      -9.676  16.137  66.607  1.00  0.00    -0.260 A  
HETATM   10  C   UNL     1     -10.056  11.912  68.204  1.00  0.00    -0.198 A  
HETATM   11  H   UNL     1     -11.915  12.635  67.450  1.00  0.00     0.000 HD 
HETATM   12  N   UNL     1      -8.843  12.425  68.301  1.00  0.00    -0.188 NA 
BRANCH  10  13
HETATM   13  S   UNL     1     -10.599  10.346  68.736  1.00  0.00    -0.223 S  
HETATM   14  O   UNL     1     -11.899  10.613  69.444  1.00  0.00    -0.283 OA 
BRANCH  13  15
HETATM   15  C   UNL     1     -10.874   9.496  67.160  1.00  0.00    -0.086 C  
BRANCH  15  16
HETATM   16  C   UNL     1     -10.346   8.069  67.202  1.00  0.00    -0.325 A  
HETATM   17  N   UNL     1     -11.059   7.230  68.000  1.00  0.00     0.008 NA 
HETATM   18  C   UNL     1     -10.661   5.942  68.087  1.00  0.00    -0.244 A  
HETATM   19  C   UNL     1      -9.553   5.422  67.440  1.00  0.00    -0.139 A  
HETATM   20  C   UNL     1      -8.818   6.288  66.618  1.00  0.00    -0.132 A  
HETATM   21  C   UNL     1      -9.163   3.986  67.644  1.00  0.00    -0.193 C  
HETATM   22  C   UNL     1      -8.515   8.581  65.540  1.00  0.00    -0.183 C  
HETATM   23  C   UNL     1      -9.227   7.632  66.457  1.00  0.00    -0.220 A  
BRANCH  20  24
HETATM   24  O   UNL     1      -7.810   5.681  65.906  1.00  0.00    -0.097 OA 
HETATM   25  C   UNL     1      -8.102   5.261  64.578  1.00  0.00    -0.120 C  
ENDBRANCH  20  24
ENDBRANCH  15  16
ENDBRANCH  13  15
ENDBRANCH  10  13
ENDBRANCH   2   3
TORSDOF 5
ENDMDL
MODEL      266
REMARK 921   NORMALIZED FREE ENERGY PREDICTED BY IDOCK:   -3.35 KCAL/MOL
REMARK 922        TOTAL FREE ENERGY PREDICTED BY IDOCK:   -4.97 KCAL/MOL
REMARK 923 INTER-LIGAND FREE ENERGY PREDICTED BY IDOCK:   -4.87 KCAL/MOL
REMARK 924 INTRA-LIGAND FREE ENERGY PREDICTED BY IDOCK:   -0.10 KCAL/MOL
REMARK 927      BINDING AFFINITY PREDICTED BY RF-SCORE:    0.00 PKD
ROOT
HETATM    1  C   UNL     1     -10.031   6.711  74.246  1.00  0.00    -0.345 C  
HETATM    2  O   UNL     1     -10.859   5.721  73.647  1.00  0.00    -0.270 OA 
ENDROOT
BRANCH   2   3
HETATM    3  C   UNL     1     -10.807   5.652  72.276  1.00  0.00    -0.242 A  
HETATM    4  C   UNL     1     -10.088   4.691  71.548  1.00  0.00    -0.255 A  
HETATM    5  C   UNL     1     -10.082   4.772  70.143  1.00  0.00    -0.240 A  
HETATM    6  C   UNL     1     -10.789   5.800  69.531  1.00  0.00    -0.340 A  
HETATM    7  C   UNL     1     -11.520   6.766  70.225  1.00  0.00    -0.414 A  
HETATM    8  N   UNL     1     -10.574   5.606  68.195  1.00  0.00    -0.207 NA 
HETATM    9  C   UNL     1     -11.498   6.675  71.620  1.00  0.00    -0.332 A  
HETATM   10  C   UNL     1      -9.774   4.505  68.033  1.00  0.00    -0.134 A  
HETATM   11  H   UNL     1     -10.947   6.185  67.443  1.00  0.00     0.000 HD 
HETATM   12  N   UNL     1      -9.451   3.975  69.199  1.00  0.00    -0.172 NA 
BRANCH  10  13
HETATM   13  S   UNL     1      -9.338   3.940  66.445  1.00  0.00    -0.191 S  
HETATM   14  O   UNL     1     -10.396   4.504  65.536  1.00  0.00    -0.254 OA 
BRANCH  13  15
HETATM   15  C   UNL     1      -7.745   4.761  66.185  1.00  0.00    -0.091 C  
BRANCH  15  16
HETATM   16  C   UNL     1      -7.901   6.275  66.155  1.00  0.00    -0.105 A  
HETATM   17  N   UNL     1      -7.920   6.861  67.381  1.00  0.00    -0.110 NA 
HETATM   18  C   UNL     1      -8.048   8.205  67.444  1.00  0.00    -0.122 A  
HETATM   19  C   UNL     1      -8.192   9.028  66.339  1.00  0.00    -0.111 A  
HETATM   20  C   UNL     1      -8.174   8.422  65.075  1.00  0.00    -0.153 A  
HETATM   21  C   UNL     1      -8.381  10.506  66.517  1.00  0.00    -0.141 C  
HETATM   22  C   UNL     1      -7.899   6.335  63.631  1.00  0.00    -0.113 C  
HETATM   23  C   UNL     1      -7.991   7.024  64.960  1.00  0.00    -0.129 A  
BRANCH  20  24
HETATM   24  O   UNL     1      -8.193   9.303  64.019  1.00  0.00    -0.144 OA 
HETATM   25  C   UNL     1      -9.404  10.009  63.772  1.00  0.00    -0.257 C  
ENDBRANCH  20  24
ENDBRANCH  15  16
ENDBRANCH  13  15
ENDBRANCH  10  13
ENDBRANCH   2   3
TORSDOF 5
ENDMDL
MODEL      267
REMARK 921   NORMALIZED FREE ENERGY PREDICTED BY IDOCK:   -3.34 KCAL/MOL
REMARK 922        TOTAL FREE ENERGY PREDICTED BY IDOCK:   -4.96 KCAL/MOL
REMARK 923 INTER-LIGAND FREE ENERGY PREDICTED BY IDOCK:   -4.55 KCAL/MOL
REMARK 924 INTRA-LIGAND FREE ENERGY PREDICTED BY IDOCK:   -0.41 KCAL/MOL
REMARK 927      BINDING AFFINITY PREDICTED BY RF-SCORE:    0.00 PKD
ROOT
HETATM    1  C   UNL     1     -14.391   8.268  71.730  1.00  0.00    -0.483 C  
HETATM    2  O   UNL     1     -13.363   9.250  71.680  1.00  0.00    -0.357 OA 
ENDROOT
BRANCH   2   3
HETATM    3  C   UNL     1     -12.077   8.769  71.725  1.00  0.00    -0.350 A  
HETATM    4  C   UNL     1     -10.928   9.524  71.445  1.00  0.00    -0.415 A  
HETATM    5  C   UNL     1      -9.674   8.886  71.480  1.00  0.00    -0.302 A  
HETATM    6  C   UNL     1      -9.623   7.533  71.791  1.00  0.00    -0.152 A  
HETATM    7  C   UNL     1     -10.745   6.756  72.082  1.00  0.00    -0.249 A  
HETATM    8  N   UNL     1      -8.293   7.225  71.729  1.00  0.00    -0.104 NA 
HETATM    9  C   UNL     1     -11.981   7.406  72.026  1.00  0.00    -0.333 A  
HETATM   10  C   UNL     1      -7.594   8.356  71.397  1.00  0.00    -0.097 A  
HETATM   11  H   UNL     1      -7.888   6.305  71.901  1.00  0.00     0.000 HD 
HETATM   12  N   UNL     1      -8.404   9.385  71.233  1.00  0.00    -0.272 NA 
BRANCH  10  13
HETATM   13  S   UNL     1      -5.857   8.333  71.278  1.00  0.00    -0.036 S  
HETATM   14  O   UNL     1      -5.461   6.957  71.738  1.00  0.00    -0.034 OA 
BRANCH  13  15
HETATM   15  C   UNL     1      -5.606   8.525  69.495  1.00  0.00    -0.030 C  
BRANCH  15  16
HETATM   16  C   UNL     1      -6.852   8.127  68.715  1.00  0.00    -0.066 A  
HETATM   17  N   UNL     1      -7.172   6.809  68.804  1.00  0.00    -0.089 NA 
HETATM   18  C   UNL     1      -8.269   6.373  68.146  1.00  0.00    -0.116 A  
HETATM   19  C   UNL     1      -9.077   7.176  67.359  1.00  0.00    -0.124 A  
HETATM   20  C   UNL     1      -8.745   8.535  67.267  1.00  0.00    -0.130 A  
HETATM   21  C   UNL     1     -10.246   6.584  66.625  1.00  0.00    -0.209 C  
HETATM   22  C   UNL     1      -7.275  10.501  67.966  1.00  0.00    -0.087 C  
HETATM   23  C   UNL     1      -7.635   9.045  67.979  1.00  0.00    -0.092 A  
BRANCH  20  24
HETATM   24  O   UNL     1      -9.656   9.299  66.577  1.00  0.00    -0.187 OA 
HETATM   25  C   UNL     1      -9.446   9.474  65.180  1.00  0.00    -0.236 C  
ENDBRANCH  20  24
ENDBRANCH  15  16
ENDBRANCH  13  15
ENDBRANCH  10  13
ENDBRANCH   2   3
TORSDOF 5
ENDMDL
MODEL      268
REMARK 921   NORMALIZED FREE ENERGY PREDICTED BY IDOCK:   -3.33 KCAL/MOL
REMARK 922        TOTAL FREE ENERGY PREDICTED BY IDOCK:   -4.95 KCAL/MOL
REMARK 923 INTER-LIGAND FREE ENERGY PREDICTED BY IDOCK:   -4.63 KCAL/MOL
REMARK 924 INTRA-LIGAND FREE ENERGY PREDICTED BY IDOCK:   -0.31 KCAL/MOL
REMARK 927      BINDING AFFINITY PREDICTED BY RF-SCORE:    0.00 PKD
ROOT
HETATM    1  C   UNL     1      -6.030   8.966  72.996  1.00  0.00    -0.040 C  
HETATM    2  O   UNL     1      -6.077   8.499  71.654  1.00  0.00    -0.041 OA 
ENDROOT
BRANCH   2   3
HETATM    3  C   UNL     1      -6.595   9.379  70.734  1.00  0.00    -0.096 A  
HETATM    4  C   UNL     1      -7.608   9.073  69.812  1.00  0.00    -0.075 A  
HETATM    5  C   UNL     1      -8.005  10.060  68.891  1.00  0.00    -0.101 A  
HETATM    6  C   UNL     1      -7.379  11.300  68.932  1.00  0.00    -0.115 A  
HETATM    7  C   UNL     1      -6.375  11.639  69.840  1.00  0.00    -0.124 A  
HETATM    8  N   UNL     1      -7.972  12.008  67.924  1.00  0.00    -0.137 NA 
HETATM    9  C   UNL     1      -5.985  10.638  70.734  1.00  0.00    -0.058 A  
HETATM   10  C   UNL     1      -8.910  11.212  67.320  1.00  0.00    -0.144 A  
HETATM   11  H   UNL     1      -7.752  12.969  67.664  1.00  0.00     0.000 HD 
HETATM   12  N   UNL     1      -8.954  10.018  67.881  1.00  0.00    -0.131 NA 
BRANCH  10  13
HETATM   13  S   UNL     1      -9.894  11.818  66.018  1.00  0.00    -0.238 S  
HETATM   14  O   UNL     1      -9.978  10.678  65.041  1.00  0.00    -0.261 OA 
BRANCH  13  15
HETATM   15  C   UNL     1     -11.481  12.087  66.848  1.00  0.00    -0.337 C  
BRANCH  15  16
HETATM   16  C   UNL     1     -11.407  13.258  67.818  1.00  0.00    -0.295 A  
HETATM   17  N   UNL     1     -11.326  12.898  69.126  1.00  0.00    -0.273 NA 
HETATM   18  C   UNL     1     -11.250  13.877  70.053  1.00  0.00     0.031 A  
HETATM   19  C   UNL     1     -11.276  15.231  69.763  1.00  0.00    -0.300 A  
HETATM   20  C   UNL     1     -11.360  15.601  68.413  1.00  0.00    -0.364 A  
HETATM   21  C   UNL     1     -11.238  16.243  70.871  1.00  0.00    -0.267 C  
HETATM   22  C   UNL     1     -11.416  14.952  65.946  1.00  0.00    -0.276 C  
HETATM   23  C   UNL     1     -11.392  14.610  67.405  1.00  0.00    -0.368 A  
BRANCH  20  24
HETATM   24  O   UNL     1     -11.253  16.953  68.185  1.00  0.00    -0.297 OA 
HETATM   25  C   UNL     1     -10.042  17.430  67.609  1.00  0.00    -0.327 C  
ENDBRANCH  20  24
ENDBRANCH  15  16
ENDBRANCH  13  15
ENDBRANCH  10  13
ENDBRANCH   2   3
TORSDOF 5
ENDMDL
MODEL      269
REMARK 921   NORMALIZED FREE ENERGY PREDICTED BY IDOCK:   -3.29 KCAL/MOL
REMARK 922        TOTAL FREE ENERGY PREDICTED BY IDOCK:   -4.90 KCAL/MOL
REMARK 923 INTER-LIGAND FREE ENERGY PREDICTED BY IDOCK:   -4.43 KCAL/MOL
REMARK 924 INTRA-LIGAND FREE ENERGY PREDICTED BY IDOCK:   -0.46 KCAL/MOL
REMARK 927      BINDING AFFINITY PREDICTED BY RF-SCORE:    0.00 PKD
ROOT
HETATM    1  C   UNL     1      -8.326   8.527  65.039  1.00  0.00    -0.165 C  
HETATM    2  O   UNL     1      -8.126   8.363  66.438  1.00  0.00    -0.100 OA 
ENDROOT
BRANCH   2   3
HETATM    3  C   UNL     1      -7.926   9.520  67.151  1.00  0.00    -0.102 A  
HETATM    4  C   UNL     1      -7.410  10.712  66.619  1.00  0.00    -0.129 A  
HETATM    5  C   UNL     1      -7.209  11.807  67.480  1.00  0.00    -0.123 A  
HETATM    6  C   UNL     1      -7.531  11.664  68.824  1.00  0.00    -0.114 A  
HETATM    7  C   UNL     1      -8.053  10.497  69.384  1.00  0.00    -0.136 A  
HETATM    8  N   UNL     1      -7.214  12.874  69.375  1.00  0.00    -0.314 NA 
HETATM    9  C   UNL     1      -8.229   9.418  68.513  1.00  0.00    -0.113 A  
HETATM   10  C   UNL     1      -6.728  13.693  68.389  1.00  0.00    -0.100 A  
HETATM   11  H   UNL     1      -7.320  13.127  70.358  1.00  0.00     0.000 HD 
HETATM   12  N   UNL     1      -6.707  13.073  67.223  1.00  0.00    -0.151 NA 
BRANCH  10  13
HETATM   13  S   UNL     1      -6.269  15.336  68.734  1.00  0.00    -0.093 S  
HETATM   14  O   UNL     1      -5.622  15.826  67.468  1.00  0.00    -0.221 OA 
BRANCH  13  15
HETATM   15  C   UNL     1      -7.880  16.123  68.993  1.00  0.00    -0.227 C  
BRANCH  15  16
HETATM   16  C   UNL     1      -9.004  15.294  68.389  1.00  0.00    -0.184 A  
HETATM   17  N   UNL     1      -9.653  14.496  69.277  1.00  0.00    -0.028 NA 
HETATM   18  C   UNL     1     -10.670  13.732  68.823  1.00  0.00    -0.249 A  
HETATM   19  C   UNL     1     -11.081  13.684  67.502  1.00  0.00    -0.296 A  
HETATM   20  C   UNL     1     -10.411  14.507  66.586  1.00  0.00    -0.274 A  
HETATM   21  C   UNL     1     -12.190  12.760  67.088  1.00  0.00    -0.058 C  
HETATM   22  C   UNL     1      -8.669  16.307  66.100  1.00  0.00    -0.353 C  
HETATM   23  C   UNL     1      -9.373  15.361  67.026  1.00  0.00    -0.238 A  
BRANCH  20  24
HETATM   24  O   UNL     1     -10.948  14.508  65.320  1.00  0.00    -0.320 OA 
HETATM   25  C   UNL     1     -10.423  13.576  64.381  1.00  0.00    -0.346 C  
ENDBRANCH  20  24
ENDBRANCH  15  16
ENDBRANCH  13  15
ENDBRANCH  10  13
ENDBRANCH   2   3
TORSDOF 5
ENDMDL
MODEL      270
REMARK 921   NORMALIZED FREE ENERGY PREDICTED BY IDOCK:   -3.28 KCAL/MOL
REMARK 922        TOTAL FREE ENERGY PREDICTED BY IDOCK:   -4.88 KCAL/MOL
REMARK 923 INTER-LIGAND FREE ENERGY PREDICTED BY IDOCK:   -6.85 KCAL/MOL
REMARK 924 INTRA-LIGAND FREE ENERGY PREDICTED BY IDOCK:    1.97 KCAL/MOL
REMARK 927      BINDING AFFINITY PREDICTED BY RF-SCORE:    0.00 PKD
ROOT
HETATM    1  C   UNL     1     -14.193  14.804  72.559  1.00  0.00    -0.262 C  
HETATM    2  O   UNL     1     -13.815  13.435  72.633  1.00  0.00    -0.726 OA 
ENDROOT
BRANCH   2   3
HETATM    3  C   UNL     1     -13.044  12.973  71.594  1.00  0.00    -0.347 A  
HETATM    4  C   UNL     1     -12.533  13.769  70.558  1.00  0.00    -0.409 A  
HETATM    5  C   UNL     1     -11.800  13.151  69.527  1.00  0.00    -0.322 A  
HETATM    6  C   UNL     1     -11.610  11.776  69.578  1.00  0.00    -0.332 A  
HETATM    7  C   UNL     1     -12.097  10.956  70.597  1.00  0.00    -0.468 A  
HETATM    8  N   UNL     1     -10.888  11.496  68.451  1.00  0.00    -0.198 NA 
HETATM    9  C   UNL     1     -12.836  11.590  71.601  1.00  0.00    -0.475 A  
HETATM   10  C   UNL     1     -10.662  12.664  67.772  1.00  0.00    -0.220 A  
HETATM   11  H   UNL     1     -10.569  10.570  68.164  1.00  0.00     0.000 HD 
HETATM   12  N   UNL     1     -11.208  13.692  68.396  1.00  0.00    -0.261 NA 
BRANCH  10  13
HETATM   13  S   UNL     1      -9.724  12.681  66.305  1.00  0.00    -0.246 S  
HETATM   14  O   UNL     1     -10.370  11.645  65.427  1.00  0.00    -0.246 OA 
BRANCH  13  15
HETATM   15  C   UNL     1     -10.037  14.353  65.685  1.00  0.00    -0.353 C  
BRANCH  15  16
HETATM   16  C   UNL     1      -9.190  15.383  66.419  1.00  0.00    -0.305 A  
HETATM   17  N   UNL     1      -9.648  16.659  66.321  1.00  0.00    -0.285 NA 
HETATM   18  C   UNL     1      -8.958  17.634  66.951  1.00  0.00    -0.246 A  
HETATM   19  C   UNL     1      -7.792  17.427  67.669  1.00  0.00    -0.199 A  
HETATM   20  C   UNL     1      -7.319  16.111  67.768  1.00  0.00    -0.135 A  
HETATM   21  C   UNL     1      -7.069  18.588  68.289  1.00  0.00    -0.270 C  
HETATM   22  C   UNL     1      -7.611  13.619  67.298  1.00  0.00    -0.073 C  
HETATM   23  C   UNL     1      -8.037  15.051  67.168  1.00  0.00    -0.245 A  
BRANCH  20  24
HETATM   24  O   UNL     1      -6.234  15.955  68.598  1.00  0.00    -0.102 OA 
HETATM   25  C   UNL     1      -6.287  14.911  69.563  1.00  0.00    -0.131 C  
ENDBRANCH  20  24
ENDBRANCH  15  16
ENDBRANCH  13  15
ENDBRANCH  10  13
ENDBRANCH   2   3
TORSDOF 5
ENDMDL
MODEL      271
REMARK 921   NORMALIZED FREE ENERGY PREDICTED BY IDOCK:   -3.28 KCAL/MOL
REMARK 922        TOTAL FREE ENERGY PREDICTED BY IDOCK:   -4.88 KCAL/MOL
REMARK 923 INTER-LIGAND FREE ENERGY PREDICTED BY IDOCK:   -4.98 KCAL/MOL
REMARK 924 INTRA-LIGAND FREE ENERGY PREDICTED BY IDOCK:    0.11 KCAL/MOL
REMARK 927      BINDING AFFINITY PREDICTED BY RF-SCORE:    0.00 PKD
ROOT
HETATM    1  C   UNL     1      -7.015   2.222  64.360  1.00  0.00    -0.047 C  
HETATM    2  O   UNL     1      -7.984   3.241  64.574  1.00  0.00    -0.081 OA 
ENDROOT
BRANCH   2   3
HETATM    3  C   UNL     1      -8.032   3.761  65.844  1.00  0.00    -0.093 A  
HETATM    4  C   UNL     1      -9.208   4.130  66.517  1.00  0.00    -0.163 A  
HETATM    5  C   UNL     1      -9.103   4.701  67.799  1.00  0.00    -0.119 A  
HETATM    6  C   UNL     1      -7.839   4.876  68.349  1.00  0.00    -0.082 A  
HETATM    7  C   UNL     1      -6.652   4.513  67.711  1.00  0.00    -0.046 A  
HETATM    8  N   UNL     1      -8.080   5.451  69.566  1.00  0.00    -0.095 NA 
HETATM    9  C   UNL     1      -6.779   3.963  66.432  1.00  0.00    -0.053 A  
HETATM   10  C   UNL     1      -9.433   5.603  69.721  1.00  0.00    -0.148 A  
HETATM   11  H   UNL     1      -7.370   5.722  70.246  1.00  0.00     0.000 HD 
HETATM   12  N   UNL     1     -10.086   5.161  68.662  1.00  0.00    -0.168 NA 
BRANCH  10  13
HETATM   13  S   UNL     1     -10.098   6.265  71.187  1.00  0.00    -0.186 S  
HETATM   14  O   UNL     1      -9.272   7.492  71.461  1.00  0.00    -0.136 OA 
BRANCH  13  15
HETATM   15  C   UNL     1     -11.775   6.707  70.666  1.00  0.00    -0.394 C  
BRANCH  15  16
HETATM   16  C   UNL     1     -12.064   8.180  70.921  1.00  0.00    -0.148 A  
HETATM   17  N   UNL     1     -12.861   8.417  71.996  1.00  0.00    -0.341 NA 
HETATM   18  C   UNL     1     -13.161   9.699  72.296  1.00  0.00    -0.404 A  
HETATM   19  C   UNL     1     -12.733  10.794  71.563  1.00  0.00    -0.536 A  
HETATM   20  C   UNL     1     -11.911  10.548  70.454  1.00  0.00    -0.340 A  
HETATM   21  C   UNL     1     -13.165  12.179  71.950  1.00  0.00    -0.474 C  
HETATM   22  C   UNL     1     -10.602   8.912  68.997  1.00  0.00    -0.203 C  
HETATM   23  C   UNL     1     -11.530   9.225  70.132  1.00  0.00    -0.138 A  
BRANCH  20  24
HETATM   24  O   UNL     1     -11.417  11.679  69.848  1.00  0.00    -0.277 OA 
HETATM   25  C   UNL     1     -11.883  11.979  68.537  1.00  0.00    -0.311 C  
ENDBRANCH  20  24
ENDBRANCH  15  16
ENDBRANCH  13  15
ENDBRANCH  10  13
ENDBRANCH   2   3
TORSDOF 5
ENDMDL
MODEL      272
REMARK 921   NORMALIZED FREE ENERGY PREDICTED BY IDOCK:   -3.27 KCAL/MOL
REMARK 922        TOTAL FREE ENERGY PREDICTED BY IDOCK:   -4.87 KCAL/MOL
REMARK 923 INTER-LIGAND FREE ENERGY PREDICTED BY IDOCK:   -4.27 KCAL/MOL
REMARK 924 INTRA-LIGAND FREE ENERGY PREDICTED BY IDOCK:   -0.60 KCAL/MOL
REMARK 927      BINDING AFFINITY PREDICTED BY RF-SCORE:    0.00 PKD
ROOT
HETATM    1  C   UNL     1      -6.162   8.413  74.442  1.00  0.00    -0.125 C  
HETATM    2  O   UNL     1      -5.215   8.877  73.488  1.00  0.00    -0.076 OA 
ENDROOT
BRANCH   2   3
HETATM    3  C   UNL     1      -5.670   8.976  72.195  1.00  0.00    -0.072 A  
HETATM    4  C   UNL     1      -6.358   7.964  71.507  1.00  0.00    -0.039 A  
HETATM    5  C   UNL     1      -6.721   8.184  70.166  1.00  0.00    -0.036 A  
HETATM    6  C   UNL     1      -6.384   9.396  69.575  1.00  0.00    -0.040 A  
HETATM    7  C   UNL     1      -5.709  10.425  70.232  1.00  0.00    -0.074 A  
HETATM    8  N   UNL     1      -6.856   9.288  68.297  1.00  0.00    -0.064 NA 
HETATM    9  C   UNL     1      -5.344  10.178  71.559  1.00  0.00    -0.050 A  
HETATM   10  C   UNL     1      -7.449   8.062  68.148  1.00  0.00    -0.101 A  
HETATM   11  H   UNL     1      -6.780  10.003  67.573  1.00  0.00     0.000 HD 
HETATM   12  N   UNL     1      -7.380   7.361  69.265  1.00  0.00    -0.084 NA 
BRANCH  10  13
HETATM   13  S   UNL     1      -8.204   7.607  66.647  1.00  0.00    -0.128 S  
HETATM   14  O   UNL     1      -8.232   6.104  66.673  1.00  0.00    -0.108 OA 
BRANCH  13  15
HETATM   15  C   UNL     1      -9.867   8.297  66.846  1.00  0.00    -0.247 C  
BRANCH  15  16
HETATM   16  C   UNL     1     -10.434   7.986  68.224  1.00  0.00    -0.161 A  
HETATM   17  N   UNL     1     -10.707   6.671  68.434  1.00  0.00    -0.240 NA 
HETATM   18  C   UNL     1     -11.207   6.309  69.636  1.00  0.00    -0.437 A  
HETATM   19  C   UNL     1     -11.489   7.194  70.663  1.00  0.00    -0.346 A  
HETATM   20  C   UNL     1     -11.208   8.550  70.445  1.00  0.00    -0.211 A  
HETATM   21  C   UNL     1     -12.093   6.696  71.945  1.00  0.00    -0.385 C  
HETATM   22  C   UNL     1     -10.257  10.395  68.960  1.00  0.00    -0.233 C  
HETATM   23  C   UNL     1     -10.637   8.968  69.220  1.00  0.00    -0.226 A  
BRANCH  20  24
HETATM   24  O   UNL     1     -11.390   9.355  71.544  1.00  0.00    -0.354 OA 
HETATM   25  C   UNL     1     -12.573  10.146  71.592  1.00  0.00    -0.434 C  
ENDBRANCH  20  24
ENDBRANCH  15  16
ENDBRANCH  13  15
ENDBRANCH  10  13
ENDBRANCH   2   3
TORSDOF 5
ENDMDL
MODEL      273
REMARK 921   NORMALIZED FREE ENERGY PREDICTED BY IDOCK:   -3.24 KCAL/MOL
REMARK 922        TOTAL FREE ENERGY PREDICTED BY IDOCK:   -4.82 KCAL/MOL
REMARK 923 INTER-LIGAND FREE ENERGY PREDICTED BY IDOCK:   -4.18 KCAL/MOL
REMARK 924 INTRA-LIGAND FREE ENERGY PREDICTED BY IDOCK:   -0.64 KCAL/MOL
REMARK 927      BINDING AFFINITY PREDICTED BY RF-SCORE:    0.00 PKD
ROOT
HETATM    1  C   UNL     1     -11.666  13.130  69.312  1.00  0.00    -0.321 C  
HETATM    2  O   UNL     1     -12.084  12.220  70.323  1.00  0.00    -0.341 OA 
ENDROOT
BRANCH   2   3
HETATM    3  C   UNL     1     -11.638  10.928  70.183  1.00  0.00    -0.338 A  
HETATM    4  C   UNL     1     -11.117  10.383  68.999  1.00  0.00    -0.297 A  
HETATM    5  C   UNL     1     -10.746   9.026  68.985  1.00  0.00    -0.141 A  
HETATM    6  C   UNL     1     -10.909   8.279  70.145  1.00  0.00    -0.237 A  
HETATM    7  C   UNL     1     -11.416   8.791  71.340  1.00  0.00    -0.366 A  
HETATM    8  N   UNL     1     -10.477   7.028  69.802  1.00  0.00    -0.212 NA 
HETATM    9  C   UNL     1     -11.793  10.137  71.325  1.00  0.00    -0.448 A  
HETATM   10  C   UNL     1     -10.074   7.045  68.492  1.00  0.00    -0.165 A  
HETATM   11  H   UNL     1     -10.457   6.216  70.418  1.00  0.00     0.000 HD 
HETATM   12  N   UNL     1     -10.229   8.245  67.962  1.00  0.00    -0.206 NA 
BRANCH  10  13
HETATM   13  S   UNL     1      -9.416   5.621  67.737  1.00  0.00    -0.119 S  
HETATM   14  O   UNL     1      -9.495   5.900  66.262  1.00  0.00    -0.158 OA 
BRANCH  13  15
HETATM   15  C   UNL     1      -7.701   5.653  68.319  1.00  0.00    -0.089 C  
BRANCH  15  16
HETATM   16  C   UNL     1      -7.255   7.070  68.649  1.00  0.00    -0.094 A  
HETATM   17  N   UNL     1      -7.424   7.422  69.951  1.00  0.00    -0.083 NA 
HETATM   18  C   UNL     1      -7.046   8.663  70.330  1.00  0.00    -0.042 A  
HETATM   19  C   UNL     1      -6.523   9.616  69.472  1.00  0.00    -0.045 A  
HETATM   20  C   UNL     1      -6.350   9.252  68.129  1.00  0.00    -0.054 A  
HETATM   21  C   UNL     1      -6.182  10.986  69.982  1.00  0.00    -0.139 C  
HETATM   22  C   UNL     1      -6.459   7.486  66.289  1.00  0.00    -0.049 C  
HETATM   23  C   UNL     1      -6.684   7.947  67.699  1.00  0.00    -0.068 A  
BRANCH  20  24
HETATM   24  O   UNL     1      -5.710  10.194  67.360  1.00  0.00    -0.042 OA 
HETATM   25  C   UNL     1      -6.508  10.977  66.478  1.00  0.00    -0.132 C  
ENDBRANCH  20  24
ENDBRANCH  15  16
ENDBRANCH  13  15
ENDBRANCH  10  13
ENDBRANCH   2   3
TORSDOF 5
ENDMDL
MODEL      274
REMARK 921   NORMALIZED FREE ENERGY PREDICTED BY IDOCK:   -3.23 KCAL/MOL
REMARK 922        TOTAL FREE ENERGY PREDICTED BY IDOCK:   -4.82 KCAL/MOL
REMARK 923 INTER-LIGAND FREE ENERGY PREDICTED BY IDOCK:   -4.41 KCAL/MOL
REMARK 924 INTRA-LIGAND FREE ENERGY PREDICTED BY IDOCK:   -0.40 KCAL/MOL
REMARK 927      BINDING AFFINITY PREDICTED BY RF-SCORE:    0.00 PKD
ROOT
HETATM    1  C   UNL     1     -10.186   4.836  72.926  1.00  0.00    -0.174 C  
HETATM    2  O   UNL     1      -9.842   5.232  71.604  1.00  0.00    -0.159 OA 
ENDROOT
BRANCH   2   3
HETATM    3  C   UNL     1      -9.077   6.368  71.503  1.00  0.00    -0.144 A  
HETATM    4  C   UNL     1      -9.308   7.414  70.595  1.00  0.00    -0.160 A  
HETATM    5  C   UNL     1      -8.409   8.496  70.567  1.00  0.00    -0.135 A  
HETATM    6  C   UNL     1      -7.328   8.488  71.439  1.00  0.00    -0.095 A  
HETATM    7  C   UNL     1      -7.074   7.469  72.359  1.00  0.00    -0.072 A  
HETATM    8  N   UNL     1      -6.659   9.645  71.155  1.00  0.00    -0.285 NA 
HETATM    9  C   UNL     1      -7.970   6.397  72.358  1.00  0.00    -0.102 A  
HETATM   10  C   UNL     1      -7.326  10.306  70.157  1.00  0.00    -0.103 A  
HETATM   11  H   UNL     1      -5.804   9.965  71.611  1.00  0.00     0.000 HD 
HETATM   12  N   UNL     1      -8.394   9.632  69.771  1.00  0.00    -0.156 NA 
BRANCH  10  13
HETATM   13  S   UNL     1      -6.771  11.852  69.579  1.00  0.00     0.003 S  
HETATM   14  O   UNL     1      -5.346  11.945  70.048  1.00  0.00    -0.077 OA 
BRANCH  13  15
HETATM   15  C   UNL     1      -6.857  11.628  67.784  1.00  0.00    -0.079 C  
BRANCH  15  16
HETATM   16  C   UNL     1      -8.236  11.985  67.247  1.00  0.00    -0.173 A  
HETATM   17  N   UNL     1      -8.862  12.981  67.928  1.00  0.00    -0.183 NA 
HETATM   18  C   UNL     1     -10.089  13.365  67.512  1.00  0.00    -0.227 A  
HETATM   19  C   UNL     1     -10.768  12.790  66.451  1.00  0.00    -0.282 A  
HETATM   20  C   UNL     1     -10.122  11.762  65.749  1.00  0.00    -0.237 A  
HETATM   21  C   UNL     1     -12.153  13.254  66.099  1.00  0.00    -0.477 C  
HETATM   22  C   UNL     1      -8.056  10.314  65.363  1.00  0.00    -0.147 C  
HETATM   23  C   UNL     1      -8.817  11.362  66.119  1.00  0.00    -0.186 A  
BRANCH  20  24
HETATM   24  O   UNL     1     -10.793  11.323  64.633  1.00  0.00    -0.317 OA 
HETATM   25  C   UNL     1     -10.412  11.873  63.377  1.00  0.00    -0.441 C  
ENDBRANCH  20  24
ENDBRANCH  15  16
ENDBRANCH  13  15
ENDBRANCH  10  13
ENDBRANCH   2   3
TORSDOF 5
ENDMDL
MODEL      275
REMARK 921   NORMALIZED FREE ENERGY PREDICTED BY IDOCK:   -3.21 KCAL/MOL
REMARK 922        TOTAL FREE ENERGY PREDICTED BY IDOCK:   -4.78 KCAL/MOL
REMARK 923 INTER-LIGAND FREE ENERGY PREDICTED BY IDOCK:   -4.30 KCAL/MOL
REMARK 924 INTRA-LIGAND FREE ENERGY PREDICTED BY IDOCK:   -0.49 KCAL/MOL
REMARK 927      BINDING AFFINITY PREDICTED BY RF-SCORE:    0.00 PKD
ROOT
HETATM    1  C   UNL     1      -5.744  14.620  70.889  1.00  0.00    -0.154 C  
HETATM    2  O   UNL     1      -5.176  13.873  69.820  1.00  0.00    -0.091 OA 
ENDROOT
BRANCH   2   3
HETATM    3  C   UNL     1      -6.058  13.117  69.087  1.00  0.00    -0.095 A  
HETATM    4  C   UNL     1      -6.107  11.714  69.089  1.00  0.00    -0.067 A  
HETATM    5  C   UNL     1      -7.031  11.068  68.246  1.00  0.00    -0.069 A  
HETATM    6  C   UNL     1      -7.858  11.845  67.445  1.00  0.00    -0.158 A  
HETATM    7  C   UNL     1      -7.841  13.240  67.425  1.00  0.00    -0.159 A  
HETATM    8  N   UNL     1      -8.609  10.934  66.756  1.00  0.00    -0.133 NA 
HETATM    9  C   UNL     1      -6.904  13.860  68.258  1.00  0.00    -0.108 A  
HETATM   10  C   UNL     1      -8.235   9.673  67.142  1.00  0.00    -0.120 A  
HETATM   11  H   UNL     1      -9.328  11.155  66.067  1.00  0.00     0.000 HD 
HETATM   12  N   UNL     1      -7.273   9.717  68.045  1.00  0.00    -0.080 NA 
BRANCH  10  13
HETATM   13  S   UNL     1      -9.027   8.265  66.493  1.00  0.00    -0.166 S  
HETATM   14  O   UNL     1      -8.240   7.102  67.031  1.00  0.00    -0.115 OA 
BRANCH  13  15
HETATM   15  C   UNL     1     -10.660   8.368  67.270  1.00  0.00    -0.257 C  
BRANCH  15  16
HETATM   16  C   UNL     1     -10.672   7.675  68.625  1.00  0.00    -0.059 A  
HETATM   17  N   UNL     1     -10.751   6.319  68.561  1.00  0.00    -0.261 NA 
HETATM   18  C   UNL     1     -10.760   5.626  69.720  1.00  0.00    -0.331 A  
HETATM   19  C   UNL     1     -10.724   6.206  70.977  1.00  0.00    -0.317 A  
HETATM   20  C   UNL     1     -10.643   7.604  71.042  1.00  0.00    -0.217 A  
HETATM   21  C   UNL     1     -10.791   5.348  72.208  1.00  0.00    -0.286 C  
HETATM   22  C   UNL     1     -10.429   9.860  69.867  1.00  0.00    -0.309 C  
HETATM   23  C   UNL     1     -10.581   8.368  69.854  1.00  0.00    -0.228 A  
BRANCH  20  24
HETATM   24  O   UNL     1     -10.483   8.108  72.311  1.00  0.00    -0.252 OA 
HETATM   25  C   UNL     1      -9.152   8.321  72.771  1.00  0.00    -0.262 C  
ENDBRANCH  20  24
ENDBRANCH  15  16
ENDBRANCH  13  15
ENDBRANCH  10  13
ENDBRANCH   2   3
TORSDOF 5
ENDMDL
MODEL      276
REMARK 921   NORMALIZED FREE ENERGY PREDICTED BY IDOCK:   -3.20 KCAL/MOL
REMARK 922        TOTAL FREE ENERGY PREDICTED BY IDOCK:   -4.77 KCAL/MOL
REMARK 923 INTER-LIGAND FREE ENERGY PREDICTED BY IDOCK:   -5.47 KCAL/MOL
REMARK 924 INTRA-LIGAND FREE ENERGY PREDICTED BY IDOCK:    0.70 KCAL/MOL
REMARK 927      BINDING AFFINITY PREDICTED BY RF-SCORE:    0.00 PKD
ROOT
HETATM    1  C   UNL     1     -12.859  11.998  63.410  1.00  0.00    -0.291 C  
HETATM    2  O   UNL     1     -12.504  12.336  64.745  1.00  0.00    -0.454 OA 
ENDROOT
BRANCH   2   3
HETATM    3  C   UNL     1     -11.772  13.488  64.893  1.00  0.00    -0.357 A  
HETATM    4  C   UNL     1     -10.522  13.569  65.528  1.00  0.00    -0.304 A  
HETATM    5  C   UNL     1      -9.907  14.828  65.655  1.00  0.00    -0.327 A  
HETATM    6  C   UNL     1     -10.561  15.943  65.146  1.00  0.00    -0.397 A  
HETATM    7  C   UNL     1     -11.799  15.897  64.503  1.00  0.00    -0.084 A  
HETATM    8  N   UNL     1      -9.724  16.984  65.435  1.00  0.00    -0.312 NA 
HETATM    9  C   UNL     1     -12.398  14.638  64.403  1.00  0.00    -0.420 A  
HETATM   10  C   UNL     1      -8.622  16.495  66.086  1.00  0.00    -0.299 A  
HETATM   11  H   UNL     1      -9.892  17.964  65.205  1.00  0.00     0.000 HD 
HETATM   12  N   UNL     1      -8.702  15.186  66.241  1.00  0.00    -0.190 NA 
BRANCH  10  13
HETATM   13  S   UNL     1      -7.321  17.549  66.563  1.00  0.00    -0.299 S  
HETATM   14  O   UNL     1      -7.675  18.885  65.969  1.00  0.00    -0.355 OA 
BRANCH  13  15
HETATM   15  C   UNL     1      -7.500  17.565  68.365  1.00  0.00    -0.247 C  
BRANCH  15  16
HETATM   16  C   UNL     1      -8.568  16.582  68.824  1.00  0.00    -0.262 A  
HETATM   17  N   UNL     1      -8.108  15.325  69.060  1.00  0.00    -0.185 NA 
HETATM   18  C   UNL     1      -8.991  14.392  69.478  1.00  0.00     0.456 A  
HETATM   19  C   UNL     1     -10.346  14.623  69.656  1.00  0.00    -0.025 A  
HETATM   20  C   UNL     1     -10.818  15.920  69.411  1.00  0.00    -0.288 A  
HETATM   21  C   UNL     1     -11.254  13.503  70.074  1.00  0.00     0.088 C  
HETATM   22  C   UNL     1     -10.364  18.358  68.809  1.00  0.00    -0.230 C  
HETATM   23  C   UNL     1      -9.921  16.940  69.020  1.00  0.00    -0.265 A  
BRANCH  20  24
HETATM   24  O   UNL     1     -12.142  16.114  69.728  1.00  0.00    -0.206 OA 
HETATM   25  C   UNL     1     -12.509  16.038  71.101  1.00  0.00    -0.222 C  
ENDBRANCH  20  24
ENDBRANCH  15  16
ENDBRANCH  13  15
ENDBRANCH  10  13
ENDBRANCH   2   3
TORSDOF 5
ENDMDL
MODEL      277
REMARK 921   NORMALIZED FREE ENERGY PREDICTED BY IDOCK:   -3.20 KCAL/MOL
REMARK 922        TOTAL FREE ENERGY PREDICTED BY IDOCK:   -4.77 KCAL/MOL
REMARK 923 INTER-LIGAND FREE ENERGY PREDICTED BY IDOCK:   -5.53 KCAL/MOL
REMARK 924 INTRA-LIGAND FREE ENERGY PREDICTED BY IDOCK:    0.76 KCAL/MOL
REMARK 927      BINDING AFFINITY PREDICTED BY RF-SCORE:    0.00 PKD
ROOT
HETATM    1  C   UNL     1     -14.049   8.371  71.996  1.00  0.00    -0.421 C  
HETATM    2  O   UNL     1     -13.602   9.600  72.555  1.00  0.00    -0.400 OA 
ENDROOT
BRANCH   2   3
HETATM    3  C   UNL     1     -13.038  10.487  71.669  1.00  0.00    -0.446 A  
HETATM    4  C   UNL     1     -13.125  11.884  71.768  1.00  0.00    -0.465 A  
HETATM    5  C   UNL     1     -12.542  12.672  70.758  1.00  0.00    -0.217 A  
HETATM    6  C   UNL     1     -11.903  12.034  69.701  1.00  0.00    -0.333 A  
HETATM    7  C   UNL     1     -11.793  10.649  69.577  1.00  0.00    -0.345 A  
HETATM    8  N   UNL     1     -11.468  13.057  68.906  1.00  0.00    -0.279 NA 
HETATM    9  C   UNL     1     -12.393   9.887  70.584  1.00  0.00    -0.299 A  
HETATM   10  C   UNL     1     -11.836  14.247  69.478  1.00  0.00    -0.329 A  
HETATM   11  H   UNL     1     -10.954  12.953  68.031  1.00  0.00     0.000 HD 
HETATM   12  N   UNL     1     -12.497  14.049  70.604  1.00  0.00    -0.347 NA 
BRANCH  10  13
HETATM   13  S   UNL     1     -11.398  15.765  68.749  1.00  0.00    -0.379 S  
HETATM   14  O   UNL     1     -10.444  16.396  69.726  1.00  0.00    -0.290 OA 
BRANCH  13  15
HETATM   15  C   UNL     1     -10.537  15.222  67.251  1.00  0.00    -0.290 C  
BRANCH  15  16
HETATM   16  C   UNL     1      -9.310  14.387  67.590  1.00  0.00    -0.200 A  
HETATM   17  N   UNL     1      -8.588  14.854  68.643  1.00  0.00    -0.162 NA 
HETATM   18  C   UNL     1      -7.485  14.167  69.014  1.00  0.00    -0.082 A  
HETATM   19  C   UNL     1      -7.021  13.030  68.373  1.00  0.00    -0.100 A  
HETATM   20  C   UNL     1      -7.767  12.550  67.287  1.00  0.00    -0.146 A  
HETATM   21  C   UNL     1      -5.754  12.368  68.832  1.00  0.00    -0.064 C  
HETATM   22  C   UNL     1      -9.823  12.700  65.783  1.00  0.00    -0.236 C  
HETATM   23  C   UNL     1      -8.956  13.208  66.896  1.00  0.00    -0.213 A  
BRANCH  20  24
HETATM   24  O   UNL     1      -7.327  11.351  66.779  1.00  0.00    -0.141 OA 
HETATM   25  C   UNL     1      -6.920  11.324  65.415  1.00  0.00     0.660 C  
ENDBRANCH  20  24
ENDBRANCH  15  16
ENDBRANCH  13  15
ENDBRANCH  10  13
ENDBRANCH   2   3
TORSDOF 5
ENDMDL
MODEL      278
REMARK 921   NORMALIZED FREE ENERGY PREDICTED BY IDOCK:   -3.19 KCAL/MOL
REMARK 922        TOTAL FREE ENERGY PREDICTED BY IDOCK:   -4.77 KCAL/MOL
REMARK 923 INTER-LIGAND FREE ENERGY PREDICTED BY IDOCK:   -4.54 KCAL/MOL
REMARK 924 INTRA-LIGAND FREE ENERGY PREDICTED BY IDOCK:   -0.22 KCAL/MOL
REMARK 927      BINDING AFFINITY PREDICTED BY RF-SCORE:    0.00 PKD
ROOT
HETATM    1  C   UNL     1      -7.310   2.724  64.910  1.00  0.00    -0.067 C  
HETATM    2  O   UNL     1      -8.114   3.891  65.033  1.00  0.00    -0.092 OA 
ENDROOT
BRANCH   2   3
HETATM    3  C   UNL     1      -8.040   4.540  66.242  1.00  0.00    -0.103 A  
HETATM    4  C   UNL     1      -9.138   5.083  66.929  1.00  0.00    -0.117 A  
HETATM    5  C   UNL     1      -8.908   5.769  68.136  1.00  0.00    -0.105 A  
HETATM    6  C   UNL     1      -7.603   5.882  68.600  1.00  0.00    -0.090 A  
HETATM    7  C   UNL     1      -6.492   5.348  67.947  1.00  0.00    -0.048 A  
HETATM    8  N   UNL     1      -7.721   6.597  69.759  1.00  0.00    -0.110 NA 
HETATM    9  C   UNL     1      -6.742   4.685  66.742  1.00  0.00    -0.051 A  
HETATM   10  C   UNL     1      -9.044   6.889  69.964  1.00  0.00    -0.145 A  
HETATM   11  H   UNL     1      -6.951   6.870  70.370  1.00  0.00     0.000 HD 
HETATM   12  N   UNL     1      -9.795   6.404  68.992  1.00  0.00    -0.137 NA 
BRANCH  10  13
HETATM   13  S   UNL     1      -9.561   7.755  71.383  1.00  0.00    -0.157 S  
HETATM   14  O   UNL     1      -8.781   9.040  71.351  1.00  0.00    -0.258 OA 
BRANCH  13  15
HETATM   15  C   UNL     1     -11.313   8.042  71.023  1.00  0.00    -0.273 C  
BRANCH  15  16
HETATM   16  C   UNL     1     -11.550   9.462  70.527  1.00  0.00    -0.235 A  
HETATM   17  N   UNL     1     -10.903   9.768  69.372  1.00  0.00    -0.231 NA 
HETATM   18  C   UNL     1     -11.066  11.007  68.859  1.00  0.00    -0.239 A  
HETATM   19  C   UNL     1     -11.828  12.002  69.449  1.00  0.00    -0.384 A  
HETATM   20  C   UNL     1     -12.495  11.685  70.641  1.00  0.00    -0.295 A  
HETATM   21  C   UNL     1     -11.904  13.366  68.825  1.00  0.00    -0.386 C  
HETATM   22  C   UNL     1     -13.137   9.975  72.423  1.00  0.00    -0.243 C  
HETATM   23  C   UNL     1     -12.393  10.385  71.187  1.00  0.00    -0.505 A  
BRANCH  20  24
HETATM   24  O   UNL     1     -13.333  12.671  71.105  1.00  0.00    -0.044 OA 
HETATM   25  C   UNL     1     -12.865  13.483  72.176  1.00  0.00    -0.228 C  
ENDBRANCH  20  24
ENDBRANCH  15  16
ENDBRANCH  13  15
ENDBRANCH  10  13
ENDBRANCH   2   3
TORSDOF 5
ENDMDL
MODEL      279
REMARK 921   NORMALIZED FREE ENERGY PREDICTED BY IDOCK:   -3.18 KCAL/MOL
REMARK 922        TOTAL FREE ENERGY PREDICTED BY IDOCK:   -4.75 KCAL/MOL
REMARK 923 INTER-LIGAND FREE ENERGY PREDICTED BY IDOCK:   -4.67 KCAL/MOL
REMARK 924 INTRA-LIGAND FREE ENERGY PREDICTED BY IDOCK:   -0.07 KCAL/MOL
REMARK 927      BINDING AFFINITY PREDICTED BY RF-SCORE:    0.00 PKD
ROOT
HETATM    1  C   UNL     1     -11.476   6.928  71.345  1.00  0.00    -0.282 C  
HETATM    2  O   UNL     1     -10.384   7.407  70.568  1.00  0.00    -0.210 OA 
ENDROOT
BRANCH   2   3
HETATM    3  C   UNL     1     -10.679   8.416  69.684  1.00  0.00    -0.198 A  
HETATM    4  C   UNL     1     -10.885   9.758  70.039  1.00  0.00    -0.319 A  
HETATM    5  C   UNL     1     -11.232  10.679  69.033  1.00  0.00    -0.265 A  
HETATM    6  C   UNL     1     -11.357  10.222  67.727  1.00  0.00    -0.059 A  
HETATM    7  C   UNL     1     -11.151   8.897  67.339  1.00  0.00     0.303 A  
HETATM    8  N   UNL     1     -11.707  11.335  67.014  1.00  0.00    -0.457 NA 
HETATM    9  C   UNL     1     -10.823   7.998  68.358  1.00  0.00     0.030 A  
HETATM   10  C   UNL     1     -11.781  12.401  67.872  1.00  0.00    -0.360 A  
HETATM   11  H   UNL     1     -11.884  11.366  66.010  1.00  0.00     0.000 HD 
HETATM   12  N   UNL     1     -11.503  12.037  69.110  1.00  0.00    -0.277 NA 
BRANCH  10  13
HETATM   13  S   UNL     1     -12.160  13.996  67.287  1.00  0.00    -0.297 S  
HETATM   14  O   UNL     1     -12.231  14.849  68.524  1.00  0.00    -0.194 OA 
BRANCH  13  15
HETATM   15  C   UNL     1     -10.689  14.388  66.305  1.00  0.00    -0.307 C  
BRANCH  15  16
HETATM   16  C   UNL     1     -10.110  13.140  65.654  1.00  0.00    -0.271 A  
HETATM   17  N   UNL     1     -10.769  12.733  64.537  1.00  0.00    -0.335 NA 
HETATM   18  C   UNL     1     -10.314  11.635  63.894  1.00  0.00    -0.369 A  
HETATM   19  C   UNL     1      -9.234  10.876  64.313  1.00  0.00    -0.221 A  
HETATM   20  C   UNL     1      -8.556  11.297  65.465  1.00  0.00     0.021 A  
HETATM   21  C   UNL     1      -8.839   9.641  63.555  1.00  0.00    -0.255 C  
HETATM   22  C   UNL     1      -8.236  12.998  67.341  1.00  0.00    -0.183 C  
HETATM   23  C   UNL     1      -8.966  12.468  66.142  1.00  0.00     0.069 A  
BRANCH  20  24
HETATM   24  O   UNL     1      -7.421  10.577  65.754  1.00  0.00    -0.143 OA 
HETATM   25  C   UNL     1      -7.496   9.622  66.807  1.00  0.00    -0.094 C  
ENDBRANCH  20  24
ENDBRANCH  15  16
ENDBRANCH  13  15
ENDBRANCH  10  13
ENDBRANCH   2   3
TORSDOF 5
ENDMDL
MODEL      280
REMARK 921   NORMALIZED FREE ENERGY PREDICTED BY IDOCK:   -3.17 KCAL/MOL
REMARK 922        TOTAL FREE ENERGY PREDICTED BY IDOCK:   -4.73 KCAL/MOL
REMARK 923 INTER-LIGAND FREE ENERGY PREDICTED BY IDOCK:   -4.35 KCAL/MOL
REMARK 924 INTRA-LIGAND FREE ENERGY PREDICTED BY IDOCK:   -0.38 KCAL/MOL
REMARK 927      BINDING AFFINITY PREDICTED BY RF-SCORE:    0.00 PKD
ROOT
HETATM    1  C   UNL     1      -5.801   2.739  71.828  1.00  0.00    -0.013 C  
HETATM    2  O   UNL     1      -6.040   4.113  72.111  1.00  0.00    -0.015 OA 
ENDROOT
BRANCH   2   3
HETATM    3  C   UNL     1      -6.769   4.797  71.169  1.00  0.00    -0.031 A  
HETATM    4  C   UNL     1      -6.228   5.672  70.215  1.00  0.00    -0.027 A  
HETATM    5  C   UNL     1      -7.102   6.347  69.342  1.00  0.00    -0.073 A  
HETATM    6  C   UNL     1      -8.467   6.119  69.459  1.00  0.00    -0.120 A  
HETATM    7  C   UNL     1      -9.038   5.250  70.390  1.00  0.00    -0.173 A  
HETATM    8  N   UNL     1      -9.024   6.917  68.499  1.00  0.00    -0.123 NA 
HETATM    9  C   UNL     1      -8.151   4.603  71.257  1.00  0.00    -0.096 A  
HETATM   10  C   UNL     1      -8.021   7.583  67.844  1.00  0.00    -0.119 A  
HETATM   11  H   UNL     1     -10.021   7.002  68.302  1.00  0.00     0.000 HD 
HETATM   12  N   UNL     1      -6.838   7.264  68.336  1.00  0.00    -0.070 NA 
BRANCH  10  13
HETATM   13  S   UNL     1      -8.374   8.655  66.519  1.00  0.00    -0.111 S  
HETATM   14  O   UNL     1      -7.972   7.888  65.290  1.00  0.00    -0.110 OA 
BRANCH  13  15
HETATM   15  C   UNL     1     -10.175   8.808  66.636  1.00  0.00    -0.270 C  
BRANCH  15  16
HETATM   16  C   UNL     1     -10.586  10.216  67.043  1.00  0.00    -0.225 A  
HETATM   17  N   UNL     1     -10.627  10.422  68.386  1.00  0.00    -0.194 NA 
HETATM   18  C   UNL     1     -10.976  11.648  68.832  1.00  0.00    -0.233 A  
HETATM   19  C   UNL     1     -11.326  12.707  68.011  1.00  0.00    -0.337 A  
HETATM   20  C   UNL     1     -11.284  12.493  66.626  1.00  0.00    -0.307 A  
HETATM   21  C   UNL     1     -11.750  14.018  68.608  1.00  0.00    -0.389 C  
HETATM   22  C   UNL     1     -10.751  10.979  64.642  1.00  0.00    -0.318 C  
HETATM   23  C   UNL     1     -10.875  11.240  66.114  1.00  0.00    -0.281 A  
BRANCH  20  24
HETATM   24  O   UNL     1     -11.517  13.616  65.868  1.00  0.00    -0.307 OA 
HETATM   25  C   UNL     1     -12.847  13.838  65.411  1.00  0.00    -0.410 C  
ENDBRANCH  20  24
ENDBRANCH  15  16
ENDBRANCH  13  15
ENDBRANCH  10  13
ENDBRANCH   2   3
TORSDOF 5
ENDMDL
MODEL      281
REMARK 921   NORMALIZED FREE ENERGY PREDICTED BY IDOCK:   -3.16 KCAL/MOL
REMARK 922        TOTAL FREE ENERGY PREDICTED BY IDOCK:   -4.73 KCAL/MOL
REMARK 923 INTER-LIGAND FREE ENERGY PREDICTED BY IDOCK:   -4.39 KCAL/MOL
REMARK 924 INTRA-LIGAND FREE ENERGY PREDICTED BY IDOCK:   -0.34 KCAL/MOL
REMARK 927      BINDING AFFINITY PREDICTED BY RF-SCORE:    0.00 PKD
ROOT
HETATM    1  C   UNL     1     -10.710  16.403  64.959  1.00  0.00    -0.259 C  
HETATM    2  O   UNL     1      -9.460  16.241  65.617  1.00  0.00    -0.463 OA 
ENDROOT
BRANCH   2   3
HETATM    3  C   UNL     1      -9.319  15.090  66.354  1.00  0.00    -0.303 A  
HETATM    4  C   UNL     1      -8.135  14.684  66.989  1.00  0.00    -0.153 A  
HETATM    5  C   UNL     1      -8.120  13.451  67.668  1.00  0.00    -0.175 A  
HETATM    6  C   UNL     1      -9.278  12.685  67.683  1.00  0.00    -0.191 A  
HETATM    7  C   UNL     1     -10.473  13.062  67.069  1.00  0.00    -0.249 A  
HETATM    8  N   UNL     1      -8.934  11.571  68.396  1.00  0.00    -0.173 NA 
HETATM    9  C   UNL     1     -10.460  14.283  66.387  1.00  0.00    -0.282 A  
HETATM   10  C   UNL     1      -7.625  11.685  68.786  1.00  0.00    -0.119 A  
HETATM   11  H   UNL     1      -9.550  10.785  68.605  1.00  0.00     0.000 HD 
HETATM   12  N   UNL     1      -7.096  12.815  68.355  1.00  0.00    -0.094 NA 
BRANCH  10  13
HETATM   13  S   UNL     1      -6.870  10.455  69.760  1.00  0.00    -0.144 S  
HETATM   14  O   UNL     1      -6.261  11.203  70.914  1.00  0.00    -0.361 OA 
BRANCH  13  15
HETATM   15  C   UNL     1      -8.297   9.477  70.292  1.00  0.00    -0.195 C  
BRANCH  15  16
HETATM   16  C   UNL     1      -8.692   8.454  69.236  1.00  0.00    -0.138 A  
HETATM   17  N   UNL     1      -9.758   8.816  68.475  1.00  0.00    -0.159 NA 
HETATM   18  C   UNL     1     -10.170   7.967  67.509  1.00  0.00    -0.242 A  
HETATM   19  C   UNL     1      -9.595   6.732  67.258  1.00  0.00    -0.165 A  
HETATM   20  C   UNL     1      -8.496   6.359  68.044  1.00  0.00    -0.118 A  
HETATM   21  C   UNL     1     -10.160   5.837  66.193  1.00  0.00    -0.058 C  
HETATM   22  C   UNL     1      -6.788   6.915  69.857  1.00  0.00    -0.050 C  
HETATM   23  C   UNL     1      -7.999   7.238  69.034  1.00  0.00    -0.119 A  
BRANCH  20  24
HETATM   24  O   UNL     1      -7.893   5.183  67.662  1.00  0.00    -0.094 OA 
HETATM   25  C   UNL     1      -8.180   4.017  68.427  1.00  0.00    -0.083 C  
ENDBRANCH  20  24
ENDBRANCH  15  16
ENDBRANCH  13  15
ENDBRANCH  10  13
ENDBRANCH   2   3
TORSDOF 5
ENDMDL
MODEL      282
REMARK 921   NORMALIZED FREE ENERGY PREDICTED BY IDOCK:   -3.15 KCAL/MOL
REMARK 922        TOTAL FREE ENERGY PREDICTED BY IDOCK:   -4.71 KCAL/MOL
REMARK 923 INTER-LIGAND FREE ENERGY PREDICTED BY IDOCK:   -4.28 KCAL/MOL
REMARK 924 INTRA-LIGAND FREE ENERGY PREDICTED BY IDOCK:   -0.43 KCAL/MOL
REMARK 927      BINDING AFFINITY PREDICTED BY RF-SCORE:    0.00 PKD
ROOT
HETATM    1  C   UNL     1     -12.285  14.757  68.856  1.00  0.00    -0.121 C  
HETATM    2  O   UNL     1     -12.230  14.781  67.435  1.00  0.00    -0.224 OA 
ENDROOT
BRANCH   2   3
HETATM    3  C   UNL     1     -11.392  13.860  66.855  1.00  0.00    -0.328 A  
HETATM    4  C   UNL     1     -10.128  13.502  67.350  1.00  0.00    -0.237 A  
HETATM    5  C   UNL     1      -9.353  12.580  66.622  1.00  0.00    -0.236 A  
HETATM    6  C   UNL     1      -9.870  12.060  65.442  1.00  0.00    -0.220 A  
HETATM    7  C   UNL     1     -11.125  12.388  64.927  1.00  0.00    -0.344 A  
HETATM    8  N   UNL     1      -8.889  11.226  64.985  1.00  0.00    -0.387 NA 
HETATM    9  C   UNL     1     -11.870  13.318  65.658  1.00  0.00    -0.419 A  
HETATM   10  C   UNL     1      -7.840  11.256  65.866  1.00  0.00     0.115 A  
HETATM   11  H   UNL     1      -8.930  10.672  64.129  1.00  0.00     0.000 HD 
HETATM   12  N   UNL     1      -8.086  12.074  66.873  1.00  0.00    -0.156 NA 
BRANCH  10  13
HETATM   13  S   UNL     1      -6.430  10.266  65.615  1.00  0.00    -0.125 S  
HETATM   14  O   UNL     1      -5.272  11.221  65.709  1.00  0.00    -0.238 OA 
BRANCH  13  15
HETATM   15  C   UNL     1      -6.490   9.165  67.052  1.00  0.00    -0.064 C  
BRANCH  15  16
HETATM   16  C   UNL     1      -7.527   8.067  66.864  1.00  0.00    -0.091 A  
HETATM   17  N   UNL     1      -8.813   8.480  67.007  1.00  0.00    -0.130 NA 
HETATM   18  C   UNL     1      -9.797   7.568  66.849  1.00  0.00    -0.226 A  
HETATM   19  C   UNL     1      -9.582   6.226  66.579  1.00  0.00    -0.183 A  
HETATM   20  C   UNL     1      -8.254   5.801  66.432  1.00  0.00    -0.107 A  
HETATM   21  C   UNL     1     -10.744   5.281  66.473  1.00  0.00    -0.290 C  
HETATM   22  C   UNL     1      -5.762   6.342  66.328  1.00  0.00    -0.017 C  
HETATM   23  C   UNL     1      -7.195   6.732  66.539  1.00  0.00    -0.073 A  
BRANCH  20  24
HETATM   24  O   UNL     1      -8.115   4.491  66.040  1.00  0.00    -0.102 OA 
HETATM   25  C   UNL     1      -7.732   3.544  67.031  1.00  0.00    -0.080 C  
ENDBRANCH  20  24
ENDBRANCH  15  16
ENDBRANCH  13  15
ENDBRANCH  10  13
ENDBRANCH   2   3
TORSDOF 5
ENDMDL
MODEL      283
REMARK 921   NORMALIZED FREE ENERGY PREDICTED BY IDOCK:   -3.15 KCAL/MOL
REMARK 922        TOTAL FREE ENERGY PREDICTED BY IDOCK:   -4.71 KCAL/MOL
REMARK 923 INTER-LIGAND FREE ENERGY PREDICTED BY IDOCK:   -4.05 KCAL/MOL
REMARK 924 INTRA-LIGAND FREE ENERGY PREDICTED BY IDOCK:   -0.66 KCAL/MOL
REMARK 927      BINDING AFFINITY PREDICTED BY RF-SCORE:    0.00 PKD
ROOT
HETATM    1  C   UNL     1     -11.742  12.838  64.337  1.00  0.00    -0.368 C  
HETATM    2  O   UNL     1     -10.560  13.173  65.053  1.00  0.00    -0.303 OA 
ENDROOT
BRANCH   2   3
HETATM    3  C   UNL     1     -10.164  12.268  66.007  1.00  0.00    -0.243 A  
HETATM    4  C   UNL     1      -8.924  12.286  66.665  1.00  0.00    -0.189 A  
HETATM    5  C   UNL     1      -8.631  11.262  67.585  1.00  0.00    -0.124 A  
HETATM    6  C   UNL     1      -9.582  10.273  67.806  1.00  0.00    -0.152 A  
HETATM    7  C   UNL     1     -10.826  10.230  67.175  1.00  0.00    -0.278 A  
HETATM    8  N   UNL     1      -8.996   9.444  68.721  1.00  0.00    -0.131 NA 
HETATM    9  C   UNL     1     -11.088  11.248  66.254  1.00  0.00    -0.229 A  
HETATM   10  C   UNL     1      -7.752   9.932  69.025  1.00  0.00    -0.089 A  
HETATM   11  H   UNL     1      -9.416   8.601  69.114  1.00  0.00     0.000 HD 
HETATM   12  N   UNL     1      -7.495  11.035  68.347  1.00  0.00    -0.094 NA 
BRANCH  10  13
HETATM   13  S   UNL     1      -6.743   9.141  70.203  1.00  0.00    -0.058 S  
HETATM   14  O   UNL     1      -7.315   9.550  71.532  1.00  0.00    -0.314 OA 
BRANCH  13  15
HETATM   15  C   UNL     1      -7.070   7.394  69.857  1.00  0.00    -0.065 C  
BRANCH  15  16
HETATM   16  C   UNL     1      -7.967   6.778  70.922  1.00  0.00    -0.106 A  
HETATM   17  N   UNL     1      -9.294   6.820  70.630  1.00  0.00    -0.162 NA 
HETATM   18  C   UNL     1     -10.160   6.288  71.521  1.00  0.00    -0.190 A  
HETATM   19  C   UNL     1      -9.788   5.726  72.731  1.00  0.00    -0.176 A  
HETATM   20  C   UNL     1      -8.419   5.684  73.031  1.00  0.00    -0.118 A  
HETATM   21  C   UNL     1     -10.833   5.208  73.676  1.00  0.00    -0.363 C  
HETATM   22  C   UNL     1      -5.996   6.104  72.349  1.00  0.00    -0.038 C  
HETATM   23  C   UNL     1      -7.474   6.184  72.106  1.00  0.00    -0.095 A  
BRANCH  20  24
HETATM   24  O   UNL     1      -8.109   5.001  74.183  1.00  0.00    -0.100 OA 
HETATM   25  C   UNL     1      -7.786   3.620  74.063  1.00  0.00    -0.071 C  
ENDBRANCH  20  24
ENDBRANCH  15  16
ENDBRANCH  13  15
ENDBRANCH  10  13
ENDBRANCH   2   3
TORSDOF 5
ENDMDL
MODEL      284
REMARK 921   NORMALIZED FREE ENERGY PREDICTED BY IDOCK:   -3.12 KCAL/MOL
REMARK 922        TOTAL FREE ENERGY PREDICTED BY IDOCK:   -4.67 KCAL/MOL
REMARK 923 INTER-LIGAND FREE ENERGY PREDICTED BY IDOCK:   -4.11 KCAL/MOL
REMARK 924 INTRA-LIGAND FREE ENERGY PREDICTED BY IDOCK:   -0.56 KCAL/MOL
REMARK 927      BINDING AFFINITY PREDICTED BY RF-SCORE:    0.00 PKD
ROOT
HETATM    1  C   UNL     1      -6.053   8.234  73.852  1.00  0.00    -0.110 C  
HETATM    2  O   UNL     1      -6.056   9.428  73.080  1.00  0.00    -0.303 OA 
ENDROOT
BRANCH   2   3
HETATM    3  C   UNL     1      -6.404   9.283  71.759  1.00  0.00     0.044 A  
HETATM    4  C   UNL     1      -7.688   8.949  71.299  1.00  0.00    -0.145 A  
HETATM    5  C   UNL     1      -7.889   8.782  69.916  1.00  0.00    -0.093 A  
HETATM    6  C   UNL     1      -6.809   8.954  69.060  1.00  0.00    -0.059 A  
HETATM    7  C   UNL     1      -5.523   9.293  69.483  1.00  0.00    -0.034 A  
HETATM    8  N   UNL     1      -7.324   8.713  67.817  1.00  0.00    -0.091 NA 
HETATM    9  C   UNL     1      -5.343   9.439  70.862  1.00  0.00    -0.035 A  
HETATM   10  C   UNL     1      -8.656   8.415  67.943  1.00  0.00    -0.131 A  
HETATM   11  H   UNL     1      -6.804   8.750  66.941  1.00  0.00     0.000 HD 
HETATM   12  N   UNL     1      -9.033   8.442  69.209  1.00  0.00    -0.149 NA 
BRANCH  10  13
HETATM   13  S   UNL     1      -9.640   8.100  66.542  1.00  0.00    -0.226 S  
HETATM   14  O   UNL     1     -10.981   7.706  67.099  1.00  0.00    -0.266 OA 
BRANCH  13  15
HETATM   15  C   UNL     1      -9.708   9.733  65.763  1.00  0.00    -0.273 C  
BRANCH  15  16
HETATM   16  C   UNL     1     -10.106  10.808  66.765  1.00  0.00    -0.222 A  
HETATM   17  N   UNL     1     -11.365  10.675  67.260  1.00  0.00    -0.379 NA 
HETATM   18  C   UNL     1     -11.795  11.585  68.161  1.00  0.00    -0.236 A  
HETATM   19  C   UNL     1     -11.047  12.667  68.597  1.00  0.00    -0.305 A  
HETATM   20  C   UNL     1      -9.748  12.803  68.085  1.00  0.00    -0.223 A  
HETATM   21  C   UNL     1     -11.636  13.653  69.564  1.00  0.00    -0.361 C  
HETATM   22  C   UNL     1      -7.836  11.909  66.651  1.00  0.00    -0.006 C  
HETATM   23  C   UNL     1      -9.239  11.846  67.178  1.00  0.00    -0.183 A  
BRANCH  20  24
HETATM   24  O   UNL     1      -9.016  13.819  68.652  1.00  0.00    -0.151 OA 
HETATM   25  C   UNL     1      -8.876  15.024  67.907  1.00  0.00    -0.171 C  
ENDBRANCH  20  24
ENDBRANCH  15  16
ENDBRANCH  13  15
ENDBRANCH  10  13
ENDBRANCH   2   3
TORSDOF 5
ENDMDL
MODEL      285
REMARK 921   NORMALIZED FREE ENERGY PREDICTED BY IDOCK:   -3.11 KCAL/MOL
REMARK 922        TOTAL FREE ENERGY PREDICTED BY IDOCK:   -4.66 KCAL/MOL
REMARK 923 INTER-LIGAND FREE ENERGY PREDICTED BY IDOCK:   -4.17 KCAL/MOL
REMARK 924 INTRA-LIGAND FREE ENERGY PREDICTED BY IDOCK:   -0.49 KCAL/MOL
REMARK 927      BINDING AFFINITY PREDICTED BY RF-SCORE:    0.00 PKD
ROOT
HETATM    1  C   UNL     1      -9.364   3.389  66.981  1.00  0.00    -0.184 C  
HETATM    2  O   UNL     1      -9.778   4.594  67.613  1.00  0.00    -0.159 OA 
ENDROOT
BRANCH   2   3
HETATM    3  C   UNL     1      -9.072   5.721  67.267  1.00  0.00    -0.110 A  
HETATM    4  C   UNL     1      -8.486   6.611  68.180  1.00  0.00    -0.116 A  
HETATM    5  C   UNL     1      -7.835   7.757  67.685  1.00  0.00    -0.123 A  
HETATM    6  C   UNL     1      -7.798   7.960  66.311  1.00  0.00    -0.094 A  
HETATM    7  C   UNL     1      -8.363   7.091  65.377  1.00  0.00    -0.121 A  
HETATM    8  N   UNL     1      -7.121   9.138  66.165  1.00  0.00    -0.086 NA 
HETATM    9  C   UNL     1      -9.018   5.969  65.892  1.00  0.00    -0.144 A  
HETATM   10  C   UNL     1      -6.774   9.604  67.406  1.00  0.00    -0.071 A  
HETATM   11  H   UNL     1      -6.909   9.596  65.278  1.00  0.00     0.000 HD 
HETATM   12  N   UNL     1      -7.197   8.789  68.356  1.00  0.00    -0.080 NA 
BRANCH  10  13
HETATM   13  S   UNL     1      -5.853  11.070  67.589  1.00  0.00    -0.045 S  
HETATM   14  O   UNL     1      -5.813  11.669  66.210  1.00  0.00    -0.187 OA 
BRANCH  13  15
HETATM   15  C   UNL     1      -6.913  12.037  68.693  1.00  0.00    -0.096 C  
BRANCH  15  16
HETATM   16  C   UNL     1      -7.702  13.087  67.924  1.00  0.00    -0.145 A  
HETATM   17  N   UNL     1      -7.052  14.269  67.761  1.00  0.00    -0.162 NA 
HETATM   18  C   UNL     1      -7.680  15.254  67.082  1.00  0.00    -0.203 A  
HETATM   19  C   UNL     1      -8.960  15.151  66.563  1.00  0.00    -0.326 A  
HETATM   20  C   UNL     1      -9.630  13.931  66.733  1.00  0.00    -0.283 A  
HETATM   21  C   UNL     1      -9.591  16.323  65.869  1.00  0.00    -0.336 C  
HETATM   22  C   UNL     1      -9.638  11.511  67.543  1.00  0.00    -0.179 C  
HETATM   23  C   UNL     1      -8.991  12.856  67.393  1.00  0.00    -0.199 A  
BRANCH  20  24
HETATM   24  O   UNL     1     -10.841  13.851  66.086  1.00  0.00    -0.288 OA 
HETATM   25  C   UNL     1     -12.018  13.918  66.883  1.00  0.00    -0.433 C  
ENDBRANCH  20  24
ENDBRANCH  15  16
ENDBRANCH  13  15
ENDBRANCH  10  13
ENDBRANCH   2   3
TORSDOF 5
ENDMDL
MODEL      286
REMARK 921   NORMALIZED FREE ENERGY PREDICTED BY IDOCK:   -3.11 KCAL/MOL
REMARK 922        TOTAL FREE ENERGY PREDICTED BY IDOCK:   -4.65 KCAL/MOL
REMARK 923 INTER-LIGAND FREE ENERGY PREDICTED BY IDOCK:   -4.23 KCAL/MOL
REMARK 924 INTRA-LIGAND FREE ENERGY PREDICTED BY IDOCK:   -0.43 KCAL/MOL
REMARK 927      BINDING AFFINITY PREDICTED BY RF-SCORE:    0.00 PKD
ROOT
HETATM    1  C   UNL     1     -13.338  10.984  71.997  1.00  0.00    -0.288 C  
HETATM    2  O   UNL     1     -12.291  10.052  71.753  1.00  0.00    -0.390 OA 
ENDROOT
BRANCH   2   3
HETATM    3  C   UNL     1     -11.510  10.308  70.652  1.00  0.00    -0.349 A  
HETATM    4  C   UNL     1     -10.287   9.679  70.373  1.00  0.00    -0.350 A  
HETATM    5  C   UNL     1      -9.565  10.079  69.233  1.00  0.00    -0.216 A  
HETATM    6  C   UNL     1     -10.093  11.081  68.428  1.00  0.00    -0.184 A  
HETATM    7  C   UNL     1     -11.308  11.721  68.673  1.00  0.00    -0.327 A  
HETATM    8  N   UNL     1      -9.164  11.239  67.437  1.00  0.00    -0.161 NA 
HETATM    9  C   UNL     1     -12.000  11.319  69.819  1.00  0.00    -0.431 A  
HETATM   10  C   UNL     1      -8.136  10.359  67.653  1.00  0.00    -0.107 A  
HETATM   11  H   UNL     1      -9.227  11.901  66.664  1.00  0.00     0.000 HD 
HETATM   12  N   UNL     1      -8.344   9.641  68.741  1.00  0.00    -0.108 NA 
BRANCH  10  13
HETATM   13  S   UNL     1      -6.796  10.257  66.546  1.00  0.00    -0.108 S  
HETATM   14  O   UNL     1      -5.798   9.368  67.236  1.00  0.00    -0.045 OA 
BRANCH  13  15
HETATM   15  C   UNL     1      -7.551   9.419  65.129  1.00  0.00    -0.108 C  
BRANCH  15  16
HETATM   16  C   UNL     1      -7.543   7.908  65.312  1.00  0.00    -0.090 A  
HETATM   17  N   UNL     1      -6.367   7.310  64.987  1.00  0.00    -0.037 NA 
HETATM   18  C   UNL     1      -6.274   5.969  65.127  1.00  0.00    -0.037 A  
HETATM   19  C   UNL     1      -7.310   5.155  65.554  1.00  0.00    -0.073 A  
HETATM   20  C   UNL     1      -8.523   5.773  65.889  1.00  0.00    -0.139 A  
HETATM   21  C   UNL     1      -7.121   3.667  65.626  1.00  0.00    -0.066 C  
HETATM   22  C   UNL     1      -9.902   7.895  66.212  1.00  0.00    -0.139 C  
HETATM   23  C   UNL     1      -8.649   7.179  65.805  1.00  0.00    -0.143 A  
BRANCH  20  24
HETATM   24  O   UNL     1      -9.465   4.928  66.425  1.00  0.00    -0.134 OA 
HETATM   25  C   UNL     1     -10.501   4.466  65.565  1.00  0.00    -0.199 C  
ENDBRANCH  20  24
ENDBRANCH  15  16
ENDBRANCH  13  15
ENDBRANCH  10  13
ENDBRANCH   2   3
TORSDOF 5
ENDMDL
MODEL      287
REMARK 921   NORMALIZED FREE ENERGY PREDICTED BY IDOCK:   -3.08 KCAL/MOL
REMARK 922        TOTAL FREE ENERGY PREDICTED BY IDOCK:   -4.62 KCAL/MOL
REMARK 923 INTER-LIGAND FREE ENERGY PREDICTED BY IDOCK:   -4.51 KCAL/MOL
REMARK 924 INTRA-LIGAND FREE ENERGY PREDICTED BY IDOCK:   -0.11 KCAL/MOL
REMARK 927      BINDING AFFINITY PREDICTED BY RF-SCORE:    0.00 PKD
ROOT
HETATM    1  C   UNL     1     -11.922  11.187  69.596  1.00  0.00    -0.359 C  
HETATM    2  O   UNL     1     -12.013  11.670  68.261  1.00  0.00    -0.516 OA 
ENDROOT
BRANCH   2   3
HETATM    3  C   UNL     1     -11.306  10.960  67.321  1.00  0.00    -0.151 A  
HETATM    4  C   UNL     1     -10.730   9.698  67.535  1.00  0.00    -0.321 A  
HETATM    5  C   UNL     1      -9.987   9.109  66.495  1.00  0.00    -0.288 A  
HETATM    6  C   UNL     1      -9.854   9.800  65.297  1.00  0.00    -0.265 A  
HETATM    7  C   UNL     1     -10.420  11.051  65.049  1.00  0.00    -0.344 A  
HETATM    8  N   UNL     1      -9.083   8.980  64.521  1.00  0.00    -0.428 NA 
HETATM    9  C   UNL     1     -11.140  11.624  66.101  1.00  0.00    -0.335 A  
HETATM   10  C   UNL     1      -8.780   7.852  65.238  1.00  0.00     0.001 A  
HETATM   11  H   UNL     1      -8.783   9.175  63.565  1.00  0.00     0.000 HD 
HETATM   12  N   UNL     1      -9.310   7.899  66.446  1.00  0.00    -0.192 NA 
BRANCH  10  13
HETATM   13  S   UNL     1      -7.846   6.564  64.531  1.00  0.00    -0.106 S  
HETATM   14  O   UNL     1      -6.665   6.402  65.447  1.00  0.00    -0.045 OA 
BRANCH  13  15
HETATM   15  C   UNL     1      -8.983   5.161  64.673  1.00  0.00    -0.030 C  
BRANCH  15  16
HETATM   16  C   UNL     1      -8.623   4.276  65.858  1.00  0.00    -0.114 A  
HETATM   17  N   UNL     1      -7.524   3.501  65.666  1.00  0.00    -0.076 NA 
HETATM   18  C   UNL     1      -7.132   2.689  66.673  1.00  0.00    -0.049 A  
HETATM   19  C   UNL     1      -7.794   2.572  67.883  1.00  0.00    -0.059 A  
HETATM   20  C   UNL     1      -8.929   3.372  68.080  1.00  0.00    -0.138 A  
HETATM   21  C   UNL     1      -7.307   1.601  68.920  1.00  0.00    -0.043 C  
HETATM   22  C   UNL     1     -10.513   5.196  67.258  1.00  0.00    -0.197 C  
HETATM   23  C   UNL     1      -9.346   4.272  67.073  1.00  0.00    -0.184 A  
BRANCH  20  24
HETATM   24  O   UNL     1      -9.463   3.302  69.345  1.00  0.00    -0.167 OA 
HETATM   25  C   UNL     1      -9.079   4.307  70.278  1.00  0.00    -0.101 C  
ENDBRANCH  20  24
ENDBRANCH  15  16
ENDBRANCH  13  15
ENDBRANCH  10  13
ENDBRANCH   2   3
TORSDOF 5
ENDMDL
MODEL      288
REMARK 921   NORMALIZED FREE ENERGY PREDICTED BY IDOCK:   -3.05 KCAL/MOL
REMARK 922        TOTAL FREE ENERGY PREDICTED BY IDOCK:   -4.58 KCAL/MOL
REMARK 923 INTER-LIGAND FREE ENERGY PREDICTED BY IDOCK:   -4.43 KCAL/MOL
REMARK 924 INTRA-LIGAND FREE ENERGY PREDICTED BY IDOCK:   -0.15 KCAL/MOL
REMARK 927      BINDING AFFINITY PREDICTED BY RF-SCORE:    0.00 PKD
ROOT
HETATM    1  C   UNL     1      -7.489  17.966  67.647  1.00  0.00    -0.203 C  
HETATM    2  O   UNL     1      -7.769  17.098  66.556  1.00  0.00    -0.228 OA 
ENDROOT
BRANCH   2   3
HETATM    3  C   UNL     1      -8.578  16.025  66.840  1.00  0.00    -0.231 A  
HETATM    4  C   UNL     1      -8.204  14.925  67.627  1.00  0.00    -0.184 A  
HETATM    5  C   UNL     1      -9.120  13.869  67.792  1.00  0.00    -0.191 A  
HETATM    6  C   UNL     1     -10.358  13.957  67.168  1.00  0.00    -0.265 A  
HETATM    7  C   UNL     1     -10.764  15.039  66.386  1.00  0.00    -0.322 A  
HETATM    8  N   UNL     1     -10.989  12.793  67.509  1.00  0.00    -0.241 NA 
HETATM    9  C   UNL     1      -9.832  16.069  66.223  1.00  0.00    -0.331 A  
HETATM   10  C   UNL     1     -10.152  12.055  68.304  1.00  0.00    -0.201 A  
HETATM   11  H   UNL     1     -11.928  12.520  67.220  1.00  0.00     0.000 HD 
HETATM   12  N   UNL     1      -9.003  12.678  68.493  1.00  0.00    -0.107 NA 
BRANCH  10  13
HETATM   13  S   UNL     1     -10.659  10.525  68.962  1.00  0.00    -0.238 S  
HETATM   14  O   UNL     1     -12.048  10.775  69.482  1.00  0.00    -0.312 OA 
BRANCH  13  15
HETATM   15  C   UNL     1     -10.690   9.479  67.485  1.00  0.00    -0.245 C  
BRANCH  15  16
HETATM   16  C   UNL     1      -9.692   8.335  67.596  1.00  0.00    -0.159 A  
HETATM   17  N   UNL     1      -8.572   8.492  66.841  1.00  0.00    -0.115 NA 
HETATM   18  C   UNL     1      -7.632   7.524  66.888  1.00  0.00    -0.102 A  
HETATM   19  C   UNL     1      -7.743   6.362  67.633  1.00  0.00    -0.102 A  
HETATM   20  C   UNL     1      -8.899   6.200  68.410  1.00  0.00    -0.113 A  
HETATM   21  C   UNL     1      -6.663   5.321  67.576  1.00  0.00    -0.055 C  
HETATM   22  C   UNL     1     -11.110   7.118  69.294  1.00  0.00    -0.112 C  
HETATM   23  C   UNL     1      -9.887   7.212  68.431  1.00  0.00    -0.157 A  
BRANCH  20  24
HETATM   24  O   UNL     1      -8.890   5.091  69.222  1.00  0.00    -0.090 OA 
HETATM   25  C   UNL     1      -8.469   5.264  70.570  1.00  0.00    -0.120 C  
ENDBRANCH  20  24
ENDBRANCH  15  16
ENDBRANCH  13  15
ENDBRANCH  10  13
ENDBRANCH   2   3
TORSDOF 5
ENDMDL
MODEL      289
REMARK 921   NORMALIZED FREE ENERGY PREDICTED BY IDOCK:   -3.04 KCAL/MOL
REMARK 922        TOTAL FREE ENERGY PREDICTED BY IDOCK:   -4.57 KCAL/MOL
REMARK 923 INTER-LIGAND FREE ENERGY PREDICTED BY IDOCK:   -3.98 KCAL/MOL
REMARK 924 INTRA-LIGAND FREE ENERGY PREDICTED BY IDOCK:   -0.58 KCAL/MOL
REMARK 927      BINDING AFFINITY PREDICTED BY RF-SCORE:    0.00 PKD
ROOT
HETATM    1  C   UNL     1     -14.406   8.115  71.901  1.00  0.00    -0.472 C  
HETATM    2  O   UNL     1     -13.424   8.998  71.374  1.00  0.00    -0.339 OA 
ENDROOT
BRANCH   2   3
HETATM    3  C   UNL     1     -12.127   8.549  71.431  1.00  0.00    -0.303 A  
HETATM    4  C   UNL     1     -11.259   8.463  70.331  1.00  0.00    -0.220 A  
HETATM    5  C   UNL     1      -9.969   7.933  70.527  1.00  0.00    -0.191 A  
HETATM    6  C   UNL     1      -9.607   7.516  71.801  1.00  0.00    -0.152 A  
HETATM    7  C   UNL     1     -10.442   7.595  72.917  1.00  0.00    -0.394 A  
HETATM    8  N   UNL     1      -8.330   7.053  71.652  1.00  0.00    -0.108 NA 
HETATM    9  C   UNL     1     -11.723   8.110  72.696  1.00  0.00    -0.419 A  
HETATM   10  C   UNL     1      -7.960   7.196  70.340  1.00  0.00    -0.112 A  
HETATM   11  H   UNL     1      -7.748   6.664  72.394  1.00  0.00     0.000 HD 
HETATM   12  N   UNL     1      -8.936   7.725  69.625  1.00  0.00    -0.143 NA 
BRANCH  10  13
HETATM   13  S   UNL     1      -6.366   6.747  69.804  1.00  0.00    -0.044 S  
HETATM   14  O   UNL     1      -5.476   7.012  70.987  1.00  0.00    -0.026 OA 
BRANCH  13  15
HETATM   15  C   UNL     1      -6.560   4.970  69.515  1.00  0.00    -0.040 C  
BRANCH  15  16
HETATM   16  C   UNL     1      -6.934   4.681  68.068  1.00  0.00    -0.057 A  
HETATM   17  N   UNL     1      -5.908   4.817  67.186  1.00  0.00    -0.021 NA 
HETATM   18  C   UNL     1      -6.154   4.572  65.880  1.00  0.00    -0.027 A  
HETATM   19  C   UNL     1      -7.393   4.219  65.372  1.00  0.00    -0.073 A  
HETATM   20  C   UNL     1      -8.450   4.081  66.282  1.00  0.00    -0.109 A  
HETATM   21  C   UNL     1      -7.574   4.020  63.894  1.00  0.00    -0.074 C  
HETATM   22  C   UNL     1      -9.307   4.079  68.686  1.00  0.00    -0.224 C  
HETATM   23  C   UNL     1      -8.227   4.278  67.664  1.00  0.00    -0.098 A  
BRANCH  20  24
HETATM   24  O   UNL     1      -9.618   3.606  65.733  1.00  0.00    -0.176 OA 
HETATM   25  C   UNL     1     -10.632   4.554  65.421  1.00  0.00    -0.162 C  
ENDBRANCH  20  24
ENDBRANCH  15  16
ENDBRANCH  13  15
ENDBRANCH  10  13
ENDBRANCH   2   3
TORSDOF 5
ENDMDL
MODEL      290
REMARK 921   NORMALIZED FREE ENERGY PREDICTED BY IDOCK:   -2.98 KCAL/MOL
REMARK 922        TOTAL FREE ENERGY PREDICTED BY IDOCK:   -4.49 KCAL/MOL
REMARK 923 INTER-LIGAND FREE ENERGY PREDICTED BY IDOCK:   -4.25 KCAL/MOL
REMARK 924 INTRA-LIGAND FREE ENERGY PREDICTED BY IDOCK:   -0.24 KCAL/MOL
REMARK 927      BINDING AFFINITY PREDICTED BY RF-SCORE:    0.00 PKD
ROOT
HETATM    1  C   UNL     1      -8.533   5.272  66.460  1.00  0.00    -0.112 C  
HETATM    2  O   UNL     1      -8.171   6.033  65.314  1.00  0.00    -0.128 OA 
ENDROOT
BRANCH   2   3
HETATM    3  C   UNL     1      -8.176   7.397  65.480  1.00  0.00    -0.135 A  
HETATM    4  C   UNL     1      -8.548   8.061  66.659  1.00  0.00    -0.141 A  
HETATM    5  C   UNL     1      -8.555   9.468  66.670  1.00  0.00    -0.134 A  
HETATM    6  C   UNL     1      -8.193  10.145  65.512  1.00  0.00    -0.156 A  
HETATM    7  C   UNL     1      -7.811   9.516  64.326  1.00  0.00    -0.129 A  
HETATM    8  N   UNL     1      -8.314  11.466  65.843  1.00  0.00    -0.366 NA 
HETATM    9  C   UNL     1      -7.827   8.118  64.334  1.00  0.00    -0.136 A  
HETATM   10  C   UNL     1      -8.728  11.556  67.147  1.00  0.00    -0.160 A  
HETATM   11  H   UNL     1      -8.128  12.254  65.223  1.00  0.00     0.000 HD 
HETATM   12  N   UNL     1      -8.890  10.359  67.679  1.00  0.00    -0.125 NA 
BRANCH  10  13
HETATM   13  S   UNL     1      -8.940  13.104  67.914  1.00  0.00    -0.209 S  
HETATM   14  O   UNL     1      -7.610  13.399  68.552  1.00  0.00    -0.124 OA 
BRANCH  13  15
HETATM   15  C   UNL     1      -9.238  14.185  66.492  1.00  0.00    -0.224 C  
BRANCH  15  16
HETATM   16  C   UNL     1      -8.718  15.592  66.748  1.00  0.00    -0.271 A  
HETATM   17  N   UNL     1      -7.410  15.774  66.428  1.00  0.00     0.124 NA 
HETATM   18  C   UNL     1      -6.871  16.998  66.618  1.00  0.00    -0.244 A  
HETATM   19  C   UNL     1      -7.556  18.079  67.147  1.00  0.00    -0.226 A  
HETATM   20  C   UNL     1      -8.906  17.891  67.477  1.00  0.00    -0.248 A  
HETATM   21  C   UNL     1      -6.851  19.386  67.368  1.00  0.00    -0.226 C  
HETATM   22  C   UNL     1     -10.980  16.405  67.523  1.00  0.00    -0.184 C  
HETATM   23  C   UNL     1      -9.525  16.640  67.248  1.00  0.00    -0.234 A  
BRANCH  20  24
HETATM   24  O   UNL     1      -9.561  19.032  67.875  1.00  0.00    -0.300 OA 
HETATM   25  C   UNL     1      -9.961  19.120  69.239  1.00  0.00    -0.168 C  
ENDBRANCH  20  24
ENDBRANCH  15  16
ENDBRANCH  13  15
ENDBRANCH  10  13
ENDBRANCH   2   3
TORSDOF 5
ENDMDL
MODEL      291
REMARK 921   NORMALIZED FREE ENERGY PREDICTED BY IDOCK:   -2.96 KCAL/MOL
REMARK 922        TOTAL FREE ENERGY PREDICTED BY IDOCK:   -4.46 KCAL/MOL
REMARK 923 INTER-LIGAND FREE ENERGY PREDICTED BY IDOCK:   -4.83 KCAL/MOL
REMARK 924 INTRA-LIGAND FREE ENERGY PREDICTED BY IDOCK:    0.37 KCAL/MOL
REMARK 927      BINDING AFFINITY PREDICTED BY RF-SCORE:    0.00 PKD
ROOT
HETATM    1  C   UNL     1     -10.961  16.400  69.083  1.00  0.00    -0.324 C  
HETATM    2  O   UNL     1     -11.329  16.154  67.731  1.00  0.00    -0.257 OA 
ENDROOT
BRANCH   2   3
HETATM    3  C   UNL     1     -10.796  15.022  67.165  1.00  0.00    -0.314 A  
HETATM    4  C   UNL     1      -9.699  14.310  67.674  1.00  0.00    -0.220 A  
HETATM    5  C   UNL     1      -9.225  13.194  66.959  1.00  0.00    -0.233 A  
HETATM    6  C   UNL     1      -9.863  12.840  65.777  1.00  0.00    -0.214 A  
HETATM    7  C   UNL     1     -10.960  13.521  65.247  1.00  0.00    -0.303 A  
HETATM    8  N   UNL     1      -9.168  11.750  65.335  1.00  0.00    -0.417 NA 
HETATM    9  C   UNL     1     -11.403  14.635  65.966  1.00  0.00    -0.344 A  
HETATM   10  C   UNL     1      -8.165  11.475  66.226  1.00  0.00    -0.044 A  
HETATM   11  H   UNL     1      -9.365  11.226  64.481  1.00  0.00     0.000 HD 
HETATM   12  N   UNL     1      -8.166  12.338  67.226  1.00  0.00    -0.175 NA 
BRANCH  10  13
HETATM   13  S   UNL     1      -7.108  10.111  65.995  1.00  0.00    -0.124 S  
HETATM   14  O   UNL     1      -6.014  10.299  67.009  1.00  0.00    -0.050 OA 
BRANCH  13  15
HETATM   15  C   UNL     1      -8.187   8.728  66.444  1.00  0.00    -0.111 C  
BRANCH  15  16
HETATM   16  C   UNL     1      -8.420   8.673  67.947  1.00  0.00    -0.129 A  
HETATM   17  N   UNL     1      -7.390   9.153  68.692  1.00  0.00    -0.075 NA 
HETATM   18  C   UNL     1      -7.520   9.147  70.037  1.00  0.00    -0.077 A  
HETATM   19  C   UNL     1      -8.624   8.656  70.713  1.00  0.00    -0.197 A  
HETATM   20  C   UNL     1      -9.686   8.161  69.943  1.00  0.00    -0.176 A  
HETATM   21  C   UNL     1      -8.649   8.646  72.214  1.00  0.00    -0.175 C  
HETATM   22  C   UNL     1     -10.748   7.736  67.662  1.00  0.00    -0.227 C  
HETATM   23  C   UNL     1      -9.615   8.193  68.531  1.00  0.00    -0.153 A  
BRANCH  20  24
HETATM   24  O   UNL     1     -10.800   7.808  70.667  1.00  0.00    -0.229 OA 
HETATM   25  C   UNL     1     -11.779   8.815  70.903  1.00  0.00    -0.258 C  
ENDBRANCH  20  24
ENDBRANCH  15  16
ENDBRANCH  13  15
ENDBRANCH  10  13
ENDBRANCH   2   3
TORSDOF 5
ENDMDL
MODEL      292
REMARK 921   NORMALIZED FREE ENERGY PREDICTED BY IDOCK:   -2.95 KCAL/MOL
REMARK 922        TOTAL FREE ENERGY PREDICTED BY IDOCK:   -4.45 KCAL/MOL
REMARK 923 INTER-LIGAND FREE ENERGY PREDICTED BY IDOCK:   -4.06 KCAL/MOL
REMARK 924 INTRA-LIGAND FREE ENERGY PREDICTED BY IDOCK:   -0.40 KCAL/MOL
REMARK 927      BINDING AFFINITY PREDICTED BY RF-SCORE:    0.00 PKD
ROOT
HETATM    1  C   UNL     1     -10.903  11.390  66.469  1.00  0.00    -0.283 C  
HETATM    2  O   UNL     1     -10.118  10.207  66.546  1.00  0.00    -0.215 OA 
ENDROOT
BRANCH   2   3
HETATM    3  C   UNL     1      -9.687   9.858  67.803  1.00  0.00    -0.150 A  
HETATM    4  C   UNL     1     -10.391   9.032  68.693  1.00  0.00    -0.233 A  
HETATM    5  C   UNL     1      -9.853   8.801  69.972  1.00  0.00    -0.178 A  
HETATM    6  C   UNL     1      -8.644   9.400  70.305  1.00  0.00    -0.221 A  
HETATM    7  C   UNL     1      -7.915  10.220  69.442  1.00  0.00    -0.162 A  
HETATM    8  N   UNL     1      -8.411   8.995  71.589  1.00  0.00    -0.355 NA 
HETATM    9  C   UNL     1      -8.477  10.448  68.182  1.00  0.00    -0.121 A  
HETATM   10  C   UNL     1      -9.443   8.188  71.990  1.00  0.00    -0.215 A  
HETATM   11  H   UNL     1      -7.603   9.251  72.156  1.00  0.00     0.000 HD 
HETATM   12  N   UNL     1     -10.342   8.052  71.032  1.00  0.00    -0.201 NA 
BRANCH  10  13
HETATM   13  S   UNL     1      -9.445   7.453  73.568  1.00  0.00    -0.278 S  
HETATM   14  O   UNL     1     -10.886   7.110  73.829  1.00  0.00    -0.306 OA 
BRANCH  13  15
HETATM   15  C   UNL     1      -8.459   5.961  73.282  1.00  0.00    -0.118 C  
BRANCH  15  16
HETATM   16  C   UNL     1      -7.944   5.904  71.850  1.00  0.00    -0.107 A  
HETATM   17  N   UNL     1      -6.745   6.515  71.661  1.00  0.00    -0.061 NA 
HETATM   18  C   UNL     1      -6.213   6.504  70.419  1.00  0.00    -0.035 A  
HETATM   19  C   UNL     1      -6.823   5.935  69.313  1.00  0.00    -0.062 A  
HETATM   20  C   UNL     1      -8.060   5.306  69.510  1.00  0.00    -0.094 A  
HETATM   21  C   UNL     1      -6.172   6.022  67.963  1.00  0.00    -0.029 C  
HETATM   22  C   UNL     1      -9.919   4.533  71.078  1.00  0.00    -0.257 C  
HETATM   23  C   UNL     1      -8.631   5.249  70.802  1.00  0.00    -0.135 A  
BRANCH  20  24
HETATM   24  O   UNL     1      -8.550   4.652  68.404  1.00  0.00    -0.096 OA 
HETATM   25  C   UNL     1      -9.777   5.118  67.853  1.00  0.00    -0.145 C  
ENDBRANCH  20  24
ENDBRANCH  15  16
ENDBRANCH  13  15
ENDBRANCH  10  13
ENDBRANCH   2   3
TORSDOF 5
ENDMDL
MODEL      293
REMARK 921   NORMALIZED FREE ENERGY PREDICTED BY IDOCK:   -2.93 KCAL/MOL
REMARK 922        TOTAL FREE ENERGY PREDICTED BY IDOCK:   -4.42 KCAL/MOL
REMARK 923 INTER-LIGAND FREE ENERGY PREDICTED BY IDOCK:   -4.77 KCAL/MOL
REMARK 924 INTRA-LIGAND FREE ENERGY PREDICTED BY IDOCK:    0.35 KCAL/MOL
REMARK 927      BINDING AFFINITY PREDICTED BY RF-SCORE:    0.00 PKD
ROOT
HETATM    1  C   UNL     1      -9.180  10.117  63.032  1.00  0.00    -0.293 C  
HETATM    2  O   UNL     1     -10.369  10.858  62.786  1.00  0.00    -0.100 OA 
ENDROOT
BRANCH   2   3
HETATM    3  C   UNL     1     -10.620  11.889  63.658  1.00  0.00    -0.446 A  
HETATM    4  C   UNL     1      -9.668  12.828  64.086  1.00  0.00     0.171 A  
HETATM    5  C   UNL     1     -10.054  13.802  65.026  1.00  0.00    -0.283 A  
HETATM    6  C   UNL     1     -11.362  13.795  65.494  1.00  0.00    -0.307 A  
HETATM    7  C   UNL     1     -12.334  12.882  65.084  1.00  0.00    -0.547 A  
HETATM    8  N   UNL     1     -11.406  14.834  66.382  1.00  0.00    -0.348 NA 
HETATM    9  C   UNL     1     -11.924  11.914  64.162  1.00  0.00    -0.402 A  
HETATM   10  C   UNL     1     -10.171  15.426  66.428  1.00  0.00    -0.286 A  
HETATM   11  H   UNL     1     -12.223  15.121  66.921  1.00  0.00     0.000 HD 
HETATM   12  N   UNL     1      -9.322  14.820  65.619  1.00  0.00    -0.093 NA 
BRANCH  10  13
HETATM   13  S   UNL     1      -9.883  16.821  67.428  1.00  0.00    -0.258 S  
HETATM   14  O   UNL     1     -11.237  17.186  67.973  1.00  0.00    -0.224 OA 
BRANCH  13  15
HETATM   15  C   UNL     1      -8.818  16.135  68.722  1.00  0.00    -0.233 C  
BRANCH  15  16
HETATM   16  C   UNL     1      -8.614  14.639  68.535  1.00  0.00    -0.170 A  
HETATM   17  N   UNL     1      -7.418  14.300  67.986  1.00  0.00    -0.125 NA 
HETATM   18  C   UNL     1      -7.154  12.989  67.793  1.00  0.00    -0.139 A  
HETATM   19  C   UNL     1      -8.035  11.963  68.090  1.00  0.00    -0.151 A  
HETATM   20  C   UNL     1      -9.269  12.313  68.655  1.00  0.00     0.001 A  
HETATM   21  C   UNL     1      -7.666  10.539  67.788  1.00  0.00    -0.093 C  
HETATM   22  C   UNL     1     -10.846  14.092  69.584  1.00  0.00    -0.059 C  
HETATM   23  C   UNL     1      -9.568  13.669  68.922  1.00  0.00     0.090 A  
BRANCH  20  24
HETATM   24  O   UNL     1     -10.043  11.245  69.043  1.00  0.00    -0.198 OA 
HETATM   25  C   UNL     1     -11.267  11.032  68.348  1.00  0.00    -0.274 C  
ENDBRANCH  20  24
ENDBRANCH  15  16
ENDBRANCH  13  15
ENDBRANCH  10  13
ENDBRANCH   2   3
TORSDOF 5
ENDMDL
MODEL      294
REMARK 921   NORMALIZED FREE ENERGY PREDICTED BY IDOCK:   -2.92 KCAL/MOL
REMARK 922        TOTAL FREE ENERGY PREDICTED BY IDOCK:   -4.41 KCAL/MOL
REMARK 923 INTER-LIGAND FREE ENERGY PREDICTED BY IDOCK:   -4.13 KCAL/MOL
REMARK 924 INTRA-LIGAND FREE ENERGY PREDICTED BY IDOCK:   -0.27 KCAL/MOL
REMARK 927      BINDING AFFINITY PREDICTED BY RF-SCORE:    0.00 PKD
ROOT
HETATM    1  C   UNL     1      -6.631   3.894  64.432  1.00  0.00    -0.043 C  
HETATM    2  O   UNL     1      -5.949   4.721  65.367  1.00  0.00    -0.021 OA 
ENDROOT
BRANCH   2   3
HETATM    3  C   UNL     1      -6.480   5.974  65.552  1.00  0.00    -0.043 A  
HETATM    4  C   UNL     1      -7.327   6.629  64.644  1.00  0.00    -0.085 A  
HETATM    5  C   UNL     1      -7.756   7.936  64.941  1.00  0.00    -0.112 A  
HETATM    6  C   UNL     1      -7.324   8.527  66.122  1.00  0.00    -0.081 A  
HETATM    7  C   UNL     1      -6.490   7.901  67.050  1.00  0.00    -0.056 A  
HETATM    8  N   UNL     1      -7.895   9.769  66.104  1.00  0.00    -0.105 NA 
HETATM    9  C   UNL     1      -6.064   6.610  66.726  1.00  0.00    -0.033 A  
HETATM   10  C   UNL     1      -8.634   9.897  64.957  1.00  0.00    -0.161 A  
HETATM   11  H   UNL     1      -7.789  10.483  66.825  1.00  0.00     0.000 HD 
HETATM   12  N   UNL     1      -8.568   8.802  64.223  1.00  0.00    -0.122 NA 
BRANCH  10  13
HETATM   13  S   UNL     1      -9.541  11.347  64.633  1.00  0.00    -0.159 S  
HETATM   14  O   UNL     1     -10.898  10.861  64.204  1.00  0.00    -0.305 OA 
BRANCH  13  15
HETATM   15  C   UNL     1      -9.608  12.115  66.272  1.00  0.00    -0.237 C  
BRANCH  15  16
HETATM   16  C   UNL     1      -9.824  13.619  66.170  1.00  0.00    -0.293 A  
HETATM   17  N   UNL     1     -10.617  14.003  65.135  1.00  0.00    -0.361 NA 
HETATM   18  C   UNL     1     -10.864  15.321  64.977  1.00  0.00    -0.439 A  
HETATM   19  C   UNL     1     -10.339  16.317  65.784  1.00  0.00    -0.393 A  
HETATM   20  C   UNL     1      -9.521  15.919  66.851  1.00  0.00    -0.227 A  
HETATM   21  C   UNL     1     -10.634  17.760  65.493  1.00  0.00    -0.044 C  
HETATM   22  C   UNL     1      -8.461  14.065  68.248  1.00  0.00    -0.171 C  
HETATM   23  C   UNL     1      -9.275  14.547  67.084  1.00  0.00    -0.233 A  
BRANCH  20  24
HETATM   24  O   UNL     1      -9.137  16.941  67.687  1.00  0.00    -0.220 OA 
HETATM   25  C   UNL     1      -7.786  17.384  67.610  1.00  0.00    -0.191 C  
ENDBRANCH  20  24
ENDBRANCH  15  16
ENDBRANCH  13  15
ENDBRANCH  10  13
ENDBRANCH   2   3
TORSDOF 5
ENDMDL
MODEL      295
REMARK 921   NORMALIZED FREE ENERGY PREDICTED BY IDOCK:   -2.85 KCAL/MOL
REMARK 922        TOTAL FREE ENERGY PREDICTED BY IDOCK:   -4.32 KCAL/MOL
REMARK 923 INTER-LIGAND FREE ENERGY PREDICTED BY IDOCK:   -3.94 KCAL/MOL
REMARK 924 INTRA-LIGAND FREE ENERGY PREDICTED BY IDOCK:   -0.38 KCAL/MOL
REMARK 927      BINDING AFFINITY PREDICTED BY RF-SCORE:    0.00 PKD
ROOT
HETATM    1  C   UNL     1      -5.428  17.016  70.275  1.00  0.00    -0.225 C  
HETATM    2  O   UNL     1      -5.639  15.614  70.161  1.00  0.00    -0.137 OA 
ENDROOT
BRANCH   2   3
HETATM    3  C   UNL     1      -6.669  15.231  69.337  1.00  0.00    -0.164 A  
HETATM    4  C   UNL     1      -7.039  13.902  69.079  1.00  0.00    -0.098 A  
HETATM    5  C   UNL     1      -8.085  13.655  68.169  1.00  0.00    -0.156 A  
HETATM    6  C   UNL     1      -8.710  14.738  67.563  1.00  0.00    -0.186 A  
HETATM    7  C   UNL     1      -8.373  16.070  67.803  1.00  0.00    -0.159 A  
HETATM    8  N   UNL     1      -9.649  14.169  66.748  1.00  0.00    -0.271 NA 
HETATM    9  C   UNL     1      -7.321  16.291  68.698  1.00  0.00    -0.180 A  
HETATM   10  C   UNL     1      -9.576  12.807  66.876  1.00  0.00    -0.235 A  
HETATM   11  H   UNL     1     -10.296  14.675  66.144  1.00  0.00     0.000 HD 
HETATM   12  N   UNL     1      -8.631  12.458  67.730  1.00  0.00    -0.162 NA 
BRANCH  10  13
HETATM   13  S   UNL     1     -10.668  11.765  66.008  1.00  0.00    -0.288 S  
HETATM   14  O   UNL     1     -11.005  12.525  64.755  1.00  0.00    -0.284 OA 
BRANCH  13  15
HETATM   15  C   UNL     1      -9.612  10.340  65.646  1.00  0.00    -0.232 C  
BRANCH  15  16
HETATM   16  C   UNL     1      -9.526   9.397  66.839  1.00  0.00    -0.156 A  
HETATM   17  N   UNL     1     -10.729   8.951  67.289  1.00  0.00    -0.228 NA 
HETATM   18  C   UNL     1     -10.741   8.104  68.341  1.00  0.00    -0.012 A  
HETATM   19  C   UNL     1      -9.608   7.680  69.015  1.00  0.00    -0.151 A  
HETATM   20  C   UNL     1      -8.368   8.141  68.551  1.00  0.00    -0.126 A  
HETATM   21  C   UNL     1      -9.732   6.777  70.208  1.00  0.00    -0.179 C  
HETATM   22  C   UNL     1      -7.001   9.458  66.845  1.00  0.00    -0.081 C  
HETATM   23  C   UNL     1      -8.304   8.989  67.421  1.00  0.00    -0.112 A  
BRANCH  20  24
HETATM   24  O   UNL     1      -7.280   7.584  69.179  1.00  0.00    -0.079 OA 
HETATM   25  C   UNL     1      -6.539   8.411  70.070  1.00  0.00    -0.039 C  
ENDBRANCH  20  24
ENDBRANCH  15  16
ENDBRANCH  13  15
ENDBRANCH  10  13
ENDBRANCH   2   3
TORSDOF 5
ENDMDL
MODEL      296
REMARK 921   NORMALIZED FREE ENERGY PREDICTED BY IDOCK:   -2.84 KCAL/MOL
REMARK 922        TOTAL FREE ENERGY PREDICTED BY IDOCK:   -4.31 KCAL/MOL
REMARK 923 INTER-LIGAND FREE ENERGY PREDICTED BY IDOCK:   -4.54 KCAL/MOL
REMARK 924 INTRA-LIGAND FREE ENERGY PREDICTED BY IDOCK:    0.22 KCAL/MOL
REMARK 927      BINDING AFFINITY PREDICTED BY RF-SCORE:    0.00 PKD
ROOT
HETATM    1  C   UNL     1      -5.798  10.748  62.403  1.00  0.00    -0.144 C  
HETATM    2  O   UNL     1      -5.868   9.328  62.380  1.00  0.00    -0.090 OA 
ENDROOT
BRANCH   2   3
HETATM    3  C   UNL     1      -6.682   8.755  63.326  1.00  0.00    -0.090 A  
HETATM    4  C   UNL     1      -6.802   7.375  63.553  1.00  0.00    -0.054 A  
HETATM    5  C   UNL     1      -7.717   6.926  64.524  1.00  0.00    -0.116 A  
HETATM    6  C   UNL     1      -8.464   7.867  65.220  1.00  0.00    -0.104 A  
HETATM    7  C   UNL     1      -8.364   9.245  65.026  1.00  0.00    -0.160 A  
HETATM    8  N   UNL     1      -9.246   7.121  66.058  1.00  0.00    -0.357 NA 
HETATM    9  C   UNL     1      -7.461   9.668  64.045  1.00  0.00    -0.128 A  
HETATM   10  C   UNL     1      -8.962   5.795  65.860  1.00  0.00    -0.151 A  
HETATM   11  H   UNL     1      -9.927   7.490  66.721  1.00  0.00     0.000 HD 
HETATM   12  N   UNL     1      -8.039   5.639  64.929  1.00  0.00    -0.121 NA 
BRANCH  10  13
HETATM   13  S   UNL     1      -9.748   4.560  66.803  1.00  0.00    -0.218 S  
HETATM   14  O   UNL     1      -9.341   3.267  66.152  1.00  0.00    -0.162 OA 
BRANCH  13  15
HETATM   15  C   UNL     1      -8.948   4.762  68.415  1.00  0.00    -0.111 C  
BRANCH  15  16
HETATM   16  C   UNL     1      -9.794   5.617  69.348  1.00  0.00    -0.175 A  
HETATM   17  N   UNL     1     -10.092   6.851  68.862  1.00  0.00    -0.165 NA 
HETATM   18  C   UNL     1     -10.845   7.672  69.626  1.00  0.00    -0.191 A  
HETATM   19  C   UNL     1     -11.313   7.352  70.890  1.00  0.00    -0.300 A  
HETATM   20  C   UNL     1     -11.004   6.079  71.391  1.00  0.00    -0.276 A  
HETATM   21  C   UNL     1     -12.100   8.356  71.682  1.00  0.00    -0.359 C  
HETATM   22  C   UNL     1      -9.958   3.774  71.066  1.00  0.00    -0.118 C  
HETATM   23  C   UNL     1     -10.261   5.168  70.605  1.00  0.00    -0.326 A  
BRANCH  20  24
HETATM   24  O   UNL     1     -11.603   5.777  72.591  1.00  0.00    -0.300 OA 
HETATM   25  C   UNL     1     -10.962   4.816  73.423  1.00  0.00    -0.323 C  
ENDBRANCH  20  24
ENDBRANCH  15  16
ENDBRANCH  13  15
ENDBRANCH  10  13
ENDBRANCH   2   3
TORSDOF 5
ENDMDL
MODEL      297
REMARK 921   NORMALIZED FREE ENERGY PREDICTED BY IDOCK:   -2.84 KCAL/MOL
REMARK 922        TOTAL FREE ENERGY PREDICTED BY IDOCK:   -4.31 KCAL/MOL
REMARK 923 INTER-LIGAND FREE ENERGY PREDICTED BY IDOCK:   -4.01 KCAL/MOL
REMARK 924 INTRA-LIGAND FREE ENERGY PREDICTED BY IDOCK:   -0.30 KCAL/MOL
REMARK 927      BINDING AFFINITY PREDICTED BY RF-SCORE:    0.00 PKD
ROOT
HETATM    1  C   UNL     1     -10.988  16.655  69.018  1.00  0.00    -0.279 C  
HETATM    2  O   UNL     1     -11.354  16.597  67.644  1.00  0.00    -0.092 OA 
ENDROOT
BRANCH   2   3
HETATM    3  C   UNL     1     -10.984  15.454  66.977  1.00  0.00    -0.306 A  
HETATM    4  C   UNL     1      -9.998  14.554  67.412  1.00  0.00    -0.227 A  
HETATM    5  C   UNL     1      -9.685  13.449  66.599  1.00  0.00    -0.275 A  
HETATM    6  C   UNL     1     -10.365  13.292  65.398  1.00  0.00    -0.306 A  
HETATM    7  C   UNL     1     -11.356  14.162  64.940  1.00  0.00    -0.365 A  
HETATM    8  N   UNL     1      -9.830  12.157  64.856  1.00  0.00    -0.416 NA 
HETATM    9  C   UNL     1     -11.639  15.261  65.756  1.00  0.00    -0.015 A  
HETATM   10  C   UNL     1      -8.876  11.669  65.710  1.00  0.00    -0.004 A  
HETATM   11  H   UNL     1     -10.097  11.741  63.963  1.00  0.00     0.000 HD 
HETATM   12  N   UNL     1      -8.758  12.434  66.779  1.00  0.00    -0.189 NA 
BRANCH  10  13
HETATM   13  S   UNL     1      -8.021  10.195  65.351  1.00  0.00    -0.147 S  
HETATM   14  O   UNL     1      -6.732  10.306  66.117  1.00  0.00    -0.095 OA 
BRANCH  13  15
HETATM   15  C   UNL     1      -9.112   8.947  66.081  1.00  0.00    -0.203 C  
BRANCH  15  16
HETATM   16  C   UNL     1      -8.629   7.538  65.768  1.00  0.00    -0.142 A  
HETATM   17  N   UNL     1      -8.047   7.403  64.546  1.00  0.00    -0.115 NA 
HETATM   18  C   UNL     1      -7.584   6.185  64.192  1.00  0.00    -0.096 A  
HETATM   19  C   UNL     1      -7.688   5.051  64.981  1.00  0.00    -0.083 A  
HETATM   20  C   UNL     1      -8.288   5.191  66.240  1.00  0.00    -0.113 A  
HETATM   21  C   UNL     1      -7.187   3.729  64.473  1.00  0.00    -0.066 C  
HETATM   22  C   UNL     1      -9.333   6.675  68.034  1.00  0.00    -0.113 C  
HETATM   23  C   UNL     1      -8.742   6.458  66.673  1.00  0.00    -0.127 A  
BRANCH  20  24
HETATM   24  O   UNL     1      -8.245   4.061  67.021  1.00  0.00    -0.099 OA 
HETATM   25  C   UNL     1      -9.425   3.268  67.099  1.00  0.00    -0.140 C  
ENDBRANCH  20  24
ENDBRANCH  15  16
ENDBRANCH  13  15
ENDBRANCH  10  13
ENDBRANCH   2   3
TORSDOF 5
ENDMDL
MODEL      298
REMARK 921   NORMALIZED FREE ENERGY PREDICTED BY IDOCK:   -2.79 KCAL/MOL
REMARK 922        TOTAL FREE ENERGY PREDICTED BY IDOCK:   -4.25 KCAL/MOL
REMARK 923 INTER-LIGAND FREE ENERGY PREDICTED BY IDOCK:   -3.76 KCAL/MOL
REMARK 924 INTRA-LIGAND FREE ENERGY PREDICTED BY IDOCK:   -0.49 KCAL/MOL
REMARK 927      BINDING AFFINITY PREDICTED BY RF-SCORE:    0.00 PKD
ROOT
HETATM    1  C   UNL     1     -14.397  14.072  72.308  1.00  0.00    -0.429 C  
HETATM    2  O   UNL     1     -13.733  13.246  71.360  1.00  0.00    -0.103 OA 
ENDROOT
BRANCH   2   3
HETATM    3  C   UNL     1     -12.607  13.785  70.785  1.00  0.00    -0.340 A  
HETATM    4  C   UNL     1     -11.901  13.214  69.715  1.00  0.00    -0.386 A  
HETATM    5  C   UNL     1     -10.731  13.851  69.260  1.00  0.00    -0.085 A  
HETATM    6  C   UNL     1     -10.322  15.021  69.888  1.00  0.00    -0.120 A  
HETATM    7  C   UNL     1     -11.005  15.619  70.948  1.00  0.00    -0.311 A  
HETATM    8  N   UNL     1      -9.175  15.370  69.232  1.00  0.00    -0.246 NA 
HETATM    9  C   UNL     1     -12.155  14.960  71.393  1.00  0.00    -0.392 A  
HETATM   10  C   UNL     1      -8.925  14.441  68.256  1.00  0.00    -0.187 A  
HETATM   11  H   UNL     1      -8.599  16.187  69.435  1.00  0.00     0.000 HD 
HETATM   12  N   UNL     1      -9.850  13.498  68.248  1.00  0.00    -0.230 NA 
BRANCH  10  13
HETATM   13  S   UNL     1      -7.558  14.604  67.191  1.00  0.00     0.082 S  
HETATM   14  O   UNL     1      -7.201  16.064  67.250  1.00  0.00    -0.166 OA 
BRANCH  13  15
HETATM   15  C   UNL     1      -6.313  13.592  68.030  1.00  0.00    -0.136 C  
BRANCH  15  16
HETATM   16  C   UNL     1      -6.615  12.107  67.882  1.00  0.00    -0.085 A  
HETATM   17  N   UNL     1      -6.906  11.718  66.612  1.00  0.00    -0.048 NA 
HETATM   18  C   UNL     1      -7.179  10.414  66.392  1.00  0.00    -0.119 A  
HETATM   19  C   UNL     1      -7.212   9.445  67.381  1.00  0.00    -0.087 A  
HETATM   20  C   UNL     1      -6.913   9.847  68.690  1.00  0.00    -0.062 A  
HETATM   21  C   UNL     1      -7.579   8.029  67.040  1.00  0.00    -0.096 C  
HETATM   22  C   UNL     1      -6.180  11.661  70.329  1.00  0.00    -0.068 C  
HETATM   23  C   UNL     1      -6.571  11.193  68.959  1.00  0.00    -0.075 A  
BRANCH  20  24
HETATM   24  O   UNL     1      -6.838   8.819  69.600  1.00  0.00    -0.045 OA 
HETATM   25  C   UNL     1      -5.591   8.145  69.730  1.00  0.00    -0.026 C  
ENDBRANCH  20  24
ENDBRANCH  15  16
ENDBRANCH  13  15
ENDBRANCH  10  13
ENDBRANCH   2   3
TORSDOF 5
ENDMDL
MODEL      299
REMARK 921   NORMALIZED FREE ENERGY PREDICTED BY IDOCK:   -2.78 KCAL/MOL
REMARK 922        TOTAL FREE ENERGY PREDICTED BY IDOCK:   -4.23 KCAL/MOL
REMARK 923 INTER-LIGAND FREE ENERGY PREDICTED BY IDOCK:   -3.88 KCAL/MOL
REMARK 924 INTRA-LIGAND FREE ENERGY PREDICTED BY IDOCK:   -0.34 KCAL/MOL
REMARK 927      BINDING AFFINITY PREDICTED BY RF-SCORE:    0.00 PKD
ROOT
HETATM    1  C   UNL     1     -10.778  17.186  68.029  1.00  0.00    -0.372 C  
HETATM    2  O   UNL     1     -11.299  15.893  67.746  1.00  0.00    -0.299 OA 
ENDROOT
BRANCH   2   3
HETATM    3  C   UNL     1     -10.432  14.846  67.938  1.00  0.00    -0.250 A  
HETATM    4  C   UNL     1     -10.817  13.509  68.125  1.00  0.00    -0.271 A  
HETATM    5  C   UNL     1      -9.820  12.545  68.364  1.00  0.00    -0.202 A  
HETATM    6  C   UNL     1      -8.493  12.955  68.406  1.00  0.00    -0.115 A  
HETATM    7  C   UNL     1      -8.076  14.273  68.217  1.00  0.00    -0.143 A  
HETATM    8  N   UNL     1      -7.796  11.807  68.664  1.00  0.00    -0.192 NA 
HETATM    9  C   UNL     1      -9.084  15.216  67.997  1.00  0.00    -0.180 A  
HETATM   10  C   UNL     1      -8.682  10.767  68.765  1.00  0.00    -0.163 A  
HETATM   11  H   UNL     1      -6.783  11.737  68.764  1.00  0.00     0.000 HD 
HETATM   12  N   UNL     1      -9.924  11.181  68.593  1.00  0.00    -0.200 NA 
BRANCH  10  13
HETATM   13  S   UNL     1      -8.127   9.141  69.044  1.00  0.00    -0.104 S  
HETATM   14  O   UNL     1      -9.318   8.424  69.619  1.00  0.00    -0.159 OA 
BRANCH  13  15
HETATM   15  C   UNL     1      -7.774   8.577  67.359  1.00  0.00    -0.098 C  
BRANCH  15  16
HETATM   16  C   UNL     1      -7.924   7.067  67.238  1.00  0.00    -0.111 A  
HETATM   17  N   UNL     1      -6.819   6.363  67.600  1.00  0.00    -0.073 NA 
HETATM   18  C   UNL     1      -6.871   5.015  67.529  1.00  0.00    -0.060 A  
HETATM   19  C   UNL     1      -7.969   4.298  67.082  1.00  0.00    -0.097 A  
HETATM   20  C   UNL     1      -9.108   5.025  66.708  1.00  0.00    -0.118 A  
HETATM   21  C   UNL     1      -7.908   2.801  66.991  1.00  0.00    -0.075 C  
HETATM   22  C   UNL     1     -10.329   7.256  66.490  1.00  0.00    -0.104 C  
HETATM   23  C   UNL     1      -9.116   6.436  66.815  1.00  0.00    -0.147 A  
BRANCH  20  24
HETATM   24  O   UNL     1     -10.202   4.253  66.398  1.00  0.00    -0.213 OA 
HETATM   25  C   UNL     1     -10.475   4.022  65.020  1.00  0.00    -0.136 C  
ENDBRANCH  20  24
ENDBRANCH  15  16
ENDBRANCH  13  15
ENDBRANCH  10  13
ENDBRANCH   2   3
TORSDOF 5
ENDMDL
MODEL      300
REMARK 921   NORMALIZED FREE ENERGY PREDICTED BY IDOCK:   -2.77 KCAL/MOL
REMARK 922        TOTAL FREE ENERGY PREDICTED BY IDOCK:   -4.22 KCAL/MOL
REMARK 923 INTER-LIGAND FREE ENERGY PREDICTED BY IDOCK:   -3.85 KCAL/MOL
REMARK 924 INTRA-LIGAND FREE ENERGY PREDICTED BY IDOCK:   -0.37 KCAL/MOL
REMARK 927      BINDING AFFINITY PREDICTED BY RF-SCORE:    0.00 PKD
ROOT
HETATM    1  C   UNL     1     -14.112  14.956  71.354  1.00  0.00    -0.467 C  
HETATM    2  O   UNL     1     -12.943  15.707  71.050  1.00  0.00    -0.487 OA 
ENDROOT
BRANCH   2   3
HETATM    3  C   UNL     1     -12.213  15.264  69.974  1.00  0.00    -0.349 A  
HETATM    4  C   UNL     1     -12.740  14.553  68.885  1.00  0.00     0.548 A  
HETATM    5  C   UNL     1     -11.863  14.115  67.875  1.00  0.00    -0.370 A  
HETATM    6  C   UNL     1     -10.509  14.404  67.997  1.00  0.00    -0.237 A  
HETATM    7  C   UNL     1      -9.954  15.115  69.062  1.00  0.00    -0.239 A  
HETATM    8  N   UNL     1      -9.945  13.842  66.886  1.00  0.00    -0.258 NA 
HETATM    9  C   UNL     1     -10.842  15.526  70.061  1.00  0.00    -0.330 A  
HETATM   10  C   UNL     1     -10.933  13.249  66.143  1.00  0.00    -0.279 A  
HETATM   11  H   UNL     1      -8.953  13.860  66.648  1.00  0.00     0.000 HD 
HETATM   12  N   UNL     1     -12.112  13.392  66.718  1.00  0.00    -0.386 NA 
BRANCH  10  13
HETATM   13  S   UNL     1     -10.571  12.474  64.627  1.00  0.00    -0.335 S  
HETATM   14  O   UNL     1      -9.186  12.947  64.277  1.00  0.00     0.598 OA 
BRANCH  13  15
HETATM   15  C   UNL     1     -10.566  10.725  65.097  1.00  0.00    -0.169 C  
BRANCH  15  16
HETATM   16  C   UNL     1      -9.470  10.428  66.110  1.00  0.00    -0.181 A  
HETATM   17  N   UNL     1      -9.718  10.900  67.361  1.00  0.00    -0.167 NA 
HETATM   18  C   UNL     1      -8.797  10.672  68.322  1.00  0.00    -0.139 A  
HETATM   19  C   UNL     1      -7.597  10.012  68.114  1.00  0.00    -0.084 A  
HETATM   20  C   UNL     1      -7.342   9.526  66.824  1.00  0.00    -0.090 A  
HETATM   21  C   UNL     1      -6.616   9.855  69.240  1.00  0.00    -0.049 C  
HETATM   22  C   UNL     1      -8.105   9.142  64.419  1.00  0.00    -0.145 C  
HETATM   23  C   UNL     1      -8.300   9.698  65.798  1.00  0.00    -0.132 A  
BRANCH  20  24
HETATM   24  O   UNL     1      -6.198   8.772  66.715  1.00  0.00    -0.056 OA 
HETATM   25  C   UNL     1      -6.326   7.359  66.827  1.00  0.00    -0.045 C  
ENDBRANCH  20  24
ENDBRANCH  15  16
ENDBRANCH  13  15
ENDBRANCH  10  13
ENDBRANCH   2   3
TORSDOF 5
ENDMDL
MODEL      301
REMARK 921   NORMALIZED FREE ENERGY PREDICTED BY IDOCK:   -2.75 KCAL/MOL
REMARK 922        TOTAL FREE ENERGY PREDICTED BY IDOCK:   -4.20 KCAL/MOL
REMARK 923 INTER-LIGAND FREE ENERGY PREDICTED BY IDOCK:   -3.69 KCAL/MOL
REMARK 924 INTRA-LIGAND FREE ENERGY PREDICTED BY IDOCK:   -0.51 KCAL/MOL
REMARK 927      BINDING AFFINITY PREDICTED BY RF-SCORE:    0.00 PKD
ROOT
HETATM    1  C   UNL     1     -10.920  11.306  66.448  1.00  0.00    -0.227 C  
HETATM    2  O   UNL     1     -10.454   9.974  66.631  1.00  0.00    -0.223 OA 
ENDROOT
BRANCH   2   3
HETATM    3  C   UNL     1     -10.493   9.501  67.920  1.00  0.00    -0.241 A  
HETATM    4  C   UNL     1     -10.319   8.158  68.287  1.00  0.00    -0.241 A  
HETATM    5  C   UNL     1     -10.436   7.807  69.645  1.00  0.00    -0.229 A  
HETATM    6  C   UNL     1     -10.719   8.806  70.569  1.00  0.00    -0.223 A  
HETATM    7  C   UNL     1     -10.890  10.151  70.239  1.00  0.00    -0.370 A  
HETATM    8  N   UNL     1     -10.778   8.148  71.766  1.00  0.00    -0.237 NA 
HETATM    9  C   UNL     1     -10.785  10.473  68.882  1.00  0.00    -0.253 A  
HETATM   10  C   UNL     1     -10.536   6.817  71.549  1.00  0.00    -0.213 A  
HETATM   11  H   UNL     1     -10.970   8.577  72.671  1.00  0.00     0.000 HD 
HETATM   12  N   UNL     1     -10.328   6.573  70.268  1.00  0.00    -0.195 NA 
BRANCH  10  13
HETATM   13  S   UNL     1     -10.488   5.687  72.873  1.00  0.00    -0.230 S  
HETATM   14  O   UNL     1     -10.828   4.359  72.255  1.00  0.00    -0.068 OA 
BRANCH  13  15
HETATM   15  C   UNL     1      -8.743   5.757  73.355  1.00  0.00    -0.120 C  
BRANCH  15  16
HETATM   16  C   UNL     1      -7.926   6.570  72.361  1.00  0.00    -0.101 A  
HETATM   17  N   UNL     1      -7.862   7.898  72.641  1.00  0.00    -0.110 NA 
HETATM   18  C   UNL     1      -7.150   8.691  71.810  1.00  0.00    -0.084 A  
HETATM   19  C   UNL     1      -6.501   8.245  70.671  1.00  0.00    -0.036 A  
HETATM   20  C   UNL     1      -6.569   6.875  70.382  1.00  0.00    -0.052 A  
HETATM   21  C   UNL     1      -5.778   9.217  69.784  1.00  0.00    -0.032 C  
HETATM   22  C   UNL     1      -7.309   4.518  71.024  1.00  0.00    -0.051 C  
HETATM   23  C   UNL     1      -7.261   6.000  71.251  1.00  0.00    -0.079 A  
BRANCH  20  24
HETATM   24  O   UNL     1      -5.801   6.478  69.313  1.00  0.00    -0.019 OA 
HETATM   25  C   UNL     1      -6.471   6.202  68.088  1.00  0.00    -0.049 C  
ENDBRANCH  20  24
ENDBRANCH  15  16
ENDBRANCH  13  15
ENDBRANCH  10  13
ENDBRANCH   2   3
TORSDOF 5
ENDMDL
MODEL      302
REMARK 921   NORMALIZED FREE ENERGY PREDICTED BY IDOCK:   -2.74 KCAL/MOL
REMARK 922        TOTAL FREE ENERGY PREDICTED BY IDOCK:   -4.19 KCAL/MOL
REMARK 923 INTER-LIGAND FREE ENERGY PREDICTED BY IDOCK:   -4.11 KCAL/MOL
REMARK 924 INTRA-LIGAND FREE ENERGY PREDICTED BY IDOCK:   -0.07 KCAL/MOL
REMARK 927      BINDING AFFINITY PREDICTED BY RF-SCORE:    0.00 PKD
ROOT
HETATM    1  C   UNL     1      -9.062   2.470  66.341  1.00  0.00    -0.098 C  
HETATM    2  O   UNL     1      -9.837   3.401  65.596  1.00  0.00    -0.075 OA 
ENDROOT
BRANCH   2   3
HETATM    3  C   UNL     1      -9.319   4.670  65.505  1.00  0.00    -0.158 A  
HETATM    4  C   UNL     1      -9.796   5.784  66.212  1.00  0.00    -0.136 A  
HETATM    5  C   UNL     1      -9.201   7.038  65.981  1.00  0.00    -0.021 A  
HETATM    6  C   UNL     1      -8.162   7.123  65.062  1.00  0.00    -0.093 A  
HETATM    7  C   UNL     1      -7.658   6.035  64.349  1.00  0.00    -0.093 A  
HETATM    8  N   UNL     1      -7.822   8.448  65.062  1.00  0.00    -0.110 NA 
HETATM    9  C   UNL     1      -8.276   4.803  64.583  1.00  0.00    -0.113 A  
HETATM   10  C   UNL     1      -8.630   9.109  65.950  1.00  0.00    -0.151 A  
HETATM   11  H   UNL     1      -7.089   8.873  64.496  1.00  0.00     0.000 HD 
HETATM   12  N   UNL     1      -9.485   8.283  66.524  1.00  0.00    -0.203 NA 
BRANCH  10  13
HETATM   13  S   UNL     1      -8.436  10.815  66.238  1.00  0.00    -0.165 S  
HETATM   14  O   UNL     1      -7.370  11.247  65.269  1.00  0.00     0.388 OA 
BRANCH  13  15
HETATM   15  C   UNL     1     -10.059  11.458  65.756  1.00  0.00    -0.246 C  
BRANCH  15  16
HETATM   16  C   UNL     1     -10.201  12.930  66.118  1.00  0.00    -0.278 A  
HETATM   17  N   UNL     1     -10.209  13.772  65.050  1.00  0.00    -0.365 NA 
HETATM   18  C   UNL     1     -10.338  15.096  65.284  1.00  0.00    -0.396 A  
HETATM   19  C   UNL     1     -10.434  15.661  66.545  1.00  0.00    -0.303 A  
HETATM   20  C   UNL     1     -10.425  14.792  67.645  1.00  0.00    -0.254 A  
HETATM   21  C   UNL     1     -10.522  17.152  66.701  1.00  0.00    -0.259 C  
HETATM   22  C   UNL     1     -10.393  12.419  68.583  1.00  0.00    -0.198 C  
HETATM   23  C   UNL     1     -10.342  13.395  67.446  1.00  0.00    -0.240 A  
BRANCH  20  24
HETATM   24  O   UNL     1     -10.651  15.402  68.856  1.00  0.00    -0.228 OA 
HETATM   25  C   UNL     1     -11.998  15.483  69.312  1.00  0.00    -0.316 C  
ENDBRANCH  20  24
ENDBRANCH  15  16
ENDBRANCH  13  15
ENDBRANCH  10  13
ENDBRANCH   2   3
TORSDOF 5
ENDMDL
MODEL      303
REMARK 921   NORMALIZED FREE ENERGY PREDICTED BY IDOCK:   -2.74 KCAL/MOL
REMARK 922        TOTAL FREE ENERGY PREDICTED BY IDOCK:   -4.18 KCAL/MOL
REMARK 923 INTER-LIGAND FREE ENERGY PREDICTED BY IDOCK:   -3.90 KCAL/MOL
REMARK 924 INTRA-LIGAND FREE ENERGY PREDICTED BY IDOCK:   -0.29 KCAL/MOL
REMARK 927      BINDING AFFINITY PREDICTED BY RF-SCORE:    0.00 PKD
ROOT
HETATM    1  C   UNL     1      -7.449  17.986  67.760  1.00  0.00    -0.211 C  
HETATM    2  O   UNL     1      -7.507  16.972  66.765  1.00  0.00    -0.181 OA 
ENDROOT
BRANCH   2   3
HETATM    3  C   UNL     1      -8.359  15.927  67.028  1.00  0.00    -0.223 A  
HETATM    4  C   UNL     1      -8.238  15.046  68.114  1.00  0.00    -0.140 A  
HETATM    5  C   UNL     1      -9.155  13.985  68.231  1.00  0.00    -0.191 A  
HETATM    6  C   UNL     1     -10.147  13.853  67.266  1.00  0.00    -0.242 A  
HETATM    7  C   UNL     1     -10.300  14.715  66.180  1.00  0.00    -0.309 A  
HETATM    8  N   UNL     1     -10.846  12.744  67.654  1.00  0.00    -0.224 NA 
HETATM    9  C   UNL     1      -9.368  15.751  66.075  1.00  0.00    -0.384 A  
HETATM   10  C   UNL     1     -10.286  12.251  68.804  1.00  0.00    -0.135 A  
HETATM   11  H   UNL     1     -11.652  12.350  67.169  1.00  0.00     0.000 HD 
HETATM   12  N   UNL     1      -9.251  12.979  69.180  1.00  0.00     0.522 NA 
BRANCH  10  13
HETATM   13  S   UNL     1     -10.962  10.861  69.605  1.00  0.00    -0.226 S  
HETATM   14  O   UNL     1     -12.447  11.097  69.590  1.00  0.00    -0.259 OA 
BRANCH  13  15
HETATM   15  C   UNL     1     -10.501   9.523  68.475  1.00  0.00    -0.217 C  
BRANCH  15  16
HETATM   16  C   UNL     1     -10.004   8.302  69.237  1.00  0.00    -0.192 A  
HETATM   17  N   UNL     1     -10.969   7.643  69.932  1.00  0.00    -0.234 NA 
HETATM   18  C   UNL     1     -10.613   6.543  70.631  1.00  0.00    -0.233 A  
HETATM   19  C   UNL     1      -9.320   6.055  70.712  1.00  0.00    -0.169 A  
HETATM   20  C   UNL     1      -8.325   6.736  69.996  1.00  0.00    -0.135 A  
HETATM   21  C   UNL     1      -9.018   4.853  71.560  1.00  0.00    -0.160 C  
HETATM   22  C   UNL     1      -7.648   8.587  68.375  1.00  0.00    -0.096 C  
HETATM   23  C   UNL     1      -8.661   7.862  69.210  1.00  0.00    -0.138 A  
BRANCH  20  24
HETATM   24  O   UNL     1      -7.092   6.129  70.015  1.00  0.00    -0.067 OA 
HETATM   25  C   UNL     1      -6.766   5.265  68.931  1.00  0.00    -0.053 C  
ENDBRANCH  20  24
ENDBRANCH  15  16
ENDBRANCH  13  15
ENDBRANCH  10  13
ENDBRANCH   2   3
TORSDOF 5
ENDMDL
MODEL      304
REMARK 921   NORMALIZED FREE ENERGY PREDICTED BY IDOCK:   -2.70 KCAL/MOL
REMARK 922        TOTAL FREE ENERGY PREDICTED BY IDOCK:   -4.13 KCAL/MOL
REMARK 923 INTER-LIGAND FREE ENERGY PREDICTED BY IDOCK:   -3.74 KCAL/MOL
REMARK 924 INTRA-LIGAND FREE ENERGY PREDICTED BY IDOCK:   -0.40 KCAL/MOL
REMARK 927      BINDING AFFINITY PREDICTED BY RF-SCORE:    0.00 PKD
ROOT
HETATM    1  C   UNL     1      -6.007   8.528  74.004  1.00  0.00    -0.124 C  
HETATM    2  O   UNL     1      -5.752   9.342  72.866  1.00  0.00    -0.265 OA 
ENDROOT
BRANCH   2   3
HETATM    3  C   UNL     1      -6.343   8.933  71.696  1.00  0.00    -0.074 A  
HETATM    4  C   UNL     1      -7.019   7.715  71.521  1.00  0.00    -0.057 A  
HETATM    5  C   UNL     1      -7.532   7.402  70.248  1.00  0.00    -0.083 A  
HETATM    6  C   UNL     1      -7.349   8.312  69.214  1.00  0.00    -0.076 A  
HETATM    7  C   UNL     1      -6.690   9.534  69.356  1.00  0.00    -0.048 A  
HETATM    8  N   UNL     1      -7.940   7.716  68.135  1.00  0.00    -0.121 NA 
HETATM    9  C   UNL     1      -6.175   9.816  70.625  1.00  0.00    -0.095 A  
HETATM   10  C   UNL     1      -8.450   6.506  68.525  1.00  0.00    -0.124 A  
HETATM   11  H   UNL     1      -7.992   8.108  67.195  1.00  0.00     0.000 HD 
HETATM   12  N   UNL     1      -8.215   6.280  69.805  1.00  0.00    -0.123 NA 
BRANCH  10  13
HETATM   13  S   UNL     1      -9.318   5.496  67.404  1.00  0.00    -0.117 S  
HETATM   14  O   UNL     1      -9.371   4.147  68.067  1.00  0.00    -0.140 OA 
BRANCH  13  15
HETATM   15  C   UNL     1     -10.949   6.281  67.385  1.00  0.00    -0.356 C  
BRANCH  15  16
HETATM   16  C   UNL     1     -10.903   7.668  68.011  1.00  0.00    -0.001 A  
HETATM   17  N   UNL     1     -10.578   8.664  67.146  1.00  0.00    -0.282 NA 
HETATM   18  C   UNL     1     -10.521   9.927  67.620  1.00  0.00    -0.244 A  
HETATM   19  C   UNL     1     -10.746  10.276  68.942  1.00  0.00    -0.256 A  
HETATM   20  C   UNL     1     -11.081   9.248  69.834  1.00  0.00    -0.181 A  
HETATM   21  C   UNL     1     -10.608  11.705  69.380  1.00  0.00    -0.008 C  
HETATM   22  C   UNL     1     -11.619   6.791  70.269  1.00  0.00    -0.417 C  
HETATM   23  C   UNL     1     -11.201   7.917  69.371  1.00  0.00     0.181 A  
BRANCH  20  24
HETATM   24  O   UNL     1     -11.416   9.675  71.097  1.00  0.00    -0.323 OA 
HETATM   25  C   UNL     1     -12.795   9.886  71.377  1.00  0.00    -0.405 C  
ENDBRANCH  20  24
ENDBRANCH  15  16
ENDBRANCH  13  15
ENDBRANCH  10  13
ENDBRANCH   2   3
TORSDOF 5
ENDMDL
MODEL      305
REMARK 921   NORMALIZED FREE ENERGY PREDICTED BY IDOCK:   -2.68 KCAL/MOL
REMARK 922        TOTAL FREE ENERGY PREDICTED BY IDOCK:   -4.10 KCAL/MOL
REMARK 923 INTER-LIGAND FREE ENERGY PREDICTED BY IDOCK:   -3.48 KCAL/MOL
REMARK 924 INTRA-LIGAND FREE ENERGY PREDICTED BY IDOCK:   -0.62 KCAL/MOL
REMARK 927      BINDING AFFINITY PREDICTED BY RF-SCORE:    0.00 PKD
ROOT
HETATM    1  C   UNL     1      -6.971   8.224  74.553  1.00  0.00    -0.168 C  
HETATM    2  O   UNL     1      -7.623   8.846  73.453  1.00  0.00    -0.371 OA 
ENDROOT
BRANCH   2   3
HETATM    3  C   UNL     1      -7.601   8.145  72.272  1.00  0.00    -0.117 A  
HETATM    4  C   UNL     1      -8.382   7.012  71.997  1.00  0.00    -0.106 A  
HETATM    5  C   UNL     1      -8.217   6.361  70.760  1.00  0.00    -0.125 A  
HETATM    6  C   UNL     1      -7.288   6.866  69.860  1.00  0.00    -0.088 A  
HETATM    7  C   UNL     1      -6.502   7.994  70.098  1.00  0.00    -0.036 A  
HETATM    8  N   UNL     1      -7.362   6.019  68.790  1.00  0.00    -0.083 NA 
HETATM    9  C   UNL     1      -6.671   8.615  71.340  1.00  0.00    -0.076 A  
HETATM   10  C   UNL     1      -8.301   5.057  69.055  1.00  0.00    -0.086 A  
HETATM   11  H   UNL     1      -6.809   6.090  67.935  1.00  0.00     0.000 HD 
HETATM   12  N   UNL     1      -8.838   5.231  70.248  1.00  0.00    -0.123 NA 
BRANCH  10  13
HETATM   13  S   UNL     1      -8.688   3.834  67.877  1.00  0.00    -0.112 S  
HETATM   14  O   UNL     1      -9.253   2.695  68.681  1.00  0.00    -0.147 OA 
BRANCH  13  15
HETATM   15  C   UNL     1      -9.978   4.653  66.905  1.00  0.00    -0.211 C  
BRANCH  15  16
HETATM   16  C   UNL     1      -9.480   5.966  66.318  1.00  0.00    -0.139 A  
HETATM   17  N   UNL     1      -8.551   5.825  65.336  1.00  0.00    -0.151 NA 
HETATM   18  C   UNL     1      -8.062   6.943  64.756  1.00  0.00    -0.095 A  
HETATM   19  C   UNL     1      -8.421   8.231  65.117  1.00  0.00    -0.164 A  
HETATM   20  C   UNL     1      -9.378   8.375  66.132  1.00  0.00    -0.201 A  
HETATM   21  C   UNL     1      -7.778   9.411  64.446  1.00  0.00    -0.119 C  
HETATM   22  C   UNL     1     -11.028   7.330  67.774  1.00  0.00    -0.141 C  
HETATM   23  C   UNL     1      -9.955   7.232  66.731  1.00  0.00    -0.287 A  
BRANCH  20  24
HETATM   24  O   UNL     1      -9.783   9.670  66.353  1.00  0.00    -0.190 OA 
HETATM   25  C   UNL     1      -9.247  10.343  67.487  1.00  0.00    -0.145 C  
ENDBRANCH  20  24
ENDBRANCH  15  16
ENDBRANCH  13  15
ENDBRANCH  10  13
ENDBRANCH   2   3
TORSDOF 5
ENDMDL
MODEL      306
REMARK 921   NORMALIZED FREE ENERGY PREDICTED BY IDOCK:   -2.61 KCAL/MOL
REMARK 922        TOTAL FREE ENERGY PREDICTED BY IDOCK:   -4.01 KCAL/MOL
REMARK 923 INTER-LIGAND FREE ENERGY PREDICTED BY IDOCK:   -4.22 KCAL/MOL
REMARK 924 INTRA-LIGAND FREE ENERGY PREDICTED BY IDOCK:    0.21 KCAL/MOL
REMARK 927      BINDING AFFINITY PREDICTED BY RF-SCORE:    0.00 PKD
ROOT
HETATM    1  C   UNL     1      -6.662   2.970  72.269  1.00  0.00    -0.015 C  
HETATM    2  O   UNL     1      -6.527   4.334  72.648  1.00  0.00    -0.026 OA 
ENDROOT
BRANCH   2   3
HETATM    3  C   UNL     1      -7.144   5.245  71.826  1.00  0.00    -0.075 A  
HETATM    4  C   UNL     1      -6.604   5.741  70.629  1.00  0.00    -0.044 A  
HETATM    5  C   UNL     1      -7.327   6.713  69.912  1.00  0.00    -0.086 A  
HETATM    6  C   UNL     1      -8.547   7.143  70.418  1.00  0.00    -0.142 A  
HETATM    7  C   UNL     1      -9.116   6.665  71.599  1.00  0.00    -0.142 A  
HETATM    8  N   UNL     1      -8.975   8.075  69.514  1.00  0.00    -0.147 NA 
HETATM    9  C   UNL     1      -8.374   5.713  72.303  1.00  0.00    -0.119 A  
HETATM   10  C   UNL     1      -8.041   8.183  68.517  1.00  0.00    -0.124 A  
HETATM   11  H   UNL     1      -9.846   8.603  69.571  1.00  0.00     0.000 HD 
HETATM   12  N   UNL     1      -7.021   7.371  68.731  1.00  0.00    -0.076 NA 
BRANCH  10  13
HETATM   13  S   UNL     1      -8.290   9.252  67.166  1.00  0.00    -0.124 S  
HETATM   14  O   UNL     1      -8.880   8.380  66.092  1.00  0.00    -0.146 OA 
BRANCH  13  15
HETATM   15  C   UNL     1      -9.524  10.401  67.828  1.00  0.00    -0.145 C  
BRANCH  15  16
HETATM   16  C   UNL     1     -10.102  11.284  66.731  1.00  0.00    -0.219 A  
HETATM   17  N   UNL     1     -10.324  10.643  65.553  1.00  0.00    -0.254 NA 
HETATM   18  C   UNL     1     -10.843  11.353  64.528  1.00  0.00    -0.309 A  
HETATM   19  C   UNL     1     -11.139  12.705  64.586  1.00  0.00    -0.348 A  
HETATM   20  C   UNL     1     -10.909  13.366  65.801  1.00  0.00    -0.275 A  
HETATM   21  C   UNL     1     -11.665  13.416  63.373  1.00  0.00    -0.211 C  
HETATM   22  C   UNL     1     -10.211  13.295  68.255  1.00  0.00    -0.250 C  
HETATM   23  C   UNL     1     -10.414  12.650  66.916  1.00  0.00    -0.246 A  
BRANCH  20  24
HETATM   24  O   UNL     1     -11.342  14.670  65.832  1.00  0.00    -0.334 OA 
HETATM   25  C   UNL     1     -10.352  15.693  65.817  1.00  0.00    -0.365 C  
ENDBRANCH  20  24
ENDBRANCH  15  16
ENDBRANCH  13  15
ENDBRANCH  10  13
ENDBRANCH   2   3
TORSDOF 5
ENDMDL
MODEL      307
REMARK 921   NORMALIZED FREE ENERGY PREDICTED BY IDOCK:   -2.54 KCAL/MOL
REMARK 922        TOTAL FREE ENERGY PREDICTED BY IDOCK:   -3.92 KCAL/MOL
REMARK 923 INTER-LIGAND FREE ENERGY PREDICTED BY IDOCK:   -4.48 KCAL/MOL
REMARK 924 INTRA-LIGAND FREE ENERGY PREDICTED BY IDOCK:    0.55 KCAL/MOL
REMARK 927      BINDING AFFINITY PREDICTED BY RF-SCORE:    0.00 PKD
ROOT
HETATM    1  C   UNL     1     -13.373   7.114  71.080  1.00  0.00    -0.157 C  
HETATM    2  O   UNL     1     -12.235   7.687  71.712  1.00  0.00    -0.290 OA 
ENDROOT
BRANCH   2   3
HETATM    3  C   UNL     1     -11.634   8.720  71.035  1.00  0.00    -0.288 A  
HETATM    4  C   UNL     1     -12.223   9.971  70.793  1.00  0.00    -0.408 A  
HETATM    5  C   UNL     1     -11.509  10.920  70.037  1.00  0.00    -0.329 A  
HETATM    6  C   UNL     1     -10.249  10.581  69.560  1.00  0.00    -0.200 A  
HETATM    7  C   UNL     1      -9.632   9.350  69.789  1.00  0.00    -0.216 A  
HETATM    8  N   UNL     1      -9.841  11.689  68.872  1.00  0.00    -0.397 NA 
HETATM    9  C   UNL     1     -10.366   8.418  70.528  1.00  0.00    -0.220 A  
HETATM   10  C   UNL     1     -10.825  12.640  68.947  1.00  0.00    -0.197 A  
HETATM   11  H   UNL     1      -8.952  11.792  68.383  1.00  0.00     0.000 HD 
HETATM   12  N   UNL     1     -11.858  12.204  69.645  1.00  0.00    -0.322 NA 
BRANCH  10  13
HETATM   13  S   UNL     1     -10.615  14.206  68.216  1.00  0.00    -0.257 S  
HETATM   14  O   UNL     1     -11.001  15.184  69.291  1.00  0.00    -0.234 OA 
BRANCH  13  15
HETATM   15  C   UNL     1      -8.830  14.236  67.912  1.00  0.00    -0.179 C  
BRANCH  15  16
HETATM   16  C   UNL     1      -8.375  12.988  67.168  1.00  0.00    -0.150 A  
HETATM   17  N   UNL     1      -9.170  12.636  66.124  1.00  0.00    -0.115 NA 
HETATM   18  C   UNL     1      -8.832  11.543  65.406  1.00  0.00     0.091 A  
HETATM   19  C   UNL     1      -7.740  10.735  65.679  1.00  0.00    -0.057 A  
HETATM   20  C   UNL     1      -6.921  11.100  66.757  1.00  0.00    -0.137 A  
HETATM   21  C   UNL     1      -7.480   9.511  64.851  1.00  0.00    -0.111 C  
HETATM   22  C   UNL     1      -6.329  12.734  68.626  1.00  0.00    -0.075 C  
HETATM   23  C   UNL     1      -7.208  12.264  67.506  1.00  0.00    -0.139 A  
BRANCH  20  24
HETATM   24  O   UNL     1      -5.788  10.334  66.896  1.00  0.00    -0.049 OA 
HETATM   25  C   UNL     1      -5.818   9.280  67.853  1.00  0.00    -0.041 C  
ENDBRANCH  20  24
ENDBRANCH  15  16
ENDBRANCH  13  15
ENDBRANCH  10  13
ENDBRANCH   2   3
TORSDOF 5
ENDMDL
MODEL      308
REMARK 921   NORMALIZED FREE ENERGY PREDICTED BY IDOCK:   -2.50 KCAL/MOL
REMARK 922        TOTAL FREE ENERGY PREDICTED BY IDOCK:   -3.87 KCAL/MOL
REMARK 923 INTER-LIGAND FREE ENERGY PREDICTED BY IDOCK:   -3.55 KCAL/MOL
REMARK 924 INTRA-LIGAND FREE ENERGY PREDICTED BY IDOCK:   -0.33 KCAL/MOL
REMARK 927      BINDING AFFINITY PREDICTED BY RF-SCORE:    0.00 PKD
ROOT
HETATM    1  C   UNL     1     -10.165  11.097  65.962  1.00  0.00    -0.250 C  
HETATM    2  O   UNL     1      -9.343   9.955  66.167  1.00  0.00    -0.162 OA 
ENDROOT
BRANCH   2   3
HETATM    3  C   UNL     1      -8.898   9.764  67.453  1.00  0.00    -0.132 A  
HETATM    4  C   UNL     1      -9.558   8.996  68.425  1.00  0.00    -0.163 A  
HETATM    5  C   UNL     1      -9.012   8.930  69.720  1.00  0.00    -0.149 A  
HETATM    6  C   UNL     1      -7.840   9.628  69.985  1.00  0.00    -0.165 A  
HETATM    7  C   UNL     1      -7.155  10.393  69.041  1.00  0.00    -0.076 A  
HETATM    8  N   UNL     1      -7.589   9.372  71.305  1.00  0.00    -0.332 NA 
HETATM    9  C   UNL     1      -7.724  10.457  67.765  1.00  0.00    -0.089 A  
HETATM   10  C   UNL     1      -8.575   8.554  71.790  1.00  0.00    -0.190 A  
HETATM   11  H   UNL     1      -6.798   9.731  71.840  1.00  0.00     0.000 HD 
HETATM   12  N   UNL     1      -9.461   8.269  70.853  1.00  0.00    -0.158 NA 
BRANCH  10  13
HETATM   13  S   UNL     1      -8.541   7.987  73.436  1.00  0.00    -0.254 S  
HETATM   14  O   UNL     1      -9.914   7.423  73.674  1.00  0.00    -0.305 OA 
BRANCH  13  15
HETATM   15  C   UNL     1      -7.298   6.673  73.348  1.00  0.00    -0.080 C  
BRANCH  15  16
HETATM   16  C   UNL     1      -7.794   5.497  72.519  1.00  0.00    -0.103 A  
HETATM   17  N   UNL     1      -7.524   5.595  71.190  1.00  0.00    -0.088 NA 
HETATM   18  C   UNL     1      -7.925   4.588  70.383  1.00  0.00    -0.059 A  
HETATM   19  C   UNL     1      -8.621   3.471  70.814  1.00  0.00    -0.113 A  
HETATM   20  C   UNL     1      -8.899   3.372  72.184  1.00  0.00    -0.094 A  
HETATM   21  C   UNL     1      -9.067   2.431  69.827  1.00  0.00    -0.180 C  
HETATM   22  C   UNL     1      -8.670   4.288  74.555  1.00  0.00    -0.098 C  
HETATM   23  C   UNL     1      -8.455   4.377  73.074  1.00  0.00    -0.098 A  
BRANCH  20  24
HETATM   24  O   UNL     1      -9.478   2.184  72.565  1.00  0.00    -0.079 OA 
HETATM   25  C   UNL     1     -10.828   2.222  73.012  1.00  0.00    -0.130 C  
ENDBRANCH  20  24
ENDBRANCH  15  16
ENDBRANCH  13  15
ENDBRANCH  10  13
ENDBRANCH   2   3
TORSDOF 5
ENDMDL
MODEL      309
REMARK 921   NORMALIZED FREE ENERGY PREDICTED BY IDOCK:   -2.47 KCAL/MOL
REMARK 922        TOTAL FREE ENERGY PREDICTED BY IDOCK:   -3.83 KCAL/MOL
REMARK 923 INTER-LIGAND FREE ENERGY PREDICTED BY IDOCK:   -3.48 KCAL/MOL
REMARK 924 INTRA-LIGAND FREE ENERGY PREDICTED BY IDOCK:   -0.35 KCAL/MOL
REMARK 927      BINDING AFFINITY PREDICTED BY RF-SCORE:    0.00 PKD
ROOT
HETATM    1  C   UNL     1      -6.696   7.829  74.493  1.00  0.00    -0.104 C  
HETATM    2  O   UNL     1      -7.305   8.824  73.679  1.00  0.00    -0.373 OA 
ENDROOT
BRANCH   2   3
HETATM    3  C   UNL     1      -7.212   8.623  72.323  1.00  0.00    -0.001 A  
HETATM    4  C   UNL     1      -7.768   7.534  71.633  1.00  0.00    -0.085 A  
HETATM    5  C   UNL     1      -7.549   7.429  70.247  1.00  0.00    -0.088 A  
HETATM    6  C   UNL     1      -6.791   8.407  69.616  1.00  0.00    -0.044 A  
HETATM    7  C   UNL     1      -6.231   9.505  70.270  1.00  0.00    -0.061 A  
HETATM    8  N   UNL     1      -6.757   8.012  68.307  1.00  0.00    -0.066 NA 
HETATM    9  C   UNL     1      -6.448   9.581  71.649  1.00  0.00     0.158 A  
HETATM   10  C   UNL     1      -7.471   6.850  68.179  1.00  0.00    -0.099 A  
HETATM   11  H   UNL     1      -6.280   8.503  67.551  1.00  0.00     0.000 HD 
HETATM   12  N   UNL     1      -7.963   6.463  69.342  1.00  0.00    -0.108 NA 
BRANCH  10  13
HETATM   13  S   UNL     1      -7.676   6.090  66.626  1.00  0.00    -0.104 S  
HETATM   14  O   UNL     1      -7.414   4.631  66.878  1.00  0.00    -0.083 OA 
BRANCH  13  15
HETATM   15  C   UNL     1      -9.431   6.393  66.295  1.00  0.00    -0.095 C  
BRANCH  15  16
HETATM   16  C   UNL     1      -9.773   7.870  66.428  1.00  0.00    -0.165 A  
HETATM   17  N   UNL     1     -10.562   8.169  67.493  1.00  0.00    -0.246 NA 
HETATM   18  C   UNL     1     -10.907   9.461  67.688  1.00  0.00    -0.154 A  
HETATM   19  C   UNL     1     -10.533  10.503  66.856  1.00  0.00    -0.303 A  
HETATM   20  C   UNL     1      -9.718  10.193  65.757  1.00  0.00    -0.245 A  
HETATM   21  C   UNL     1     -11.012  11.899  67.131  1.00  0.00    -0.319 C  
HETATM   22  C   UNL     1      -8.369   8.488  64.422  1.00  0.00    -0.125 C  
HETATM   23  C   UNL     1      -9.292   8.862  65.543  1.00  0.00    -0.214 A  
BRANCH  20  24
HETATM   24  O   UNL     1      -9.279  11.285  65.047  1.00  0.00    -0.203 OA 
HETATM   25  C   UNL     1      -9.921  11.567  63.809  1.00  0.00    -0.349 C  
ENDBRANCH  20  24
ENDBRANCH  15  16
ENDBRANCH  13  15
ENDBRANCH  10  13
ENDBRANCH   2   3
TORSDOF 5
ENDMDL
MODEL      310
REMARK 921   NORMALIZED FREE ENERGY PREDICTED BY IDOCK:   -2.37 KCAL/MOL
REMARK 922        TOTAL FREE ENERGY PREDICTED BY IDOCK:   -3.70 KCAL/MOL
REMARK 923 INTER-LIGAND FREE ENERGY PREDICTED BY IDOCK:   -3.40 KCAL/MOL
REMARK 924 INTRA-LIGAND FREE ENERGY PREDICTED BY IDOCK:   -0.30 KCAL/MOL
REMARK 927      BINDING AFFINITY PREDICTED BY RF-SCORE:    0.00 PKD
ROOT
HETATM    1  C   UNL     1      -9.361  15.790  69.243  1.00  0.00    -0.261 C  
HETATM    2  O   UNL     1     -10.025  14.695  68.624  1.00  0.00    -0.223 OA 
ENDROOT
BRANCH   2   3
HETATM    3  C   UNL     1      -9.219  13.652  68.236  1.00  0.00    -0.198 A  
HETATM    4  C   UNL     1      -9.621  12.309  68.169  1.00  0.00    -0.213 A  
HETATM    5  C   UNL     1      -8.672  11.336  67.804  1.00  0.00    -0.134 A  
HETATM    6  C   UNL     1      -7.374  11.743  67.524  1.00  0.00    -0.127 A  
HETATM    7  C   UNL     1      -6.943  13.070  67.573  1.00  0.00    -0.155 A  
HETATM    8  N   UNL     1      -6.716  10.583  67.223  1.00  0.00    -0.075 NA 
HETATM    9  C   UNL     1      -7.899  14.017  67.953  1.00  0.00    -0.161 A  
HETATM   10  C   UNL     1      -7.598   9.539  67.321  1.00  0.00    -0.091 A  
HETATM   11  H   UNL     1      -5.731  10.507  66.968  1.00  0.00     0.000 HD 
HETATM   12  N   UNL     1      -8.797   9.960  67.678  1.00  0.00    -0.125 NA 
BRANCH  10  13
HETATM   13  S   UNL     1      -7.102   7.910  66.956  1.00  0.00    -0.080 S  
HETATM   14  O   UNL     1      -6.670   7.338  68.278  1.00  0.00    -0.050 OA 
BRANCH  13  15
HETATM   15  C   UNL     1      -8.657   7.167  66.398  1.00  0.00    -0.134 C  
BRANCH  15  16
HETATM   16  C   UNL     1      -8.404   5.984  65.474  1.00  0.00    -0.146 A  
HETATM   17  N   UNL     1      -7.226   6.042  64.799  1.00  0.00    -0.060 NA 
HETATM   18  C   UNL     1      -6.921   5.026  63.962  1.00  0.00    -0.048 A  
HETATM   19  C   UNL     1      -7.744   3.938  63.722  1.00  0.00    -0.082 A  
HETATM   20  C   UNL     1      -8.959   3.880  64.419  1.00  0.00    -0.128 A  
HETATM   21  C   UNL     1      -7.336   2.885  62.732  1.00  0.00    -0.052 C  
HETATM   22  C   UNL     1     -10.553   4.849  66.161  1.00  0.00    -0.322 C  
HETATM   23  C   UNL     1      -9.297   4.896  65.343  1.00  0.00    -0.147 A  
BRANCH  20  24
HETATM   24  O   UNL     1      -9.669   2.717  64.233  1.00  0.00    -0.150 OA 
HETATM   25  C   UNL     1     -10.743   2.742  63.300  1.00  0.00    -0.231 C  
ENDBRANCH  20  24
ENDBRANCH  15  16
ENDBRANCH  13  15
ENDBRANCH  10  13
ENDBRANCH   2   3
TORSDOF 5
ENDMDL
MODEL      311
REMARK 921   NORMALIZED FREE ENERGY PREDICTED BY IDOCK:   -2.28 KCAL/MOL
REMARK 922        TOTAL FREE ENERGY PREDICTED BY IDOCK:   -3.59 KCAL/MOL
REMARK 923 INTER-LIGAND FREE ENERGY PREDICTED BY IDOCK:   -3.10 KCAL/MOL
REMARK 924 INTRA-LIGAND FREE ENERGY PREDICTED BY IDOCK:   -0.49 KCAL/MOL
REMARK 927      BINDING AFFINITY PREDICTED BY RF-SCORE:    0.00 PKD
ROOT
HETATM    1  C   UNL     1      -6.036   7.847  74.336  1.00  0.00    -0.095 C  
HETATM    2  O   UNL     1      -6.678   8.830  73.533  1.00  0.00    -0.302 OA 
ENDROOT
BRANCH   2   3
HETATM    3  C   UNL     1      -6.584   8.644  72.175  1.00  0.00    -0.068 A  
HETATM    4  C   UNL     1      -6.989   7.486  71.494  1.00  0.00    -0.054 A  
HETATM    5  C   UNL     1      -6.785   7.412  70.103  1.00  0.00    -0.050 A  
HETATM    6  C   UNL     1      -6.192   8.491  69.459  1.00  0.00    -0.036 A  
HETATM    7  C   UNL     1      -5.785   9.660  70.104  1.00  0.00    -0.042 A  
HETATM    8  N   UNL     1      -6.127   8.105  68.149  1.00  0.00    -0.045 NA 
HETATM    9  C   UNL     1      -5.983   9.704  71.488  1.00  0.00     0.006 A  
HETATM   10  C   UNL     1      -6.666   6.850  68.033  1.00  0.00    -0.068 A  
HETATM   11  H   UNL     1      -5.742   8.660  67.384  1.00  0.00     0.000 HD 
HETATM   12  N   UNL     1      -7.072   6.396  69.204  1.00  0.00    -0.081 NA 
BRANCH  10  13
HETATM   13  S   UNL     1      -6.788   6.068  66.482  1.00  0.00    -0.063 S  
HETATM   14  O   UNL     1      -6.802   4.598  66.797  1.00  0.00    -0.053 OA 
BRANCH  13  15
HETATM   15  C   UNL     1      -8.413   6.631  65.912  1.00  0.00    -0.144 C  
BRANCH  15  16
HETATM   16  C   UNL     1      -9.208   7.264  67.045  1.00  0.00    -0.145 A  
HETATM   17  N   UNL     1      -9.080   8.614  67.134  1.00  0.00    -0.131 NA 
HETATM   18  C   UNL     1      -9.759   9.256  68.109  1.00  0.00    -0.150 A  
HETATM   19  C   UNL     1     -10.560   8.626  69.048  1.00  0.00    -0.179 A  
HETATM   20  C   UNL     1     -10.691   7.234  68.955  1.00  0.00    -0.166 A  
HETATM   21  C   UNL     1     -11.233   9.426  70.126  1.00  0.00    -0.253 C  
HETATM   22  C   UNL     1     -10.197   5.046  67.737  1.00  0.00    -0.156 C  
HETATM   23  C   UNL     1     -10.038   6.526  67.920  1.00  0.00    -0.170 A  
BRANCH  20  24
HETATM   24  O   UNL     1     -11.596   6.686  69.833  1.00  0.00    -0.371 OA 
HETATM   25  C   UNL     1     -11.082   6.051  70.999  1.00  0.00    -0.282 C  
ENDBRANCH  20  24
ENDBRANCH  15  16
ENDBRANCH  13  15
ENDBRANCH  10  13
ENDBRANCH   2   3
TORSDOF 5
ENDMDL
MODEL      312
REMARK 921   NORMALIZED FREE ENERGY PREDICTED BY IDOCK:   -2.27 KCAL/MOL
REMARK 922        TOTAL FREE ENERGY PREDICTED BY IDOCK:   -3.57 KCAL/MOL
REMARK 923 INTER-LIGAND FREE ENERGY PREDICTED BY IDOCK:   -3.37 KCAL/MOL
REMARK 924 INTRA-LIGAND FREE ENERGY PREDICTED BY IDOCK:   -0.20 KCAL/MOL
REMARK 927      BINDING AFFINITY PREDICTED BY RF-SCORE:    0.00 PKD
ROOT
HETATM    1  C   UNL     1      -5.127  21.049  70.814  1.00  0.00    -0.148 C  
HETATM    2  O   UNL     1      -6.353  20.366  70.585  1.00  0.00    -0.510 OA 
ENDROOT
BRANCH   2   3
HETATM    3  C   UNL     1      -6.285  19.284  69.742  1.00  0.00    -0.265 A  
HETATM    4  C   UNL     1      -6.656  17.975  70.085  1.00  0.00     0.467 A  
HETATM    5  C   UNL     1      -6.483  16.951  69.135  1.00  0.00    -0.215 A  
HETATM    6  C   UNL     1      -5.952  17.278  67.893  1.00  0.00    -0.126 A  
HETATM    7  C   UNL     1      -5.581  18.569  67.517  1.00  0.00    -0.146 A  
HETATM    8  N   UNL     1      -5.903  16.086  67.226  1.00  0.00    -0.314 NA 
HETATM    9  C   UNL     1      -5.746  19.567  68.483  1.00  0.00    -0.228 A  
HETATM   10  C   UNL     1      -6.390  15.102  68.046  1.00  0.00    -0.146 A  
HETATM   11  H   UNL     1      -5.561  15.951  66.274  1.00  0.00     0.000 HD 
HETATM   12  N   UNL     1      -6.748  15.592  69.218  1.00  0.00    -0.146 NA 
BRANCH  10  13
HETATM   13  S   UNL     1      -6.517  13.456  67.492  1.00  0.00    -0.019 S  
HETATM   14  O   UNL     1      -5.267  12.787  67.994  1.00  0.00    -0.074 OA 
BRANCH  13  15
HETATM   15  C   UNL     1      -7.977  12.875  68.392  1.00  0.00    -0.137 C  
BRANCH  15  16
HETATM   16  C   UNL     1      -8.072  11.356  68.372  1.00  0.00    -0.145 A  
HETATM   17  N   UNL     1      -7.629  10.752  69.506  1.00  0.00    -0.125 NA 
HETATM   18  C   UNL     1      -7.685   9.404  69.573  1.00  0.00    -0.089 A  
HETATM   19  C   UNL     1      -8.137   8.589  68.549  1.00  0.00    -0.122 A  
HETATM   20  C   UNL     1      -8.593   9.213  67.379  1.00  0.00    -0.115 A  
HETATM   21  C   UNL     1      -8.110   7.095  68.703  1.00  0.00    -0.124 C  
HETATM   22  C   UNL     1      -9.136  11.343  66.082  1.00  0.00    -0.217 C  
HETATM   23  C   UNL     1      -8.600  10.624  67.284  1.00  0.00    -0.126 A  
BRANCH  20  24
HETATM   24  O   UNL     1      -9.146   8.359  66.455  1.00  0.00    -0.163 OA 
HETATM   25  C   UNL     1      -8.463   8.198  65.216  1.00  0.00    -0.139 C  
ENDBRANCH  20  24
ENDBRANCH  15  16
ENDBRANCH  13  15
ENDBRANCH  10  13
ENDBRANCH   2   3
TORSDOF 5
ENDMDL
MODEL      313
REMARK 921   NORMALIZED FREE ENERGY PREDICTED BY IDOCK:   -1.96 KCAL/MOL
REMARK 922        TOTAL FREE ENERGY PREDICTED BY IDOCK:   -3.18 KCAL/MOL
REMARK 923 INTER-LIGAND FREE ENERGY PREDICTED BY IDOCK:   -2.79 KCAL/MOL
REMARK 924 INTRA-LIGAND FREE ENERGY PREDICTED BY IDOCK:   -0.39 KCAL/MOL
REMARK 927      BINDING AFFINITY PREDICTED BY RF-SCORE:    0.00 PKD
ROOT
HETATM    1  C   UNL     1      -5.126  21.015  71.965  1.00  0.00     0.068 C  
HETATM    2  O   UNL     1      -6.318  20.258  71.797  1.00  0.00    -0.520 OA 
ENDROOT
BRANCH   2   3
HETATM    3  C   UNL     1      -6.321  19.376  70.743  1.00  0.00     0.178 A  
HETATM    4  C   UNL     1      -6.495  17.988  70.859  1.00  0.00     1.654 A  
HETATM    5  C   UNL     1      -6.422  17.198  69.697  1.00  0.00    -0.170 A  
HETATM    6  C   UNL     1      -6.182  17.823  68.480  1.00  0.00    -0.184 A  
HETATM    7  C   UNL     1      -6.012  19.200  68.329  1.00  0.00    -0.228 A  
HETATM    8  N   UNL     1      -6.158  16.799  67.575  1.00  0.00    -0.140 NA 
HETATM    9  C   UNL     1      -6.072  19.963  69.499  1.00  0.00    -0.357 A  
HETATM   10  C   UNL     1      -6.380  15.620  68.239  1.00  0.00    -0.114 A  
HETATM   11  H   UNL     1      -6.002  16.895  66.572  1.00  0.00     0.000 HD 
HETATM   12  N   UNL     1      -6.540  15.825  69.533  1.00  0.00    -0.174 NA 
BRANCH  10  13
HETATM   13  S   UNL     1      -6.464  14.109  67.378  1.00  0.00     0.324 S  
HETATM   14  O   UNL     1      -5.158  13.427  67.677  1.00  0.00    -0.243 OA 
BRANCH  13  15
HETATM   15  C   UNL     1      -7.842  13.284  68.215  1.00  0.00    -0.143 C  
BRANCH  15  16
HETATM   16  C   UNL     1      -9.157  13.526  67.487  1.00  0.00    -0.214 A  
HETATM   17  N   UNL     1      -9.739  14.723  67.765  1.00  0.00    -0.212 NA 
HETATM   18  C   UNL     1     -10.907  15.020  67.155  1.00  0.00    -0.314 A  
HETATM   19  C   UNL     1     -11.570  14.173  66.282  1.00  0.00    -0.379 A  
HETATM   20  C   UNL     1     -10.969  12.939  65.996  1.00  0.00    -0.276 A  
HETATM   21  C   UNL     1     -12.892  14.577  65.695  1.00  0.00    -0.109 C  
HETATM   22  C   UNL     1      -9.005  11.329  66.251  1.00  0.00    -0.204 C  
HETATM   23  C   UNL     1      -9.721  12.607  66.574  1.00  0.00    -0.256 A  
BRANCH  20  24
HETATM   24  O   UNL     1     -11.610  12.202  65.029  1.00  0.00    -0.330 OA 
HETATM   25  C   UNL     1     -11.067  12.228  63.713  1.00  0.00    -0.442 C  
ENDBRANCH  20  24
ENDBRANCH  15  16
ENDBRANCH  13  15
ENDBRANCH  10  13
ENDBRANCH   2   3
TORSDOF 5
ENDMDL
MODEL      314
REMARK 921   NORMALIZED FREE ENERGY PREDICTED BY IDOCK:   -1.24 KCAL/MOL
REMARK 922        TOTAL FREE ENERGY PREDICTED BY IDOCK:   -2.24 KCAL/MOL
REMARK 923 INTER-LIGAND FREE ENERGY PREDICTED BY IDOCK:   -1.84 KCAL/MOL
REMARK 924 INTRA-LIGAND FREE ENERGY PREDICTED BY IDOCK:   -0.40 KCAL/MOL
REMARK 927      BINDING AFFINITY PREDICTED BY RF-SCORE:    0.00 PKD
ROOT
HETATM    1  C   UNL     1      -5.448  17.518  72.163  1.00  0.00     1.189 C  
HETATM    2  O   UNL     1      -5.132  16.260  71.578  1.00  0.00    -0.242 OA 
ENDROOT
BRANCH   2   3
HETATM    3  C   UNL     1      -5.975  15.840  70.578  1.00  0.00     0.036 A  
HETATM    4  C   UNL     1      -6.312  14.502  70.323  1.00  0.00    -0.170 A  
HETATM    5  C   UNL     1      -7.148  14.211  69.229  1.00  0.00    -0.079 A  
HETATM    6  C   UNL     1      -7.608  15.262  68.444  1.00  0.00    -0.116 A  
HETATM    7  C   UNL     1      -7.298  16.603  68.675  1.00  0.00    -0.203 A  
HETATM    8  N   UNL     1      -8.366  14.656  67.482  1.00  0.00    -0.176 NA 
HETATM    9  C   UNL     1      -6.453  16.866  69.757  1.00  0.00    -0.101 A  
HETATM   10  C   UNL     1      -8.352  13.303  67.699  1.00  0.00    -0.181 A  
HETATM   11  H   UNL     1      -8.861  15.132  66.727  1.00  0.00     0.000 HD 
HETATM   12  N   UNL     1      -7.616  12.996  68.751  1.00  0.00    -0.076 NA 
BRANCH  10  13
HETATM   13  S   UNL     1      -9.261  12.223  66.680  1.00  0.00    -0.199 S  
HETATM   14  O   UNL     1      -9.366  12.939  65.362  1.00  0.00     0.114 OA 
BRANCH  13  15
HETATM   15  C   UNL     1      -8.149  10.798  66.565  1.00  0.00    -0.146 C  
BRANCH  15  16
HETATM   16  C   UNL     1      -8.777   9.555  67.179  1.00  0.00    -0.132 A  
HETATM   17  N   UNL     1      -8.954   9.622  68.525  1.00  0.00    -0.123 NA 
HETATM   18  C   UNL     1      -9.512   8.561  69.148  1.00  0.00    -0.154 A  
HETATM   19  C   UNL     1      -9.892   7.392  68.510  1.00  0.00    -0.164 A  
HETATM   20  C   UNL     1      -9.709   7.324  67.122  1.00  0.00    -0.168 A  
HETATM   21  C   UNL     1     -10.457   6.248  69.302  1.00  0.00    -0.298 C  
HETATM   22  C   UNL     1      -9.018   8.433  64.930  1.00  0.00     0.128 C  
HETATM   23  C   UNL     1      -9.174   8.430  66.421  1.00  0.00    -0.253 A  
BRANCH  20  24
HETATM   24  O   UNL     1     -10.222   6.192  66.534  1.00  0.00    -0.173 OA 
HETATM   25  C   UNL     1      -9.313   5.144  66.217  1.00  0.00    -0.151 C  
ENDBRANCH  20  24
ENDBRANCH  15  16
ENDBRANCH  13  15
ENDBRANCH  10  13
ENDBRANCH   2   3
TORSDOF 5
ENDMDL
MODEL      315
REMARK 921   NORMALIZED FREE ENERGY PREDICTED BY IDOCK:   -1.04 KCAL/MOL
REMARK 922        TOTAL FREE ENERGY PREDICTED BY IDOCK:   -1.98 KCAL/MOL
REMARK 923 INTER-LIGAND FREE ENERGY PREDICTED BY IDOCK:   -1.80 KCAL/MOL
REMARK 924 INTRA-LIGAND FREE ENERGY PREDICTED BY IDOCK:   -0.18 KCAL/MOL
REMARK 927      BINDING AFFINITY PREDICTED BY RF-SCORE:    0.00 PKD
ROOT
HETATM    1  C   UNL     1      -5.339  21.061  71.006  1.00  0.00     0.071 C  
HETATM    2  O   UNL     1      -6.614  20.455  70.832  1.00  0.00    -0.456 OA 
ENDROOT
BRANCH   2   3
HETATM    3  C   UNL     1      -6.698  19.524  69.825  1.00  0.00    -0.229 A  
HETATM    4  C   UNL     1      -7.160  18.208  69.985  1.00  0.00     0.828 A  
HETATM    5  C   UNL     1      -7.143  17.345  68.874  1.00  0.00    -0.251 A  
HETATM    6  C   UNL     1      -6.669  17.830  67.661  1.00  0.00    -0.183 A  
HETATM    7  C   UNL     1      -6.211  19.133  67.466  1.00  0.00    -0.205 A  
HETATM    8  N   UNL     1      -6.771  16.764  66.811  1.00  0.00    -0.215 NA 
HETATM    9  C   UNL     1      -6.222  19.968  68.587  1.00  0.00    -0.319 A  
HETATM   10  C   UNL     1      -7.288  15.698  67.501  1.00  0.00    -0.185 A  
HETATM   11  H   UNL     1      -6.507  16.762  65.826  1.00  0.00     0.000 HD 
HETATM   12  N   UNL     1      -7.521  16.015  68.762  1.00  0.00    -0.164 NA 
BRANCH  10  13
HETATM   13  S   UNL     1      -7.597  14.181  66.706  1.00  0.00     1.045 S  
HETATM   14  O   UNL     1      -6.386  13.340  67.003  1.00  0.00    -0.141 OA 
BRANCH  13  15
HETATM   15  C   UNL     1      -9.048  13.580  67.608  1.00  0.00    -0.205 C  
BRANCH  15  16
HETATM   16  C   UNL     1      -9.245  12.084  67.407  1.00  0.00    -0.180 A  
HETATM   17  N   UNL     1      -9.898  11.753  66.262  1.00  0.00    -0.215 NA 
HETATM   18  C   UNL     1     -10.108  10.444  66.004  1.00  0.00    -0.243 A  
HETATM   19  C   UNL     1      -9.726   9.411  66.844  1.00  0.00    -0.242 A  
HETATM   20  C   UNL     1      -9.052   9.754  68.025  1.00  0.00    -0.125 A  
HETATM   21  C   UNL     1     -10.052   7.989  66.490  1.00  0.00    -0.270 C  
HETATM   22  C   UNL     1      -7.993  11.524  69.528  1.00  0.00     0.511 C  
HETATM   23  C   UNL     1      -8.767  11.109  68.312  1.00  0.00    -0.151 A  
BRANCH  20  24
HETATM   24  O   UNL     1      -8.589   8.681  68.750  1.00  0.00    -0.128 OA 
HETATM   25  C   UNL     1      -9.028   8.558  70.098  1.00  0.00    -0.147 C  
ENDBRANCH  20  24
ENDBRANCH  15  16
ENDBRANCH  13  15
ENDBRANCH  10  13
ENDBRANCH   2   3
TORSDOF 5
ENDMDL
MODEL      316
REMARK 921   NORMALIZED FREE ENERGY PREDICTED BY IDOCK:   -0.98 KCAL/MOL
REMARK 922        TOTAL FREE ENERGY PREDICTED BY IDOCK:   -1.90 KCAL/MOL
REMARK 923 INTER-LIGAND FREE ENERGY PREDICTED BY IDOCK:   -1.69 KCAL/MOL
REMARK 924 INTRA-LIGAND FREE ENERGY PREDICTED BY IDOCK:   -0.21 KCAL/MOL
REMARK 927      BINDING AFFINITY PREDICTED BY RF-SCORE:    0.00 PKD
ROOT
HETATM    1  C   UNL     1     -10.336  16.341  69.229  1.00  0.00    -0.277 C  
HETATM    2  O   UNL     1      -9.694  16.011  68.004  1.00  0.00    -0.215 OA 
ENDROOT
BRANCH   2   3
HETATM    3  C   UNL     1      -9.168  14.744  67.929  1.00  0.00    -0.191 A  
HETATM    4  C   UNL     1      -8.439  14.116  68.951  1.00  0.00     0.002 A  
HETATM    5  C   UNL     1      -7.913  12.832  68.717  1.00  0.00     0.069 A  
HETATM    6  C   UNL     1      -8.137  12.235  67.482  1.00  0.00    -0.170 A  
HETATM    7  C   UNL     1      -8.864  12.828  66.449  1.00  0.00     0.035 A  
HETATM    8  N   UNL     1      -7.499  11.030  67.572  1.00  0.00    -0.098 NA 
HETATM    9  C   UNL     1      -9.363  14.109  66.698  1.00  0.00    -0.299 A  
HETATM   10  C   UNL     1      -6.927  10.926  68.812  1.00  0.00    -0.078 A  
HETATM   11  H   UNL     1      -7.456  10.324  66.836  1.00  0.00     0.000 HD 
HETATM   12  N   UNL     1      -7.154  12.008  69.534  1.00  0.00     0.076 NA 
BRANCH  10  13
HETATM   13  S   UNL     1      -6.069   9.486  69.286  1.00  0.00    -0.037 S  
HETATM   14  O   UNL     1      -5.198   9.921  70.432  1.00  0.00    -0.038 OA 
BRANCH  13  15
HETATM   15  C   UNL     1      -7.419   8.422  69.855  1.00  0.00    -0.064 C  
BRANCH  15  16
HETATM   16  C   UNL     1      -7.037   6.951  69.772  1.00  0.00    -0.068 A  
HETATM   17  N   UNL     1      -7.202   6.397  68.541  1.00  0.00    -0.083 NA 
HETATM   18  C   UNL     1      -6.879   5.096  68.379  1.00  0.00    -0.056 A  
HETATM   19  C   UNL     1      -6.416   4.274  69.394  1.00  0.00    -0.033 A  
HETATM   20  C   UNL     1      -6.246   4.846  70.663  1.00  0.00    -0.019 A  
HETATM   21  C   UNL     1      -6.134   2.824  69.123  1.00  0.00    -0.025 C  
HETATM   22  C   UNL     1      -6.299   6.893  72.186  1.00  0.00    -0.045 C  
HETATM   23  C   UNL     1      -6.524   6.218  70.866  1.00  0.00    -0.048 A  
BRANCH  20  24
HETATM   24  O   UNL     1      -5.665   4.015  71.590  1.00  0.00    -0.008 OA 
HETATM   25  C   UNL     1      -6.428   3.680  72.745  1.00  0.00    -0.021 C  
ENDBRANCH  20  24
ENDBRANCH  15  16
ENDBRANCH  13  15
ENDBRANCH  10  13
ENDBRANCH   2   3
TORSDOF 5
ENDMDL
MODEL      317
REMARK 921   NORMALIZED FREE ENERGY PREDICTED BY IDOCK:   -0.84 KCAL/MOL
REMARK 922        TOTAL FREE ENERGY PREDICTED BY IDOCK:   -1.73 KCAL/MOL
REMARK 923 INTER-LIGAND FREE ENERGY PREDICTED BY IDOCK:   -1.70 KCAL/MOL
REMARK 924 INTRA-LIGAND FREE ENERGY PREDICTED BY IDOCK:   -0.03 KCAL/MOL
REMARK 927      BINDING AFFINITY PREDICTED BY RF-SCORE:    0.00 PKD
ROOT
HETATM    1  C   UNL     1      -6.190  13.886  72.307  1.00  0.00     1.044 C  
HETATM    2  O   UNL     1      -5.129  13.112  71.761  1.00  0.00    -0.157 OA 
ENDROOT
BRANCH   2   3
HETATM    3  C   UNL     1      -5.510  12.036  70.996  1.00  0.00    -0.077 A  
HETATM    4  C   UNL     1      -5.376  10.692  71.378  1.00  0.00    -0.025 A  
HETATM    5  C   UNL     1      -5.761   9.688  70.470  1.00  0.00    -0.052 A  
HETATM    6  C   UNL     1      -6.259  10.068  69.229  1.00  0.00    -0.044 A  
HETATM    7  C   UNL     1      -6.412  11.394  68.821  1.00  0.00    -0.056 A  
HETATM    8  N   UNL     1      -6.520   8.885  68.597  1.00  0.00    -0.053 NA 
HETATM    9  C   UNL     1      -6.008  12.373  69.733  1.00  0.00    -0.136 A  
HETATM   10  C   UNL     1      -6.191   7.854  69.437  1.00  0.00    -0.034 A  
HETATM   11  H   UNL     1      -6.899   8.785  67.655  1.00  0.00     0.000 HD 
HETATM   12  N   UNL     1      -5.720   8.307  70.585  1.00  0.00    -0.028 NA 
BRANCH  10  13
HETATM   13  S   UNL     1      -6.443   6.197  68.966  1.00  0.00    -0.044 S  
HETATM   14  O   UNL     1      -6.151   5.398  70.206  1.00  0.00    -0.020 OA 
BRANCH  13  15
HETATM   15  C   UNL     1      -8.213   6.188  68.582  1.00  0.00    -0.108 C  
BRANCH  15  16
HETATM   16  C   UNL     1      -9.052   6.030  69.843  1.00  0.00    -0.141 A  
HETATM   17  N   UNL     1      -9.090   4.764  70.337  1.00  0.00    -0.114 NA 
HETATM   18  C   UNL     1      -9.807   4.539  71.459  1.00  0.00    -0.190 A  
HETATM   19  C   UNL     1     -10.534   5.509  72.129  1.00  0.00    -0.272 A  
HETATM   20  C   UNL     1     -10.495   6.814  71.619  1.00  0.00    -0.209 A  
HETATM   21  C   UNL     1     -11.343   5.145  73.341  1.00  0.00    -0.297 C  
HETATM   22  C   UNL     1      -9.588   8.496  69.927  1.00  0.00    -0.171 C  
HETATM   23  C   UNL     1      -9.716   7.106  70.475  1.00  0.00    -0.176 A  
BRANCH  20  24
HETATM   24  O   UNL     1     -11.130   7.751  72.399  1.00  0.00    -0.271 OA 
HETATM   25  C   UNL     1     -12.553   7.757  72.393  1.00  0.00    -0.070 C  
ENDBRANCH  20  24
ENDBRANCH  15  16
ENDBRANCH  13  15
ENDBRANCH  10  13
ENDBRANCH   2   3
TORSDOF 5
ENDMDL
MODEL      318
REMARK 921   NORMALIZED FREE ENERGY PREDICTED BY IDOCK:   -0.71 KCAL/MOL
REMARK 922        TOTAL FREE ENERGY PREDICTED BY IDOCK:   -1.56 KCAL/MOL
REMARK 923 INTER-LIGAND FREE ENERGY PREDICTED BY IDOCK:   -3.01 KCAL/MOL
REMARK 924 INTRA-LIGAND FREE ENERGY PREDICTED BY IDOCK:    1.45 KCAL/MOL
REMARK 927      BINDING AFFINITY PREDICTED BY RF-SCORE:    0.00 PKD
ROOT
HETATM    1  C   UNL     1     -13.096  11.711  62.936  1.00  0.00     1.001 C  
HETATM    2  O   UNL     1     -13.248  12.121  64.289  1.00  0.00    -0.768 OA 
ENDROOT
BRANCH   2   3
HETATM    3  C   UNL     1     -12.098  12.525  64.922  1.00  0.00    -0.440 A  
HETATM    4  C   UNL     1     -11.200  11.669  65.578  1.00  0.00    -0.267 A  
HETATM    5  C   UNL     1     -10.085  12.228  66.231  1.00  0.00    -0.234 A  
HETATM    6  C   UNL     1      -9.918  13.607  66.199  1.00  0.00    -0.306 A  
HETATM    7  C   UNL     1     -10.786  14.485  65.550  1.00  0.00    -0.350 A  
HETATM    8  N   UNL     1      -8.776  13.822  66.919  1.00  0.00    -0.383 NA 
HETATM    9  C   UNL     1     -11.894  13.909  64.922  1.00  0.00    -0.401 A  
HETATM   10  C   UNL     1      -8.294  12.615  67.352  1.00  0.00    -0.184 A  
HETATM   11  H   UNL     1      -8.352  14.732  67.104  1.00  0.00     0.000 HD 
HETATM   12  N   UNL     1      -9.070  11.623  66.956  1.00  0.00    -0.174 NA 
BRANCH  10  13
HETATM   13  S   UNL     1      -6.815  12.515  68.264  1.00  0.00    -0.093 S  
HETATM   14  O   UNL     1      -5.772  13.125  67.369  1.00  0.00    -0.315 OA 
BRANCH  13  15
HETATM   15  C   UNL     1      -7.177  13.591  69.675  1.00  0.00     0.379 C  
BRANCH  15  16
HETATM   16  C   UNL     1      -7.986  14.808  69.250  1.00  0.00    -0.103 A  
HETATM   17  N   UNL     1      -7.255  15.785  68.650  1.00  0.00    -0.129 NA 
HETATM   18  C   UNL     1      -7.899  16.898  68.234  1.00  0.00    -0.208 A  
HETATM   19  C   UNL     1      -9.254  17.126  68.405  1.00  0.00    -0.266 A  
HETATM   20  C   UNL     1     -10.007  16.118  69.025  1.00  0.00    -0.242 A  
HETATM   21  C   UNL     1      -9.866  18.421  67.954  1.00  0.00    -0.348 C  
HETATM   22  C   UNL     1     -10.153  13.781  70.039  1.00  0.00     1.447 C  
HETATM   23  C   UNL     1      -9.384  14.915  69.430  1.00  0.00    -0.054 A  
BRANCH  20  24
HETATM   24  O   UNL     1     -11.361  16.350  69.049  1.00  0.00    -0.317 OA 
HETATM   25  C   UNL     1     -12.082  15.928  70.202  1.00  0.00    -0.255 C  
ENDBRANCH  20  24
ENDBRANCH  15  16
ENDBRANCH  13  15
ENDBRANCH  10  13
ENDBRANCH   2   3
TORSDOF 5
ENDMDL
MODEL      319
REMARK 921   NORMALIZED FREE ENERGY PREDICTED BY IDOCK:   -0.69 KCAL/MOL
REMARK 922        TOTAL FREE ENERGY PREDICTED BY IDOCK:   -1.53 KCAL/MOL
REMARK 923 INTER-LIGAND FREE ENERGY PREDICTED BY IDOCK:   -1.75 KCAL/MOL
REMARK 924 INTRA-LIGAND FREE ENERGY PREDICTED BY IDOCK:    0.22 KCAL/MOL
REMARK 927      BINDING AFFINITY PREDICTED BY RF-SCORE:    0.00 PKD
ROOT
HETATM    1  C   UNL     1     -10.271  11.280  63.388  1.00  0.00    -0.403 C  
HETATM    2  O   UNL     1     -11.504  11.969  63.559  1.00  0.00    -0.425 OA 
ENDROOT
BRANCH   2   3
HETATM    3  C   UNL     1     -11.424  13.185  64.193  1.00  0.00    -0.403 A  
HETATM    4  C   UNL     1     -10.233  13.887  64.434  1.00  0.00     0.067 A  
HETATM    5  C   UNL     1     -10.295  15.101  65.145  1.00  0.00    -0.385 A  
HETATM    6  C   UNL     1     -11.534  15.556  65.579  1.00  0.00    -0.001 A  
HETATM    7  C   UNL     1     -12.737  14.887  65.349  1.00  0.00     0.219 A  
HETATM    8  N   UNL     1     -11.252  16.724  66.230  1.00  0.00     0.355 NA 
HETATM    9  C   UNL     1     -12.649  13.676  64.656  1.00  0.00    -0.289 A  
HETATM   10  C   UNL     1      -9.901  16.944  66.176  1.00  0.00    -0.297 A  
HETATM   11  H   UNL     1     -11.935  17.332  66.682  1.00  0.00     0.000 HD 
HETATM   12  N   UNL     1      -9.286  15.972  65.526  1.00  0.00    -0.355 NA 
BRANCH  10  13
HETATM   13  S   UNL     1      -9.197  18.377  66.869  1.00  0.00    -0.295 S  
HETATM   14  O   UNL     1     -10.218  19.456  66.633  1.00  0.00    -0.365 OA 
BRANCH  13  15
HETATM   15  C   UNL     1      -9.107  17.933  68.623  1.00  0.00    -0.257 C  
BRANCH  15  16
HETATM   16  C   UNL     1      -9.042  16.424  68.809  1.00  0.00    -0.244 A  
HETATM   17  N   UNL     1     -10.150  15.880  69.378  1.00  0.00    -0.250 NA 
HETATM   18  C   UNL     1     -10.176  14.544  69.572  1.00  0.00     0.040 A  
HETATM   19  C   UNL     1      -9.134  13.688  69.256  1.00  0.00     0.664 A  
HETATM   20  C   UNL     1      -7.991  14.250  68.670  1.00  0.00    -0.139 A  
HETATM   21  C   UNL     1      -9.241  12.221  69.561  1.00  0.00     1.474 C  
HETATM   22  C   UNL     1      -6.768  16.278  67.719  1.00  0.00    -0.162 C  
HETATM   23  C   UNL     1      -7.940  15.637  68.402  1.00  0.00    -0.136 A  
BRANCH  20  24
HETATM   24  O   UNL     1      -7.049  13.334  68.265  1.00  0.00    -0.087 OA 
HETATM   25  C   UNL     1      -5.783  13.361  68.915  1.00  0.00    -0.074 C  
ENDBRANCH  20  24
ENDBRANCH  15  16
ENDBRANCH  13  15
ENDBRANCH  10  13
ENDBRANCH   2   3
TORSDOF 5
ENDMDL
MODEL      320
REMARK 921   NORMALIZED FREE ENERGY PREDICTED BY IDOCK:   -0.55 KCAL/MOL
REMARK 922        TOTAL FREE ENERGY PREDICTED BY IDOCK:   -1.35 KCAL/MOL
REMARK 923 INTER-LIGAND FREE ENERGY PREDICTED BY IDOCK:   -0.77 KCAL/MOL
REMARK 924 INTRA-LIGAND FREE ENERGY PREDICTED BY IDOCK:   -0.58 KCAL/MOL
REMARK 927      BINDING AFFINITY PREDICTED BY RF-SCORE:    0.00 PKD
ROOT
HETATM    1  C   UNL     1      -6.259  13.854  72.325  1.00  0.00     1.044 C  
HETATM    2  O   UNL     1      -5.156  13.090  71.852  1.00  0.00    -0.225 OA 
ENDROOT
BRANCH   2   3
HETATM    3  C   UNL     1      -5.472  12.013  71.060  1.00  0.00    -0.077 A  
HETATM    4  C   UNL     1      -5.388  10.670  71.461  1.00  0.00     0.017 A  
HETATM    5  C   UNL     1      -5.695   9.664  70.526  1.00  0.00    -0.052 A  
HETATM    6  C   UNL     1      -6.070  10.040  69.242  1.00  0.00    -0.040 A  
HETATM    7  C   UNL     1      -6.172  11.364  68.814  1.00  0.00    -0.050 A  
HETATM    8  N   UNL     1      -6.282   8.855  68.594  1.00  0.00    -0.045 NA 
HETATM    9  C   UNL     1      -5.847  12.346  69.755  1.00  0.00    -0.123 A  
HETATM   10  C   UNL     1      -6.042   7.827  69.468  1.00  0.00    -0.033 A  
HETATM   11  H   UNL     1      -6.570   8.753  67.621  1.00  0.00     0.000 HD 
HETATM   12  N   UNL     1      -5.677   8.283  70.652  1.00  0.00    -0.028 NA 
BRANCH  10  13
HETATM   13  S   UNL     1      -6.264   6.169  68.984  1.00  0.00    -0.038 S  
HETATM   14  O   UNL     1      -6.186   5.384  70.264  1.00  0.00    -0.021 OA 
BRANCH  13  15
HETATM   15  C   UNL     1      -7.955   6.197  68.335  1.00  0.00    -0.108 C  
BRANCH  15  16
HETATM   16  C   UNL     1      -7.963   6.326  66.818  1.00  0.00    -0.108 A  
HETATM   17  N   UNL     1      -7.747   7.588  66.361  1.00  0.00    -0.088 NA 
HETATM   18  C   UNL     1      -7.732   7.788  65.025  1.00  0.00    -0.107 A  
HETATM   19  C   UNL     1      -7.951   6.795  64.085  1.00  0.00    -0.085 A  
HETATM   20  C   UNL     1      -8.175   5.495  64.557  1.00  0.00    -0.129 A  
HETATM   21  C   UNL     1      -7.965   7.131  62.621  1.00  0.00    -0.117 C  
HETATM   22  C   UNL     1      -8.318   3.846  66.500  1.00  0.00    -0.104 C  
HETATM   23  C   UNL     1      -8.149   5.229  65.946  1.00  0.00    -0.110 A  
BRANCH  20  24
HETATM   24  O   UNL     1      -8.258   4.537  63.574  1.00  0.00    -0.092 OA 
HETATM   25  C   UNL     1      -7.065   3.838  63.232  1.00  0.00    -0.049 C  
ENDBRANCH  20  24
ENDBRANCH  15  16
ENDBRANCH  13  15
ENDBRANCH  10  13
ENDBRANCH   2   3
TORSDOF 5
ENDMDL
MODEL      321
REMARK 921   NORMALIZED FREE ENERGY PREDICTED BY IDOCK:   -0.38 KCAL/MOL
REMARK 922        TOTAL FREE ENERGY PREDICTED BY IDOCK:   -1.13 KCAL/MOL
REMARK 923 INTER-LIGAND FREE ENERGY PREDICTED BY IDOCK:   -1.12 KCAL/MOL
REMARK 924 INTRA-LIGAND FREE ENERGY PREDICTED BY IDOCK:   -0.01 KCAL/MOL
REMARK 927      BINDING AFFINITY PREDICTED BY RF-SCORE:    0.00 PKD
ROOT
HETATM    1  C   UNL     1      -6.210  13.926  72.870  1.00  0.00     1.214 C  
HETATM    2  O   UNL     1      -5.147  13.235  72.225  1.00  0.00    -0.248 OA 
ENDROOT
BRANCH   2   3
HETATM    3  C   UNL     1      -5.512  12.422  71.179  1.00  0.00    -0.071 A  
HETATM    4  C   UNL     1      -5.853  12.873  69.894  1.00  0.00    -0.132 A  
HETATM    5  C   UNL     1      -6.258  11.929  68.932  1.00  0.00    -0.064 A  
HETATM    6  C   UNL     1      -6.305  10.588  69.292  1.00  0.00    -0.051 A  
HETATM    7  C   UNL     1      -5.965  10.107  70.557  1.00  0.00    -0.099 A  
HETATM    8  N   UNL     1      -6.739   9.953  68.162  1.00  0.00    -0.060 NA 
HETATM    9  C   UNL     1      -5.581  11.063  71.501  1.00  0.00     0.234 A  
HETATM   10  C   UNL     1      -6.936  10.887  67.179  1.00  0.00    -0.098 A  
HETATM   11  H   UNL     1      -6.892   8.949  68.067  1.00  0.00     0.000 HD 
HETATM   12  N   UNL     1      -6.658  12.102  67.615  1.00  0.00    -0.101 NA 
BRANCH  10  13
HETATM   13  S   UNL     1      -7.447  10.415  65.584  1.00  0.00    -0.133 S  
HETATM   14  O   UNL     1      -6.464   9.357  65.165  1.00  0.00    -0.071 OA 
BRANCH  13  15
HETATM   15  C   UNL     1      -9.078   9.700  65.914  1.00  0.00    -0.178 C  
BRANCH  15  16
HETATM   16  C   UNL     1      -8.983   8.203  66.175  1.00  0.00    -0.178 A  
HETATM   17  N   UNL     1      -8.642   7.465  65.086  1.00  0.00    -0.019 NA 
HETATM   18  C   UNL     1      -8.529   6.127  65.233  1.00  0.00    -0.120 A  
HETATM   19  C   UNL     1      -8.767   5.449  66.417  1.00  0.00    -0.121 A  
HETATM   20  C   UNL     1      -9.120   6.212  67.540  1.00  0.00    -0.109 A  
HETATM   21  C   UNL     1      -8.666   3.951  66.464  1.00  0.00    -0.115 C  
HETATM   22  C   UNL     1      -9.510   8.487  68.628  1.00  0.00    -0.144 C  
HETATM   23  C   UNL     1      -9.200   7.620  67.444  1.00  0.00    -0.150 A  
BRANCH  20  24
HETATM   24  O   UNL     1      -9.217   5.495  68.709  1.00  0.00    -0.119 OA 
HETATM   25  C   UNL     1     -10.520   5.252  69.226  1.00  0.00    -0.185 C  
ENDBRANCH  20  24
ENDBRANCH  15  16
ENDBRANCH  13  15
ENDBRANCH  10  13
ENDBRANCH   2   3
TORSDOF 5
ENDMDL
MODEL      322
REMARK 921   NORMALIZED FREE ENERGY PREDICTED BY IDOCK:   -0.24 KCAL/MOL
REMARK 922        TOTAL FREE ENERGY PREDICTED BY IDOCK:   -0.95 KCAL/MOL
REMARK 923 INTER-LIGAND FREE ENERGY PREDICTED BY IDOCK:   -0.49 KCAL/MOL
REMARK 924 INTRA-LIGAND FREE ENERGY PREDICTED BY IDOCK:   -0.47 KCAL/MOL
REMARK 927      BINDING AFFINITY PREDICTED BY RF-SCORE:    0.00 PKD
ROOT
HETATM    1  C   UNL     1      -9.281  11.389  70.079  1.00  0.00     2.051 C  
HETATM    2  O   UNL     1      -8.224  10.502  69.733  1.00  0.00    -0.101 OA 
ENDROOT
BRANCH   2   3
HETATM    3  C   UNL     1      -8.384   9.815  68.554  1.00  0.00    -0.110 A  
HETATM    4  C   UNL     1      -7.471   8.882  68.039  1.00  0.00    -0.092 A  
HETATM    5  C   UNL     1      -7.740   8.291  66.790  1.00  0.00    -0.094 A  
HETATM    6  C   UNL     1      -8.899   8.655  66.116  1.00  0.00    -0.171 A  
HETATM    7  C   UNL     1      -9.831   9.572  66.604  1.00  0.00    -0.293 A  
HETATM    8  N   UNL     1      -8.856   7.929  64.959  1.00  0.00    -0.381 NA 
HETATM    9  C   UNL     1      -9.536  10.158  67.838  1.00  0.00    -0.154 A  
HETATM   10  C   UNL     1      -7.716   7.168  64.959  1.00  0.00    -0.115 A  
HETATM   11  H   UNL     1      -9.557   7.949  64.218  1.00  0.00     0.000 HD 
HETATM   12  N   UNL     1      -7.010   7.367  66.056  1.00  0.00    -0.060 NA 
BRANCH  10  13
HETATM   13  S   UNL     1      -7.367   6.078  63.647  1.00  0.00    -0.072 S  
HETATM   14  O   UNL     1      -5.902   5.767  63.789  1.00  0.00    -0.020 OA 
BRANCH  13  15
HETATM   15  C   UNL     1      -8.386   4.644  64.076  1.00  0.00    -0.120 C  
BRANCH  15  16
HETATM   16  C   UNL     1      -7.846   3.930  65.307  1.00  0.00    -0.089 A  
HETATM   17  N   UNL     1      -6.743   3.169  65.077  1.00  0.00    -0.040 NA 
HETATM   18  C   UNL     1      -6.197   2.507  66.120  1.00  0.00    -0.024 A  
HETATM   19  C   UNL     1      -6.702   2.527  67.409  1.00  0.00    -0.040 A  
HETATM   20  C   UNL     1      -7.840   3.311  67.645  1.00  0.00    -0.076 A  
HETATM   21  C   UNL     1      -6.050   1.713  68.489  1.00  0.00    -0.024 C  
HETATM   22  C   UNL     1      -9.594   4.966  66.808  1.00  0.00    -0.170 C  
HETATM   23  C   UNL     1      -8.416   4.061  66.594  1.00  0.00    -0.104 A  
BRANCH  20  24
HETATM   24  O   UNL     1      -8.215   3.390  68.966  1.00  0.00    -0.060 OA 
HETATM   25  C   UNL     1      -9.207   2.478  69.424  1.00  0.00    -0.125 C  
ENDBRANCH  20  24
ENDBRANCH  15  16
ENDBRANCH  13  15
ENDBRANCH  10  13
ENDBRANCH   2   3
TORSDOF 5
ENDMDL
MODEL      323
REMARK 921   NORMALIZED FREE ENERGY PREDICTED BY IDOCK:    0.09 KCAL/MOL
REMARK 922        TOTAL FREE ENERGY PREDICTED BY IDOCK:   -0.52 KCAL/MOL
REMARK 923 INTER-LIGAND FREE ENERGY PREDICTED BY IDOCK:   -0.57 KCAL/MOL
REMARK 924 INTRA-LIGAND FREE ENERGY PREDICTED BY IDOCK:    0.05 KCAL/MOL
REMARK 927      BINDING AFFINITY PREDICTED BY RF-SCORE:    0.00 PKD
ROOT
HETATM    1  C   UNL     1      -6.370  14.248  73.869  1.00  0.00     1.044 C  
HETATM    2  O   UNL     1      -5.184  13.853  73.190  1.00  0.00    -0.257 OA 
ENDROOT
BRANCH   2   3
HETATM    3  C   UNL     1      -5.364  13.017  72.115  1.00  0.00     0.118 A  
HETATM    4  C   UNL     1      -5.730  13.434  70.826  1.00  0.00    -0.184 A  
HETATM    5  C   UNL     1      -5.930  12.460  69.830  1.00  0.00    -0.146 A  
HETATM    6  C   UNL     1      -5.757  11.122  70.163  1.00  0.00    -0.110 A  
HETATM    7  C   UNL     1      -5.386  10.674  71.432  1.00  0.00    -0.025 A  
HETATM    8  N   UNL     1      -6.033  10.450  69.005  1.00  0.00    -0.040 NA 
HETATM    9  C   UNL     1      -5.208  11.658  72.409  1.00  0.00     0.461 A  
HETATM   10  C   UNL     1      -6.352  11.362  68.033  1.00  0.00    -0.053 A  
HETATM   11  H   UNL     1      -6.006   9.438  68.885  1.00  0.00     0.000 HD 
HETATM   12  N   UNL     1      -6.304  12.595  68.502  1.00  0.00    -0.065 NA 
BRANCH  10  13
HETATM   13  S   UNL     1      -6.714  10.850  66.409  1.00  0.00    -0.123 S  
HETATM   14  O   UNL     1      -5.692   9.788  66.107  1.00  0.00    -0.054 OA 
BRANCH  13  15
HETATM   15  C   UNL     1      -8.365  10.132  66.607  1.00  0.00    -0.123 C  
BRANCH  15  16
HETATM   16  C   UNL     1      -8.289   8.636  66.876  1.00  0.00    -0.108 A  
HETATM   17  N   UNL     1      -8.264   8.304  68.194  1.00  0.00    -0.127 NA 
HETATM   18  C   UNL     1      -8.204   6.994  68.521  1.00  0.00    -0.124 A  
HETATM   19  C   UNL     1      -8.137   5.962  67.600  1.00  0.00    -0.102 A  
HETATM   20  C   UNL     1      -8.161   6.306  66.241  1.00  0.00    -0.117 A  
HETATM   21  C   UNL     1      -8.020   4.539  68.066  1.00  0.00    -0.084 C  
HETATM   22  C   UNL     1      -8.369   8.077  64.415  1.00  0.00    -0.026 C  
HETATM   23  C   UNL     1      -8.274   7.661  65.853  1.00  0.00    -0.133 A  
BRANCH  20  24
HETATM   24  O   UNL     1      -8.220   5.234  65.382  1.00  0.00    -0.115 OA 
HETATM   25  C   UNL     1      -7.645   5.392  64.090  1.00  0.00    -0.076 C  
ENDBRANCH  20  24
ENDBRANCH  15  16
ENDBRANCH  13  15
ENDBRANCH  10  13
ENDBRANCH   2   3
TORSDOF 5
ENDMDL
MODEL      324
REMARK 921   NORMALIZED FREE ENERGY PREDICTED BY IDOCK:    0.63 KCAL/MOL
REMARK 922        TOTAL FREE ENERGY PREDICTED BY IDOCK:    0.18 KCAL/MOL
REMARK 923 INTER-LIGAND FREE ENERGY PREDICTED BY IDOCK:    0.52 KCAL/MOL
REMARK 924 INTRA-LIGAND FREE ENERGY PREDICTED BY IDOCK:   -0.35 KCAL/MOL
REMARK 927      BINDING AFFINITY PREDICTED BY RF-SCORE:    0.00 PKD
ROOT
HETATM    1  C   UNL     1      -6.369  17.751  68.794  1.00  0.00    -0.212 C  
HETATM    2  O   UNL     1      -5.630  16.751  68.103  1.00  0.00    -0.111 OA 
ENDROOT
BRANCH   2   3
HETATM    3  C   UNL     1      -6.208  15.506  68.061  1.00  0.00    -0.140 A  
HETATM    4  C   UNL     1      -6.249  14.603  69.135  1.00  0.00    -0.105 A  
HETATM    5  C   UNL     1      -6.830  13.337  68.933  1.00  0.00    -0.103 A  
HETATM    6  C   UNL     1      -7.341  13.031  67.678  1.00  0.00    -0.147 A  
HETATM    7  C   UNL     1      -7.324  13.908  66.592  1.00  0.00     1.406 A  
HETATM    8  N   UNL     1      -7.810  11.754  67.809  1.00  0.00    -0.127 NA 
HETATM    9  C   UNL     1      -6.728  15.153  66.811  1.00  0.00     1.037 A  
HETATM   10  C   UNL     1      -7.583  11.332  69.093  1.00  0.00    -0.070 A  
HETATM   11  H   UNL     1      -8.255  11.205  67.073  1.00  0.00     0.000 HD 
HETATM   12  N   UNL     1      -6.984  12.269  69.804  1.00  0.00     0.210 NA 
BRANCH  10  13
HETATM   13  S   UNL     1      -8.102   9.757  69.623  1.00  0.00    -0.170 S  
HETATM   14  O   UNL     1      -9.179  10.031  70.636  1.00  0.00     0.053 OA 
BRANCH  13  15
HETATM   15  C   UNL     1      -8.797   9.064  68.100  1.00  0.00    -0.133 C  
BRANCH  15  16
HETATM   16  C   UNL     1      -8.097   7.769  67.712  1.00  0.00    -0.125 A  
HETATM   17  N   UNL     1      -7.794   6.960  68.761  1.00  0.00    -0.116 NA 
HETATM   18  C   UNL     1      -7.178   5.786  68.503  1.00  0.00    -0.082 A  
HETATM   19  C   UNL     1      -6.806   5.361  67.238  1.00  0.00    -0.060 A  
HETATM   20  C   UNL     1      -7.119   6.197  66.157  1.00  0.00    -0.067 A  
HETATM   21  C   UNL     1      -6.077   4.060  67.062  1.00  0.00    -0.028 C  
HETATM   22  C   UNL     1      -8.223   8.311  65.249  1.00  0.00    -0.149 C  
HETATM   23  C   UNL     1      -7.808   7.412  66.375  1.00  0.00    -0.102 A  
BRANCH  20  24
HETATM   24  O   UNL     1      -6.839   5.661  64.922  1.00  0.00    -0.049 OA 
HETATM   25  C   UNL     1      -7.872   4.928  64.272  1.00  0.00    -0.088 C  
ENDBRANCH  20  24
ENDBRANCH  15  16
ENDBRANCH  13  15
ENDBRANCH  10  13
ENDBRANCH   2   3
TORSDOF 5
ENDMDL
MODEL      325
REMARK 921   NORMALIZED FREE ENERGY PREDICTED BY IDOCK:    3.73 KCAL/MOL
REMARK 922        TOTAL FREE ENERGY PREDICTED BY IDOCK:    4.18 KCAL/MOL
REMARK 923 INTER-LIGAND FREE ENERGY PREDICTED BY IDOCK:    4.02 KCAL/MOL
REMARK 924 INTRA-LIGAND FREE ENERGY PREDICTED BY IDOCK:    0.17 KCAL/MOL
REMARK 927      BINDING AFFINITY PREDICTED BY RF-SCORE:    0.00 PKD
ROOT
HETATM    1  C   UNL     1     -10.336  16.341  69.229  1.00  0.00    -0.277 C  
HETATM    2  O   UNL     1      -9.697  16.004  68.004  1.00  0.00    -0.215 OA 
ENDROOT
BRANCH   2   3
HETATM    3  C   UNL     1      -9.162  14.740  67.939  1.00  0.00    -0.191 A  
HETATM    4  C   UNL     1      -8.424  14.127  68.963  1.00  0.00     0.093 A  
HETATM    5  C   UNL     1      -7.890  12.845  68.738  1.00  0.00     0.040 A  
HETATM    6  C   UNL     1      -8.115  12.235  67.510  1.00  0.00    -0.170 A  
HETATM    7  C   UNL     1      -8.851  12.813  66.474  1.00  0.00    -0.046 A  
HETATM    8  N   UNL     1      -7.468  11.035  67.608  1.00  0.00    -0.094 NA 
HETATM    9  C   UNL     1      -9.358  14.094  66.714  1.00  0.00    -0.295 A  
HETATM   10  C   UNL     1      -6.890  10.946  68.847  1.00  0.00    -0.076 A  
HETATM   11  H   UNL     1      -7.423  10.323  66.879  1.00  0.00     0.000 HD 
HETATM   12  N   UNL     1      -7.122  12.033  69.560  1.00  0.00     0.076 NA 
BRANCH  10  13
HETATM   13  S   UNL     1      -6.020   9.518  69.330  1.00  0.00    -0.034 S  
HETATM   14  O   UNL     1      -5.148   9.969  70.469  1.00  0.00    -0.032 OA 
BRANCH  13  15
HETATM   15  C   UNL     1      -7.360   8.449  69.914  1.00  0.00    -0.060 C  
BRANCH  15  16
HETATM   16  C   UNL     1      -8.533   8.451  68.944  1.00  0.00    -0.124 A  
HETATM   17  N   UNL     1      -9.386   9.499  69.097  1.00  0.00    -0.156 NA 
HETATM   18  C   UNL     1     -10.450   9.579  68.269  1.00  0.00    -0.223 A  
HETATM   19  C   UNL     1     -10.751   8.647  67.290  1.00  0.00    -0.209 A  
HETATM   20  C   UNL     1      -9.871   7.567  67.134  1.00  0.00    -0.201 A  
HETATM   21  C   UNL     1     -11.990   8.801  66.455  1.00  0.00     6.523 C  
HETATM   22  C   UNL     1      -7.711   6.369  67.775  1.00  0.00    -0.103 C  
HETATM   23  C   UNL     1      -8.717   7.469  67.944  1.00  0.00    -0.124 A  
BRANCH  20  24
HETATM   24  O   UNL     1     -10.155   6.750  66.065  1.00  0.00     0.180 OA 
HETATM   25  C   UNL     1     -10.475   5.391  66.342  1.00  0.00    -0.267 C  
ENDBRANCH  20  24
ENDBRANCH  15  16
ENDBRANCH  13  15
ENDBRANCH  10  13
ENDBRANCH   2   3
TORSDOF 5
ENDMDL
MODEL      326
REMARK 921   NORMALIZED FREE ENERGY PREDICTED BY IDOCK:    5.23 KCAL/MOL
REMARK 922        TOTAL FREE ENERGY PREDICTED BY IDOCK:    6.12 KCAL/MOL
REMARK 923 INTER-LIGAND FREE ENERGY PREDICTED BY IDOCK:    5.89 KCAL/MOL
REMARK 924 INTRA-LIGAND FREE ENERGY PREDICTED BY IDOCK:    0.23 KCAL/MOL
REMARK 927      BINDING AFFINITY PREDICTED BY RF-SCORE:    0.00 PKD
ROOT
HETATM    1  C   UNL     1     -11.859  13.801  72.332  1.00  0.00     1.376 C  
HETATM    2  O   UNL     1     -11.927  14.355  71.024  1.00  0.00    -0.325 OA 
ENDROOT
BRANCH   2   3
HETATM    3  C   UNL     1     -11.891  13.451  69.990  1.00  0.00    -0.294 A  
HETATM    4  C   UNL     1     -11.252  12.202  70.039  1.00  0.00     0.129 A  
HETATM    5  C   UNL     1     -11.251  11.397  68.884  1.00  0.00    -0.248 A  
HETATM    6  C   UNL     1     -11.883  11.871  67.741  1.00  0.00    -0.219 A  
HETATM    7  C   UNL     1     -12.534  13.103  67.662  1.00  0.00     0.323 A  
HETATM    8  N   UNL     1     -11.694  10.880  66.819  1.00  0.00    -0.019 NA 
HETATM    9  C   UNL     1     -12.508  13.892  68.816  1.00  0.00     0.173 A  
HETATM   10  C   UNL     1     -10.981   9.866  67.402  1.00  0.00    -0.145 A  
HETATM   11  H   UNL     1     -12.028  10.894  65.855  1.00  0.00     0.000 HD 
HETATM   12  N   UNL     1     -10.690  10.149  68.658  1.00  0.00    -0.211 NA 
BRANCH  10  13
HETATM   13  S   UNL     1     -10.601   8.414  66.519  1.00  0.00     0.433 S  
HETATM   14  O   UNL     1     -11.394   8.524  65.245  1.00  0.00     5.802 OA 
BRANCH  13  15
HETATM   15  C   UNL     1      -8.829   8.623  66.208  1.00  0.00    -0.157 C  
BRANCH  15  16
HETATM   16  C   UNL     1      -8.031   8.570  67.503  1.00  0.00    -0.106 A  
HETATM   17  N   UNL     1      -8.441   7.612  68.376  1.00  0.00    -0.125 NA 
HETATM   18  C   UNL     1      -7.780   7.493  69.548  1.00  0.00    -0.104 A  
HETATM   19  C   UNL     1      -6.725   8.302  69.935  1.00  0.00    -0.043 A  
HETATM   20  C   UNL     1      -6.303   9.290  69.035  1.00  0.00    -0.043 A  
HETATM   21  C   UNL     1      -6.090   8.122  71.284  1.00  0.00    -0.035 C  
HETATM   22  C   UNL     1      -6.480  10.415  66.750  1.00  0.00    -0.076 C  
HETATM   23  C   UNL     1      -6.934   9.419  67.775  1.00  0.00    -0.080 A  
BRANCH  20  24
HETATM   24  O   UNL     1      -5.175   9.973  69.424  1.00  0.00    -0.035 OA 
HETATM   25  C   UNL     1      -5.250  10.742  70.619  1.00  0.00    -0.086 C  
ENDBRANCH  20  24
ENDBRANCH  15  16
ENDBRANCH  13  15
ENDBRANCH  10  13
ENDBRANCH   2   3
TORSDOF 5
ENDMDL
MODEL      327
REMARK 921   NORMALIZED FREE ENERGY PREDICTED BY IDOCK:   13.83 KCAL/MOL
REMARK 922        TOTAL FREE ENERGY PREDICTED BY IDOCK:   17.23 KCAL/MOL
REMARK 923 INTER-LIGAND FREE ENERGY PREDICTED BY IDOCK:    3.96 KCAL/MOL
REMARK 924 INTRA-LIGAND FREE ENERGY PREDICTED BY IDOCK:   13.27 KCAL/MOL
REMARK 927      BINDING AFFINITY PREDICTED BY RF-SCORE:    0.00 PKD
ROOT
HETATM    1  C   UNL     1     -13.607   7.730  70.166  1.00  0.00     2.344 C  
HETATM    2  O   UNL     1     -12.303   8.294  70.243  1.00  0.00     0.344 OA 
ENDROOT
BRANCH   2   3
HETATM    3  C   UNL     1     -12.165   9.550  69.705  1.00  0.00     0.769 A  
HETATM    4  C   UNL     1     -12.494  10.746  70.362  1.00  0.00    -0.430 A  
HETATM    5  C   UNL     1     -12.349  11.961  69.668  1.00  0.00    -0.048 A  
HETATM    6  C   UNL     1     -11.885  11.930  68.359  1.00  0.00    -0.289 A  
HETATM    7  C   UNL     1     -11.542  10.760  67.679  1.00  0.00    -0.087 A  
HETATM    8  N   UNL     1     -11.871  13.242  67.976  1.00  0.00    -0.357 NA 
HETATM    9  C   UNL     1     -11.709   9.564  68.383  1.00  0.00     0.951 A  
HETATM   10  C   UNL     1     -12.308  14.010  69.024  1.00  0.00    -0.104 A  
HETATM   11  H   UNL     1     -11.584  13.592  67.062  1.00  0.00     0.000 HD 
HETATM   12  N   UNL     1     -12.612  13.263  70.069  1.00  0.00    -0.078 NA 
BRANCH  10  13
HETATM   13  S   UNL     1     -12.371  15.745  68.897  1.00  0.00     0.478 S  
HETATM   14  O   UNL     1     -12.794  16.213  70.263  1.00  0.00    -0.118 OA 
BRANCH  13  15
HETATM   15  C   UNL     1     -10.637  16.156  68.572  1.00  0.00    -0.284 C  
BRANCH  15  16
HETATM   16  C   UNL     1      -9.731  14.956  68.810  1.00  0.00    -0.225 A  
HETATM   17  N   UNL     1     -10.391  13.785  69.007  1.00  0.00    -0.133 NA 
HETATM   18  C   UNL     1      -9.660  12.669  69.218  1.00  0.00     0.816 A  
HETATM   19  C   UNL     1      -8.276  12.641  69.276  1.00  0.00     0.757 A  
HETATM   20  C   UNL     1      -7.596  13.850  69.073  1.00  0.00    -0.002 A  
HETATM   21  C   UNL     1      -7.558  11.355  69.569  1.00  0.00     0.200 C  
HETATM   22  C   UNL     1      -7.639  16.339  68.511  1.00  0.00    -0.179 C  
HETATM   23  C   UNL     1      -8.319  15.034  68.799  1.00  0.00    -0.174 A  
BRANCH  20  24
HETATM   24  O   UNL     1      -6.228  13.732  69.017  1.00  0.00    -0.085 OA 
HETATM   25  C   UNL     1      -5.620  12.717  69.809  1.00  0.00    -0.101 C  
ENDBRANCH  20  24
ENDBRANCH  15  16
ENDBRANCH  13  15
ENDBRANCH  10  13
ENDBRANCH   2   3
TORSDOF 5
ENDMDL
MODEL      328
REMARK 921   NORMALIZED FREE ENERGY PREDICTED BY IDOCK:   28.61 KCAL/MOL
REMARK 922        TOTAL FREE ENERGY PREDICTED BY IDOCK:   36.33 KCAL/MOL
REMARK 923 INTER-LIGAND FREE ENERGY PREDICTED BY IDOCK:   36.62 KCAL/MOL
REMARK 924 INTRA-LIGAND FREE ENERGY PREDICTED BY IDOCK:   -0.29 KCAL/MOL
REMARK 927      BINDING AFFINITY PREDICTED BY RF-SCORE:    0.00 PKD
ROOT
HETATM    1  C   UNL     1      -6.369  17.298  64.604  1.00  0.00     3.870 C  
HETATM    2  O   UNL     1      -5.226  16.451  64.616  1.00  0.00     4.296 OA 
ENDROOT
BRANCH   2   3
HETATM    3  C   UNL     1      -5.248  15.435  65.540  1.00  0.00     7.793 A  
HETATM    4  C   UNL     1      -5.306  15.616  66.931  1.00  0.00     0.793 A  
HETATM    5  C   UNL     1      -5.269  14.482  67.763  1.00  0.00     0.016 A  
HETATM    6  C   UNL     1      -5.177  13.227  67.175  1.00  0.00     0.487 A  
HETATM    7  C   UNL     1      -5.126  13.011  65.797  1.00  0.00     4.809 A  
HETATM    8  N   UNL     1      -5.150  12.362  68.233  1.00  0.00    -0.055 NA 
HETATM    9  C   UNL     1      -5.148  14.153  64.991  1.00  0.00    14.604 A  
HETATM   10  C   UNL     1      -5.227  13.085  69.395  1.00  0.00    -0.075 A  
HETATM   11  H   UNL     1      -5.084  11.346  68.169  1.00  0.00     0.000 HD 
HETATM   12  N   UNL     1      -5.295  14.380  69.146  1.00  0.00    -0.081 NA 
BRANCH  10  13
HETATM   13  S   UNL     1      -5.266  12.291  70.944  1.00  0.00    -0.149 S  
HETATM   14  O   UNL     1      -5.408  13.408  71.941  1.00  0.00    -0.273 OA 
BRANCH  13  15
HETATM   15  C   UNL     1      -6.791  11.322  70.824  1.00  0.00     1.460 C  
BRANCH  15  16
HETATM   16  C   UNL     1      -6.730  10.335  69.667  1.00  0.00    -0.085 A  
HETATM   17  N   UNL     1      -5.647   9.514  69.687  1.00  0.00    -0.033 NA 
HETATM   18  C   UNL     1      -5.520   8.602  68.699  1.00  0.00    -0.037 A  
HETATM   19  C   UNL     1      -6.408   8.464  67.645  1.00  0.00    -0.053 A  
HETATM   20  C   UNL     1      -7.524   9.312  67.625  1.00  0.00    -0.088 A  
HETATM   21  C   UNL     1      -6.149   7.452  66.566  1.00  0.00    -0.040 C  
HETATM   22  C   UNL     1      -8.934  11.132  68.727  1.00  0.00    -0.136 C  
HETATM   23  C   UNL     1      -7.724  10.247  68.666  1.00  0.00    -0.094 A  
BRANCH  20  24
HETATM   24  O   UNL     1      -8.430   9.039  66.627  1.00  0.00    -0.119 OA 
HETATM   25  C   UNL     1      -9.435   8.068  66.897  1.00  0.00    -0.191 C  
ENDBRANCH  20  24
ENDBRANCH  15  16
ENDBRANCH  13  15
ENDBRANCH  10  13
ENDBRANCH   2   3
TORSDOF 5
ENDMDL
MODEL      329
REMARK 921   NORMALIZED FREE ENERGY PREDICTED BY IDOCK:   29.11 KCAL/MOL
REMARK 922        TOTAL FREE ENERGY PREDICTED BY IDOCK:   36.98 KCAL/MOL
REMARK 923 INTER-LIGAND FREE ENERGY PREDICTED BY IDOCK:   37.35 KCAL/MOL
REMARK 924 INTRA-LIGAND FREE ENERGY PREDICTED BY IDOCK:   -0.37 KCAL/MOL
REMARK 927      BINDING AFFINITY PREDICTED BY RF-SCORE:    0.00 PKD
ROOT
HETATM    1  C   UNL     1      -6.369  17.298  64.604  1.00  0.00     3.870 C  
HETATM    2  O   UNL     1      -5.235  16.439  64.619  1.00  0.00     4.296 OA 
ENDROOT
BRANCH   2   3
HETATM    3  C   UNL     1      -5.271  15.423  65.543  1.00  0.00     7.793 A  
HETATM    4  C   UNL     1      -5.332  15.604  66.934  1.00  0.00     0.793 A  
HETATM    5  C   UNL     1      -5.310  14.469  67.766  1.00  0.00     0.005 A  
HETATM    6  C   UNL     1      -5.229  13.213  67.177  1.00  0.00     0.407 A  
HETATM    7  C   UNL     1      -5.174  12.998  65.800  1.00  0.00     5.036 A  
HETATM    8  N   UNL     1      -5.214  12.348  68.235  1.00  0.00    -0.055 NA 
HETATM    9  C   UNL     1      -5.182  14.140  64.993  1.00  0.00    15.095 A  
HETATM   10  C   UNL     1      -5.288  13.071  69.397  1.00  0.00    -0.077 A  
HETATM   11  H   UNL     1      -5.159  11.331  68.171  1.00  0.00     0.000 HD 
HETATM   12  N   UNL     1      -5.342  14.367  69.148  1.00  0.00    -0.081 NA 
BRANCH  10  13
HETATM   13  S   UNL     1      -5.341  12.277  70.945  1.00  0.00    -0.133 S  
HETATM   14  O   UNL     1      -5.475  13.394  71.943  1.00  0.00    -0.336 OA 
BRANCH  13  15
HETATM   15  C   UNL     1      -6.875  11.324  70.819  1.00  0.00     1.460 C  
BRANCH  15  16
HETATM   16  C   UNL     1      -6.612   9.830  70.950  1.00  0.00    -0.045 A  
HETATM   17  N   UNL     1      -5.701   9.503  71.905  1.00  0.00    -0.200 NA 
HETATM   18  C   UNL     1      -5.414   8.196  72.090  1.00  0.00    -0.037 A  
HETATM   19  C   UNL     1      -5.965   7.163  71.351  1.00  0.00    -0.037 A  
HETATM   20  C   UNL     1      -6.904   7.502  70.366  1.00  0.00    -0.047 A  
HETATM   21  C   UNL     1      -5.540   5.745  71.601  1.00  0.00    -0.021 C  
HETATM   22  C   UNL     1      -8.317   9.262  69.177  1.00  0.00    -0.127 C  
HETATM   23  C   UNL     1      -7.272   8.853  70.171  1.00  0.00    -0.057 A  
BRANCH  20  24
HETATM   24  O   UNL     1      -7.506   6.426  69.758  1.00  0.00    -0.081 OA 
HETATM   25  C   UNL     1      -6.973   5.990  68.513  1.00  0.00    -0.076 C  
ENDBRANCH  20  24
ENDBRANCH  15  16
ENDBRANCH  13  15
ENDBRANCH  10  13
ENDBRANCH   2   3
TORSDOF 5
ENDMDL
