MODEL        1
REMARK 921   NORMALIZED FREE ENERGY PREDICTED BY IDOCK:   -7.98 KCAL/MOL
REMARK 922        TOTAL FREE ENERGY PREDICTED BY IDOCK:   -8.57 KCAL/MOL
REMARK 923 INTER-LIGAND FREE ENERGY PREDICTED BY IDOCK:   -8.44 KCAL/MOL
REMARK 924 INTRA-LIGAND FREE ENERGY PREDICTED BY IDOCK:   -0.13 KCAL/MOL
REMARK 927      BINDING AFFINITY PREDICTED BY RF-SCORE:    0.00 PKD
ROOT
HETATM    1  C   UNL     1     -12.780   7.150  71.245  1.00  0.00    -0.412 C  
HETATM    2  C   UNL     1     -11.286   7.331  71.599  1.00  0.00    -0.275 C  
HETATM    3  C   UNL     1     -11.011   8.713  72.161  1.00  0.00    -0.434 C  
HETATM    4  C   UNL     1     -11.260   9.764  71.091  1.00  0.00    -0.444 C  
HETATM    5  C   UNL     1     -10.458   9.510  69.803  1.00  0.00    -0.253 C  
HETATM    6  C   UNL     1     -10.477   8.027  69.277  1.00  0.00    -0.221 C  
HETATM    7  C   UNL     1      -9.333   7.965  68.240  1.00  0.00    -0.145 C  
HETATM    8  C   UNL     1     -10.308   7.027  70.444  1.00  0.00    -0.219 C  
HETATM    9  C   UNL     1     -10.494   5.504  70.261  1.00  0.00    -0.365 C  
HETATM   10  C   UNL     1      -9.556   8.940  67.063  1.00  0.00    -0.232 C  
HETATM   11  C   UNL     1     -10.570   4.959  71.712  1.00  0.00    -0.164 C  
HETATM   12  C   UNL     1     -10.349  10.196  67.373  1.00  0.00    -0.289 A  
HETATM   13  C   UNL     1     -10.863   6.205  72.513  1.00  0.00    -0.240 C  
HETATM   14  C   UNL     1     -10.809  10.468  68.673  1.00  0.00    -0.276 A  
HETATM   15  C   UNL     1     -11.538  11.648  68.901  1.00  0.00    -0.377 A  
HETATM   16  O   UNL     1     -10.743   6.292  73.729  1.00  0.00    -0.262 OA 
HETATM   17  C   UNL     1     -11.828  12.530  67.868  1.00  0.00    -0.383 A  
HETATM   18  C   UNL     1     -11.387  12.258  66.578  1.00  0.00    -0.351 A  
HETATM   19  C   UNL     1     -10.638  11.101  66.332  1.00  0.00    -0.315 A  
ENDROOT
BRANCH  18  20
HETATM   20  O   UNL     1     -11.667  13.224  65.652  1.00  0.00    -0.329 OA 
HETATM   21  S   UNL     1     -12.139  12.843  64.145  1.00  0.00    -0.452 S  
HETATM   22  O   UNL     1     -13.303  11.970  64.203  1.00  0.00    -0.725 OA 
HETATM   23  O   UNL     1     -12.646  14.274  63.593  1.00  0.00    -0.831 OA 
HETATM   24  O   UNL     1     -10.974  12.519  63.360  1.00  0.00    -0.452 OA 
ENDBRANCH  18  20
TORSDOF 1
ENDMDL
MODEL        2
REMARK 921   NORMALIZED FREE ENERGY PREDICTED BY IDOCK:   -7.51 KCAL/MOL
REMARK 922        TOTAL FREE ENERGY PREDICTED BY IDOCK:   -8.08 KCAL/MOL
REMARK 923 INTER-LIGAND FREE ENERGY PREDICTED BY IDOCK:   -7.96 KCAL/MOL
REMARK 924 INTRA-LIGAND FREE ENERGY PREDICTED BY IDOCK:   -0.13 KCAL/MOL
REMARK 927      BINDING AFFINITY PREDICTED BY RF-SCORE:    0.00 PKD
ROOT
HETATM    1  C   UNL     1      -5.135  18.299  67.851  1.00  0.00    -0.157 C  
HETATM    2  C   UNL     1      -6.194  18.786  68.868  1.00  0.00    -0.250 C  
HETATM    3  C   UNL     1      -6.734  17.639  69.700  1.00  0.00    -0.015 C  
HETATM    4  C   UNL     1      -7.502  16.674  68.811  1.00  0.00    -0.224 C  
HETATM    5  C   UNL     1      -8.618  17.360  68.005  1.00  0.00    -0.240 C  
HETATM    6  C   UNL     1      -8.214  18.709  67.304  1.00  0.00    -0.261 C  
HETATM    7  C   UNL     1      -9.557  19.360  66.903  1.00  0.00    -0.419 C  
HETATM    8  C   UNL     1      -7.360  19.585  68.250  1.00  0.00    -0.346 C  
HETATM    9  C   UNL     1      -6.648  20.870  67.769  1.00  0.00    -0.392 C  
HETATM   10  C   UNL     1     -10.363  18.482  65.920  1.00  0.00    -0.344 C  
HETATM   11  C   UNL     1      -5.668  21.210  68.924  1.00  0.00    -0.252 C  
HETATM   12  C   UNL     1     -10.147  16.984  66.028  1.00  0.00    -0.318 A  
HETATM   13  C   UNL     1      -5.601  19.908  69.687  1.00  0.00    -0.250 C  
HETATM   14  C   UNL     1      -9.296  16.435  67.002  1.00  0.00    -0.241 A  
HETATM   15  C   UNL     1      -9.137  15.040  67.055  1.00  0.00    -0.249 A  
HETATM   16  O   UNL     1      -5.155  19.793  70.823  1.00  0.00    -0.190 OA 
HETATM   17  C   UNL     1      -9.783  14.204  66.154  1.00  0.00    -0.310 A  
HETATM   18  C   UNL     1     -10.615  14.743  65.180  1.00  0.00    -0.417 A  
HETATM   19  C   UNL     1     -10.808  16.129  65.124  1.00  0.00    -0.376 A  
ENDROOT
BRANCH  18  20
HETATM   20  O   UNL     1     -11.254  13.829  64.390  1.00  0.00    -0.376 OA 
HETATM   21  S   UNL     1     -12.510  12.959  64.943  1.00  0.00    -0.454 S  
HETATM   22  O   UNL     1     -13.536  13.855  65.458  1.00  0.00    -0.657 OA 
HETATM   23  O   UNL     1     -13.085  12.314  63.578  1.00  0.00    -0.766 OA 
HETATM   24  O   UNL     1     -12.005  11.848  65.711  1.00  0.00    -0.451 OA 
ENDBRANCH  18  20
TORSDOF 1
ENDMDL
MODEL        3
REMARK 921   NORMALIZED FREE ENERGY PREDICTED BY IDOCK:   -7.34 KCAL/MOL
REMARK 922        TOTAL FREE ENERGY PREDICTED BY IDOCK:   -7.89 KCAL/MOL
REMARK 923 INTER-LIGAND FREE ENERGY PREDICTED BY IDOCK:   -8.06 KCAL/MOL
REMARK 924 INTRA-LIGAND FREE ENERGY PREDICTED BY IDOCK:    0.17 KCAL/MOL
REMARK 927      BINDING AFFINITY PREDICTED BY RF-SCORE:    0.00 PKD
ROOT
HETATM    1  C   UNL     1      -8.428  11.585  66.429  1.00  0.00    -0.138 C  
HETATM    2  C   UNL     1      -9.864  11.311  65.925  1.00  0.00    -0.272 C  
HETATM    3  C   UNL     1     -10.527  12.578  65.417  1.00  0.00    -0.308 C  
HETATM    4  C   UNL     1     -10.725  13.552  66.567  1.00  0.00    -0.287 C  
HETATM    5  C   UNL     1     -11.506  12.941  67.743  1.00  0.00    -0.369 C  
HETATM    6  C   UNL     1     -11.048  11.501  68.183  1.00  0.00    -0.303 C  
HETATM    7  C   UNL     1     -12.191  10.984  69.084  1.00  0.00    -0.229 C  
HETATM    8  C   UNL     1     -10.782  10.609  66.948  1.00  0.00    -0.297 C  
HETATM    9  C   UNL     1     -10.125   9.214  67.062  1.00  0.00    -0.316 C  
HETATM   10  C   UNL     1     -12.399  11.870  70.332  1.00  0.00    -0.334 C  
HETATM   11  C   UNL     1      -9.753   8.854  65.599  1.00  0.00    -0.107 C  
HETATM   12  C   UNL     1     -12.036  13.336  70.183  1.00  0.00    -0.403 A  
HETATM   13  C   UNL     1      -9.818  10.196  64.908  1.00  0.00    -0.319 C  
HETATM   14  C   UNL     1     -11.583  13.856  68.959  1.00  0.00    -0.351 A  
HETATM   15  C   UNL     1     -11.263  15.222  68.879  1.00  0.00    -0.291 A  
HETATM   16  O   UNL     1      -9.857  10.348  63.692  1.00  0.00    -0.310 OA 
HETATM   17  C   UNL     1     -11.366  16.054  69.987  1.00  0.00    -0.353 A  
HETATM   18  C   UNL     1     -11.800  15.541  71.203  1.00  0.00    -0.387 A  
HETATM   19  C   UNL     1     -12.147  14.188  71.299  1.00  0.00    -0.363 A  
ENDROOT
BRANCH  18  20
HETATM   20  O   UNL     1     -11.929  16.459  72.208  1.00  0.00    -0.524 OA 
HETATM   21  S   UNL     1     -12.763  16.124  73.561  1.00  0.00    -0.544 S  
HETATM   22  O   UNL     1     -12.240  14.909  74.170  1.00  0.00    -0.546 OA 
HETATM   23  O   UNL     1     -12.338  17.354  74.518  1.00  0.00    -0.390 OA 
HETATM   24  O   UNL     1     -14.169  16.307  73.300  1.00  0.00    -0.319 OA 
ENDBRANCH  18  20
TORSDOF 1
ENDMDL
MODEL        4
REMARK 921   NORMALIZED FREE ENERGY PREDICTED BY IDOCK:   -7.25 KCAL/MOL
REMARK 922        TOTAL FREE ENERGY PREDICTED BY IDOCK:   -7.80 KCAL/MOL
REMARK 923 INTER-LIGAND FREE ENERGY PREDICTED BY IDOCK:   -7.99 KCAL/MOL
REMARK 924 INTRA-LIGAND FREE ENERGY PREDICTED BY IDOCK:    0.18 KCAL/MOL
REMARK 927      BINDING AFFINITY PREDICTED BY RF-SCORE:    0.00 PKD
ROOT
HETATM    1  C   UNL     1     -12.573   7.233  71.299  1.00  0.00    -0.402 C  
HETATM    2  C   UNL     1     -11.035   7.350  71.402  1.00  0.00    -0.258 C  
HETATM    3  C   UNL     1     -10.618   8.678  72.006  1.00  0.00    -0.421 C  
HETATM    4  C   UNL     1     -11.006   9.813  71.072  1.00  0.00    -0.402 C  
HETATM    5  C   UNL     1     -10.445   9.640  69.651  1.00  0.00    -0.246 C  
HETATM    6  C   UNL     1     -10.608   8.203  69.031  1.00  0.00    -0.167 C  
HETATM    7  C   UNL     1      -9.661   8.193  67.810  1.00  0.00    -0.180 C  
HETATM    8  C   UNL     1     -10.281   7.112  70.077  1.00  0.00    -0.205 C  
HETATM    9  C   UNL     1     -10.551   5.612  69.820  1.00  0.00    -0.400 C  
HETATM   10  C   UNL     1     -10.044   9.261  66.762  1.00  0.00    -0.331 C  
HETATM   11  C   UNL     1     -10.399   4.959  71.220  1.00  0.00    -0.219 C  
HETATM   12  C   UNL     1     -10.726  10.508  67.294  1.00  0.00    -0.333 A  
HETATM   13  C   UNL     1     -10.505   6.147  72.146  1.00  0.00    -0.202 C  
HETATM   14  C   UNL     1     -10.948  10.691  68.670  1.00  0.00    -0.291 A  
HETATM   15  C   UNL     1     -11.583  11.867  69.104  1.00  0.00    -0.373 A  
HETATM   16  O   UNL     1     -10.176   6.137  73.327  1.00  0.00    -0.185 OA 
HETATM   17  C   UNL     1     -12.011  12.832  68.202  1.00  0.00    -0.295 A  
HETATM   18  C   UNL     1     -11.807  12.650  66.841  1.00  0.00    -0.355 A  
HETATM   19  C   UNL     1     -11.154  11.497  66.387  1.00  0.00    -0.328 A  
ENDROOT
BRANCH  18  20
HETATM   20  O   UNL     1     -12.205  13.690  66.048  1.00  0.00    -0.408 OA 
HETATM   21  S   UNL     1     -11.613  13.891  64.549  1.00  0.00    -0.390 S  
HETATM   22  O   UNL     1     -11.819  12.674  63.775  1.00  0.00    -0.413 OA 
HETATM   23  O   UNL     1     -12.614  15.009  63.951  1.00  0.00    -0.813 OA 
HETATM   24  O   UNL     1     -10.326  14.535  64.638  1.00  0.00    -0.370 OA 
ENDBRANCH  18  20
TORSDOF 1
ENDMDL
MODEL        5
REMARK 921   NORMALIZED FREE ENERGY PREDICTED BY IDOCK:   -7.23 KCAL/MOL
REMARK 922        TOTAL FREE ENERGY PREDICTED BY IDOCK:   -7.78 KCAL/MOL
REMARK 923 INTER-LIGAND FREE ENERGY PREDICTED BY IDOCK:   -7.82 KCAL/MOL
REMARK 924 INTRA-LIGAND FREE ENERGY PREDICTED BY IDOCK:    0.04 KCAL/MOL
REMARK 927      BINDING AFFINITY PREDICTED BY RF-SCORE:    0.00 PKD
ROOT
HETATM    1  C   UNL     1      -7.483   8.014  70.761  1.00  0.00    -0.072 C  
HETATM    2  C   UNL     1      -8.825   7.255  70.876  1.00  0.00    -0.149 C  
HETATM    3  C   UNL     1      -9.288   6.735  69.529  1.00  0.00    -0.146 C  
HETATM    4  C   UNL     1      -9.609   7.902  68.609  1.00  0.00    -0.155 C  
HETATM    5  C   UNL     1     -10.629   8.881  69.215  1.00  0.00    -0.219 C  
HETATM    6  C   UNL     1     -10.368   9.286  70.713  1.00  0.00    -0.348 C  
HETATM    7  C   UNL     1     -11.689   9.940  71.177  1.00  0.00    -0.478 C  
HETATM    8  C   UNL     1      -9.960   8.053  71.552  1.00  0.00    -0.225 C  
HETATM    9  C   UNL     1      -9.443   8.176  73.004  1.00  0.00    -0.333 C  
HETATM   10  C   UNL     1     -12.043  11.196  70.351  1.00  0.00    -0.475 C  
HETATM   11  C   UNL     1      -8.850   6.774  73.310  1.00  0.00    -0.140 C  
HETATM   12  C   UNL     1     -11.547  11.217  68.917  1.00  0.00    -0.386 A  
HETATM   13  C   UNL     1      -8.687   6.182  71.930  1.00  0.00    -0.137 C  
HETATM   14  C   UNL     1     -10.846  10.129  68.369  1.00  0.00    -0.284 A  
HETATM   15  C   UNL     1     -10.413  10.205  67.035  1.00  0.00    -0.302 A  
HETATM   16  O   UNL     1      -8.501   4.992  71.705  1.00  0.00    -0.120 OA 
HETATM   17  C   UNL     1     -10.643  11.336  66.263  1.00  0.00    -0.315 A  
HETATM   18  C   UNL     1     -11.322  12.420  66.805  1.00  0.00    -0.335 A  
HETATM   19  C   UNL     1     -11.785  12.357  68.125  1.00  0.00    -0.408 A  
ENDROOT
BRANCH  18  20
HETATM   20  O   UNL     1     -11.554  13.452  65.939  1.00  0.00    -0.322 OA 
HETATM   21  S   UNL     1     -12.160  13.195  64.454  1.00  0.00    -0.421 S  
HETATM   22  O   UNL     1     -13.406  12.448  64.556  1.00  0.00    -0.800 OA 
HETATM   23  O   UNL     1     -12.543  14.696  63.995  1.00  0.00    -0.819 OA 
HETATM   24  O   UNL     1     -11.089  12.787  63.578  1.00  0.00    -0.433 OA 
ENDBRANCH  18  20
TORSDOF 1
ENDMDL
MODEL        6
REMARK 921   NORMALIZED FREE ENERGY PREDICTED BY IDOCK:   -7.22 KCAL/MOL
REMARK 922        TOTAL FREE ENERGY PREDICTED BY IDOCK:   -7.77 KCAL/MOL
REMARK 923 INTER-LIGAND FREE ENERGY PREDICTED BY IDOCK:   -8.16 KCAL/MOL
REMARK 924 INTRA-LIGAND FREE ENERGY PREDICTED BY IDOCK:    0.39 KCAL/MOL
REMARK 927      BINDING AFFINITY PREDICTED BY RF-SCORE:    0.00 PKD
ROOT
HETATM    1  C   UNL     1      -8.918   9.728  69.510  1.00  0.00    -0.215 C  
HETATM    2  C   UNL     1     -10.407   9.419  69.231  1.00  0.00    -0.217 C  
HETATM    3  C   UNL     1     -10.763   9.662  67.777  1.00  0.00    -0.316 C  
HETATM    4  C   UNL     1     -10.634  11.142  67.455  1.00  0.00    -0.258 C  
HETATM    5  C   UNL     1     -11.462  12.035  68.395  1.00  0.00    -0.356 C  
HETATM    6  C   UNL     1     -11.352  11.690  69.925  1.00  0.00    -0.230 C  
HETATM    7  C   UNL     1     -12.526  12.449  70.584  1.00  0.00    -0.320 C  
HETATM    8  C   UNL     1     -11.401  10.160  70.149  1.00  0.00    -0.372 C  
HETATM    9  C   UNL     1     -11.110   9.516  71.524  1.00  0.00    -0.406 C  
HETATM   10  C   UNL     1     -12.422  13.976  70.384  1.00  0.00    -0.418 C  
HETATM   11  C   UNL     1     -10.938   8.007  71.201  1.00  0.00    -0.271 C  
HETATM   12  C   UNL     1     -11.713  14.441  69.125  1.00  0.00    -0.354 A  
HETATM   13  C   UNL     1     -10.710   8.018  69.708  1.00  0.00    -0.231 C  
HETATM   14  C   UNL     1     -11.226  13.524  68.178  1.00  0.00    -0.302 A  
HETATM   15  C   UNL     1     -10.580  14.013  67.030  1.00  0.00    -0.279 A  
HETATM   16  O   UNL     1     -10.790   7.030  68.988  1.00  0.00    -0.222 OA 
HETATM   17  C   UNL     1     -10.396  15.375  66.829  1.00  0.00    -0.279 A  
HETATM   18  C   UNL     1     -10.864  16.285  67.769  1.00  0.00    -0.315 A  
HETATM   19  C   UNL     1     -11.532  15.821  68.908  1.00  0.00    -0.381 A  
ENDROOT
BRANCH  18  20
HETATM   20  O   UNL     1     -10.691  17.600  67.439  1.00  0.00    -0.340 OA 
HETATM   21  S   UNL     1     -10.200  18.047  65.957  1.00  0.00    -0.230 S  
HETATM   22  O   UNL     1     -11.090  17.479  64.954  1.00  0.00    -0.860 OA 
HETATM   23  O   UNL     1     -10.475  19.639  65.989  1.00  0.00    -0.482 OA 
HETATM   24  O   UNL     1      -8.767  17.907  65.879  1.00  0.00    -0.508 OA 
ENDBRANCH  18  20
TORSDOF 1
ENDMDL
MODEL        7
REMARK 921   NORMALIZED FREE ENERGY PREDICTED BY IDOCK:   -7.22 KCAL/MOL
REMARK 922        TOTAL FREE ENERGY PREDICTED BY IDOCK:   -7.77 KCAL/MOL
REMARK 923 INTER-LIGAND FREE ENERGY PREDICTED BY IDOCK:   -7.58 KCAL/MOL
REMARK 924 INTRA-LIGAND FREE ENERGY PREDICTED BY IDOCK:   -0.19 KCAL/MOL
REMARK 927      BINDING AFFINITY PREDICTED BY RF-SCORE:    0.00 PKD
ROOT
HETATM    1  C   UNL     1      -8.293   8.409  69.370  1.00  0.00    -0.120 C  
HETATM    2  C   UNL     1      -9.743   7.929  69.608  1.00  0.00    -0.173 C  
HETATM    3  C   UNL     1     -10.479   7.713  68.300  1.00  0.00    -0.219 C  
HETATM    4  C   UNL     1     -10.650   9.041  67.580  1.00  0.00    -0.306 C  
HETATM    5  C   UNL     1     -11.341  10.108  68.445  1.00  0.00    -0.179 C  
HETATM    6  C   UNL     1     -10.806  10.232  69.919  1.00  0.00    -0.355 C  
HETATM    7  C   UNL     1     -11.879  11.066  70.656  1.00  0.00    -0.434 C  
HETATM    8  C   UNL     1     -10.576   8.835  70.540  1.00  0.00    -0.252 C  
HETATM    9  C   UNL     1      -9.862   8.640  71.897  1.00  0.00    -0.384 C  
HETATM   10  C   UNL     1     -12.050  12.473  70.043  1.00  0.00    -0.337 C  
HETATM   11  C   UNL     1      -9.559   7.118  71.946  1.00  0.00    -0.161 C  
HETATM   12  C   UNL     1     -11.751  12.600  68.560  1.00  0.00    -0.372 A  
HETATM   13  C   UNL     1      -9.711   6.710  70.500  1.00  0.00    -0.176 C  
HETATM   14  C   UNL     1     -11.385  11.483  67.790  1.00  0.00    -0.364 A  
HETATM   15  C   UNL     1     -11.122  11.660  66.421  1.00  0.00    -0.347 A  
HETATM   16  O   UNL     1      -9.823   5.552  70.115  1.00  0.00    -0.172 OA 
HETATM   17  C   UNL     1     -11.194  12.914  65.828  1.00  0.00    -0.324 A  
HETATM   18  C   UNL     1     -11.541  14.023  66.588  1.00  0.00    -0.382 A  
HETATM   19  C   UNL     1     -11.832  13.866  67.949  1.00  0.00    -0.413 A  
ENDROOT
BRANCH  18  20
HETATM   20  O   UNL     1     -11.649  15.195  65.892  1.00  0.00    -0.239 OA 
HETATM   21  S   UNL     1     -10.479  16.321  65.939  1.00  0.00    -0.324 S  
HETATM   22  O   UNL     1      -9.208  15.722  65.555  1.00  0.00    -0.280 OA 
HETATM   23  O   UNL     1     -10.924  17.303  64.736  1.00  0.00    -0.950 OA 
HETATM   24  O   UNL     1     -10.628  17.098  67.145  1.00  0.00    -0.313 OA 
ENDBRANCH  18  20
TORSDOF 1
ENDMDL
MODEL        8
REMARK 921   NORMALIZED FREE ENERGY PREDICTED BY IDOCK:   -7.10 KCAL/MOL
REMARK 922        TOTAL FREE ENERGY PREDICTED BY IDOCK:   -7.64 KCAL/MOL
REMARK 923 INTER-LIGAND FREE ENERGY PREDICTED BY IDOCK:   -7.76 KCAL/MOL
REMARK 924 INTRA-LIGAND FREE ENERGY PREDICTED BY IDOCK:    0.12 KCAL/MOL
REMARK 927      BINDING AFFINITY PREDICTED BY RF-SCORE:    0.00 PKD
ROOT
HETATM    1  C   UNL     1     -10.605  17.239  65.415  1.00  0.00    -0.083 C  
HETATM    2  C   UNL     1      -9.482  17.455  66.454  1.00  0.00    -0.279 C  
HETATM    3  C   UNL     1      -8.492  16.306  66.451  1.00  0.00    -0.365 C  
HETATM    4  C   UNL     1      -9.178  15.033  66.919  1.00  0.00    -0.265 C  
HETATM    5  C   UNL     1      -9.858  15.187  68.291  1.00  0.00    -0.223 C  
HETATM    6  C   UNL     1     -10.713  16.494  68.477  1.00  0.00    -0.336 C  
HETATM    7  C   UNL     1     -10.957  16.589  70.000  1.00  0.00    -0.245 C  
HETATM    8  C   UNL     1      -9.977  17.721  67.892  1.00  0.00    -0.322 C  
HETATM    9  C   UNL     1     -10.658  19.102  67.745  1.00  0.00    -0.498 C  
HETATM   10  C   UNL     1     -11.737  15.372  70.545  1.00  0.00    -0.356 C  
HETATM   11  C   UNL     1      -9.693  19.899  66.827  1.00  0.00    -0.538 C  
HETATM   12  C   UNL     1     -11.548  14.064  69.798  1.00  0.00    -0.344 A  
HETATM   13  C   UNL     1      -8.850  18.806  66.213  1.00  0.00    -0.233 C  
HETATM   14  C   UNL     1     -10.673  13.968  68.702  1.00  0.00    -0.269 A  
HETATM   15  C   UNL     1     -10.537  12.731  68.050  1.00  0.00    -0.238 A  
HETATM   16  O   UNL     1      -7.789  18.995  65.630  1.00  0.00    -0.457 OA 
HETATM   17  C   UNL     1     -11.263  11.618  68.452  1.00  0.00    -0.307 A  
HETATM   18  C   UNL     1     -12.140  11.712  69.526  1.00  0.00    -0.270 A  
HETATM   19  C   UNL     1     -12.273  12.928  70.207  1.00  0.00    -0.362 A  
ENDROOT
BRANCH  18  20
HETATM   20  O   UNL     1     -12.752  10.542  69.881  1.00  0.00    -0.209 OA 
HETATM   21  S   UNL     1     -12.694   9.982  71.405  1.00  0.00    -0.450 S  
HETATM   22  O   UNL     1     -13.182  11.004  72.320  1.00  0.00    -0.405 OA 
HETATM   23  O   UNL     1     -13.806   8.811  71.363  1.00  0.00    -0.348 OA 
HETATM   24  O   UNL     1     -11.434   9.309  71.606  1.00  0.00    -0.355 OA 
ENDBRANCH  18  20
TORSDOF 1
ENDMDL
MODEL        9
REMARK 921   NORMALIZED FREE ENERGY PREDICTED BY IDOCK:   -7.04 KCAL/MOL
REMARK 922        TOTAL FREE ENERGY PREDICTED BY IDOCK:   -7.58 KCAL/MOL
REMARK 923 INTER-LIGAND FREE ENERGY PREDICTED BY IDOCK:   -7.50 KCAL/MOL
REMARK 924 INTRA-LIGAND FREE ENERGY PREDICTED BY IDOCK:   -0.08 KCAL/MOL
REMARK 927      BINDING AFFINITY PREDICTED BY RF-SCORE:    0.00 PKD
ROOT
HETATM    1  C   UNL     1      -9.244  15.840  69.326  1.00  0.00    -0.266 C  
HETATM    2  C   UNL     1     -10.434  15.917  68.342  1.00  0.00    -0.254 C  
HETATM    3  C   UNL     1     -11.762  15.923  69.074  1.00  0.00    -0.377 C  
HETATM    4  C   UNL     1     -11.965  14.594  69.785  1.00  0.00    -0.378 C  
HETATM    5  C   UNL     1     -11.847  13.385  68.841  1.00  0.00    -0.373 C  
HETATM    6  C   UNL     1     -10.622  13.415  67.855  1.00  0.00    -0.253 C  
HETATM    7  C   UNL     1     -10.940  12.328  66.803  1.00  0.00    -0.321 C  
HETATM    8  C   UNL     1     -10.438  14.826  67.250  1.00  0.00    -0.264 C  
HETATM    9  C   UNL     1      -9.199  15.210  66.410  1.00  0.00    -0.334 C  
HETATM   10  C   UNL     1     -11.070  10.924  67.432  1.00  0.00    -0.373 C  
HETATM   11  C   UNL     1      -9.275  16.758  66.315  1.00  0.00    -0.313 C  
HETATM   12  C   UNL     1     -11.550  10.875  68.871  1.00  0.00    -0.378 A  
HETATM   13  C   UNL     1     -10.234  17.104  67.429  1.00  0.00    -0.321 C  
HETATM   14  C   UNL     1     -11.900  12.046  69.565  1.00  0.00    -0.390 A  
HETATM   15  C   UNL     1     -12.341  11.939  70.895  1.00  0.00    -0.400 A  
HETATM   16  O   UNL     1     -10.792  18.188  67.551  1.00  0.00    -0.389 OA 
HETATM   17  C   UNL     1     -12.413  10.709  71.536  1.00  0.00    -0.471 A  
HETATM   18  C   UNL     1     -12.055   9.551  70.858  1.00  0.00    -0.278 A  
HETATM   19  C   UNL     1     -11.637   9.630  69.524  1.00  0.00     0.092 A  
ENDROOT
BRANCH  18  20
HETATM   20  O   UNL     1     -12.229   8.390  71.559  1.00  0.00    -0.286 OA 
HETATM   21  S   UNL     1     -11.291   7.090  71.294  1.00  0.00    -0.290 S  
HETATM   22  O   UNL     1      -9.890   7.460  71.440  1.00  0.00    -0.184 OA 
HETATM   23  O   UNL     1     -11.669   6.154  72.556  1.00  0.00    -0.278 OA 
HETATM   24  O   UNL     1     -11.783   6.388  70.135  1.00  0.00    -0.422 OA 
ENDBRANCH  18  20
TORSDOF 1
ENDMDL
MODEL       10
REMARK 921   NORMALIZED FREE ENERGY PREDICTED BY IDOCK:   -7.00 KCAL/MOL
REMARK 922        TOTAL FREE ENERGY PREDICTED BY IDOCK:   -7.54 KCAL/MOL
REMARK 923 INTER-LIGAND FREE ENERGY PREDICTED BY IDOCK:   -7.33 KCAL/MOL
REMARK 924 INTRA-LIGAND FREE ENERGY PREDICTED BY IDOCK:   -0.20 KCAL/MOL
REMARK 927      BINDING AFFINITY PREDICTED BY RF-SCORE:    0.00 PKD
ROOT
HETATM    1  C   UNL     1     -11.723   7.893  70.856  1.00  0.00    -0.271 C  
HETATM    2  C   UNL     1     -10.220   7.591  70.653  1.00  0.00    -0.202 C  
HETATM    3  C   UNL     1      -9.356   8.771  71.054  1.00  0.00    -0.280 C  
HETATM    4  C   UNL     1      -9.620   9.943  70.122  1.00  0.00    -0.237 C  
HETATM    5  C   UNL     1      -9.430   9.584  68.638  1.00  0.00    -0.143 C  
HETATM    6  C   UNL     1     -10.087   8.230  68.181  1.00  0.00    -0.238 C  
HETATM    7  C   UNL     1      -9.448   7.929  66.807  1.00  0.00    -0.257 C  
HETATM    8  C   UNL     1      -9.845   7.121  69.231  1.00  0.00    -0.161 C  
HETATM    9  C   UNL     1     -10.544   5.744  69.156  1.00  0.00    -0.365 C  
HETATM   10  C   UNL     1      -9.749   9.031  65.768  1.00  0.00    -0.254 C  
HETATM   11  C   UNL     1     -10.281   5.113  70.549  1.00  0.00    -0.330 C  
HETATM   12  C   UNL     1      -9.957  10.431  66.315  1.00  0.00    -0.283 A  
HETATM   13  C   UNL     1      -9.880   6.311  71.378  1.00  0.00    -0.173 C  
HETATM   14  C   UNL     1      -9.834  10.705  67.688  1.00  0.00    -0.191 A  
HETATM   15  C   UNL     1     -10.037  12.021  68.138  1.00  0.00    -0.200 A  
HETATM   16  O   UNL     1      -9.328   6.244  72.470  1.00  0.00    -0.147 OA 
HETATM   17  C   UNL     1     -10.376  13.041  67.259  1.00  0.00    -0.238 A  
HETATM   18  C   UNL     1     -10.513  12.772  65.903  1.00  0.00    -0.277 A  
HETATM   19  C   UNL     1     -10.291  11.473  65.429  1.00  0.00    -0.322 A  
ENDROOT
BRANCH  18  20
HETATM   20  O   UNL     1     -10.781  13.859  65.119  1.00  0.00    -0.319 OA 
HETATM   21  S   UNL     1     -12.234  14.066  64.422  1.00  0.00    -0.388 S  
HETATM   22  O   UNL     1     -13.275  14.017  65.438  1.00  0.00    -0.761 OA 
HETATM   23  O   UNL     1     -12.136  15.596  63.915  1.00  0.00    -0.574 OA 
HETATM   24  O   UNL     1     -12.294  13.267  63.223  1.00  0.00    -0.721 OA 
ENDBRANCH  18  20
TORSDOF 1
ENDMDL
MODEL       11
REMARK 921   NORMALIZED FREE ENERGY PREDICTED BY IDOCK:   -6.99 KCAL/MOL
REMARK 922        TOTAL FREE ENERGY PREDICTED BY IDOCK:   -7.53 KCAL/MOL
REMARK 923 INTER-LIGAND FREE ENERGY PREDICTED BY IDOCK:   -7.41 KCAL/MOL
REMARK 924 INTRA-LIGAND FREE ENERGY PREDICTED BY IDOCK:   -0.11 KCAL/MOL
REMARK 927      BINDING AFFINITY PREDICTED BY RF-SCORE:    0.00 PKD
ROOT
HETATM    1  C   UNL     1      -8.884   9.550  69.310  1.00  0.00    -0.153 C  
HETATM    2  C   UNL     1     -10.394   9.300  69.098  1.00  0.00    -0.222 C  
HETATM    3  C   UNL     1     -10.760   9.315  67.626  1.00  0.00    -0.276 C  
HETATM    4  C   UNL     1     -10.538  10.706  67.053  1.00  0.00    -0.317 C  
HETATM    5  C   UNL     1     -11.288  11.801  67.830  1.00  0.00    -0.362 C  
HETATM    6  C   UNL     1     -11.173  11.717  69.397  1.00  0.00    -0.311 C  
HETATM    7  C   UNL     1     -12.282  12.656  69.922  1.00  0.00    -0.238 C  
HETATM    8  C   UNL     1     -11.321  10.255  69.881  1.00  0.00    -0.354 C  
HETATM    9  C   UNL     1     -11.048   9.837  71.344  1.00  0.00    -0.317 C  
HETATM   10  C   UNL     1     -12.079  14.116  69.461  1.00  0.00    -0.388 C  
HETATM   11  C   UNL     1     -10.984   8.287  71.285  1.00  0.00    -0.290 C  
HETATM   12  C   UNL     1     -11.364  14.309  68.137  1.00  0.00    -0.313 A  
HETATM   13  C   UNL     1     -10.782   8.026  69.811  1.00  0.00    -0.231 C  
HETATM   14  C   UNL     1     -10.957  13.211  67.359  1.00  0.00    -0.283 A  
HETATM   15  C   UNL     1     -10.300  13.451  66.140  1.00  0.00    -0.295 A  
HETATM   16  O   UNL     1     -10.941   6.937  69.272  1.00  0.00    -0.244 OA 
HETATM   17  C   UNL     1     -10.029  14.742  65.706  1.00  0.00    -0.375 A  
HETATM   18  C   UNL     1     -10.418  15.829  66.478  1.00  0.00    -0.303 A  
HETATM   19  C   UNL     1     -11.096  15.615  67.685  1.00  0.00    -0.305 A  
ENDROOT
BRANCH  18  20
HETATM   20  O   UNL     1     -10.164  17.054  65.927  1.00  0.00    -0.439 OA 
HETATM   21  S   UNL     1      -9.708  18.318  66.839  1.00  0.00    -0.332 S  
HETATM   22  O   UNL     1      -8.531  17.959  67.618  1.00  0.00    -0.230 OA 
HETATM   23  O   UNL     1      -9.228  19.375  65.715  1.00  0.00    -0.379 OA 
HETATM   24  O   UNL     1     -10.879  18.904  67.443  1.00  0.00    -0.458 OA 
ENDBRANCH  18  20
TORSDOF 1
ENDMDL
MODEL       12
REMARK 921   NORMALIZED FREE ENERGY PREDICTED BY IDOCK:   -6.99 KCAL/MOL
REMARK 922        TOTAL FREE ENERGY PREDICTED BY IDOCK:   -7.53 KCAL/MOL
REMARK 923 INTER-LIGAND FREE ENERGY PREDICTED BY IDOCK:   -7.41 KCAL/MOL
REMARK 924 INTRA-LIGAND FREE ENERGY PREDICTED BY IDOCK:   -0.11 KCAL/MOL
REMARK 927      BINDING AFFINITY PREDICTED BY RF-SCORE:    0.00 PKD
ROOT
HETATM    1  C   UNL     1     -11.492   6.673  70.421  1.00  0.00    -0.444 C  
HETATM    2  C   UNL     1     -10.554   7.403  71.409  1.00  0.00    -0.232 C  
HETATM    3  C   UNL     1     -11.227   8.615  72.024  1.00  0.00    -0.434 C  
HETATM    4  C   UNL     1     -11.499   9.654  70.948  1.00  0.00    -0.427 C  
HETATM    5  C   UNL     1     -10.237  10.049  70.162  1.00  0.00    -0.297 C  
HETATM    6  C   UNL     1      -9.330   8.851  69.695  1.00  0.00    -0.163 C  
HETATM    7  C   UNL     1      -7.993   9.509  69.286  1.00  0.00    -0.094 C  
HETATM    8  C   UNL     1      -9.184   7.801  70.821  1.00  0.00    -0.157 C  
HETATM    9  C   UNL     1      -8.523   6.423  70.586  1.00  0.00    -0.135 C  
HETATM   10  C   UNL     1      -8.166  10.515  68.127  1.00  0.00    -0.114 C  
HETATM   11  C   UNL     1      -8.900   5.607  71.852  1.00  0.00    -0.137 C  
HETATM   12  C   UNL     1      -9.513  11.209  68.036  1.00  0.00    -0.174 A  
HETATM   13  C   UNL     1     -10.047   6.406  72.424  1.00  0.00    -0.176 C  
HETATM   14  C   UNL     1     -10.522  10.975  68.987  1.00  0.00    -0.242 A  
HETATM   15  C   UNL     1     -11.748  11.647  68.853  1.00  0.00    -0.397 A  
HETATM   16  O   UNL     1     -10.479   6.277  73.564  1.00  0.00    -0.233 OA 
HETATM   17  C   UNL     1     -11.986  12.513  67.793  1.00  0.00    -0.286 A  
HETATM   18  C   UNL     1     -10.997  12.736  66.843  1.00  0.00    -0.260 A  
HETATM   19  C   UNL     1      -9.758  12.096  66.970  1.00  0.00    -0.208 A  
ENDROOT
BRANCH  18  20
HETATM   20  O   UNL     1     -11.311  13.656  65.883  1.00  0.00    -0.304 OA 
HETATM   21  S   UNL     1     -12.022  13.220  64.488  1.00  0.00    -0.423 S  
HETATM   22  O   UNL     1     -13.243  12.481  64.773  1.00  0.00    -0.839 OA 
HETATM   23  O   UNL     1     -12.463  14.653  63.886  1.00  0.00    -0.813 OA 
HETATM   24  O   UNL     1     -11.013  12.720  63.588  1.00  0.00    -0.425 OA 
ENDBRANCH  18  20
TORSDOF 1
ENDMDL
MODEL       13
REMARK 921   NORMALIZED FREE ENERGY PREDICTED BY IDOCK:   -6.94 KCAL/MOL
REMARK 922        TOTAL FREE ENERGY PREDICTED BY IDOCK:   -7.48 KCAL/MOL
REMARK 923 INTER-LIGAND FREE ENERGY PREDICTED BY IDOCK:   -7.41 KCAL/MOL
REMARK 924 INTRA-LIGAND FREE ENERGY PREDICTED BY IDOCK:   -0.06 KCAL/MOL
REMARK 927      BINDING AFFINITY PREDICTED BY RF-SCORE:    0.00 PKD
ROOT
HETATM    1  C   UNL     1     -10.632  16.020  68.356  1.00  0.00    -0.270 C  
HETATM    2  C   UNL     1     -10.432  15.317  66.994  1.00  0.00    -0.292 C  
HETATM    3  C   UNL     1     -11.659  14.523  66.591  1.00  0.00    -0.385 C  
HETATM    4  C   UNL     1     -11.871  13.374  67.564  1.00  0.00    -0.408 C  
HETATM    5  C   UNL     1     -10.635  12.469  67.702  1.00  0.00    -0.234 C  
HETATM    6  C   UNL     1      -9.263  13.220  67.872  1.00  0.00    -0.213 C  
HETATM    7  C   UNL     1      -8.190  12.140  67.611  1.00  0.00    -0.163 C  
HETATM    8  C   UNL     1      -9.174  14.426  66.908  1.00  0.00    -0.269 C  
HETATM    9  C   UNL     1      -8.037  15.469  66.991  1.00  0.00    -0.272 C  
HETATM   10  C   UNL     1      -8.275  10.974  68.621  1.00  0.00    -0.151 C  
HETATM   11  C   UNL     1      -8.532  16.636  66.095  1.00  0.00    -0.308 C  
HETATM   12  C   UNL     1      -9.650  10.680  69.192  1.00  0.00    -0.193 A  
HETATM   13  C   UNL     1     -10.009  16.347  65.973  1.00  0.00    -0.345 C  
HETATM   14  C   UNL     1     -10.782  11.404  68.782  1.00  0.00    -0.240 A  
HETATM   15  C   UNL     1     -12.030  11.086  69.344  1.00  0.00    -0.408 A  
HETATM   16  O   UNL     1     -10.748  16.859  65.140  1.00  0.00    -0.663 OA 
HETATM   17  C   UNL     1     -12.158  10.093  70.306  1.00  0.00    -0.282 A  
HETATM   18  C   UNL     1     -11.039   9.384  70.725  1.00  0.00    -0.300 A  
HETATM   19  C   UNL     1      -9.789   9.667  70.160  1.00  0.00    -0.310 A  
ENDROOT
BRANCH  18  20
HETATM   20  O   UNL     1     -11.286   8.385  71.624  1.00  0.00    -0.256 OA 
HETATM   21  S   UNL     1     -12.200   7.099  71.234  1.00  0.00    -0.376 S  
HETATM   22  O   UNL     1     -11.664   6.463  70.038  1.00  0.00    -0.429 OA 
HETATM   23  O   UNL     1     -11.908   6.105  72.473  1.00  0.00    -0.267 OA 
HETATM   24  O   UNL     1     -13.591   7.463  71.352  1.00  0.00    -0.379 OA 
ENDBRANCH  18  20
TORSDOF 1
ENDMDL
MODEL       14
REMARK 921   NORMALIZED FREE ENERGY PREDICTED BY IDOCK:   -6.92 KCAL/MOL
REMARK 922        TOTAL FREE ENERGY PREDICTED BY IDOCK:   -7.46 KCAL/MOL
REMARK 923 INTER-LIGAND FREE ENERGY PREDICTED BY IDOCK:   -7.26 KCAL/MOL
REMARK 924 INTRA-LIGAND FREE ENERGY PREDICTED BY IDOCK:   -0.20 KCAL/MOL
REMARK 927      BINDING AFFINITY PREDICTED BY RF-SCORE:    0.00 PKD
ROOT
HETATM    1  C   UNL     1      -8.798   7.620  71.407  1.00  0.00    -0.141 C  
HETATM    2  C   UNL     1     -10.177   7.064  70.986  1.00  0.00    -0.209 C  
HETATM    3  C   UNL     1     -10.399   7.198  69.492  1.00  0.00    -0.224 C  
HETATM    4  C   UNL     1     -10.470   8.668  69.111  1.00  0.00    -0.223 C  
HETATM    5  C   UNL     1     -11.531   9.444  69.910  1.00  0.00    -0.054 C  
HETATM    6  C   UNL     1     -11.542   9.172  71.460  1.00  0.00    -0.439 C  
HETATM    7  C   UNL     1     -12.889   9.751  71.949  1.00  0.00    -0.520 C  
HETATM    8  C   UNL     1     -11.374   7.664  71.754  1.00  0.00    -0.293 C  
HETATM    9  C   UNL     1     -11.143   7.120  73.183  1.00  0.00    -0.302 C  
HETATM   10  C   UNL     1     -13.005  11.268  71.684  1.00  0.00    -0.537 C  
HETATM   11  C   UNL     1     -10.700   5.650  72.957  1.00  0.00    -0.290 C  
HETATM   12  C   UNL     1     -12.240  11.801  70.486  1.00  0.00    -0.438 A  
HETATM   13  C   UNL     1     -10.307   5.649  71.499  1.00  0.00    -0.222 C  
HETATM   14  C   UNL     1     -11.510  10.944  69.645  1.00  0.00    -0.377 A  
HETATM   15  C   UNL     1     -10.823  11.494  68.549  1.00  0.00    -0.254 A  
HETATM   16  O   UNL     1     -10.148   4.637  70.825  1.00  0.00    -0.224 OA 
HETATM   17  C   UNL     1     -10.835  12.860  68.300  1.00  0.00    -0.263 A  
HETATM   18  C   UNL     1     -11.544  13.712  69.137  1.00  0.00    -0.309 A  
HETATM   19  C   UNL     1     -12.256  13.184  70.220  1.00  0.00    -0.376 A  
ENDROOT
BRANCH  18  20
HETATM   20  O   UNL     1     -11.545  15.027  68.762  1.00  0.00    -0.303 OA 
HETATM   21  S   UNL     1     -10.642  16.132  69.538  1.00  0.00    -0.325 S  
HETATM   22  O   UNL     1      -9.251  15.704  69.552  1.00  0.00    -0.272 OA 
HETATM   23  O   UNL     1     -10.740  17.394  68.534  1.00  0.00    -0.348 OA 
HETATM   24  O   UNL     1     -11.333  16.540  70.736  1.00  0.00    -0.314 OA 
ENDBRANCH  18  20
TORSDOF 1
ENDMDL
MODEL       15
REMARK 921   NORMALIZED FREE ENERGY PREDICTED BY IDOCK:   -6.90 KCAL/MOL
REMARK 922        TOTAL FREE ENERGY PREDICTED BY IDOCK:   -7.43 KCAL/MOL
REMARK 923 INTER-LIGAND FREE ENERGY PREDICTED BY IDOCK:   -7.23 KCAL/MOL
REMARK 924 INTRA-LIGAND FREE ENERGY PREDICTED BY IDOCK:   -0.20 KCAL/MOL
REMARK 927      BINDING AFFINITY PREDICTED BY RF-SCORE:    0.00 PKD
ROOT
HETATM    1  C   UNL     1      -9.047   9.239  69.535  1.00  0.00    -0.163 C  
HETATM    2  C   UNL     1     -10.557   8.938  69.397  1.00  0.00    -0.226 C  
HETATM    3  C   UNL     1     -11.027   9.097  67.963  1.00  0.00    -0.032 C  
HETATM    4  C   UNL     1     -10.907  10.553  67.541  1.00  0.00    -0.357 C  
HETATM    5  C   UNL     1     -11.646  11.515  68.486  1.00  0.00    -0.377 C  
HETATM    6  C   UNL     1     -11.416  11.263  70.022  1.00  0.00    -0.359 C  
HETATM    7  C   UNL     1     -12.524  12.080  70.724  1.00  0.00    -0.372 C  
HETATM    8  C   UNL     1     -11.465   9.751  70.344  1.00  0.00    -0.347 C  
HETATM    9  C   UNL     1     -11.070   9.187  71.728  1.00  0.00    -0.437 C  
HETATM   10  C   UNL     1     -12.418  13.591  70.421  1.00  0.00    -0.345 C  
HETATM   11  C   UNL     1     -10.943   7.658  71.487  1.00  0.00    -0.263 C  
HETATM   12  C   UNL     1     -11.809  13.966  69.083  1.00  0.00    -0.401 A  
HETATM   13  C   UNL     1     -10.836   7.574  69.983  1.00  0.00    -0.249 C  
HETATM   14  C   UNL     1     -11.411  12.984  68.159  1.00  0.00    -0.356 A  
HETATM   15  C   UNL     1     -10.855  13.391  66.934  1.00  0.00    -0.282 A  
HETATM   16  O   UNL     1     -10.987   6.545  69.334  1.00  0.00    -0.275 OA 
HETATM   17  C   UNL     1     -10.672  14.734  66.634  1.00  0.00    -0.309 A  
HETATM   18  C   UNL     1     -11.051  15.708  67.550  1.00  0.00    -0.289 A  
HETATM   19  C   UNL     1     -11.630  15.327  68.766  1.00  0.00    -0.379 A  
ENDROOT
BRANCH  18  20
HETATM   20  O   UNL     1     -10.890  16.998  67.127  1.00  0.00    -0.224 OA 
HETATM   21  S   UNL     1      -9.703  17.941  67.709  1.00  0.00    -0.294 S  
HETATM   22  O   UNL     1      -8.419  17.279  67.526  1.00  0.00    -0.201 OA 
HETATM   23  O   UNL     1      -9.745  19.188  66.682  1.00  0.00    -0.311 OA 
HETATM   24  O   UNL     1     -10.116  18.478  68.982  1.00  0.00    -0.384 OA 
ENDBRANCH  18  20
TORSDOF 1
ENDMDL
MODEL       16
REMARK 921   NORMALIZED FREE ENERGY PREDICTED BY IDOCK:   -6.86 KCAL/MOL
REMARK 922        TOTAL FREE ENERGY PREDICTED BY IDOCK:   -7.39 KCAL/MOL
REMARK 923 INTER-LIGAND FREE ENERGY PREDICTED BY IDOCK:   -7.38 KCAL/MOL
REMARK 924 INTRA-LIGAND FREE ENERGY PREDICTED BY IDOCK:   -0.01 KCAL/MOL
REMARK 927      BINDING AFFINITY PREDICTED BY RF-SCORE:    0.00 PKD
ROOT
HETATM    1  C   UNL     1      -7.929  10.272  67.928  1.00  0.00    -0.102 C  
HETATM    2  C   UNL     1      -9.111   9.444  67.374  1.00  0.00    -0.141 C  
HETATM    3  C   UNL     1     -10.077  10.310  66.587  1.00  0.00    -0.281 C  
HETATM    4  C   UNL     1     -10.741  11.315  67.515  1.00  0.00    -0.275 C  
HETATM    5  C   UNL     1     -11.431  10.654  68.720  1.00  0.00    -0.330 C  
HETATM    6  C   UNL     1     -10.591   9.547  69.456  1.00  0.00    -0.238 C  
HETATM    7  C   UNL     1     -11.613   8.805  70.346  1.00  0.00    -0.105 C  
HETATM    8  C   UNL     1      -9.879   8.628  68.436  1.00  0.00    -0.189 C  
HETATM    9  C   UNL     1      -8.822   7.583  68.861  1.00  0.00    -0.135 C  
HETATM   10  C   UNL     1     -12.270   9.740  71.386  1.00  0.00    -0.486 C  
HETATM   11  C   UNL     1      -8.155   7.159  67.525  1.00  0.00    -0.113 C  
HETATM   12  C   UNL     1     -12.393  11.200  70.993  1.00  0.00    -0.487 A  
HETATM   13  C   UNL     1      -8.561   8.276  66.591  1.00  0.00    -0.129 C  
HETATM   14  C   UNL     1     -11.972  11.656  69.732  1.00  0.00    -0.402 A  
HETATM   15  C   UNL     1     -12.111  13.020  69.423  1.00  0.00    -0.267 A  
HETATM   16  O   UNL     1      -8.480   8.220  65.370  1.00  0.00    -0.163 OA 
HETATM   17  C   UNL     1     -12.633  13.920  70.343  1.00  0.00    -0.350 A  
HETATM   18  C   UNL     1     -13.037  13.476  71.595  1.00  0.00    -0.374 A  
HETATM   19  C   UNL     1     -12.930  12.118  71.917  1.00  0.00    -0.419 A  
ENDROOT
BRANCH  18  20
HETATM   20  O   UNL     1     -13.598  14.431  72.397  1.00  0.00    -0.402 OA 
HETATM   21  S   UNL     1     -12.683  15.467  73.251  1.00  0.00    -0.573 S  
HETATM   22  O   UNL     1     -11.765  16.159  72.358  1.00  0.00    -0.482 OA 
HETATM   23  O   UNL     1     -13.782  16.549  73.733  1.00  0.00    -0.406 OA 
HETATM   24  O   UNL     1     -12.236  14.811  74.455  1.00  0.00    -0.528 OA 
ENDBRANCH  18  20
TORSDOF 1
ENDMDL
MODEL       17
REMARK 921   NORMALIZED FREE ENERGY PREDICTED BY IDOCK:   -6.83 KCAL/MOL
REMARK 922        TOTAL FREE ENERGY PREDICTED BY IDOCK:   -7.36 KCAL/MOL
REMARK 923 INTER-LIGAND FREE ENERGY PREDICTED BY IDOCK:   -7.24 KCAL/MOL
REMARK 924 INTRA-LIGAND FREE ENERGY PREDICTED BY IDOCK:   -0.12 KCAL/MOL
REMARK 927      BINDING AFFINITY PREDICTED BY RF-SCORE:    0.00 PKD
ROOT
HETATM    1  C   UNL     1      -8.171   7.930  69.621  1.00  0.00    -0.122 C  
HETATM    2  C   UNL     1      -9.658   7.538  69.779  1.00  0.00    -0.163 C  
HETATM    3  C   UNL     1     -10.287   7.186  68.445  1.00  0.00    -0.220 C  
HETATM    4  C   UNL     1     -10.329   8.418  67.554  1.00  0.00    -0.333 C  
HETATM    5  C   UNL     1     -11.041   9.611  68.214  1.00  0.00    -0.102 C  
HETATM    6  C   UNL     1     -10.632   9.901  69.705  1.00  0.00    -0.296 C  
HETATM    7  C   UNL     1     -11.723  10.861  70.231  1.00  0.00    -0.437 C  
HETATM    8  C   UNL     1     -10.525   8.585  70.511  1.00  0.00    -0.230 C  
HETATM    9  C   UNL     1      -9.944   8.537  71.943  1.00  0.00    -0.365 C  
HETATM   10  C   UNL     1     -11.771  12.184  69.437  1.00  0.00    -0.391 C  
HETATM   11  C   UNL     1      -9.720   7.024  72.206  1.00  0.00    -0.169 C  
HETATM   12  C   UNL     1     -11.337  12.111  67.984  1.00  0.00    -0.353 A  
HETATM   13  C   UNL     1      -9.764   6.442  70.813  1.00  0.00    -0.180 C  
HETATM   14  C   UNL     1     -10.960  10.892  67.394  1.00  0.00    -0.353 A  
HETATM   15  C   UNL     1     -10.569  10.885  66.044  1.00  0.00    -0.254 A  
HETATM   16  O   UNL     1      -9.898   5.249  70.564  1.00  0.00    -0.179 OA 
HETATM   17  C   UNL     1     -10.528  12.055  65.298  1.00  0.00    -0.323 A  
HETATM   18  C   UNL     1     -10.886  13.264  65.881  1.00  0.00    -0.277 A  
HETATM   19  C   UNL     1     -11.302  13.292  67.217  1.00  0.00    -0.347 A  
ENDROOT
BRANCH  18  20
HETATM   20  O   UNL     1     -10.875  14.341  65.039  1.00  0.00    -0.355 OA 
HETATM   21  S   UNL     1     -12.222  14.839  64.280  1.00  0.00    -0.210 S  
HETATM   22  O   UNL     1     -13.273  15.084  65.258  1.00  0.00     0.122 OA 
HETATM   23  O   UNL     1     -11.760  16.278  63.709  1.00  0.00    -0.969 OA 
HETATM   24  O   UNL     1     -12.433  14.014  63.117  1.00  0.00    -0.733 OA 
ENDBRANCH  18  20
TORSDOF 1
ENDMDL
MODEL       18
REMARK 921   NORMALIZED FREE ENERGY PREDICTED BY IDOCK:   -6.72 KCAL/MOL
REMARK 922        TOTAL FREE ENERGY PREDICTED BY IDOCK:   -7.24 KCAL/MOL
REMARK 923 INTER-LIGAND FREE ENERGY PREDICTED BY IDOCK:   -7.74 KCAL/MOL
REMARK 924 INTRA-LIGAND FREE ENERGY PREDICTED BY IDOCK:    0.50 KCAL/MOL
REMARK 927      BINDING AFFINITY PREDICTED BY RF-SCORE:    0.00 PKD
ROOT
HETATM    1  C   UNL     1      -9.256   8.401  70.706  1.00  0.00    -0.186 C  
HETATM    2  C   UNL     1     -10.706   8.027  70.322  1.00  0.00    -0.239 C  
HETATM    3  C   UNL     1     -11.003   8.364  68.873  1.00  0.00     0.115 C  
HETATM    4  C   UNL     1     -10.953   9.870  68.674  1.00  0.00    -0.222 C  
HETATM    5  C   UNL     1     -11.883  10.633  69.632  1.00  0.00    -0.358 C  
HETATM    6  C   UNL     1     -11.828  10.174  71.136  1.00  0.00    -0.472 C  
HETATM    7  C   UNL     1     -13.080  10.806  71.784  1.00  0.00    -0.573 C  
HETATM    8  C   UNL     1     -11.791   8.632  71.238  1.00  0.00    -0.344 C  
HETATM    9  C   UNL     1     -11.528   7.898  72.573  1.00  0.00    -0.455 C  
HETATM   10  C   UNL     1     -13.064  12.349  71.708  1.00  0.00    -0.446 C  
HETATM   11  C   UNL     1     -11.244   6.433  72.145  1.00  0.00    -0.319 C  
HETATM   12  C   UNL     1     -12.324  12.954  70.530  1.00  0.00    -0.362 A  
HETATM   13  C   UNL     1     -10.942   6.577  70.673  1.00  0.00    -0.287 C  
HETATM   14  C   UNL     1     -11.732  12.147  69.544  1.00  0.00    -0.402 A  
HETATM   15  C   UNL     1     -11.062  12.764  68.474  1.00  0.00    -0.300 A  
HETATM   16  O   UNL     1     -10.923   5.646  69.875  1.00  0.00    -0.339 OA 
HETATM   17  C   UNL     1     -10.956  14.146  68.388  1.00  0.00    -0.270 A  
HETATM   18  C   UNL     1     -11.527  14.948  69.368  1.00  0.00    -0.299 A  
HETATM   19  C   UNL     1     -12.222  14.356  70.430  1.00  0.00    -0.404 A  
ENDROOT
BRANCH  18  20
HETATM   20  O   UNL     1     -11.423  16.294  69.151  1.00  0.00    -0.320 OA 
HETATM   21  S   UNL     1     -10.392  16.899  68.052  1.00  0.00    -0.350 S  
HETATM   22  O   UNL     1     -10.642  16.285  66.755  1.00  0.00    -0.305 OA 
HETATM   23  O   UNL     1     -10.885  18.434  67.954  1.00  0.00    -0.356 OA 
HETATM   24  O   UNL     1      -9.073  16.956  68.632  1.00  0.00    -0.251 OA 
ENDBRANCH  18  20
TORSDOF 1
ENDMDL
MODEL       19
REMARK 921   NORMALIZED FREE ENERGY PREDICTED BY IDOCK:   -6.65 KCAL/MOL
REMARK 922        TOTAL FREE ENERGY PREDICTED BY IDOCK:   -7.17 KCAL/MOL
REMARK 923 INTER-LIGAND FREE ENERGY PREDICTED BY IDOCK:   -7.37 KCAL/MOL
REMARK 924 INTRA-LIGAND FREE ENERGY PREDICTED BY IDOCK:    0.21 KCAL/MOL
REMARK 927      BINDING AFFINITY PREDICTED BY RF-SCORE:    0.00 PKD
ROOT
HETATM    1  C   UNL     1      -9.209  16.132  68.987  1.00  0.00    -0.252 C  
HETATM    2  C   UNL     1     -10.484  16.237  68.119  1.00  0.00    -0.289 C  
HETATM    3  C   UNL     1     -11.740  16.080  68.955  1.00  0.00    -0.322 C  
HETATM    4  C   UNL     1     -11.806  14.674  69.528  1.00  0.00    -0.374 C  
HETATM    5  C   UNL     1     -11.708  13.581  68.450  1.00  0.00    -0.393 C  
HETATM    6  C   UNL     1     -10.579  13.793  67.375  1.00  0.00    -0.260 C  
HETATM    7  C   UNL     1     -10.929  12.806  66.239  1.00  0.00    -0.307 C  
HETATM    8  C   UNL     1     -10.525  15.269  66.917  1.00  0.00    -0.289 C  
HETATM    9  C   UNL     1      -9.388  15.818  66.026  1.00  0.00    -0.384 C  
HETATM   10  C   UNL     1     -10.926  11.338  66.717  1.00  0.00    -0.339 C  
HETATM   11  C   UNL     1      -9.556  17.359  66.110  1.00  0.00    -0.213 C  
HETATM   12  C   UNL     1     -11.274  11.106  68.176  1.00  0.00    -0.356 A  
HETATM   13  C   UNL     1     -10.431  17.524  67.331  1.00  0.00    -0.342 C  
HETATM   14  C   UNL     1     -11.624  12.172  69.022  1.00  0.00    -0.374 A  
HETATM   15  C   UNL     1     -11.938  11.897  70.364  1.00  0.00    -0.400 A  
HETATM   16  O   UNL     1     -11.033  18.552  67.618  1.00  0.00    -0.355 OA 
HETATM   17  C   UNL     1     -11.886  10.605  70.868  1.00  0.00    -0.433 A  
HETATM   18  C   UNL     1     -11.527   9.550  70.039  1.00  0.00    -0.109 A  
HETATM   19  C   UNL     1     -11.234   9.796  68.692  1.00  0.00    -0.068 A  
ENDROOT
BRANCH  18  20
HETATM   20  O   UNL     1     -11.575   8.312  70.618  1.00  0.00    -0.271 OA 
HETATM   21  S   UNL     1     -12.626   7.972  71.810  1.00  0.00    -0.332 S  
HETATM   22  O   UNL     1     -13.980   8.280  71.370  1.00  0.00    -0.339 OA 
HETATM   23  O   UNL     1     -12.509   6.363  71.897  1.00  0.00    -0.337 OA 
HETATM   24  O   UNL     1     -12.093   8.465  73.056  1.00  0.00    -0.235 OA 
ENDBRANCH  18  20
TORSDOF 1
ENDMDL
MODEL       20
REMARK 921   NORMALIZED FREE ENERGY PREDICTED BY IDOCK:   -6.57 KCAL/MOL
REMARK 922        TOTAL FREE ENERGY PREDICTED BY IDOCK:   -7.08 KCAL/MOL
REMARK 923 INTER-LIGAND FREE ENERGY PREDICTED BY IDOCK:   -6.95 KCAL/MOL
REMARK 924 INTRA-LIGAND FREE ENERGY PREDICTED BY IDOCK:   -0.13 KCAL/MOL
REMARK 927      BINDING AFFINITY PREDICTED BY RF-SCORE:    0.00 PKD
ROOT
HETATM    1  C   UNL     1      -8.596   5.985  71.604  1.00  0.00    -0.131 C  
HETATM    2  C   UNL     1     -10.121   5.736  71.636  1.00  0.00    -0.241 C  
HETATM    3  C   UNL     1     -10.644   5.311  70.276  1.00  0.00    -0.288 C  
HETATM    4  C   UNL     1     -10.482   6.451  69.283  1.00  0.00    -0.277 C  
HETATM    5  C   UNL     1     -11.141   7.757  69.756  1.00  0.00    -0.095 C  
HETATM    6  C   UNL     1     -10.858   8.154  71.252  1.00  0.00    -0.278 C  
HETATM    7  C   UNL     1     -11.901   9.248  71.572  1.00  0.00    -0.444 C  
HETATM    8  C   UNL     1     -10.955   6.918  72.176  1.00  0.00    -0.268 C  
HETATM    9  C   UNL     1     -10.526   6.959  73.660  1.00  0.00    -0.400 C  
HETATM   10  C   UNL     1     -11.746  10.488  70.664  1.00  0.00    -0.453 C  
HETATM   11  C   UNL     1     -10.472   5.464  74.077  1.00  0.00    -0.317 C  
HETATM   12  C   UNL     1     -11.178  10.239  69.279  1.00  0.00    -0.281 A  
HETATM   13  C   UNL     1     -10.432   4.757  72.743  1.00  0.00    -0.202 C  
HETATM   14  C   UNL     1     -10.860   8.942  68.841  1.00  0.00    -0.052 A  
HETATM   15  C   UNL     1     -10.339   8.773  67.547  1.00  0.00    -0.334 A  
HETATM   16  O   UNL     1     -10.651   3.561  72.586  1.00  0.00    -0.143 OA 
HETATM   17  C   UNL     1     -10.114   9.858  66.710  1.00  0.00    -0.292 A  
HETATM   18  C   UNL     1     -10.414  11.143  67.144  1.00  0.00    -0.231 A  
HETATM   19  C   UNL     1     -10.957  11.334  68.421  1.00  0.00    -0.268 A  
ENDROOT
BRANCH  18  20
HETATM   20  O   UNL     1     -10.219  12.130  66.218  1.00  0.00    -0.216 OA 
HETATM   21  S   UNL     1     -11.272  12.377  65.006  1.00  0.00    -0.323 S  
HETATM   22  O   UNL     1     -12.607  12.575  65.552  1.00  0.00    -0.642 OA 
HETATM   23  O   UNL     1     -10.777  13.804  64.432  1.00  0.00    -0.407 OA 
HETATM   24  O   UNL     1     -11.004  11.427  63.955  1.00  0.00    -0.364 OA 
ENDBRANCH  18  20
TORSDOF 1
ENDMDL
MODEL       21
REMARK 921   NORMALIZED FREE ENERGY PREDICTED BY IDOCK:   -6.46 KCAL/MOL
REMARK 922        TOTAL FREE ENERGY PREDICTED BY IDOCK:   -6.97 KCAL/MOL
REMARK 923 INTER-LIGAND FREE ENERGY PREDICTED BY IDOCK:   -6.79 KCAL/MOL
REMARK 924 INTRA-LIGAND FREE ENERGY PREDICTED BY IDOCK:   -0.17 KCAL/MOL
REMARK 927      BINDING AFFINITY PREDICTED BY RF-SCORE:    0.00 PKD
ROOT
HETATM    1  C   UNL     1      -8.252  17.257  68.626  1.00  0.00    -0.262 C  
HETATM    2  C   UNL     1      -9.729  17.638  68.376  1.00  0.00    -0.321 C  
HETATM    3  C   UNL     1     -10.661  16.905  69.322  1.00  0.00    -0.325 C  
HETATM    4  C   UNL     1     -10.618  15.413  69.035  1.00  0.00    -0.247 C  
HETATM    5  C   UNL     1     -10.927  15.076  67.567  1.00  0.00    -0.307 C  
HETATM    6  C   UNL     1     -10.189  15.965  66.499  1.00  0.00    -0.297 C  
HETATM    7  C   UNL     1     -10.937  15.689  65.175  1.00  0.00    -0.411 C  
HETATM    8  C   UNL     1     -10.204  17.453  66.919  1.00  0.00    -0.322 C  
HETATM    9  C   UNL     1      -9.382  18.531  66.175  1.00  0.00    -0.152 C  
HETATM   10  C   UNL     1     -10.862  14.204  64.759  1.00  0.00    -0.426 C  
HETATM   11  C   UNL     1      -9.430  19.759  67.123  1.00  0.00    -0.471 C  
HETATM   12  C   UNL     1     -10.739  13.196  65.887  1.00  0.00    -0.287 A  
HETATM   13  C   UNL     1      -9.859  19.142  68.433  1.00  0.00    -0.404 C  
HETATM   14  C   UNL     1     -10.742  13.601  67.233  1.00  0.00    -0.283 A  
HETATM   15  C   UNL     1     -10.627  12.623  68.235  1.00  0.00    -0.250 A  
HETATM   16  O   UNL     1     -10.282  19.777  69.392  1.00  0.00    -0.347 OA 
HETATM   17  C   UNL     1     -10.489  11.277  67.920  1.00  0.00    -0.218 A  
HETATM   18  C   UNL     1     -10.471  10.874  66.591  1.00  0.00    -0.254 A  
HETATM   19  C   UNL     1     -10.609  11.829  65.576  1.00  0.00    -0.323 A  
ENDROOT
BRANCH  18  20
HETATM   20  O   UNL     1     -10.399   9.523  66.394  1.00  0.00    -0.240 OA 
HETATM   21  S   UNL     1      -8.992   8.789  66.048  1.00  0.00    -0.204 S  
HETATM   22  O   UNL     1      -8.005   9.115  67.068  1.00  0.00    -0.101 OA 
HETATM   23  O   UNL     1      -9.380   7.233  66.243  1.00  0.00    -0.169 OA 
HETATM   24  O   UNL     1      -8.720   8.944  64.640  1.00  0.00    -0.172 OA 
ENDBRANCH  18  20
TORSDOF 1
ENDMDL
MODEL       22
REMARK 921   NORMALIZED FREE ENERGY PREDICTED BY IDOCK:   -6.36 KCAL/MOL
REMARK 922        TOTAL FREE ENERGY PREDICTED BY IDOCK:   -6.86 KCAL/MOL
REMARK 923 INTER-LIGAND FREE ENERGY PREDICTED BY IDOCK:   -6.90 KCAL/MOL
REMARK 924 INTRA-LIGAND FREE ENERGY PREDICTED BY IDOCK:    0.04 KCAL/MOL
REMARK 927      BINDING AFFINITY PREDICTED BY RF-SCORE:    0.00 PKD
ROOT
HETATM    1  C   UNL     1     -12.520   6.691  71.748  1.00  0.00    -0.360 C  
HETATM    2  C   UNL     1     -11.029   6.898  72.101  1.00  0.00    -0.268 C  
HETATM    3  C   UNL     1     -10.761   8.313  72.576  1.00  0.00    -0.411 C  
HETATM    4  C   UNL     1     -11.004   9.293  71.440  1.00  0.00    -0.429 C  
HETATM    5  C   UNL     1     -10.192   8.960  70.176  1.00  0.00    -0.218 C  
HETATM    6  C   UNL     1     -10.206   7.447  69.744  1.00  0.00    -0.210 C  
HETATM    7  C   UNL     1      -9.055   7.322  68.721  1.00  0.00    -0.127 C  
HETATM    8  C   UNL     1     -10.044   6.523  70.974  1.00  0.00    -0.208 C  
HETATM    9  C   UNL     1     -10.225   4.990  70.886  1.00  0.00    -0.287 C  
HETATM   10  C   UNL     1      -9.271   8.220  67.483  1.00  0.00    -0.155 C  
HETATM   11  C   UNL     1     -10.310   4.538  72.369  1.00  0.00    -0.256 C  
HETATM   12  C   UNL     1     -10.068   9.491  67.708  1.00  0.00    -0.244 A  
HETATM   13  C   UNL     1     -10.611   5.832  73.086  1.00  0.00    -0.244 C  
HETATM   14  C   UNL     1     -10.538   9.844  68.985  1.00  0.00    -0.240 A  
HETATM   15  C   UNL     1     -11.270  11.035  69.133  1.00  0.00    -0.318 A  
HETATM   16  O   UNL     1     -10.499   5.996  74.296  1.00  0.00    -0.280 OA 
HETATM   17  C   UNL     1     -11.554  11.849  68.044  1.00  0.00    -0.401 A  
HETATM   18  C   UNL     1     -11.104  11.497  66.778  1.00  0.00    -0.302 A  
HETATM   19  C   UNL     1     -10.351  10.328  66.611  1.00  0.00    -0.283 A  
ENDROOT
BRANCH  18  20
HETATM   20  O   UNL     1     -11.379  12.401  65.791  1.00  0.00    -0.320 OA 
HETATM   21  S   UNL     1     -11.075  13.986  65.982  1.00  0.00    -0.307 S  
HETATM   22  O   UNL     1      -9.678  14.175  66.344  1.00  0.00    -0.278 OA 
HETATM   23  O   UNL     1     -11.254  14.535  64.473  1.00  0.00    -0.360 OA 
HETATM   24  O   UNL     1     -12.151  14.579  66.737  1.00  0.00    -0.395 OA 
ENDBRANCH  18  20
TORSDOF 1
ENDMDL
MODEL       23
REMARK 921   NORMALIZED FREE ENERGY PREDICTED BY IDOCK:   -6.34 KCAL/MOL
REMARK 922        TOTAL FREE ENERGY PREDICTED BY IDOCK:   -6.84 KCAL/MOL
REMARK 923 INTER-LIGAND FREE ENERGY PREDICTED BY IDOCK:   -6.77 KCAL/MOL
REMARK 924 INTRA-LIGAND FREE ENERGY PREDICTED BY IDOCK:   -0.07 KCAL/MOL
REMARK 927      BINDING AFFINITY PREDICTED BY RF-SCORE:    0.00 PKD
ROOT
HETATM    1  C   UNL     1     -10.963  12.225  65.947  1.00  0.00    -0.338 C  
HETATM    2  C   UNL     1     -10.234  13.035  67.044  1.00  0.00    -0.245 C  
HETATM    3  C   UNL     1      -8.971  12.334  67.507  1.00  0.00    -0.180 C  
HETATM    4  C   UNL     1      -9.330  11.029  68.198  1.00  0.00    -0.173 C  
HETATM    5  C   UNL     1     -10.326  11.216  69.355  1.00  0.00    -0.090 C  
HETATM    6  C   UNL     1     -11.556  12.146  69.044  1.00  0.00    -0.374 C  
HETATM    7  C   UNL     1     -12.167  12.464  70.427  1.00  0.00    -0.370 C  
HETATM    8  C   UNL     1     -11.110  13.403  68.261  1.00  0.00    -0.289 C  
HETATM    9  C   UNL     1     -12.122  14.392  67.639  1.00  0.00    -0.312 C  
HETATM   10  C   UNL     1     -12.646  11.193  71.162  1.00  0.00    -0.513 C  
HETATM   11  C   UNL     1     -11.257  15.268  66.693  1.00  0.00    -0.232 C  
HETATM   12  C   UNL     1     -11.900   9.911  70.841  1.00  0.00    -0.443 A  
HETATM   13  C   UNL     1     -10.004  14.439  66.539  1.00  0.00    -0.283 C  
HETATM   14  C   UNL     1     -10.806   9.903  69.959  1.00  0.00    -0.339 A  
HETATM   15  C   UNL     1     -10.153   8.686  69.701  1.00  0.00    -0.201 A  
HETATM   16  O   UNL     1      -8.944  14.863  66.093  1.00  0.00    -0.232 OA 
HETATM   17  C   UNL     1     -10.581   7.498  70.280  1.00  0.00    -0.235 A  
HETATM   18  C   UNL     1     -11.671   7.500  71.141  1.00  0.00    -0.291 A  
HETATM   19  C   UNL     1     -12.322   8.705  71.433  1.00  0.00    -0.344 A  
ENDROOT
BRANCH  18  20
HETATM   20  O   UNL     1     -11.966   6.291  71.708  1.00  0.00    -0.321 OA 
HETATM   21  S   UNL     1     -10.942   5.566  72.741  1.00  0.00    -0.295 S  
HETATM   22  O   UNL     1     -10.625   6.474  73.834  1.00  0.00    -0.310 OA 
HETATM   23  O   UNL     1     -11.872   4.394  73.351  1.00  0.00    -0.188 OA 
HETATM   24  O   UNL     1      -9.919   4.889  71.984  1.00  0.00    -0.173 OA 
ENDBRANCH  18  20
TORSDOF 1
ENDMDL
MODEL       24
REMARK 921   NORMALIZED FREE ENERGY PREDICTED BY IDOCK:   -6.30 KCAL/MOL
REMARK 922        TOTAL FREE ENERGY PREDICTED BY IDOCK:   -6.80 KCAL/MOL
REMARK 923 INTER-LIGAND FREE ENERGY PREDICTED BY IDOCK:   -6.62 KCAL/MOL
REMARK 924 INTRA-LIGAND FREE ENERGY PREDICTED BY IDOCK:   -0.18 KCAL/MOL
REMARK 927      BINDING AFFINITY PREDICTED BY RF-SCORE:    0.00 PKD
ROOT
HETATM    1  C   UNL     1     -12.207  14.199  66.490  1.00  0.00    -0.463 C  
HETATM    2  C   UNL     1     -10.908  14.443  65.688  1.00  0.00    -0.320 C  
HETATM    3  C   UNL     1     -10.798  13.499  64.506  1.00  0.00    -0.422 C  
HETATM    4  C   UNL     1     -10.655  12.068  65.001  1.00  0.00    -0.332 C  
HETATM    5  C   UNL     1      -9.481  11.887  65.978  1.00  0.00    -0.241 C  
HETATM    6  C   UNL     1      -9.364  12.979  67.104  1.00  0.00    -0.230 C  
HETATM    7  C   UNL     1      -7.945  12.791  67.686  1.00  0.00    -0.165 C  
HETATM    8  C   UNL     1      -9.614  14.392  66.527  1.00  0.00    -0.310 C  
HETATM    9  C   UNL     1      -9.767  15.638  67.428  1.00  0.00    -0.222 C  
HETATM   10  C   UNL     1      -7.744  11.388  68.298  1.00  0.00    -0.124 C  
HETATM   11  C   UNL     1     -10.329  16.725  66.472  1.00  0.00    -0.301 C  
HETATM   12  C   UNL     1      -8.563  10.266  67.687  1.00  0.00    -0.118 A  
HETATM   13  C   UNL     1     -10.837  15.904  65.311  1.00  0.00    -0.387 C  
HETATM   14  C   UNL     1      -9.418  10.495  66.595  1.00  0.00    -0.199 A  
HETATM   15  C   UNL     1     -10.150   9.417  66.069  1.00  0.00    -0.302 A  
HETATM   16  O   UNL     1     -11.121  16.363  64.210  1.00  0.00    -0.845 OA 
HETATM   17  C   UNL     1     -10.062   8.146  66.621  1.00  0.00    -0.344 A  
HETATM   18  C   UNL     1      -9.230   7.918  67.710  1.00  0.00    -0.137 A  
HETATM   19  C   UNL     1      -8.471   8.971  68.234  1.00  0.00    -0.129 A  
ENDROOT
BRANCH  18  20
HETATM   20  O   UNL     1      -9.166   6.618  68.130  1.00  0.00    -0.120 OA 
HETATM   21  S   UNL     1     -10.002   6.103  69.424  1.00  0.00    -0.176 S  
HETATM   22  O   UNL     1     -11.414   6.416  69.250  1.00  0.00    -0.381 OA 
HETATM   23  O   UNL     1      -9.853   4.500  69.290  1.00  0.00    -0.192 OA 
HETATM   24  O   UNL     1      -9.278   6.458  70.619  1.00  0.00    -0.157 OA 
ENDBRANCH  18  20
TORSDOF 1
ENDMDL
MODEL       25
REMARK 921   NORMALIZED FREE ENERGY PREDICTED BY IDOCK:   -6.28 KCAL/MOL
REMARK 922        TOTAL FREE ENERGY PREDICTED BY IDOCK:   -6.78 KCAL/MOL
REMARK 923 INTER-LIGAND FREE ENERGY PREDICTED BY IDOCK:   -6.68 KCAL/MOL
REMARK 924 INTRA-LIGAND FREE ENERGY PREDICTED BY IDOCK:   -0.10 KCAL/MOL
REMARK 927      BINDING AFFINITY PREDICTED BY RF-SCORE:    0.00 PKD
ROOT
HETATM    1  C   UNL     1     -12.740   7.087  70.940  1.00  0.00    -0.226 C  
HETATM    2  C   UNL     1     -11.346   7.363  71.549  1.00  0.00    -0.285 C  
HETATM    3  C   UNL     1     -11.333   8.652  72.348  1.00  0.00    -0.353 C  
HETATM    4  C   UNL     1     -11.565   9.835  71.422  1.00  0.00    -0.452 C  
HETATM    5  C   UNL     1     -10.566   9.887  70.254  1.00  0.00    -0.359 C  
HETATM    6  C   UNL     1     -10.320   8.521  69.514  1.00  0.00    -0.218 C  
HETATM    7  C   UNL     1      -9.045   8.755  68.673  1.00  0.00    -0.141 C  
HETATM    8  C   UNL     1     -10.186   7.362  70.530  1.00  0.00    -0.196 C  
HETATM    9  C   UNL     1     -10.146   5.880  70.093  1.00  0.00    -0.261 C  
HETATM   10  C   UNL     1      -9.226   9.885  67.636  1.00  0.00    -0.146 C  
HETATM   11  C   UNL     1     -10.351   5.094  71.415  1.00  0.00    -0.273 C  
HETATM   12  C   UNL     1     -10.211  10.980  68.002  1.00  0.00    -0.201 A  
HETATM   13  C   UNL     1     -10.911   6.151  72.338  1.00  0.00    -0.259 C  
HETATM   14  C   UNL     1     -10.878  10.980  69.239  1.00  0.00    -0.285 A  
HETATM   15  C   UNL     1     -11.778  12.021  69.525  1.00  0.00    -0.408 A  
HETATM   16  O   UNL     1     -10.973   6.043  73.557  1.00  0.00    -0.238 OA 
HETATM   17  C   UNL     1     -12.033  13.028  68.603  1.00  0.00    -0.298 A  
HETATM   18  C   UNL     1     -11.386  13.025  67.374  1.00  0.00    -0.305 A  
HETATM   19  C   UNL     1     -10.467  12.011  67.077  1.00  0.00    -0.248 A  
ENDROOT
BRANCH  18  20
HETATM   20  O   UNL     1     -11.658  14.097  66.571  1.00  0.00    -0.344 OA 
HETATM   21  S   UNL     1     -10.645  15.363  66.473  1.00  0.00    -0.308 S  
HETATM   22  O   UNL     1      -9.314  14.897  66.111  1.00  0.00    -0.292 OA 
HETATM   23  O   UNL     1     -11.235  16.155  65.195  1.00  0.00    -0.254 OA 
HETATM   24  O   UNL     1     -10.874  16.232  67.602  1.00  0.00    -0.327 OA 
ENDBRANCH  18  20
TORSDOF 1
ENDMDL
MODEL       26
REMARK 921   NORMALIZED FREE ENERGY PREDICTED BY IDOCK:   -6.26 KCAL/MOL
REMARK 922        TOTAL FREE ENERGY PREDICTED BY IDOCK:   -6.76 KCAL/MOL
REMARK 923 INTER-LIGAND FREE ENERGY PREDICTED BY IDOCK:   -6.85 KCAL/MOL
REMARK 924 INTRA-LIGAND FREE ENERGY PREDICTED BY IDOCK:    0.09 KCAL/MOL
REMARK 927      BINDING AFFINITY PREDICTED BY RF-SCORE:    0.00 PKD
ROOT
HETATM    1  C   UNL     1     -10.490  15.893  68.498  1.00  0.00    -0.241 C  
HETATM    2  C   UNL     1     -10.406  15.134  67.154  1.00  0.00    -0.263 C  
HETATM    3  C   UNL     1     -11.684  14.371  66.864  1.00  0.00    -0.422 C  
HETATM    4  C   UNL     1     -11.869  13.267  67.893  1.00  0.00    -0.388 C  
HETATM    5  C   UNL     1     -10.657  12.323  67.985  1.00  0.00    -0.235 C  
HETATM    6  C   UNL     1      -9.253  13.030  68.034  1.00  0.00    -0.212 C  
HETATM    7  C   UNL     1      -8.237  11.902  67.746  1.00  0.00    -0.148 C  
HETATM    8  C   UNL     1      -9.188  14.195  67.020  1.00  0.00    -0.249 C  
HETATM    9  C   UNL     1      -8.013  15.199  66.987  1.00  0.00    -0.223 C  
HETATM   10  C   UNL     1      -8.293  10.778  68.803  1.00  0.00    -0.147 C  
HETATM   11  C   UNL     1      -8.527  16.349  66.081  1.00  0.00    -0.329 C  
HETATM   12  C   UNL     1      -9.636  10.555  69.475  1.00  0.00    -0.125 A  
HETATM   13  C   UNL     1     -10.018  16.110  66.068  1.00  0.00    -0.348 C  
HETATM   14  C   UNL     1     -10.768  11.305  69.112  1.00  0.00    -0.247 A  
HETATM   15  C   UNL     1     -11.985  11.053  69.767  1.00  0.00    -0.428 A  
HETATM   16  O   UNL     1     -10.794  16.618  65.266  1.00  0.00    -0.478 OA 
HETATM   17  C   UNL     1     -12.082  10.101  70.774  1.00  0.00    -0.438 A  
HETATM   18  C   UNL     1     -10.962   9.368  71.145  1.00  0.00    -0.360 A  
HETATM   19  C   UNL     1      -9.744   9.584  70.489  1.00  0.00    -0.325 A  
ENDROOT
BRANCH  18  20
HETATM   20  O   UNL     1     -11.182   8.412  72.097  1.00  0.00    -0.310 OA 
HETATM   21  S   UNL     1      -9.978   7.475  72.654  1.00  0.00    -0.230 S  
HETATM   22  O   UNL     1      -8.894   8.313  73.148  1.00  0.00    -0.234 OA 
HETATM   23  O   UNL     1     -10.670   6.787  73.941  1.00  0.00    -0.310 OA 
HETATM   24  O   UNL     1      -9.752   6.401  71.719  1.00  0.00    -0.161 OA 
ENDBRANCH  18  20
TORSDOF 1
ENDMDL
MODEL       27
REMARK 921   NORMALIZED FREE ENERGY PREDICTED BY IDOCK:   -6.17 KCAL/MOL
REMARK 922        TOTAL FREE ENERGY PREDICTED BY IDOCK:   -6.66 KCAL/MOL
REMARK 923 INTER-LIGAND FREE ENERGY PREDICTED BY IDOCK:   -6.59 KCAL/MOL
REMARK 924 INTRA-LIGAND FREE ENERGY PREDICTED BY IDOCK:   -0.07 KCAL/MOL
REMARK 927      BINDING AFFINITY PREDICTED BY RF-SCORE:    0.00 PKD
ROOT
HETATM    1  C   UNL     1      -8.145  17.753  66.488  1.00  0.00    -0.305 C  
HETATM    2  C   UNL     1      -8.442  17.802  68.004  1.00  0.00    -0.253 C  
HETATM    3  C   UNL     1      -7.533  16.866  68.779  1.00  0.00    -0.237 C  
HETATM    4  C   UNL     1      -7.830  15.425  68.397  1.00  0.00    -0.129 C  
HETATM    5  C   UNL     1      -9.311  15.050  68.579  1.00  0.00    -0.196 C  
HETATM    6  C   UNL     1     -10.346  16.097  68.024  1.00  0.00    -0.271 C  
HETATM    7  C   UNL     1     -11.696  15.682  68.650  1.00  0.00    -0.364 C  
HETATM    8  C   UNL     1      -9.915  17.538  68.381  1.00  0.00    -0.335 C  
HETATM    9  C   UNL     1     -10.622  18.782  67.796  1.00  0.00    -0.452 C  
HETATM   10  C   UNL     1     -12.121  14.257  68.235  1.00  0.00    -0.278 C  
HETATM   11  C   UNL     1      -9.667  19.955  68.144  1.00  0.00    -0.497 C  
HETATM   12  C   UNL     1     -10.998  13.284  67.927  1.00  0.00    -0.270 A  
HETATM   13  C   UNL     1      -8.377  19.238  68.466  1.00  0.00    -0.366 C  
HETATM   14  C   UNL     1      -9.650  13.658  68.061  1.00  0.00    -0.216 A  
HETATM   15  C   UNL     1      -8.652  12.714  67.764  1.00  0.00    -0.179 A  
HETATM   16  O   UNL     1      -7.427  19.749  69.049  1.00  0.00    -0.332 OA 
HETATM   17  C   UNL     1      -8.973  11.438  67.321  1.00  0.00    -0.159 A  
HETATM   18  C   UNL     1     -10.304  11.069  67.172  1.00  0.00    -0.220 A  
HETATM   19  C   UNL     1     -11.316  11.984  67.487  1.00  0.00    -0.387 A  
ENDROOT
BRANCH  18  20
HETATM   20  O   UNL     1     -10.509   9.771  66.797  1.00  0.00    -0.231 OA 
HETATM   21  S   UNL     1     -10.112   8.532  67.771  1.00  0.00    -0.225 S  
HETATM   22  O   UNL     1     -10.759   8.700  69.064  1.00  0.00    -0.198 OA 
HETATM   23  O   UNL     1     -10.839   7.292  67.033  1.00  0.00    -0.357 OA 
HETATM   24  O   UNL     1      -8.698   8.277  67.647  1.00  0.00    -0.132 OA 
ENDBRANCH  18  20
TORSDOF 1
ENDMDL
MODEL       28
REMARK 921   NORMALIZED FREE ENERGY PREDICTED BY IDOCK:   -6.12 KCAL/MOL
REMARK 922        TOTAL FREE ENERGY PREDICTED BY IDOCK:   -6.60 KCAL/MOL
REMARK 923 INTER-LIGAND FREE ENERGY PREDICTED BY IDOCK:   -6.95 KCAL/MOL
REMARK 924 INTRA-LIGAND FREE ENERGY PREDICTED BY IDOCK:    0.35 KCAL/MOL
REMARK 927      BINDING AFFINITY PREDICTED BY RF-SCORE:    0.00 PKD
ROOT
HETATM    1  C   UNL     1     -10.447   9.983  69.387  1.00  0.00    -0.252 C  
HETATM    2  C   UNL     1      -9.244   9.647  68.476  1.00  0.00    -0.137 C  
HETATM    3  C   UNL     1      -8.080  10.587  68.722  1.00  0.00    -0.131 C  
HETATM    4  C   UNL     1      -8.462  12.000  68.312  1.00  0.00    -0.167 C  
HETATM    5  C   UNL     1      -8.960  12.089  66.859  1.00  0.00    -0.199 C  
HETATM    6  C   UNL     1      -9.995  10.985  66.431  1.00  0.00    -0.264 C  
HETATM    7  C   UNL     1     -10.036  11.064  64.888  1.00  0.00    -0.359 C  
HETATM    8  C   UNL     1      -9.573   9.598  66.968  1.00  0.00    -0.221 C  
HETATM    9  C   UNL     1     -10.496   8.361  66.883  1.00  0.00    -0.359 C  
HETATM   10  C   UNL     1     -10.508  12.445  64.385  1.00  0.00    -0.371 C  
HETATM   11  C   UNL     1      -9.823   7.325  67.822  1.00  0.00    -0.181 C  
HETATM   12  C   UNL     1     -10.201  13.628  65.285  1.00  0.00    -0.341 A  
HETATM   13  C   UNL     1      -8.897   8.187  68.647  1.00  0.00    -0.134 C  
HETATM   14  C   UNL     1      -9.485  13.469  66.483  1.00  0.00    -0.265 A  
HETATM   15  C   UNL     1      -9.228  14.601  67.275  1.00  0.00    -0.212 A  
HETATM   16  O   UNL     1      -7.977   7.756  69.332  1.00  0.00    -0.119 OA 
HETATM   17  C   UNL     1      -9.686  15.859  66.908  1.00  0.00    -0.241 A  
HETATM   18  C   UNL     1     -10.407  16.019  65.731  1.00  0.00    -0.378 A  
HETATM   19  C   UNL     1     -10.653  14.910  64.914  1.00  0.00    -0.417 A  
ENDROOT
BRANCH  18  20
HETATM   20  O   UNL     1     -10.751  17.308  65.430  1.00  0.00    -0.583 OA 
HETATM   21  S   UNL     1     -10.064  18.569  66.190  1.00  0.00    -0.318 S  
HETATM   22  O   UNL     1      -8.616  18.484  66.068  1.00  0.00    -0.497 OA 
HETATM   23  O   UNL     1     -10.546  19.805  65.269  1.00  0.00    -0.368 OA 
HETATM   24  O   UNL     1     -10.718  18.759  67.461  1.00  0.00    -0.438 OA 
ENDBRANCH  18  20
TORSDOF 1
ENDMDL
MODEL       29
REMARK 921   NORMALIZED FREE ENERGY PREDICTED BY IDOCK:   -6.10 KCAL/MOL
REMARK 922        TOTAL FREE ENERGY PREDICTED BY IDOCK:   -6.59 KCAL/MOL
REMARK 923 INTER-LIGAND FREE ENERGY PREDICTED BY IDOCK:   -6.46 KCAL/MOL
REMARK 924 INTRA-LIGAND FREE ENERGY PREDICTED BY IDOCK:   -0.13 KCAL/MOL
REMARK 927      BINDING AFFINITY PREDICTED BY RF-SCORE:    0.00 PKD
ROOT
HETATM    1  C   UNL     1      -7.497  10.654  66.164  1.00  0.00    -0.138 C  
HETATM    2  C   UNL     1      -8.648   9.689  65.802  1.00  0.00    -0.149 C  
HETATM    3  C   UNL     1      -9.759  10.402  65.055  1.00  0.00    -0.362 C  
HETATM    4  C   UNL     1     -10.417  11.426  65.966  1.00  0.00    -0.305 C  
HETATM    5  C   UNL     1     -10.925  10.818  67.284  1.00  0.00    -0.359 C  
HETATM    6  C   UNL     1      -9.922   9.850  68.012  1.00  0.00    -0.179 C  
HETATM    7  C   UNL     1     -10.784   9.108  69.059  1.00  0.00    -0.176 C  
HETATM    8  C   UNL     1      -9.233   8.908  66.998  1.00  0.00    -0.171 C  
HETATM    9  C   UNL     1      -8.052   7.991  67.390  1.00  0.00    -0.122 C  
HETATM   10  C   UNL     1     -11.417  10.072  70.085  1.00  0.00    -0.344 C  
HETATM   11  C   UNL     1      -7.482   7.510  66.029  1.00  0.00    -0.083 C  
HETATM   12  C   UNL     1     -11.707  11.479  69.595  1.00  0.00    -0.419 A  
HETATM   13  C   UNL     1      -8.075   8.505  65.059  1.00  0.00    -0.148 C  
HETATM   14  C   UNL     1     -11.452  11.857  68.266  1.00  0.00    -0.372 A  
HETATM   15  C   UNL     1     -11.742  13.173  67.868  1.00  0.00    -0.398 A  
HETATM   16  O   UNL     1      -8.108   8.352  63.843  1.00  0.00    -0.154 OA 
HETATM   17  C   UNL     1     -12.250  14.104  68.764  1.00  0.00    -0.234 A  
HETATM   18  C   UNL     1     -12.490  13.739  70.083  1.00  0.00    -0.267 A  
HETATM   19  C   UNL     1     -12.232  12.426  70.496  1.00  0.00    -0.382 A  
ENDROOT
BRANCH  18  20
HETATM   20  O   UNL     1     -13.053  14.710  70.862  1.00  0.00    -0.355 OA 
HETATM   21  S   UNL     1     -12.577  14.951  72.397  1.00  0.00    -0.354 S  
HETATM   22  O   UNL     1     -11.137  15.168  72.434  1.00  0.00    -0.259 OA 
HETATM   23  O   UNL     1     -13.280  16.365  72.738  1.00  0.00    -0.193 OA 
HETATM   24  O   UNL     1     -13.229  13.983  73.244  1.00  0.00    -0.535 OA 
ENDBRANCH  18  20
TORSDOF 1
ENDMDL
MODEL       30
REMARK 921   NORMALIZED FREE ENERGY PREDICTED BY IDOCK:   -6.10 KCAL/MOL
REMARK 922        TOTAL FREE ENERGY PREDICTED BY IDOCK:   -6.58 KCAL/MOL
REMARK 923 INTER-LIGAND FREE ENERGY PREDICTED BY IDOCK:   -6.39 KCAL/MOL
REMARK 924 INTRA-LIGAND FREE ENERGY PREDICTED BY IDOCK:   -0.19 KCAL/MOL
REMARK 927      BINDING AFFINITY PREDICTED BY RF-SCORE:    0.00 PKD
ROOT
HETATM    1  C   UNL     1      -8.081  17.503  67.272  1.00  0.00    -0.219 C  
HETATM    2  C   UNL     1      -9.556  17.499  67.736  1.00  0.00    -0.269 C  
HETATM    3  C   UNL     1      -9.785  16.497  68.852  1.00  0.00    -0.257 C  
HETATM    4  C   UNL     1      -9.564  15.086  68.332  1.00  0.00    -0.212 C  
HETATM    5  C   UNL     1     -10.423  14.760  67.099  1.00  0.00    -0.265 C  
HETATM    6  C   UNL     1     -10.449  15.868  65.982  1.00  0.00    -0.357 C  
HETATM    7  C   UNL     1     -11.636  15.479  65.072  1.00  0.00    -0.133 C  
HETATM    8  C   UNL     1     -10.585  17.276  66.608  1.00  0.00    -0.179 C  
HETATM    9  C   UNL     1     -10.432  18.569  65.775  1.00  0.00    -0.277 C  
HETATM   10  C   UNL     1     -11.447  14.090  64.425  1.00  0.00    -0.357 C  
HETATM   11  C   UNL     1     -10.304  19.689  66.843  1.00  0.00    -0.583 C  
HETATM   12  C   UNL     1     -10.621  13.090  65.212  1.00  0.00    -0.320 A  
HETATM   13  C   UNL     1      -9.958  18.911  68.090  1.00  0.00    -0.376 C  
HETATM   14  C   UNL     1     -10.103  13.405  66.480  1.00  0.00    -0.280 A  
HETATM   15  C   UNL     1      -9.348  12.438  67.164  1.00  0.00    -0.199 A  
HETATM   16  O   UNL     1     -10.027  19.360  69.228  1.00  0.00    -0.404 OA 
HETATM   17  C   UNL     1      -9.087  11.195  66.603  1.00  0.00    -0.180 A  
HETATM   18  C   UNL     1      -9.585  10.883  65.344  1.00  0.00    -0.225 A  
HETATM   19  C   UNL     1     -10.362  11.822  64.654  1.00  0.00    -0.336 A  
ENDROOT
BRANCH  18  20
HETATM   20  O   UNL     1      -9.328   9.611  64.915  1.00  0.00    -0.247 OA 
HETATM   21  S   UNL     1      -8.427   9.325  63.594  1.00  0.00    -0.183 S  
HETATM   22  O   UNL     1      -7.138   9.989  63.729  1.00  0.00    -0.128 OA 
HETATM   23  O   UNL     1      -8.159   7.737  63.720  1.00  0.00    -0.127 OA 
HETATM   24  O   UNL     1      -9.254   9.483  62.423  1.00  0.00    -0.279 OA 
ENDBRANCH  18  20
TORSDOF 1
ENDMDL
MODEL       31
REMARK 921   NORMALIZED FREE ENERGY PREDICTED BY IDOCK:   -6.10 KCAL/MOL
REMARK 922        TOTAL FREE ENERGY PREDICTED BY IDOCK:   -6.58 KCAL/MOL
REMARK 923 INTER-LIGAND FREE ENERGY PREDICTED BY IDOCK:   -6.40 KCAL/MOL
REMARK 924 INTRA-LIGAND FREE ENERGY PREDICTED BY IDOCK:   -0.18 KCAL/MOL
REMARK 927      BINDING AFFINITY PREDICTED BY RF-SCORE:    0.00 PKD
ROOT
HETATM    1  C   UNL     1      -8.518   6.543  71.503  1.00  0.00    -0.125 C  
HETATM    2  C   UNL     1     -10.003   6.113  71.522  1.00  0.00    -0.211 C  
HETATM    3  C   UNL     1     -10.491   5.739  70.135  1.00  0.00    -0.348 C  
HETATM    4  C   UNL     1     -10.481   6.965  69.237  1.00  0.00    -0.233 C  
HETATM    5  C   UNL     1     -11.283   8.141  69.818  1.00  0.00     0.027 C  
HETATM    6  C   UNL     1     -11.027   8.448  71.340  1.00  0.00    -0.311 C  
HETATM    7  C   UNL     1     -12.188   9.380  71.753  1.00  0.00    -0.465 C  
HETATM    8  C   UNL     1     -10.963   7.139  72.161  1.00  0.00    -0.274 C  
HETATM    9  C   UNL     1     -10.520   7.112  73.641  1.00  0.00    -0.412 C  
HETATM   10  C   UNL     1     -12.194  10.698  70.949  1.00  0.00    -0.497 C  
HETATM   11  C   UNL     1     -10.283   5.606  73.934  1.00  0.00    -0.259 C  
HETATM   12  C   UNL     1     -11.622  10.631  69.545  1.00  0.00    -0.360 A  
HETATM   13  C   UNL     1     -10.178   5.018  72.547  1.00  0.00    -0.196 C  
HETATM   14  C   UNL     1     -11.158   9.421  69.002  1.00  0.00    -0.014 A  
HETATM   15  C   UNL     1     -10.640   9.419  67.695  1.00  0.00    -0.333 A  
HETATM   16  O   UNL     1     -10.256   3.821  72.295  1.00  0.00    -0.171 OA 
HETATM   17  C   UNL     1     -10.558  10.587  66.948  1.00  0.00    -0.303 A  
HETATM   18  C   UNL     1     -11.002  11.788  67.487  1.00  0.00    -0.256 A  
HETATM   19  C   UNL     1     -11.545  11.810  68.778  1.00  0.00    -0.367 A  
ENDROOT
BRANCH  18  20
HETATM   20  O   UNL     1     -10.939  12.862  66.644  1.00  0.00    -0.267 OA 
HETATM   21  S   UNL     1     -10.101  14.199  67.031  1.00  0.00    -0.265 S  
HETATM   22  O   UNL     1      -8.726  13.838  67.351  1.00  0.00    -0.185 OA 
HETATM   23  O   UNL     1     -10.069  14.983  65.620  1.00  0.00    -0.312 OA 
HETATM   24  O   UNL     1     -10.904  15.015  67.907  1.00  0.00    -0.265 OA 
ENDBRANCH  18  20
TORSDOF 1
ENDMDL
MODEL       32
REMARK 921   NORMALIZED FREE ENERGY PREDICTED BY IDOCK:   -6.09 KCAL/MOL
REMARK 922        TOTAL FREE ENERGY PREDICTED BY IDOCK:   -6.58 KCAL/MOL
REMARK 923 INTER-LIGAND FREE ENERGY PREDICTED BY IDOCK:   -6.47 KCAL/MOL
REMARK 924 INTRA-LIGAND FREE ENERGY PREDICTED BY IDOCK:   -0.11 KCAL/MOL
REMARK 927      BINDING AFFINITY PREDICTED BY RF-SCORE:    0.00 PKD
ROOT
HETATM    1  C   UNL     1     -10.508  10.641  65.066  1.00  0.00    -0.278 C  
HETATM    2  C   UNL     1     -10.133  10.207  66.502  1.00  0.00    -0.296 C  
HETATM    3  C   UNL     1     -11.146  10.704  67.516  1.00  0.00    -0.367 C  
HETATM    4  C   UNL     1     -11.112  12.223  67.576  1.00  0.00    -0.326 C  
HETATM    5  C   UNL     1      -9.708  12.781  67.863  1.00  0.00    -0.217 C  
HETATM    6  C   UNL     1      -8.541  12.137  67.026  1.00  0.00    -0.191 C  
HETATM    7  C   UNL     1      -7.250  12.580  67.749  1.00  0.00    -0.125 C  
HETATM    8  C   UNL     1      -8.708  10.602  66.942  1.00  0.00    -0.133 C  
HETATM    9  C   UNL     1      -7.833   9.724  66.018  1.00  0.00    -0.107 C  
HETATM   10  C   UNL     1      -7.089  14.116  67.773  1.00  0.00    -0.185 C  
HETATM   11  C   UNL     1      -8.561   8.353  66.004  1.00  0.00    -0.164 C  
HETATM   12  C   UNL     1      -8.373  14.925  67.762  1.00  0.00    -0.163 A  
HETATM   13  C   UNL     1      -9.935   8.710  66.521  1.00  0.00    -0.282 C  
HETATM   14  C   UNL     1      -9.631  14.300  67.778  1.00  0.00    -0.221 A  
HETATM   15  C   UNL     1     -10.786  15.101  67.770  1.00  0.00    -0.292 A  
HETATM   16  O   UNL     1     -10.756   7.894  66.925  1.00  0.00    -0.333 OA 
HETATM   17  C   UNL     1     -10.705  16.486  67.722  1.00  0.00    -0.329 A  
HETATM   18  C   UNL     1      -9.463  17.108  67.692  1.00  0.00    -0.241 A  
HETATM   19  C   UNL     1      -8.298  16.331  67.725  1.00  0.00    -0.169 A  
ENDROOT
BRANCH  18  20
HETATM   20  O   UNL     1      -9.496  18.474  67.716  1.00  0.00    -0.281 OA 
HETATM   21  S   UNL     1      -9.548  19.346  66.346  1.00  0.00    -0.391 S  
HETATM   22  O   UNL     1     -10.678  18.915  65.534  1.00  0.00    -0.556 OA 
HETATM   23  O   UNL     1      -9.903  20.818  66.911  1.00  0.00    -0.380 OA 
HETATM   24  O   UNL     1      -8.214  19.452  65.810  1.00  0.00    -0.439 OA 
ENDBRANCH  18  20
TORSDOF 1
ENDMDL
MODEL       33
REMARK 921   NORMALIZED FREE ENERGY PREDICTED BY IDOCK:   -6.03 KCAL/MOL
REMARK 922        TOTAL FREE ENERGY PREDICTED BY IDOCK:   -6.51 KCAL/MOL
REMARK 923 INTER-LIGAND FREE ENERGY PREDICTED BY IDOCK:   -6.37 KCAL/MOL
REMARK 924 INTRA-LIGAND FREE ENERGY PREDICTED BY IDOCK:   -0.14 KCAL/MOL
REMARK 927      BINDING AFFINITY PREDICTED BY RF-SCORE:    0.00 PKD
ROOT
HETATM    1  C   UNL     1      -9.692  13.429  67.310  1.00  0.00    -0.232 C  
HETATM    2  C   UNL     1     -10.950  12.722  66.755  1.00  0.00    -0.301 C  
HETATM    3  C   UNL     1     -12.013  12.557  67.825  1.00  0.00    -0.286 C  
HETATM    4  C   UNL     1     -11.513  11.614  68.907  1.00  0.00    -0.349 C  
HETATM    5  C   UNL     1     -11.057  10.253  68.353  1.00  0.00    -0.302 C  
HETATM    6  C   UNL     1     -10.143  10.317  67.074  1.00  0.00    -0.268 C  
HETATM    7  C   UNL     1     -10.145   8.875  66.519  1.00  0.00    -0.356 C  
HETATM    8  C   UNL     1     -10.676  11.366  66.070  1.00  0.00    -0.318 C  
HETATM    9  C   UNL     1      -9.875  11.796  64.820  1.00  0.00    -0.238 C  
HETATM   10  C   UNL     1      -9.562   7.860  67.526  1.00  0.00    -0.190 C  
HETATM   11  C   UNL     1     -10.611  13.068  64.322  1.00  0.00    -0.434 C  
HETATM   12  C   UNL     1      -9.728   8.201  68.995  1.00  0.00    -0.163 A  
HETATM   13  C   UNL     1     -11.425  13.466  65.530  1.00  0.00    -0.305 C  
HETATM   14  C   UNL     1     -10.417   9.356  69.405  1.00  0.00    -0.231 A  
HETATM   15  C   UNL     1     -10.542   9.620  70.779  1.00  0.00    -0.392 A  
HETATM   16  O   UNL     1     -12.359  14.259  65.506  1.00  0.00    -0.416 OA 
HETATM   17  C   UNL     1      -9.980   8.778  71.731  1.00  0.00    -0.396 A  
HETATM   18  C   UNL     1      -9.286   7.644  71.330  1.00  0.00    -0.136 A  
HETATM   19  C   UNL     1      -9.171   7.347  69.967  1.00  0.00    -0.148 A  
ENDROOT
BRANCH  18  20
HETATM   20  O   UNL     1      -8.833   6.850  72.347  1.00  0.00    -0.130 OA 
HETATM   21  S   UNL     1      -9.825   5.834  73.137  1.00  0.00    -0.172 S  
HETATM   22  O   UNL     1     -10.484   4.954  72.183  1.00  0.00    -0.205 OA 
HETATM   23  O   UNL     1      -8.772   4.932  73.967  1.00  0.00    -0.111 OA 
HETATM   24  O   UNL     1     -10.559   6.578  74.131  1.00  0.00    -0.293 OA 
ENDBRANCH  18  20
TORSDOF 1
ENDMDL
MODEL       34
REMARK 921   NORMALIZED FREE ENERGY PREDICTED BY IDOCK:   -6.02 KCAL/MOL
REMARK 922        TOTAL FREE ENERGY PREDICTED BY IDOCK:   -6.50 KCAL/MOL
REMARK 923 INTER-LIGAND FREE ENERGY PREDICTED BY IDOCK:   -6.45 KCAL/MOL
REMARK 924 INTRA-LIGAND FREE ENERGY PREDICTED BY IDOCK:   -0.05 KCAL/MOL
REMARK 927      BINDING AFFINITY PREDICTED BY RF-SCORE:    0.00 PKD
ROOT
HETATM    1  C   UNL     1     -10.913  16.123  68.135  1.00  0.00    -0.341 C  
HETATM    2  C   UNL     1     -10.455  15.616  66.748  1.00  0.00    -0.297 C  
HETATM    3  C   UNL     1     -11.497  14.714  66.114  1.00  0.00    -0.339 C  
HETATM    4  C   UNL     1     -11.647  13.443  66.934  1.00  0.00    -0.404 C  
HETATM    5  C   UNL     1     -10.314  12.703  67.142  1.00  0.00    -0.239 C  
HETATM    6  C   UNL     1      -9.098  13.608  67.561  1.00  0.00    -0.213 C  
HETATM    7  C   UNL     1      -7.853  12.720  67.338  1.00  0.00    -0.172 C  
HETATM    8  C   UNL     1      -9.078  14.918  66.740  1.00  0.00    -0.295 C  
HETATM    9  C   UNL     1      -8.125  16.089  67.072  1.00  0.00    -0.257 C  
HETATM   10  C   UNL     1      -7.880  11.445  68.209  1.00  0.00    -0.132 C  
HETATM   11  C   UNL     1      -8.681  17.273  66.237  1.00  0.00    -0.259 C  
HETATM   12  C   UNL     1      -9.252  10.904  68.565  1.00  0.00    -0.181 A  
HETATM   13  C   UNL     1     -10.076  16.804  65.897  1.00  0.00    -0.304 C  
HETATM   14  C   UNL     1     -10.425  11.511  68.084  1.00  0.00    -0.216 A  
HETATM   15  C   UNL     1     -11.668  10.965  68.446  1.00  0.00    -0.290 A  
HETATM   16  O   UNL     1     -10.783  17.304  65.029  1.00  0.00    -0.708 OA 
HETATM   17  C   UNL     1     -11.757   9.859  69.281  1.00  0.00     0.123 A  
HETATM   18  C   UNL     1     -10.601   9.265  69.771  1.00  0.00    -0.231 A  
HETATM   19  C   UNL     1      -9.350   9.777  69.403  1.00  0.00    -0.212 A  
ENDROOT
BRANCH  18  20
HETATM   20  O   UNL     1     -10.799   8.144  70.527  1.00  0.00    -0.233 OA 
HETATM   21  S   UNL     1     -11.138   8.239  72.113  1.00  0.00    -0.353 S  
HETATM   22  O   UNL     1     -12.302   9.090  72.315  1.00  0.00    -0.364 OA 
HETATM   23  O   UNL     1     -11.595   6.724  72.440  1.00  0.00    -0.274 OA 
HETATM   24  O   UNL     1      -9.909   8.435  72.842  1.00  0.00    -0.261 OA 
ENDBRANCH  18  20
TORSDOF 1
ENDMDL
MODEL       35
REMARK 921   NORMALIZED FREE ENERGY PREDICTED BY IDOCK:   -5.97 KCAL/MOL
REMARK 922        TOTAL FREE ENERGY PREDICTED BY IDOCK:   -6.44 KCAL/MOL
REMARK 923 INTER-LIGAND FREE ENERGY PREDICTED BY IDOCK:   -6.85 KCAL/MOL
REMARK 924 INTRA-LIGAND FREE ENERGY PREDICTED BY IDOCK:    0.41 KCAL/MOL
REMARK 927      BINDING AFFINITY PREDICTED BY RF-SCORE:    0.00 PKD
ROOT
HETATM    1  C   UNL     1      -8.010   9.636  67.425  1.00  0.00    -0.106 C  
HETATM    2  C   UNL     1      -9.455   9.135  67.196  1.00  0.00    -0.197 C  
HETATM    3  C   UNL     1     -10.033   9.677  65.903  1.00  0.00    -0.351 C  
HETATM    4  C   UNL     1     -10.184  11.187  65.999  1.00  0.00    -0.300 C  
HETATM    5  C   UNL     1     -11.012  11.631  67.216  1.00  0.00    -0.318 C  
HETATM    6  C   UNL     1     -10.648  10.927  68.575  1.00  0.00    -0.219 C  
HETATM    7  C   UNL     1     -11.830  11.253  69.515  1.00  0.00    -0.427 C  
HETATM    8  C   UNL     1     -10.424   9.411  68.365  1.00  0.00    -0.256 C  
HETATM    9  C   UNL     1      -9.855   8.498  69.475  1.00  0.00    -0.187 C  
HETATM   10  C   UNL     1     -11.996  12.772  69.742  1.00  0.00    -0.362 C  
HETATM   11  C   UNL     1      -9.491   7.186  68.730  1.00  0.00    -0.141 C  
HETATM   12  C   UNL     1     -11.542  13.673  68.609  1.00  0.00    -0.364 A  
HETATM   13  C   UNL     1      -9.466   7.628  67.286  1.00  0.00    -0.148 C  
HETATM   14  C   UNL     1     -11.045  13.143  67.406  1.00  0.00    -0.301 A  
HETATM   15  C   UNL     1     -10.642  14.026  66.391  1.00  0.00    -0.280 A  
HETATM   16  O   UNL     1      -9.484   6.864  66.328  1.00  0.00    -0.155 OA 
HETATM   17  C   UNL     1     -10.704  15.403  66.563  1.00  0.00    -0.308 A  
HETATM   18  C   UNL     1     -11.182  15.932  67.756  1.00  0.00    -0.258 A  
HETATM   19  C   UNL     1     -11.612  15.071  68.772  1.00  0.00    -0.357 A  
ENDROOT
BRANCH  18  20
HETATM   20  O   UNL     1     -11.265  17.296  67.795  1.00  0.00    -0.150 OA 
HETATM   21  S   UNL     1     -10.050  18.236  67.265  1.00  0.00    -0.374 S  
HETATM   22  O   UNL     1      -9.716  17.877  65.894  1.00  0.00    -0.530 OA 
HETATM   23  O   UNL     1     -10.760  19.687  67.216  1.00  0.00    -0.474 OA 
HETATM   24  O   UNL     1      -9.050  18.332  68.299  1.00  0.00    -0.289 OA 
ENDBRANCH  18  20
TORSDOF 1
ENDMDL
MODEL       36
REMARK 921   NORMALIZED FREE ENERGY PREDICTED BY IDOCK:   -5.96 KCAL/MOL
REMARK 922        TOTAL FREE ENERGY PREDICTED BY IDOCK:   -6.44 KCAL/MOL
REMARK 923 INTER-LIGAND FREE ENERGY PREDICTED BY IDOCK:   -6.35 KCAL/MOL
REMARK 924 INTRA-LIGAND FREE ENERGY PREDICTED BY IDOCK:   -0.08 KCAL/MOL
REMARK 927      BINDING AFFINITY PREDICTED BY RF-SCORE:    0.00 PKD
ROOT
HETATM    1  C   UNL     1      -9.269  17.067  68.681  1.00  0.00    -0.266 C  
HETATM    2  C   UNL     1      -8.979  16.639  67.224  1.00  0.00    -0.211 C  
HETATM    3  C   UNL     1     -10.244  16.199  66.511  1.00  0.00    -0.304 C  
HETATM    4  C   UNL     1     -10.787  14.935  67.159  1.00  0.00    -0.311 C  
HETATM    5  C   UNL     1      -9.751  13.800  67.221  1.00  0.00    -0.242 C  
HETATM    6  C   UNL     1      -8.318  14.219  67.715  1.00  0.00    -0.174 C  
HETATM    7  C   UNL     1      -7.408  13.030  67.333  1.00  0.00    -0.122 C  
HETATM    8  C   UNL     1      -7.886  15.559  67.075  1.00  0.00    -0.260 C  
HETATM    9  C   UNL     1      -6.620  16.322  67.528  1.00  0.00    -0.193 C  
HETATM   10  C   UNL     1      -7.837  11.718  68.026  1.00  0.00    -0.134 C  
HETATM   11  C   UNL     1      -6.774  17.723  66.878  1.00  0.00    -0.211 C  
HETATM   12  C   UNL     1      -9.312  11.583  68.354  1.00  0.00    -0.194 A  
HETATM   13  C   UNL     1      -8.243  17.758  66.526  1.00  0.00    -0.269 C  
HETATM   14  C   UNL     1     -10.235  12.582  67.998  1.00  0.00    -0.225 A  
HETATM   15  C   UNL     1     -11.589  12.402  68.326  1.00  0.00    -0.384 A  
HETATM   16  O   UNL     1      -8.751  18.565  65.757  1.00  0.00    -0.429 OA 
HETATM   17  C   UNL     1     -12.024  11.273  69.009  1.00  0.00    -0.393 A  
HETATM   18  C   UNL     1     -11.113  10.290  69.375  1.00  0.00    -0.252 A  
HETATM   19  C   UNL     1      -9.762  10.437  69.037  1.00  0.00    -0.216 A  
ENDROOT
BRANCH  18  20
HETATM   20  O   UNL     1     -11.656   9.192  69.982  1.00  0.00    -0.111 OA 
HETATM   21  S   UNL     1     -11.884   9.136  71.590  1.00  0.00    -0.395 S  
HETATM   22  O   UNL     1     -12.678  10.281  72.011  1.00  0.00    -0.401 OA 
HETATM   23  O   UNL     1     -12.820   7.828  71.740  1.00  0.00    -0.319 OA 
HETATM   24  O   UNL     1     -10.637   8.791  72.225  1.00  0.00    -0.337 OA 
ENDBRANCH  18  20
TORSDOF 1
ENDMDL
MODEL       37
REMARK 921   NORMALIZED FREE ENERGY PREDICTED BY IDOCK:   -5.88 KCAL/MOL
REMARK 922        TOTAL FREE ENERGY PREDICTED BY IDOCK:   -6.35 KCAL/MOL
REMARK 923 INTER-LIGAND FREE ENERGY PREDICTED BY IDOCK:   -6.18 KCAL/MOL
REMARK 924 INTRA-LIGAND FREE ENERGY PREDICTED BY IDOCK:   -0.18 KCAL/MOL
REMARK 927      BINDING AFFINITY PREDICTED BY RF-SCORE:    0.00 PKD
ROOT
HETATM    1  C   UNL     1     -10.871  11.572  65.155  1.00  0.00    -0.326 C  
HETATM    2  C   UNL     1     -10.487  12.818  65.987  1.00  0.00    -0.291 C  
HETATM    3  C   UNL     1      -9.087  12.696  66.558  1.00  0.00    -0.163 C  
HETATM    4  C   UNL     1      -9.038  11.558  67.564  1.00  0.00    -0.166 C  
HETATM    5  C   UNL     1     -10.090  11.696  68.678  1.00  0.00    -0.206 C  
HETATM    6  C   UNL     1     -11.538  12.075  68.196  1.00  0.00    -0.403 C  
HETATM    7  C   UNL     1     -12.277  12.512  69.481  1.00  0.00    -0.139 C  
HETATM    8  C   UNL     1     -11.486  13.174  67.109  1.00  0.00    -0.378 C  
HETATM    9  C   UNL     1     -12.734  13.601  66.303  1.00  0.00    -0.222 C  
HETATM   10  C   UNL     1     -12.355  11.377  70.526  1.00  0.00    -0.439 C  
HETATM   11  C   UNL     1     -12.155  14.445  65.136  1.00  0.00    -0.395 C  
HETATM   12  C   UNL     1     -11.225  10.364  70.502  1.00  0.00    -0.395 A  
HETATM   13  C   UNL     1     -10.697  14.051  65.142  1.00  0.00    -0.382 C  
HETATM   14  C   UNL     1     -10.149  10.489  69.607  1.00  0.00    -0.177 A  
HETATM   15  C   UNL     1      -9.130   9.522  69.631  1.00  0.00    -0.207 A  
HETATM   16  O   UNL     1      -9.811  14.669  64.563  1.00  0.00     0.030 OA 
HETATM   17  C   UNL     1      -9.180   8.442  70.503  1.00  0.00    -0.165 A  
HETATM   18  C   UNL     1     -10.249   8.306  71.380  1.00  0.00    -0.207 A  
HETATM   19  C   UNL     1     -11.263   9.272  71.390  1.00  0.00    -0.433 A  
ENDROOT
BRANCH  18  20
HETATM   20  O   UNL     1     -10.164   7.247  72.240  1.00  0.00    -0.189 OA 
HETATM   21  S   UNL     1     -10.968   5.862  71.962  1.00  0.00    -0.272 S  
HETATM   22  O   UNL     1     -10.627   5.356  70.640  1.00  0.00    -0.263 OA 
HETATM   23  O   UNL     1     -10.288   4.870  73.040  1.00  0.00    -0.168 OA 
HETATM   24  O   UNL     1     -12.334   6.022  72.395  1.00  0.00    -0.221 OA 
ENDBRANCH  18  20
TORSDOF 1
ENDMDL
MODEL       38
REMARK 921   NORMALIZED FREE ENERGY PREDICTED BY IDOCK:   -5.88 KCAL/MOL
REMARK 922        TOTAL FREE ENERGY PREDICTED BY IDOCK:   -6.35 KCAL/MOL
REMARK 923 INTER-LIGAND FREE ENERGY PREDICTED BY IDOCK:   -6.34 KCAL/MOL
REMARK 924 INTRA-LIGAND FREE ENERGY PREDICTED BY IDOCK:   -0.02 KCAL/MOL
REMARK 927      BINDING AFFINITY PREDICTED BY RF-SCORE:    0.00 PKD
ROOT
HETATM    1  C   UNL     1      -8.009  17.686  67.356  1.00  0.00    -0.217 C  
HETATM    2  C   UNL     1      -9.485  17.617  67.812  1.00  0.00    -0.260 C  
HETATM    3  C   UNL     1      -9.658  16.688  68.999  1.00  0.00    -0.246 C  
HETATM    4  C   UNL     1      -9.339  15.260  68.586  1.00  0.00    -0.201 C  
HETATM    5  C   UNL     1     -10.163  14.788  67.376  1.00  0.00    -0.236 C  
HETATM    6  C   UNL     1     -10.252  15.806  66.180  1.00  0.00    -0.332 C  
HETATM    7  C   UNL     1     -11.402  15.273  65.296  1.00  0.00    -0.282 C  
HETATM    8  C   UNL     1     -10.486  17.244  66.699  1.00  0.00    -0.257 C  
HETATM    9  C   UNL     1     -10.411  18.480  65.773  1.00  0.00    -0.277 C  
HETATM   10  C   UNL     1     -11.115  13.855  64.754  1.00  0.00    -0.386 C  
HETATM   11  C   UNL     1     -10.368  19.681  66.755  1.00  0.00    -0.591 C  
HETATM   12  C   UNL     1     -10.232  12.973  65.618  1.00  0.00    -0.296 A  
HETATM   13  C   UNL     1      -9.983  19.022  68.058  1.00  0.00    -0.368 C  
HETATM   14  C   UNL     1      -9.749  13.415  66.861  1.00  0.00    -0.253 A  
HETATM   15  C   UNL     1      -8.937  12.553  67.618  1.00  0.00    -0.185 A  
HETATM   16  O   UNL     1     -10.092  19.548  69.160  1.00  0.00    -0.424 OA 
HETATM   17  C   UNL     1      -8.590  11.292  67.152  1.00  0.00    -0.147 A  
HETATM   18  C   UNL     1      -9.054  10.856  65.917  1.00  0.00    -0.193 A  
HETATM   19  C   UNL     1      -9.884  11.688  65.157  1.00  0.00    -0.281 A  
ENDROOT
BRANCH  18  20
HETATM   20  O   UNL     1      -8.709   9.575  65.586  1.00  0.00    -0.134 OA 
HETATM   21  S   UNL     1      -9.063   8.322  66.558  1.00  0.00    -0.190 S  
HETATM   22  O   UNL     1     -10.491   8.311  66.840  1.00  0.00    -0.319 OA 
HETATM   23  O   UNL     1      -8.760   7.065  65.590  1.00  0.00    -0.140 OA 
HETATM   24  O   UNL     1      -8.073   8.250  67.604  1.00  0.00    -0.122 OA 
ENDBRANCH  18  20
TORSDOF 1
ENDMDL
MODEL       39
REMARK 921   NORMALIZED FREE ENERGY PREDICTED BY IDOCK:   -5.86 KCAL/MOL
REMARK 922        TOTAL FREE ENERGY PREDICTED BY IDOCK:   -6.33 KCAL/MOL
REMARK 923 INTER-LIGAND FREE ENERGY PREDICTED BY IDOCK:   -6.20 KCAL/MOL
REMARK 924 INTRA-LIGAND FREE ENERGY PREDICTED BY IDOCK:   -0.14 KCAL/MOL
REMARK 927      BINDING AFFINITY PREDICTED BY RF-SCORE:    0.00 PKD
ROOT
HETATM    1  C   UNL     1      -9.655   9.881  64.777  1.00  0.00    -0.339 C  
HETATM    2  C   UNL     1      -9.868   9.755  66.303  1.00  0.00    -0.315 C  
HETATM    3  C   UNL     1     -11.140  10.452  66.746  1.00  0.00    -0.023 C  
HETATM    4  C   UNL     1     -11.013  11.950  66.520  1.00  0.00    -0.337 C  
HETATM    5  C   UNL     1      -9.773  12.556  67.199  1.00  0.00    -0.205 C  
HETATM    6  C   UNL     1      -8.435  11.753  67.003  1.00  0.00    -0.175 C  
HETATM    7  C   UNL     1      -7.469  12.337  68.057  1.00  0.00    -0.115 C  
HETATM    8  C   UNL     1      -8.677  10.234  67.161  1.00  0.00    -0.131 C  
HETATM    9  C   UNL     1      -7.596   9.183  66.821  1.00  0.00    -0.087 C  
HETATM   10  C   UNL     1      -7.209  13.844  67.842  1.00  0.00    -0.162 C  
HETATM   11  C   UNL     1      -8.372   7.839  66.799  1.00  0.00    -0.125 C  
HETATM   12  C   UNL     1      -8.333  14.633  67.195  1.00  0.00    -0.236 A  
HETATM   13  C   UNL     1      -9.807   8.295  66.684  1.00  0.00    -0.267 C  
HETATM   14  C   UNL     1      -9.554  14.024  66.858  1.00  0.00    -0.275 A  
HETATM   15  C   UNL     1     -10.559  14.805  66.262  1.00  0.00    -0.306 A  
HETATM   16  O   UNL     1     -10.780   7.581  66.900  1.00  0.00    -0.352 OA 
HETATM   17  C   UNL     1     -10.359  16.150  65.982  1.00  0.00    -0.372 A  
HETATM   18  C   UNL     1      -9.148  16.753  66.300  1.00  0.00    -0.285 A  
HETATM   19  C   UNL     1      -8.141  16.001  66.917  1.00  0.00    -0.282 A  
ENDROOT
BRANCH  18  20
HETATM   20  O   UNL     1      -9.082  18.094  66.046  1.00  0.00    -0.513 OA 
HETATM   21  S   UNL     1      -9.495  19.193  67.168  1.00  0.00    -0.325 S  
HETATM   22  O   UNL     1      -8.730  18.961  68.385  1.00  0.00    -0.322 OA 
HETATM   23  O   UNL     1      -8.936  20.558  66.509  1.00  0.00    -0.172 OA 
HETATM   24  O   UNL     1     -10.931  19.332  67.178  1.00  0.00    -0.476 OA 
ENDBRANCH  18  20
TORSDOF 1
ENDMDL
MODEL       40
REMARK 921   NORMALIZED FREE ENERGY PREDICTED BY IDOCK:   -5.84 KCAL/MOL
REMARK 922        TOTAL FREE ENERGY PREDICTED BY IDOCK:   -6.31 KCAL/MOL
REMARK 923 INTER-LIGAND FREE ENERGY PREDICTED BY IDOCK:   -6.17 KCAL/MOL
REMARK 924 INTRA-LIGAND FREE ENERGY PREDICTED BY IDOCK:   -0.14 KCAL/MOL
REMARK 927      BINDING AFFINITY PREDICTED BY RF-SCORE:    0.00 PKD
ROOT
HETATM    1  C   UNL     1     -12.222  14.326  66.547  1.00  0.00    -0.419 C  
HETATM    2  C   UNL     1     -11.026  14.508  65.584  1.00  0.00    -0.323 C  
HETATM    3  C   UNL     1     -11.069  13.504  64.448  1.00  0.00    -0.397 C  
HETATM    4  C   UNL     1     -10.883  12.098  64.996  1.00  0.00    -0.344 C  
HETATM    5  C   UNL     1      -9.602  11.945  65.834  1.00  0.00    -0.248 C  
HETATM    6  C   UNL     1      -9.340  13.091  66.880  1.00  0.00    -0.241 C  
HETATM    7  C   UNL     1      -7.863  12.908  67.299  1.00  0.00    -0.134 C  
HETATM    8  C   UNL     1      -9.641  14.477  66.265  1.00  0.00    -0.328 C  
HETATM    9  C   UNL     1      -9.672  15.769  67.112  1.00  0.00    -0.227 C  
HETATM   10  C   UNL     1      -7.606  11.534  67.954  1.00  0.00    -0.113 C  
HETATM   11  C   UNL     1     -10.333  16.816  66.176  1.00  0.00    -0.338 C  
HETATM   12  C   UNL     1      -8.504  10.397  67.503  1.00  0.00    -0.115 A  
HETATM   13  C   UNL     1     -10.985  15.947  65.126  1.00  0.00    -0.377 C  
HETATM   14  C   UNL     1      -9.480  10.585  66.510  1.00  0.00    -0.200 A  
HETATM   15  C   UNL     1     -10.282   9.495  66.132  1.00  0.00    -0.272 A  
HETATM   16  O   UNL     1     -11.393  16.355  64.045  1.00  0.00    -0.964 OA 
HETATM   17  C   UNL     1     -10.143   8.252  66.734  1.00  0.00    -0.373 A  
HETATM   18  C   UNL     1      -9.188   8.064  67.726  1.00  0.00    -0.134 A  
HETATM   19  C   UNL     1      -8.361   9.130  68.102  1.00  0.00    -0.120 A  
ENDROOT
BRANCH  18  20
HETATM   20  O   UNL     1      -9.089   6.787  68.202  1.00  0.00    -0.126 OA 
HETATM   21  S   UNL     1      -8.277   5.638  67.389  1.00  0.00    -0.100 S  
HETATM   22  O   UNL     1      -6.918   6.093  67.126  1.00  0.00    -0.065 OA 
HETATM   23  O   UNL     1      -8.178   4.465  68.496  1.00  0.00    -0.084 OA 
HETATM   24  O   UNL     1      -9.126   5.115  66.348  1.00  0.00    -0.124 OA 
ENDBRANCH  18  20
TORSDOF 1
ENDMDL
MODEL       41
REMARK 921   NORMALIZED FREE ENERGY PREDICTED BY IDOCK:   -5.82 KCAL/MOL
REMARK 922        TOTAL FREE ENERGY PREDICTED BY IDOCK:   -6.29 KCAL/MOL
REMARK 923 INTER-LIGAND FREE ENERGY PREDICTED BY IDOCK:   -6.10 KCAL/MOL
REMARK 924 INTRA-LIGAND FREE ENERGY PREDICTED BY IDOCK:   -0.19 KCAL/MOL
REMARK 927      BINDING AFFINITY PREDICTED BY RF-SCORE:    0.00 PKD
ROOT
HETATM    1  C   UNL     1      -8.808  15.988  68.713  1.00  0.00    -0.227 C  
HETATM    2  C   UNL     1     -10.227  16.247  68.157  1.00  0.00    -0.258 C  
HETATM    3  C   UNL     1     -11.296  15.898  69.175  1.00  0.00    -0.366 C  
HETATM    4  C   UNL     1     -11.281  14.402  69.445  1.00  0.00    -0.317 C  
HETATM    5  C   UNL     1     -11.424  13.559  68.167  1.00  0.00    -0.338 C  
HETATM    6  C   UNL     1     -10.526  14.011  66.956  1.00  0.00    -0.275 C  
HETATM    7  C   UNL     1     -11.118  13.275  65.733  1.00  0.00    -0.296 C  
HETATM    8  C   UNL     1     -10.529  15.550  66.813  1.00  0.00    -0.295 C  
HETATM    9  C   UNL     1      -9.579  16.293  65.847  1.00  0.00    -0.336 C  
HETATM   10  C   UNL     1     -11.055  11.739  65.887  1.00  0.00    -0.355 C  
HETATM   11  C   UNL     1      -9.690  17.780  66.281  1.00  0.00    -0.277 C  
HETATM   12  C   UNL     1     -11.112  11.204  67.305  1.00  0.00    -0.366 A  
HETATM   13  C   UNL     1     -10.301  17.671  67.658  1.00  0.00    -0.368 C  
HETATM   14  C   UNL     1     -11.261  12.064  68.406  1.00  0.00    -0.313 A  
HETATM   15  C   UNL     1     -11.309  11.511  69.697  1.00  0.00    -0.329 A  
HETATM   16  O   UNL     1     -10.810  18.606  68.266  1.00  0.00    -0.154 OA 
HETATM   17  C   UNL     1     -11.190  10.142  69.902  1.00  0.00    -0.343 A  
HETATM   18  C   UNL     1     -11.027   9.289  68.818  1.00  0.00    -0.007 A  
HETATM   19  C   UNL     1     -11.002   9.816  67.520  1.00  0.00    -0.205 A  
ENDROOT
BRANCH  18  20
HETATM   20  O   UNL     1     -10.989   7.958  69.126  1.00  0.00    -0.097 OA 
HETATM   21  S   UNL     1      -9.586   7.141  69.187  1.00  0.00    -0.154 S  
HETATM   22  O   UNL     1      -8.671   7.808  70.102  1.00  0.00    -0.138 OA 
HETATM   23  O   UNL     1     -10.043   5.762  69.893  1.00  0.00    -0.178 OA 
HETATM   24  O   UNL     1      -9.200   6.776  67.846  1.00  0.00    -0.116 OA 
ENDBRANCH  18  20
TORSDOF 1
ENDMDL
MODEL       42
REMARK 921   NORMALIZED FREE ENERGY PREDICTED BY IDOCK:   -5.79 KCAL/MOL
REMARK 922        TOTAL FREE ENERGY PREDICTED BY IDOCK:   -6.26 KCAL/MOL
REMARK 923 INTER-LIGAND FREE ENERGY PREDICTED BY IDOCK:   -6.06 KCAL/MOL
REMARK 924 INTRA-LIGAND FREE ENERGY PREDICTED BY IDOCK:   -0.20 KCAL/MOL
REMARK 927      BINDING AFFINITY PREDICTED BY RF-SCORE:    0.00 PKD
ROOT
HETATM    1  C   UNL     1      -5.442  18.128  67.108  1.00  0.00    -0.145 C  
HETATM    2  C   UNL     1      -6.631  18.792  67.839  1.00  0.00    -0.223 C  
HETATM    3  C   UNL     1      -6.911  18.122  69.170  1.00  0.00    -0.240 C  
HETATM    4  C   UNL     1      -7.379  16.694  68.940  1.00  0.00    -0.225 C  
HETATM    5  C   UNL     1      -8.592  16.604  67.998  1.00  0.00    -0.193 C  
HETATM    6  C   UNL     1      -8.499  17.477  66.693  1.00  0.00    -0.288 C  
HETATM    7  C   UNL     1      -9.941  17.507  66.138  1.00  0.00    -0.280 C  
HETATM    8  C   UNL     1      -7.929  18.880  67.009  1.00  0.00    -0.262 C  
HETATM    9  C   UNL     1      -7.532  19.880  65.899  1.00  0.00    -0.342 C  
HETATM   10  C   UNL     1     -10.463  16.096  65.788  1.00  0.00    -0.384 C  
HETATM   11  C   UNL     1      -6.718  20.968  66.649  1.00  0.00    -0.329 C  
HETATM   12  C   UNL     1      -9.892  14.949  66.600  1.00  0.00    -0.272 A  
HETATM   13  C   UNL     1      -6.369  20.276  67.946  1.00  0.00    -0.248 C  
HETATM   14  C   UNL     1      -8.977  15.174  67.642  1.00  0.00    -0.183 A  
HETATM   15  C   UNL     1      -8.483  14.073  68.361  1.00  0.00    -0.166 A  
HETATM   16  O   UNL     1      -5.959  20.849  68.949  1.00  0.00    -0.351 OA 
HETATM   17  C   UNL     1      -8.864  12.775  68.047  1.00  0.00    -0.195 A  
HETATM   18  C   UNL     1      -9.758  12.546  67.008  1.00  0.00    -0.213 A  
HETATM   19  C   UNL     1     -10.282  13.630  66.294  1.00  0.00    -0.296 A  
ENDROOT
BRANCH  18  20
HETATM   20  O   UNL     1     -10.117  11.239  66.828  1.00  0.00    -0.208 OA 
HETATM   21  S   UNL     1      -9.646  10.401  65.518  1.00  0.00    -0.256 S  
HETATM   22  O   UNL     1      -8.196  10.456  65.399  1.00  0.00    -0.152 OA 
HETATM   23  O   UNL     1     -10.032   8.891  65.943  1.00  0.00    -0.245 OA 
HETATM   24  O   UNL     1     -10.520  10.727  64.418  1.00  0.00    -0.365 OA 
ENDBRANCH  18  20
TORSDOF 1
ENDMDL
MODEL       43
REMARK 921   NORMALIZED FREE ENERGY PREDICTED BY IDOCK:   -5.69 KCAL/MOL
REMARK 922        TOTAL FREE ENERGY PREDICTED BY IDOCK:   -6.15 KCAL/MOL
REMARK 923 INTER-LIGAND FREE ENERGY PREDICTED BY IDOCK:   -6.01 KCAL/MOL
REMARK 924 INTRA-LIGAND FREE ENERGY PREDICTED BY IDOCK:   -0.14 KCAL/MOL
REMARK 927      BINDING AFFINITY PREDICTED BY RF-SCORE:    0.00 PKD
ROOT
HETATM    1  C   UNL     1     -10.905  18.074  68.040  1.00  0.00    -0.194 C  
HETATM    2  C   UNL     1      -9.946  18.078  66.828  1.00  0.00    -0.346 C  
HETATM    3  C   UNL     1     -10.577  17.418  65.617  1.00  0.00    -0.158 C  
HETATM    4  C   UNL     1     -10.803  15.940  65.895  1.00  0.00    -0.237 C  
HETATM    5  C   UNL     1      -9.522  15.209  66.332  1.00  0.00    -0.325 C  
HETATM    6  C   UNL     1      -8.658  15.950  67.418  1.00  0.00    -0.189 C  
HETATM    7  C   UNL     1      -7.295  15.223  67.397  1.00  0.00    -0.241 C  
HETATM    8  C   UNL     1      -8.558  17.461  67.103  1.00  0.00    -0.233 C  
HETATM    9  C   UNL     1      -7.949  18.475  68.099  1.00  0.00    -0.308 C  
HETATM   10  C   UNL     1      -7.423  13.728  67.763  1.00  0.00    -0.168 C  
HETATM   11  C   UNL     1      -8.364  19.857  67.527  1.00  0.00    -0.366 C  
HETATM   12  C   UNL     1      -8.742  13.063  67.416  1.00  0.00    -0.205 A  
HETATM   13  C   UNL     1      -9.483  19.494  66.580  1.00  0.00    -0.375 C  
HETATM   14  C   UNL     1      -9.764  13.766  66.755  1.00  0.00    -0.277 A  
HETATM   15  C   UNL     1     -10.964  13.097  66.457  1.00  0.00    -0.303 A  
HETATM   16  O   UNL     1      -9.927  20.240  65.714  1.00  0.00    -0.387 OA 
HETATM   17  C   UNL     1     -11.163  11.772  66.822  1.00  0.00    -0.388 A  
HETATM   18  C   UNL     1     -10.161  11.078  67.488  1.00  0.00    -0.180 A  
HETATM   19  C   UNL     1      -8.947  11.716  67.773  1.00  0.00    -0.170 A  
ENDROOT
BRANCH  18  20
HETATM   20  O   UNL     1     -10.433   9.762  67.739  1.00  0.00    -0.213 OA 
HETATM   21  S   UNL     1     -10.069   9.076  69.166  1.00  0.00    -0.201 S  
HETATM   22  O   UNL     1     -10.677   9.842  70.245  1.00  0.00    -0.257 OA 
HETATM   23  O   UNL     1     -10.870   7.676  69.068  1.00  0.00    -0.161 OA 
HETATM   24  O   UNL     1      -8.672   8.720  69.169  1.00  0.00    -0.133 OA 
ENDBRANCH  18  20
TORSDOF 1
ENDMDL
MODEL       44
REMARK 921   NORMALIZED FREE ENERGY PREDICTED BY IDOCK:   -5.68 KCAL/MOL
REMARK 922        TOTAL FREE ENERGY PREDICTED BY IDOCK:   -6.14 KCAL/MOL
REMARK 923 INTER-LIGAND FREE ENERGY PREDICTED BY IDOCK:   -6.05 KCAL/MOL
REMARK 924 INTRA-LIGAND FREE ENERGY PREDICTED BY IDOCK:   -0.09 KCAL/MOL
REMARK 927      BINDING AFFINITY PREDICTED BY RF-SCORE:    0.00 PKD
ROOT
HETATM    1  C   UNL     1      -5.586  18.585  67.142  1.00  0.00    -0.142 C  
HETATM    2  C   UNL     1      -6.549  19.033  68.265  1.00  0.00    -0.265 C  
HETATM    3  C   UNL     1      -6.363  18.202  69.521  1.00  0.00    -0.222 C  
HETATM    4  C   UNL     1      -6.767  16.761  69.250  1.00  0.00    -0.229 C  
HETATM    5  C   UNL     1      -8.196  16.632  68.696  1.00  0.00    -0.245 C  
HETATM    6  C   UNL     1      -8.567  17.639  67.545  1.00  0.00    -0.222 C  
HETATM    7  C   UNL     1     -10.107  17.562  67.440  1.00  0.00    -0.325 C  
HETATM    8  C   UNL     1      -8.039  19.057  67.864  1.00  0.00    -0.309 C  
HETATM    9  C   UNL     1      -8.073  20.204  66.829  1.00  0.00    -0.350 C  
HETATM   10  C   UNL     1     -10.599  16.145  67.073  1.00  0.00    -0.292 C  
HETATM   11  C   UNL     1      -7.158  21.295  67.448  1.00  0.00    -0.208 C  
HETATM   12  C   UNL     1      -9.723  14.992  67.528  1.00  0.00    -0.215 A  
HETATM   13  C   UNL     1      -6.383  20.517  68.485  1.00  0.00    -0.306 C  
HETATM   14  C   UNL     1      -8.558  15.212  68.281  1.00  0.00    -0.164 A  
HETATM   15  C   UNL     1      -7.787  14.105  68.677  1.00  0.00    -0.137 A  
HETATM   16  O   UNL     1      -5.737  21.028  69.393  1.00  0.00    -0.365 OA 
HETATM   17  C   UNL     1      -8.143  12.811  68.318  1.00  0.00    -0.154 A  
HETATM   18  C   UNL     1      -9.287  12.591  67.561  1.00  0.00    -0.187 A  
HETATM   19  C   UNL     1     -10.084  13.676  67.177  1.00  0.00    -0.245 A  
ENDROOT
BRANCH  18  20
HETATM   20  O   UNL     1      -9.581  11.277  67.323  1.00  0.00    -0.172 OA 
HETATM   21  S   UNL     1     -10.702  10.487  68.193  1.00  0.00    -0.254 S  
HETATM   22  O   UNL     1     -11.963  11.213  68.142  1.00  0.00    -0.615 OA 
HETATM   23  O   UNL     1     -10.896   9.138  67.326  1.00  0.00    -0.233 OA 
HETATM   24  O   UNL     1     -10.111  10.061  69.438  1.00  0.00    -0.192 OA 
ENDBRANCH  18  20
TORSDOF 1
ENDMDL
MODEL       45
REMARK 921   NORMALIZED FREE ENERGY PREDICTED BY IDOCK:   -5.65 KCAL/MOL
REMARK 922        TOTAL FREE ENERGY PREDICTED BY IDOCK:   -6.11 KCAL/MOL
REMARK 923 INTER-LIGAND FREE ENERGY PREDICTED BY IDOCK:   -5.98 KCAL/MOL
REMARK 924 INTRA-LIGAND FREE ENERGY PREDICTED BY IDOCK:   -0.13 KCAL/MOL
REMARK 927      BINDING AFFINITY PREDICTED BY RF-SCORE:    0.00 PKD
ROOT
HETATM    1  C   UNL     1     -11.032   6.389  67.478  1.00  0.00    -0.454 C  
HETATM    2  C   UNL     1      -9.588   6.684  67.943  1.00  0.00    -0.121 C  
HETATM    3  C   UNL     1      -9.509   6.837  69.450  1.00  0.00    -0.147 C  
HETATM    4  C   UNL     1     -10.289   8.067  69.885  1.00  0.00    -0.221 C  
HETATM    5  C   UNL     1      -9.838   9.349  69.164  1.00  0.00    -0.174 C  
HETATM    6  C   UNL     1      -9.646   9.218  67.609  1.00  0.00    -0.172 C  
HETATM    7  C   UNL     1      -8.854  10.481  67.204  1.00  0.00    -0.140 C  
HETATM    8  C   UNL     1      -8.925   7.896  67.254  1.00  0.00    -0.137 C  
HETATM    9  C   UNL     1      -8.782   7.398  65.797  1.00  0.00    -0.132 C  
HETATM   10  C   UNL     1      -9.621  11.782  67.527  1.00  0.00    -0.179 C  
HETATM   11  C   UNL     1      -8.320   5.924  65.950  1.00  0.00    -0.136 C  
HETATM   12  C   UNL     1     -10.575  11.723  68.706  1.00  0.00    -0.234 A  
HETATM   13  C   UNL     1      -8.671   5.620  67.387  1.00  0.00    -0.107 C  
HETATM   14  C   UNL     1     -10.708  10.559  69.481  1.00  0.00    -0.291 A  
HETATM   15  C   UNL     1     -11.606  10.563  70.562  1.00  0.00    -0.441 A  
HETATM   16  O   UNL     1      -8.243   4.660  68.017  1.00  0.00    -0.091 OA 
HETATM   17  C   UNL     1     -12.374  11.682  70.860  1.00  0.00    -0.436 A  
HETATM   18  C   UNL     1     -12.255  12.831  70.087  1.00  0.00    -0.249 A  
HETATM   19  C   UNL     1     -11.349  12.857  69.020  1.00  0.00    -0.341 A  
ENDROOT
BRANCH  18  20
HETATM   20  O   UNL     1     -13.004  13.894  70.508  1.00  0.00    -0.240 OA 
HETATM   21  S   UNL     1     -12.553  14.801  71.778  1.00  0.00    -0.353 S  
HETATM   22  O   UNL     1     -11.201  15.300  71.566  1.00  0.00    -0.379 OA 
HETATM   23  O   UNL     1     -13.552  16.064  71.646  1.00  0.00    -0.323 OA 
HETATM   24  O   UNL     1     -12.942  14.129  72.993  1.00  0.00    -0.478 OA 
ENDBRANCH  18  20
TORSDOF 1
ENDMDL
MODEL       46
REMARK 921   NORMALIZED FREE ENERGY PREDICTED BY IDOCK:   -5.64 KCAL/MOL
REMARK 922        TOTAL FREE ENERGY PREDICTED BY IDOCK:   -6.10 KCAL/MOL
REMARK 923 INTER-LIGAND FREE ENERGY PREDICTED BY IDOCK:   -5.95 KCAL/MOL
REMARK 924 INTRA-LIGAND FREE ENERGY PREDICTED BY IDOCK:   -0.15 KCAL/MOL
REMARK 927      BINDING AFFINITY PREDICTED BY RF-SCORE:    0.00 PKD
ROOT
HETATM    1  C   UNL     1     -11.809  14.122  72.605  1.00  0.00     0.676 C  
HETATM    2  C   UNL     1     -12.907  13.978  71.527  1.00  0.00    -0.440 C  
HETATM    3  C   UNL     1     -14.026  13.066  71.991  1.00  0.00    -0.196 C  
HETATM    4  C   UNL     1     -13.500  11.650  72.164  1.00  0.00    -0.238 C  
HETATM    5  C   UNL     1     -12.818  11.105  70.898  1.00  0.00    -0.374 C  
HETATM    6  C   UNL     1     -11.814  12.090  70.194  1.00  0.00    -0.383 C  
HETATM    7  C   UNL     1     -11.572  11.472  68.798  1.00  0.00    -0.379 C  
HETATM    8  C   UNL     1     -12.394  13.523  70.144  1.00  0.00    -0.345 C  
HETATM    9  C   UNL     1     -11.553  14.741  69.698  1.00  0.00    -0.342 C  
HETATM   10  C   UNL     1     -10.947  10.062  68.883  1.00  0.00    -0.244 C  
HETATM   11  C   UNL     1     -12.409  15.963  70.124  1.00  0.00    -0.193 C  
HETATM   12  C   UNL     1     -11.285   9.251  70.120  1.00  0.00    -0.237 A  
HETATM   13  C   UNL     1     -13.371  15.356  71.118  1.00  0.00    -0.508 C  
HETATM   14  C   UNL     1     -12.157   9.748  71.104  1.00  0.00    -0.460 A  
HETATM   15  C   UNL     1     -12.434   8.951  72.228  1.00  0.00    -0.440 A  
HETATM   16  O   UNL     1     -14.397  15.899  71.509  1.00  0.00    -0.338 OA 
HETATM   17  C   UNL     1     -11.848   7.703  72.392  1.00  0.00    -0.336 A  
HETATM   18  C   UNL     1     -10.975   7.214  71.428  1.00  0.00    -0.234 A  
HETATM   19  C   UNL     1     -10.703   7.980  70.288  1.00  0.00    -0.239 A  
ENDROOT
BRANCH  18  20
HETATM   20  O   UNL     1     -10.510   5.949  71.654  1.00  0.00    -0.218 OA 
HETATM   21  S   UNL     1      -9.087   5.687  72.394  1.00  0.00    -0.140 S  
HETATM   22  O   UNL     1      -9.071   6.373  73.679  1.00  0.00    -0.126 OA 
HETATM   23  O   UNL     1      -9.169   4.103  72.704  1.00  0.00    -0.111 OA 
HETATM   24  O   UNL     1      -8.026   5.836  71.430  1.00  0.00    -0.109 OA 
ENDBRANCH  18  20
TORSDOF 1
ENDMDL
MODEL       47
REMARK 921   NORMALIZED FREE ENERGY PREDICTED BY IDOCK:   -5.61 KCAL/MOL
REMARK 922        TOTAL FREE ENERGY PREDICTED BY IDOCK:   -6.07 KCAL/MOL
REMARK 923 INTER-LIGAND FREE ENERGY PREDICTED BY IDOCK:   -5.92 KCAL/MOL
REMARK 924 INTRA-LIGAND FREE ENERGY PREDICTED BY IDOCK:   -0.14 KCAL/MOL
REMARK 927      BINDING AFFINITY PREDICTED BY RF-SCORE:    0.00 PKD
ROOT
HETATM    1  C   UNL     1      -9.980  12.815  64.622  1.00  0.00    -0.158 C  
HETATM    2  C   UNL     1     -10.321  13.881  65.689  1.00  0.00    -0.337 C  
HETATM    3  C   UNL     1      -9.092  14.292  66.477  1.00  0.00    -0.212 C  
HETATM    4  C   UNL     1      -8.583  13.113  67.291  1.00  0.00    -0.210 C  
HETATM    5  C   UNL     1      -9.661  12.507  68.206  1.00  0.00    -0.220 C  
HETATM    6  C   UNL     1     -11.065  12.276  67.534  1.00  0.00    -0.326 C  
HETATM    7  C   UNL     1     -12.030  12.032  68.716  1.00  0.00    -0.299 C  
HETATM    8  C   UNL     1     -11.458  13.485  66.654  1.00  0.00    -0.366 C  
HETATM    9  C   UNL     1     -12.683  13.458  65.711  1.00  0.00    -0.383 C  
HETATM   10  C   UNL     1     -11.637  10.790  69.545  1.00  0.00    -0.375 C  
HETATM   11  C   UNL     1     -12.489  14.707  64.809  1.00  0.00    -0.286 C  
HETATM   12  C   UNL     1     -10.161  10.440  69.572  1.00  0.00    -0.258 A  
HETATM   13  C   UNL     1     -11.029  15.033  65.016  1.00  0.00    -0.423 C  
HETATM   14  C   UNL     1      -9.208  11.236  68.914  1.00  0.00    -0.076 A  
HETATM   15  C   UNL     1      -7.855  10.864  68.975  1.00  0.00    -0.138 A  
HETATM   16  O   UNL     1     -10.506  16.098  64.707  1.00  0.00    -0.592 OA 
HETATM   17  C   UNL     1      -7.450   9.719  69.649  1.00  0.00    -0.113 A  
HETATM   18  C   UNL     1      -8.389   8.921  70.289  1.00  0.00    -0.147 A  
HETATM   19  C   UNL     1      -9.741   9.286  70.263  1.00  0.00    -0.274 A  
ENDROOT
BRANCH  18  20
HETATM   20  O   UNL     1      -7.876   7.858  70.979  1.00  0.00    -0.084 OA 
HETATM   21  S   UNL     1      -7.263   8.032  72.473  1.00  0.00    -0.102 S  
HETATM   22  O   UNL     1      -8.255   8.652  73.340  1.00  0.00    -0.408 OA 
HETATM   23  O   UNL     1      -7.116   6.494  72.945  1.00  0.00    -0.080 OA 
HETATM   24  O   UNL     1      -5.914   8.532  72.368  1.00  0.00    -0.058 OA 
ENDBRANCH  18  20
TORSDOF 1
ENDMDL
MODEL       48
REMARK 921   NORMALIZED FREE ENERGY PREDICTED BY IDOCK:   -5.60 KCAL/MOL
REMARK 922        TOTAL FREE ENERGY PREDICTED BY IDOCK:   -6.05 KCAL/MOL
REMARK 923 INTER-LIGAND FREE ENERGY PREDICTED BY IDOCK:   -6.21 KCAL/MOL
REMARK 924 INTRA-LIGAND FREE ENERGY PREDICTED BY IDOCK:    0.16 KCAL/MOL
REMARK 927      BINDING AFFINITY PREDICTED BY RF-SCORE:    0.00 PKD
ROOT
HETATM    1  C   UNL     1      -9.024  14.551  68.572  1.00  0.00    -0.188 C  
HETATM    2  C   UNL     1     -10.424  14.608  67.919  1.00  0.00    -0.242 C  
HETATM    3  C   UNL     1     -11.467  13.915  68.775  1.00  0.00    -0.327 C  
HETATM    4  C   UNL     1     -11.164  12.428  68.854  1.00  0.00    -0.330 C  
HETATM    5  C   UNL     1     -11.042  11.766  67.471  1.00  0.00    -0.330 C  
HETATM    6  C   UNL     1     -10.174  12.552  66.420  1.00  0.00    -0.260 C  
HETATM    7  C   UNL     1     -10.516  11.900  65.062  1.00  0.00    -0.333 C  
HETATM    8  C   UNL     1     -10.483  14.066  66.474  1.00  0.00    -0.281 C  
HETATM    9  C   UNL     1      -9.640  15.111  65.707  1.00  0.00    -0.344 C  
HETATM   10  C   UNL     1     -10.150  10.400  65.024  1.00  0.00    -0.379 C  
HETATM   11  C   UNL     1     -10.084  16.469  66.313  1.00  0.00    -0.347 C  
HETATM   12  C   UNL     1     -10.195   9.665  66.351  1.00  0.00    -0.288 A  
HETATM   13  C   UNL     1     -10.753  16.047  67.600  1.00  0.00    -0.320 C  
HETATM   14  C   UNL     1     -10.594  10.312  67.533  1.00  0.00    -0.320 A  
HETATM   15  C   UNL     1     -10.617   9.580  68.732  1.00  0.00    -0.240 A  
HETATM   16  O   UNL     1     -11.484  16.768  68.269  1.00  0.00    -0.184 OA 
HETATM   17  C   UNL     1     -10.234   8.245  68.772  1.00  0.00    -0.226 A  
HETATM   18  C   UNL     1      -9.825   7.605  67.609  1.00  0.00    -0.164 A  
HETATM   19  C   UNL     1      -9.818   8.308  66.398  1.00  0.00    -0.283 A  
ENDROOT
BRANCH  18  20
HETATM   20  O   UNL     1      -9.536   6.277  67.748  1.00  0.00    -0.120 OA 
HETATM   21  S   UNL     1      -9.364   5.306  66.456  1.00  0.00    -0.151 S  
HETATM   22  O   UNL     1      -8.361   5.860  65.558  1.00  0.00    -0.133 OA 
HETATM   23  O   UNL     1      -8.722   3.983  67.127  1.00  0.00    -0.106 OA 
HETATM   24  O   UNL     1     -10.671   4.907  65.996  1.00  0.00    -0.316 OA 
ENDBRANCH  18  20
TORSDOF 1
ENDMDL
MODEL       49
REMARK 921   NORMALIZED FREE ENERGY PREDICTED BY IDOCK:   -5.57 KCAL/MOL
REMARK 922        TOTAL FREE ENERGY PREDICTED BY IDOCK:   -6.03 KCAL/MOL
REMARK 923 INTER-LIGAND FREE ENERGY PREDICTED BY IDOCK:   -6.16 KCAL/MOL
REMARK 924 INTRA-LIGAND FREE ENERGY PREDICTED BY IDOCK:    0.13 KCAL/MOL
REMARK 927      BINDING AFFINITY PREDICTED BY RF-SCORE:    0.00 PKD
ROOT
HETATM    1  C   UNL     1     -10.049   9.595  69.749  1.00  0.00    -0.258 C  
HETATM    2  C   UNL     1      -9.001   9.408  68.628  1.00  0.00    -0.132 C  
HETATM    3  C   UNL     1      -7.760  10.243  68.882  1.00  0.00    -0.098 C  
HETATM    4  C   UNL     1      -8.109  11.721  68.808  1.00  0.00    -0.047 C  
HETATM    5  C   UNL     1      -8.790  12.111  67.485  1.00  0.00    -0.175 C  
HETATM    6  C   UNL     1      -9.937  11.147  67.005  1.00  0.00    -0.223 C  
HETATM    7  C   UNL     1     -10.178  11.530  65.528  1.00  0.00    -0.303 C  
HETATM    8  C   UNL     1      -9.530   9.668  67.202  1.00  0.00    -0.185 C  
HETATM    9  C   UNL     1     -10.528   8.503  67.013  1.00  0.00    -0.362 C  
HETATM   10  C   UNL     1     -10.630  12.999  65.371  1.00  0.00    -0.307 C  
HETATM   11  C   UNL     1      -9.799   7.280  67.631  1.00  0.00    -0.189 C  
HETATM   12  C   UNL     1     -10.136  13.970  66.427  1.00  0.00    -0.299 A  
HETATM   13  C   UNL     1      -8.722   7.933  68.466  1.00  0.00    -0.131 C  
HETATM   14  C   UNL     1      -9.277  13.554  67.458  1.00  0.00    -0.219 A  
HETATM   15  C   UNL     1      -8.851  14.498  68.408  1.00  0.00    -0.180 A  
HETATM   16  O   UNL     1      -7.745   7.346  68.918  1.00  0.00    -0.110 OA 
HETATM   17  C   UNL     1      -9.278  15.818  68.356  1.00  0.00    -0.192 A  
HETATM   18  C   UNL     1     -10.139  16.231  67.347  1.00  0.00    -0.260 A  
HETATM   19  C   UNL     1     -10.557  15.313  66.376  1.00  0.00    -0.308 A  
ENDROOT
BRANCH  18  20
HETATM   20  O   UNL     1     -10.442  17.564  67.350  1.00  0.00    -0.341 OA 
HETATM   21  S   UNL     1     -10.293  18.472  66.011  1.00  0.00    -0.301 S  
HETATM   22  O   UNL     1     -11.056  17.873  64.926  1.00  0.00    -0.782 OA 
HETATM   23  O   UNL     1     -11.066  19.822  66.447  1.00  0.00    -0.297 OA 
HETATM   24  O   UNL     1      -8.910  18.853  65.858  1.00  0.00    -0.460 OA 
ENDBRANCH  18  20
TORSDOF 1
ENDMDL
MODEL       50
REMARK 921   NORMALIZED FREE ENERGY PREDICTED BY IDOCK:   -5.56 KCAL/MOL
REMARK 922        TOTAL FREE ENERGY PREDICTED BY IDOCK:   -6.01 KCAL/MOL
REMARK 923 INTER-LIGAND FREE ENERGY PREDICTED BY IDOCK:   -5.86 KCAL/MOL
REMARK 924 INTRA-LIGAND FREE ENERGY PREDICTED BY IDOCK:   -0.15 KCAL/MOL
REMARK 927      BINDING AFFINITY PREDICTED BY RF-SCORE:    0.00 PKD
ROOT
HETATM    1  C   UNL     1      -8.279   7.089  71.187  1.00  0.00    -0.113 C  
HETATM    2  C   UNL     1      -9.519   6.381  70.594  1.00  0.00    -0.176 C  
HETATM    3  C   UNL     1      -9.807   6.853  69.182  1.00  0.00    -0.156 C  
HETATM    4  C   UNL     1     -10.203   8.321  69.199  1.00  0.00    -0.223 C  
HETATM    5  C   UNL     1     -11.382   8.612  70.143  1.00  0.00    -0.083 C  
HETATM    6  C   UNL     1     -11.291   7.946  71.565  1.00  0.00    -0.293 C  
HETATM    7  C   UNL     1     -12.715   8.073  72.149  1.00  0.00    -0.293 C  
HETATM    8  C   UNL     1     -10.794   6.486  71.457  1.00  0.00    -0.288 C  
HETATM    9  C   UNL     1     -10.411   5.648  72.698  1.00  0.00    -0.235 C  
HETATM   10  C   UNL     1     -13.162   9.545  72.290  1.00  0.00    -0.507 C  
HETATM   11  C   UNL     1      -9.669   4.420  72.107  1.00  0.00    -0.220 C  
HETATM   12  C   UNL     1     -12.564  10.525  71.298  1.00  0.00    -0.531 A  
HETATM   13  C   UNL     1      -9.327   4.887  70.712  1.00  0.00    -0.152 C  
HETATM   14  C   UNL     1     -11.691  10.098  70.283  1.00  0.00    -0.361 A  
HETATM   15  C   UNL     1     -11.170  11.050  69.391  1.00  0.00    -0.332 A  
HETATM   16  O   UNL     1      -8.974   4.147  69.800  1.00  0.00    -0.081 OA 
HETATM   17  C   UNL     1     -11.482  12.398  69.510  1.00  0.00    -0.309 A  
HETATM   18  C   UNL     1     -12.333  12.828  70.520  1.00  0.00    -0.275 A  
HETATM   19  C   UNL     1     -12.884  11.893  71.405  1.00  0.00    -0.411 A  
ENDROOT
BRANCH  18  20
HETATM   20  O   UNL     1     -12.628  14.162  70.505  1.00  0.00    -0.333 OA 
HETATM   21  S   UNL     1     -12.578  15.059  71.859  1.00  0.00    -0.358 S  
HETATM   22  O   UNL     1     -11.270  14.927  72.485  1.00  0.00    -0.113 OA 
HETATM   23  O   UNL     1     -12.669  16.557  71.261  1.00  0.00     0.433 OA 
HETATM   24  O   UNL     1     -13.804  14.863  72.593  1.00  0.00    -0.451 OA 
ENDBRANCH  18  20
TORSDOF 1
ENDMDL
MODEL       51
REMARK 921   NORMALIZED FREE ENERGY PREDICTED BY IDOCK:   -5.52 KCAL/MOL
REMARK 922        TOTAL FREE ENERGY PREDICTED BY IDOCK:   -5.98 KCAL/MOL
REMARK 923 INTER-LIGAND FREE ENERGY PREDICTED BY IDOCK:   -5.91 KCAL/MOL
REMARK 924 INTRA-LIGAND FREE ENERGY PREDICTED BY IDOCK:   -0.06 KCAL/MOL
REMARK 927      BINDING AFFINITY PREDICTED BY RF-SCORE:    0.00 PKD
ROOT
HETATM    1  C   UNL     1     -11.693  15.271  64.258  1.00  0.00    -0.223 C  
HETATM    2  C   UNL     1     -11.700  14.255  65.423  1.00  0.00    -0.354 C  
HETATM    3  C   UNL     1     -12.347  14.836  66.665  1.00  0.00     0.120 C  
HETATM    4  C   UNL     1     -11.507  15.987  67.194  1.00  0.00     0.230 C  
HETATM    5  C   UNL     1     -10.043  15.592  67.454  1.00  0.00    -0.246 C  
HETATM    6  C   UNL     1      -9.356  14.756  66.312  1.00  0.00    -0.310 C  
HETATM    7  C   UNL     1      -8.076  14.183  66.961  1.00  0.00    -0.044 C  
HETATM    8  C   UNL     1     -10.316  13.669  65.773  1.00  0.00    -0.304 C  
HETATM    9  C   UNL     1      -9.994  12.832  64.514  1.00  0.00    -0.175 C  
HETATM   10  C   UNL     1      -7.118  15.294  67.444  1.00  0.00    -0.223 C  
HETATM   11  C   UNL     1     -11.342  12.145  64.166  1.00  0.00    -0.449 C  
HETATM   12  C   UNL     1      -7.763  16.604  67.856  1.00  0.00    -0.170 A  
HETATM   13  C   UNL     1     -12.338  12.972  64.945  1.00  0.00    -0.459 C  
HETATM   14  C   UNL     1      -9.158  16.769  67.841  1.00  0.00    -0.224 A  
HETATM   15  C   UNL     1      -9.699  18.005  68.235  1.00  0.00    -0.332 A  
HETATM   16  O   UNL     1     -13.491  12.629  65.177  1.00  0.00    -0.364 OA 
HETATM   17  C   UNL     1      -8.883  19.063  68.615  1.00  0.00    -0.388 A  
HETATM   18  C   UNL     1      -7.503  18.909  68.618  1.00  0.00    -0.321 A  
HETATM   19  C   UNL     1      -6.942  17.679  68.253  1.00  0.00    -0.220 A  
ENDROOT
BRANCH  18  20
HETATM   20  O   UNL     1      -6.798  19.988  69.074  1.00  0.00    -0.310 OA 
HETATM   21  S   UNL     1      -6.137  20.006  70.558  1.00  0.00    -0.293 S  
HETATM   22  O   UNL     1      -5.275  18.845  70.723  1.00  0.00    -0.217 OA 
HETATM   23  O   UNL     1      -5.177  21.303  70.470  1.00  0.00    -0.579 OA 
HETATM   24  O   UNL     1      -7.157  20.348  71.518  1.00  0.00    -0.059 OA 
ENDBRANCH  18  20
TORSDOF 1
ENDMDL
MODEL       52
REMARK 921   NORMALIZED FREE ENERGY PREDICTED BY IDOCK:   -5.52 KCAL/MOL
REMARK 922        TOTAL FREE ENERGY PREDICTED BY IDOCK:   -5.97 KCAL/MOL
REMARK 923 INTER-LIGAND FREE ENERGY PREDICTED BY IDOCK:   -5.83 KCAL/MOL
REMARK 924 INTRA-LIGAND FREE ENERGY PREDICTED BY IDOCK:   -0.14 KCAL/MOL
REMARK 927      BINDING AFFINITY PREDICTED BY RF-SCORE:    0.00 PKD
ROOT
HETATM    1  C   UNL     1     -10.242   6.339  67.925  1.00  0.00    -0.204 C  
HETATM    2  C   UNL     1      -8.716   6.456  67.704  1.00  0.00    -0.114 C  
HETATM    3  C   UNL     1      -8.124   7.600  68.505  1.00  0.00    -0.124 C  
HETATM    4  C   UNL     1      -8.668   8.924  67.992  1.00  0.00    -0.133 C  
HETATM    5  C   UNL     1      -8.446   9.119  66.482  1.00  0.00    -0.127 C  
HETATM    6  C   UNL     1      -8.798   7.879  65.582  1.00  0.00    -0.121 C  
HETATM    7  C   UNL     1      -8.149   8.190  64.215  1.00  0.00    -0.127 C  
HETATM    8  C   UNL     1      -8.287   6.569  66.226  1.00  0.00    -0.124 C  
HETATM    9  C   UNL     1      -8.664   5.175  65.676  1.00  0.00    -0.143 C  
HETATM   10  C   UNL     1      -8.716   9.477  63.576  1.00  0.00    -0.235 C  
HETATM   11  C   UNL     1      -8.228   4.198  66.801  1.00  0.00    -0.101 C  
HETATM   12  C   UNL     1      -9.214  10.540  64.538  1.00  0.00    -0.278 A  
HETATM   13  C   UNL     1      -8.079   5.117  67.990  1.00  0.00    -0.098 C  
HETATM   14  C   UNL     1      -9.115  10.371  65.929  1.00  0.00    -0.192 A  
HETATM   15  C   UNL     1      -9.592  11.390  66.771  1.00  0.00    -0.207 A  
HETATM   16  O   UNL     1      -7.496   4.820  69.026  1.00  0.00    -0.056 OA 
HETATM   17  C   UNL     1     -10.174  12.541  66.255  1.00  0.00    -0.265 A  
HETATM   18  C   UNL     1     -10.286  12.706  64.881  1.00  0.00    -0.308 A  
HETATM   19  C   UNL     1      -9.796  11.714  64.022  1.00  0.00    -0.283 A  
ENDROOT
BRANCH  18  20
HETATM   20  O   UNL     1     -10.811  13.902  64.479  1.00  0.00    -0.398 OA 
HETATM   21  S   UNL     1     -12.395  14.071  64.162  1.00  0.00    -0.228 S  
HETATM   22  O   UNL     1     -13.173  13.639  65.315  1.00  0.00    -0.724 OA 
HETATM   23  O   UNL     1     -12.539  15.677  64.068  1.00  0.00    -0.632 OA 
HETATM   24  O   UNL     1     -12.659  13.583  62.831  1.00  0.00    -0.607 OA 
ENDBRANCH  18  20
TORSDOF 1
ENDMDL
MODEL       53
REMARK 921   NORMALIZED FREE ENERGY PREDICTED BY IDOCK:   -5.51 KCAL/MOL
REMARK 922        TOTAL FREE ENERGY PREDICTED BY IDOCK:   -5.97 KCAL/MOL
REMARK 923 INTER-LIGAND FREE ENERGY PREDICTED BY IDOCK:   -6.09 KCAL/MOL
REMARK 924 INTRA-LIGAND FREE ENERGY PREDICTED BY IDOCK:    0.13 KCAL/MOL
REMARK 927      BINDING AFFINITY PREDICTED BY RF-SCORE:    0.00 PKD
ROOT
HETATM    1  C   UNL     1     -10.631   8.042  69.605  1.00  0.00    -0.223 C  
HETATM    2  C   UNL     1      -9.461   7.790  68.626  1.00  0.00    -0.152 C  
HETATM    3  C   UNL     1      -8.220   8.560  69.033  1.00  0.00    -0.116 C  
HETATM    4  C   UNL     1      -8.477  10.053  68.913  1.00  0.00    -0.132 C  
HETATM    5  C   UNL     1      -8.964  10.468  67.514  1.00  0.00    -0.137 C  
HETATM    6  C   UNL     1     -10.091   9.562  66.895  1.00  0.00    -0.295 C  
HETATM    7  C   UNL     1     -10.124   9.945  65.399  1.00  0.00    -0.270 C  
HETATM    8  C   UNL     1      -9.792   8.065  67.144  1.00  0.00    -0.274 C  
HETATM    9  C   UNL     1     -10.820   6.953  66.834  1.00  0.00    -0.380 C  
HETATM   10  C   UNL     1     -10.473  11.434  65.183  1.00  0.00    -0.351 C  
HETATM   11  C   UNL     1     -10.240   5.699  67.541  1.00  0.00    -0.246 C  
HETATM   12  C   UNL     1     -10.065  12.386  66.291  1.00  0.00    -0.257 A  
HETATM   13  C   UNL     1      -9.243   6.300  68.503  1.00  0.00    -0.123 C  
HETATM   14  C   UNL     1      -9.366  11.934  67.424  1.00  0.00    -0.176 A  
HETATM   15  C   UNL     1      -9.012  12.863  68.417  1.00  0.00    -0.124 A  
HETATM   16  O   UNL     1      -8.365   5.666  69.076  1.00  0.00    -0.099 OA 
HETATM   17  C   UNL     1      -9.359  14.203  68.310  1.00  0.00    -0.203 A  
HETATM   18  C   UNL     1     -10.062  14.652  67.199  1.00  0.00    -0.244 A  
HETATM   19  C   UNL     1     -10.403  13.749  66.185  1.00  0.00    -0.301 A  
ENDROOT
BRANCH  18  20
HETATM   20  O   UNL     1     -10.292  15.999  67.162  1.00  0.00    -0.284 OA 
HETATM   21  S   UNL     1      -9.907  16.890  65.859  1.00  0.00    -0.157 S  
HETATM   22  O   UNL     1     -10.541  16.326  64.676  1.00  0.00    -0.621 OA 
HETATM   23  O   UNL     1     -10.661  18.282  66.183  1.00  0.00    -0.400 OA 
HETATM   24  O   UNL     1      -8.498  17.197  65.903  1.00  0.00    -0.529 OA 
ENDBRANCH  18  20
TORSDOF 1
ENDMDL
MODEL       54
REMARK 921   NORMALIZED FREE ENERGY PREDICTED BY IDOCK:   -5.45 KCAL/MOL
REMARK 922        TOTAL FREE ENERGY PREDICTED BY IDOCK:   -5.90 KCAL/MOL
REMARK 923 INTER-LIGAND FREE ENERGY PREDICTED BY IDOCK:   -5.91 KCAL/MOL
REMARK 924 INTRA-LIGAND FREE ENERGY PREDICTED BY IDOCK:    0.01 KCAL/MOL
REMARK 927      BINDING AFFINITY PREDICTED BY RF-SCORE:    0.00 PKD
ROOT
HETATM    1  C   UNL     1     -12.019  15.212  67.041  1.00  0.00     0.093 C  
HETATM    2  C   UNL     1     -10.958  15.087  65.924  1.00  0.00    -0.343 C  
HETATM    3  C   UNL     1     -11.240  13.904  65.018  1.00  0.00    -0.342 C  
HETATM    4  C   UNL     1     -11.096  12.609  65.801  1.00  0.00    -0.332 C  
HETATM    5  C   UNL     1      -9.729  12.475  66.492  1.00  0.00    -0.249 C  
HETATM    6  C   UNL     1      -9.230  13.756  67.257  1.00  0.00    -0.239 C  
HETATM    7  C   UNL     1      -7.730  13.495  67.521  1.00  0.00    -0.182 C  
HETATM    8  C   UNL     1      -9.499  15.032  66.426  1.00  0.00    -0.325 C  
HETATM    9  C   UNL     1      -9.305  16.452  67.004  1.00  0.00    -0.241 C  
HETATM   10  C   UNL     1      -7.498  12.242  68.394  1.00  0.00    -0.122 C  
HETATM   11  C   UNL     1     -10.001  17.376  65.969  1.00  0.00    -0.230 C  
HETATM   12  C   UNL     1      -8.541  11.145  68.284  1.00  0.00    -0.146 A  
HETATM   13  C   UNL     1     -10.862  16.406  65.195  1.00  0.00    -0.275 C  
HETATM   14  C   UNL     1      -9.627  11.255  67.398  1.00  0.00    -0.182 A  
HETATM   15  C   UNL     1     -10.561  10.206  67.338  1.00  0.00    -0.329 A  
HETATM   16  O   UNL     1     -11.381  16.653  64.112  1.00  0.00    -1.141 OA 
HETATM   17  C   UNL     1     -10.442   9.085  68.148  1.00  0.00    -0.257 A  
HETATM   18  C   UNL     1      -9.378   8.979  69.035  1.00  0.00    -0.140 A  
HETATM   19  C   UNL     1      -8.422  10.000  69.095  1.00  0.00    -0.156 A  
ENDROOT
BRANCH  18  20
HETATM   20  O   UNL     1      -9.319   7.806  69.735  1.00  0.00    -0.153 OA 
HETATM   21  S   UNL     1      -9.384   6.366  68.985  1.00  0.00    -0.126 S  
HETATM   22  O   UNL     1      -8.345   6.298  67.966  1.00  0.00    -0.114 OA 
HETATM   23  O   UNL     1      -8.950   5.361  70.173  1.00  0.00    -0.129 OA 
HETATM   24  O   UNL     1     -10.762   6.051  68.699  1.00  0.00    -0.246 OA 
ENDBRANCH  18  20
TORSDOF 1
ENDMDL
MODEL       55
REMARK 921   NORMALIZED FREE ENERGY PREDICTED BY IDOCK:   -5.39 KCAL/MOL
REMARK 922        TOTAL FREE ENERGY PREDICTED BY IDOCK:   -5.84 KCAL/MOL
REMARK 923 INTER-LIGAND FREE ENERGY PREDICTED BY IDOCK:   -5.69 KCAL/MOL
REMARK 924 INTRA-LIGAND FREE ENERGY PREDICTED BY IDOCK:   -0.15 KCAL/MOL
REMARK 927      BINDING AFFINITY PREDICTED BY RF-SCORE:    0.00 PKD
ROOT
HETATM    1  C   UNL     1     -12.092  12.837  66.033  1.00  0.00    -0.458 C  
HETATM    2  C   UNL     1     -10.866  13.167  66.914  1.00  0.00    -0.278 C  
HETATM    3  C   UNL     1      -9.578  12.672  66.284  1.00  0.00    -0.244 C  
HETATM    4  C   UNL     1      -9.584  11.153  66.225  1.00  0.00    -0.234 C  
HETATM    5  C   UNL     1      -9.827  10.501  67.597  1.00  0.00    -0.192 C  
HETATM    6  C   UNL     1     -10.998  11.123  68.443  1.00  0.00    -0.277 C  
HETATM    7  C   UNL     1     -10.789  10.567  69.870  1.00  0.00    -0.334 C  
HETATM    8  C   UNL     1     -10.967  12.668  68.371  1.00  0.00    -0.284 C  
HETATM    9  C   UNL     1     -12.110  13.545  68.931  1.00  0.00    -0.315 C  
HETATM   10  C   UNL     1     -10.874   9.026  69.915  1.00  0.00    -0.228 C  
HETATM   11  C   UNL     1     -11.822  14.954  68.346  1.00  0.00    -0.309 C  
HETATM   12  C   UNL     1     -10.460   8.293  68.653  1.00  0.00    -0.199 A  
HETATM   13  C   UNL     1     -10.868  14.647  67.216  1.00  0.00    -0.305 C  
HETATM   14  C   UNL     1      -9.983   8.987  67.528  1.00  0.00    -0.262 A  
HETATM   15  C   UNL     1      -9.612   8.255  66.387  1.00  0.00    -0.300 A  
HETATM   16  O   UNL     1     -10.175  15.484  66.649  1.00  0.00    -0.261 OA 
HETATM   17  C   UNL     1      -9.731   6.872  66.345  1.00  0.00    -0.127 A  
HETATM   18  C   UNL     1     -10.216   6.183  67.450  1.00  0.00    -0.184 A  
HETATM   19  C   UNL     1     -10.568   6.889  68.607  1.00  0.00    -0.254 A  
ENDROOT
BRANCH  18  20
HETATM   20  O   UNL     1     -10.227   4.822  67.327  1.00  0.00    -0.171 OA 
HETATM   21  S   UNL     1      -8.910   3.929  67.652  1.00  0.00    -0.125 S  
HETATM   22  O   UNL     1      -8.440   4.222  68.999  1.00  0.00    -0.080 OA 
HETATM   23  O   UNL     1      -9.527   2.436  67.680  1.00  0.00    -0.176 OA 
HETATM   24  O   UNL     1      -8.031   3.960  66.509  1.00  0.00    -0.095 OA 
ENDBRANCH  18  20
TORSDOF 1
ENDMDL
MODEL       56
REMARK 921   NORMALIZED FREE ENERGY PREDICTED BY IDOCK:   -5.39 KCAL/MOL
REMARK 922        TOTAL FREE ENERGY PREDICTED BY IDOCK:   -5.83 KCAL/MOL
REMARK 923 INTER-LIGAND FREE ENERGY PREDICTED BY IDOCK:   -5.64 KCAL/MOL
REMARK 924 INTRA-LIGAND FREE ENERGY PREDICTED BY IDOCK:   -0.19 KCAL/MOL
REMARK 927      BINDING AFFINITY PREDICTED BY RF-SCORE:    0.00 PKD
ROOT
HETATM    1  C   UNL     1     -10.388   8.644  66.706  1.00  0.00    -0.336 C  
HETATM    2  C   UNL     1      -9.930   8.630  68.183  1.00  0.00    -0.210 C  
HETATM    3  C   UNL     1     -10.991   9.207  69.100  1.00  0.00    -0.057 C  
HETATM    4  C   UNL     1     -11.187  10.684  68.795  1.00  0.00    -0.337 C  
HETATM    5  C   UNL     1      -9.880  11.490  68.869  1.00  0.00    -0.091 C  
HETATM    6  C   UNL     1      -8.642  10.837  68.151  1.00  0.00    -0.129 C  
HETATM    7  C   UNL     1      -7.422  11.624  68.680  1.00  0.00    -0.117 C  
HETATM    8  C   UNL     1      -8.574   9.320  68.443  1.00  0.00    -0.124 C  
HETATM    9  C   UNL     1      -7.591   8.380  67.710  1.00  0.00    -0.102 C  
HETATM   10  C   UNL     1      -7.496  13.126  68.330  1.00  0.00    -0.129 C  
HETATM   11  C   UNL     1      -8.102   6.956  68.060  1.00  0.00    -0.115 C  
HETATM   12  C   UNL     1      -8.888  13.715  68.193  1.00  0.00    -0.189 A  
HETATM   13  C   UNL     1      -9.506   7.227  68.547  1.00  0.00    -0.140 C  
HETATM   14  C   UNL     1     -10.036  12.938  68.422  1.00  0.00    -0.227 A  
HETATM   15  C   UNL     1     -11.299  13.539  68.282  1.00  0.00    -0.328 A  
HETATM   16  O   UNL     1     -10.188   6.424  69.175  1.00  0.00    -0.163 OA 
HETATM   17  C   UNL     1     -11.430  14.868  67.903  1.00  0.00    -0.357 A  
HETATM   18  C   UNL     1     -10.298  15.636  67.662  1.00  0.00    -0.275 A  
HETATM   19  C   UNL     1      -9.028  15.066  67.819  1.00  0.00    -0.179 A  
ENDROOT
BRANCH  18  20
HETATM   20  O   UNL     1     -10.538  16.948  67.362  1.00  0.00    -0.329 OA 
HETATM   21  S   UNL     1     -10.119  17.580  65.925  1.00  0.00    -0.116 S  
HETATM   22  O   UNL     1     -10.711  16.792  64.853  1.00  0.00    -0.721 OA 
HETATM   23  O   UNL     1     -10.895  18.997  65.956  1.00  0.00    -0.362 OA 
HETATM   24  O   UNL     1      -8.716  17.910  65.952  1.00  0.00    -0.508 OA 
ENDBRANCH  18  20
TORSDOF 1
ENDMDL
MODEL       57
REMARK 921   NORMALIZED FREE ENERGY PREDICTED BY IDOCK:   -5.38 KCAL/MOL
REMARK 922        TOTAL FREE ENERGY PREDICTED BY IDOCK:   -5.83 KCAL/MOL
REMARK 923 INTER-LIGAND FREE ENERGY PREDICTED BY IDOCK:   -5.64 KCAL/MOL
REMARK 924 INTRA-LIGAND FREE ENERGY PREDICTED BY IDOCK:   -0.19 KCAL/MOL
REMARK 927      BINDING AFFINITY PREDICTED BY RF-SCORE:    0.00 PKD
ROOT
HETATM    1  C   UNL     1      -7.737  18.101  65.994  1.00  0.00    -0.204 C  
HETATM    2  C   UNL     1      -8.232  18.493  67.404  1.00  0.00    -0.259 C  
HETATM    3  C   UNL     1      -7.315  17.955  68.486  1.00  0.00    -0.268 C  
HETATM    4  C   UNL     1      -7.364  16.436  68.494  1.00  0.00    -0.181 C  
HETATM    5  C   UNL     1      -8.792  15.882  68.640  1.00  0.00    -0.206 C  
HETATM    6  C   UNL     1      -9.877  16.563  67.727  1.00  0.00    -0.240 C  
HETATM    7  C   UNL     1     -11.229  16.110  68.321  1.00  0.00    -0.343 C  
HETATM    8  C   UNL     1      -9.694  18.098  67.707  1.00  0.00    -0.294 C  
HETATM    9  C   UNL     1     -10.479  19.013  66.739  1.00  0.00    -0.510 C  
HETATM   10  C   UNL     1     -11.401  14.575  68.281  1.00  0.00    -0.319 C  
HETATM   11  C   UNL     1      -9.743  20.376  66.832  1.00  0.00    -0.567 C  
HETATM   12  C   UNL     1     -10.127  13.755  68.356  1.00  0.00    -0.241 A  
HETATM   13  C   UNL     1      -8.422  19.991  67.454  1.00  0.00    -0.336 C  
HETATM   14  C   UNL     1      -8.870  14.367  68.501  1.00  0.00    -0.182 A  
HETATM   15  C   UNL     1      -7.724  13.557  68.566  1.00  0.00    -0.125 A  
HETATM   16  O   UNL     1      -7.634  20.786  67.954  1.00  0.00    -0.175 OA 
HETATM   17  C   UNL     1      -7.811  12.174  68.468  1.00  0.00    -0.122 A  
HETATM   18  C   UNL     1      -9.049  11.565  68.310  1.00  0.00    -0.185 A  
HETATM   19  C   UNL     1     -10.207  12.352  68.268  1.00  0.00    -0.230 A  
ENDROOT
BRANCH  18  20
HETATM   20  O   UNL     1      -9.027  10.198  68.293  1.00  0.00    -0.118 OA 
HETATM   21  S   UNL     1      -9.528   9.357  66.996  1.00  0.00    -0.163 S  
HETATM   22  O   UNL     1      -8.802   9.802  65.815  1.00  0.00    -0.141 OA 
HETATM   23  O   UNL     1      -8.999   7.872  67.348  1.00  0.00    -0.126 OA 
HETATM   24  O   UNL     1     -10.967   9.270  67.025  1.00  0.00    -0.106 OA 
ENDBRANCH  18  20
TORSDOF 1
ENDMDL
MODEL       58
REMARK 921   NORMALIZED FREE ENERGY PREDICTED BY IDOCK:   -5.33 KCAL/MOL
REMARK 922        TOTAL FREE ENERGY PREDICTED BY IDOCK:   -5.77 KCAL/MOL
REMARK 923 INTER-LIGAND FREE ENERGY PREDICTED BY IDOCK:   -6.16 KCAL/MOL
REMARK 924 INTRA-LIGAND FREE ENERGY PREDICTED BY IDOCK:    0.39 KCAL/MOL
REMARK 927      BINDING AFFINITY PREDICTED BY RF-SCORE:    0.00 PKD
ROOT
HETATM    1  C   UNL     1     -10.159   9.277  65.887  1.00  0.00    -0.188 C  
HETATM    2  C   UNL     1      -9.060  10.302  65.520  1.00  0.00    -0.211 C  
HETATM    3  C   UNL     1      -8.211  10.662  66.724  1.00  0.00    -0.130 C  
HETATM    4  C   UNL     1      -9.059  11.392  67.753  1.00  0.00    -0.158 C  
HETATM    5  C   UNL     1      -9.771  12.627  67.177  1.00  0.00    -0.211 C  
HETATM    6  C   UNL     1     -10.476  12.413  65.787  1.00  0.00    -0.288 C  
HETATM    7  C   UNL     1     -10.769  13.841  65.272  1.00  0.00    -0.345 C  
HETATM    8  C   UNL     1      -9.579  11.585  64.837  1.00  0.00    -0.212 C  
HETATM    9  C   UNL     1     -10.089  11.043  63.482  1.00  0.00    -0.428 C  
HETATM   10  C   UNL     1     -11.705  14.624  66.218  1.00  0.00    -0.325 C  
HETATM   11  C   UNL     1      -9.002  10.020  63.056  1.00  0.00    -0.272 C  
HETATM   12  C   UNL     1     -11.639  14.252  67.687  1.00  0.00    -0.396 A  
HETATM   13  C   UNL     1      -8.268   9.767  64.351  1.00  0.00    -0.162 C  
HETATM   14  C   UNL     1     -10.738  13.281  68.156  1.00  0.00    -0.264 A  
HETATM   15  C   UNL     1     -10.720  12.978  69.528  1.00  0.00     0.253 A  
HETATM   16  O   UNL     1      -7.169   9.230  64.431  1.00  0.00    -0.094 OA 
HETATM   17  C   UNL     1     -11.586  13.601  70.417  1.00  0.00    -0.112 A  
HETATM   18  C   UNL     1     -12.488  14.552  69.956  1.00  0.00    -0.298 A  
HETATM   19  C   UNL     1     -12.507  14.887  68.597  1.00  0.00     0.179 A  
ENDROOT
BRANCH  18  20
HETATM   20  O   UNL     1     -13.245  15.152  70.923  1.00  0.00    -0.425 OA 
HETATM   21  S   UNL     1     -12.939  14.927  72.503  1.00  0.00    -0.420 S  
HETATM   22  O   UNL     1     -11.553  15.270  72.786  1.00  0.00    -0.445 OA 
HETATM   23  O   UNL     1     -13.858  16.071  73.178  1.00  0.00    -0.576 OA 
HETATM   24  O   UNL     1     -13.520  13.673  72.916  1.00  0.00    -0.639 OA 
ENDBRANCH  18  20
TORSDOF 1
ENDMDL
MODEL       59
REMARK 921   NORMALIZED FREE ENERGY PREDICTED BY IDOCK:   -5.33 KCAL/MOL
REMARK 922        TOTAL FREE ENERGY PREDICTED BY IDOCK:   -5.77 KCAL/MOL
REMARK 923 INTER-LIGAND FREE ENERGY PREDICTED BY IDOCK:   -5.70 KCAL/MOL
REMARK 924 INTRA-LIGAND FREE ENERGY PREDICTED BY IDOCK:   -0.07 KCAL/MOL
REMARK 927      BINDING AFFINITY PREDICTED BY RF-SCORE:    0.00 PKD
ROOT
HETATM    1  C   UNL     1      -7.419  17.449  66.466  1.00  0.00    -0.315 C  
HETATM    2  C   UNL     1      -8.448  17.442  67.619  1.00  0.00    -0.213 C  
HETATM    3  C   UNL     1      -7.951  16.636  68.804  1.00  0.00    -0.239 C  
HETATM    4  C   UNL     1      -7.829  15.171  68.417  1.00  0.00    -0.127 C  
HETATM    5  C   UNL     1      -9.136  14.590  67.850  1.00  0.00    -0.191 C  
HETATM    6  C   UNL     1      -9.867  15.487  66.783  1.00  0.00    -0.252 C  
HETATM    7  C   UNL     1     -11.284  14.881  66.667  1.00  0.00    -0.340 C  
HETATM    8  C   UNL     1      -9.862  16.971  67.217  1.00  0.00    -0.260 C  
HETATM    9  C   UNL     1     -10.323  18.109  66.277  1.00  0.00    -0.407 C  
HETATM   10  C   UNL     1     -11.256  13.414  66.186  1.00  0.00    -0.311 C  
HETATM   11  C   UNL     1      -9.833  19.401  66.984  1.00  0.00    -0.440 C  
HETATM   12  C   UNL     1     -10.020  12.612  66.549  1.00  0.00    -0.256 A  
HETATM   13  C   UNL     1      -8.808  18.869  67.958  1.00  0.00    -0.306 C  
HETATM   14  C   UNL     1      -8.987  13.169  67.321  1.00  0.00    -0.216 A  
HETATM   15  C   UNL     1      -7.867  12.378  67.628  1.00  0.00    -0.163 A  
HETATM   16  O   UNL     1      -8.360  19.503  68.907  1.00  0.00    -0.360 OA 
HETATM   17  C   UNL     1      -7.755  11.073  67.166  1.00  0.00    -0.131 A  
HETATM   18  C   UNL     1      -8.768  10.523  66.390  1.00  0.00    -0.145 A  
HETATM   19  C   UNL     1      -9.904  11.284  66.092  1.00  0.00    -0.262 A  
ENDROOT
BRANCH  18  20
HETATM   20  O   UNL     1      -8.588   9.212  66.046  1.00  0.00    -0.134 OA 
HETATM   21  S   UNL     1      -9.389   8.018  66.802  1.00  0.00    -0.194 S  
HETATM   22  O   UNL     1     -10.821   8.274  66.740  1.00  0.00    -0.188 OA 
HETATM   23  O   UNL     1      -9.089   6.760  65.834  1.00  0.00    -0.122 OA 
HETATM   24  O   UNL     1      -8.716   7.718  68.042  1.00  0.00    -0.126 OA 
ENDBRANCH  18  20
TORSDOF 1
ENDMDL
MODEL       60
REMARK 921   NORMALIZED FREE ENERGY PREDICTED BY IDOCK:   -5.31 KCAL/MOL
REMARK 922        TOTAL FREE ENERGY PREDICTED BY IDOCK:   -5.75 KCAL/MOL
REMARK 923 INTER-LIGAND FREE ENERGY PREDICTED BY IDOCK:   -5.72 KCAL/MOL
REMARK 924 INTRA-LIGAND FREE ENERGY PREDICTED BY IDOCK:   -0.03 KCAL/MOL
REMARK 927      BINDING AFFINITY PREDICTED BY RF-SCORE:    0.00 PKD
ROOT
HETATM    1  C   UNL     1      -9.241  15.560  66.058  1.00  0.00    -0.361 C  
HETATM    2  C   UNL     1      -9.020  15.510  67.588  1.00  0.00    -0.187 C  
HETATM    3  C   UNL     1      -7.765  14.737  67.944  1.00  0.00    -0.146 C  
HETATM    4  C   UNL     1      -7.931  13.277  67.554  1.00  0.00    -0.186 C  
HETATM    5  C   UNL     1      -9.184  12.631  68.168  1.00  0.00    -0.209 C  
HETATM    6  C   UNL     1     -10.502  13.484  68.070  1.00  0.00    -0.245 C  
HETATM    7  C   UNL     1     -11.480  12.810  69.058  1.00  0.00    -0.360 C  
HETATM    8  C   UNL     1     -10.220  14.969  68.394  1.00  0.00    -0.228 C  
HETATM    9  C   UNL     1     -11.276  16.078  68.178  1.00  0.00    -0.325 C  
HETATM   10  C   UNL     1     -11.778  11.343  68.679  1.00  0.00    -0.394 C  
HETATM   11  C   UNL     1     -10.466  17.396  68.301  1.00  0.00    -0.385 C  
HETATM   12  C   UNL     1     -10.677  10.604  67.942  1.00  0.00    -0.292 A  
HETATM   13  C   UNL     1      -9.043  16.920  68.128  1.00  0.00    -0.231 C  
HETATM   14  C   UNL     1      -9.442  11.215  67.668  1.00  0.00    -0.173 A  
HETATM   15  C   UNL     1      -8.459  10.480  66.983  1.00  0.00    -0.128 A  
HETATM   16  O   UNL     1      -8.052  17.581  68.416  1.00  0.00    -0.248 OA 
HETATM   17  C   UNL     1      -8.694   9.180  66.557  1.00  0.00    -0.142 A  
HETATM   18  C   UNL     1      -9.919   8.576  66.814  1.00  0.00    -0.281 A  
HETATM   19  C   UNL     1     -10.904   9.280  67.516  1.00  0.00    -0.182 A  
ENDROOT
BRANCH  18  20
HETATM   20  O   UNL     1     -10.020   7.273  66.412  1.00  0.00    -0.144 OA 
HETATM   21  S   UNL     1     -10.047   6.054  67.485  1.00  0.00    -0.182 S  
HETATM   22  O   UNL     1     -11.113   6.277  68.452  1.00  0.00    -0.323 OA 
HETATM   23  O   UNL     1     -10.501   4.813  66.555  1.00  0.00    -0.268 OA 
HETATM   24  O   UNL     1      -8.694   5.757  67.888  1.00  0.00    -0.105 OA 
ENDBRANCH  18  20
TORSDOF 1
ENDMDL
MODEL       61
REMARK 921   NORMALIZED FREE ENERGY PREDICTED BY IDOCK:   -5.24 KCAL/MOL
REMARK 922        TOTAL FREE ENERGY PREDICTED BY IDOCK:   -5.67 KCAL/MOL
REMARK 923 INTER-LIGAND FREE ENERGY PREDICTED BY IDOCK:   -5.62 KCAL/MOL
REMARK 924 INTRA-LIGAND FREE ENERGY PREDICTED BY IDOCK:   -0.05 KCAL/MOL
REMARK 927      BINDING AFFINITY PREDICTED BY RF-SCORE:    0.00 PKD
ROOT
HETATM    1  C   UNL     1      -5.846  16.613  68.103  1.00  0.00    -0.119 C  
HETATM    2  C   UNL     1      -6.626  16.810  69.423  1.00  0.00    -0.228 C  
HETATM    3  C   UNL     1      -6.966  15.481  70.071  1.00  0.00     0.011 C  
HETATM    4  C   UNL     1      -7.936  14.711  69.189  1.00  0.00    -0.097 C  
HETATM    5  C   UNL     1      -9.203  15.513  68.848  1.00  0.00    -0.218 C  
HETATM    6  C   UNL     1      -8.961  17.002  68.403  1.00  0.00    -0.247 C  
HETATM    7  C   UNL     1     -10.353  17.668  68.489  1.00  0.00    -0.370 C  
HETATM    8  C   UNL     1      -7.896  17.677  69.298  1.00  0.00     0.133 C  
HETATM    9  C   UNL     1      -7.303  19.067  68.973  1.00  0.00    -0.341 C  
HETATM   10  C   UNL     1     -11.380  17.001  67.547  1.00  0.00     0.312 C  
HETATM   11  C   UNL     1      -6.073  19.179  69.912  1.00  0.00    -0.270 C  
HETATM   12  C   UNL     1     -11.164  15.529  67.253  1.00  0.00    -0.226 A  
HETATM   13  C   UNL     1      -5.842  17.742  70.317  1.00  0.00    -0.134 C  
HETATM   14  C   UNL     1     -10.112  14.811  67.847  1.00  0.00    -0.221 A  
HETATM   15  C   UNL     1      -9.961  13.448  67.537  1.00  0.00    -0.230 A  
HETATM   16  O   UNL     1      -5.139  17.392  71.258  1.00  0.00    -0.419 OA 
HETATM   17  C   UNL     1     -10.813  12.811  66.645  1.00  0.00    -0.288 A  
HETATM   18  C   UNL     1     -11.846  13.520  66.045  1.00  0.00    -0.379 A  
HETATM   19  C   UNL     1     -12.030  14.873  66.357  1.00  0.00    -0.074 A  
ENDROOT
BRANCH  18  20
HETATM   20  O   UNL     1     -12.666  12.782  65.238  1.00  0.00    -0.625 OA 
HETATM   21  S   UNL     1     -12.291  12.492  63.684  1.00  0.00    -0.506 S  
HETATM   22  O   UNL     1     -10.970  11.885  63.605  1.00  0.00    -0.371 OA 
HETATM   23  O   UNL     1     -13.363  11.347  63.298  1.00  0.00    -0.092 OA 
HETATM   24  O   UNL     1     -12.656  13.642  62.894  1.00  0.00    -0.621 OA 
ENDBRANCH  18  20
TORSDOF 1
ENDMDL
MODEL       62
REMARK 921   NORMALIZED FREE ENERGY PREDICTED BY IDOCK:   -5.18 KCAL/MOL
REMARK 922        TOTAL FREE ENERGY PREDICTED BY IDOCK:   -5.61 KCAL/MOL
REMARK 923 INTER-LIGAND FREE ENERGY PREDICTED BY IDOCK:   -5.41 KCAL/MOL
REMARK 924 INTRA-LIGAND FREE ENERGY PREDICTED BY IDOCK:   -0.20 KCAL/MOL
REMARK 927      BINDING AFFINITY PREDICTED BY RF-SCORE:    0.00 PKD
ROOT
HETATM    1  C   UNL     1      -7.896   5.966  68.163  1.00  0.00    -0.105 C  
HETATM    2  C   UNL     1      -9.386   5.562  68.246  1.00  0.00    -0.127 C  
HETATM    3  C   UNL     1     -10.121   5.878  66.957  1.00  0.00    -0.221 C  
HETATM    4  C   UNL     1     -10.164   7.383  66.744  1.00  0.00    -0.313 C  
HETATM    5  C   UNL     1     -10.770   8.141  67.938  1.00  0.00    -0.138 C  
HETATM    6  C   UNL     1     -10.246   7.699  69.354  1.00  0.00    -0.206 C  
HETATM    7  C   UNL     1     -11.250   8.317  70.354  1.00  0.00    -0.222 C  
HETATM    8  C   UNL     1     -10.149   6.158  69.448  1.00  0.00    -0.230 C  
HETATM    9  C   UNL     1      -9.474   5.444  70.641  1.00  0.00    -0.215 C  
HETATM   10  C   UNL     1     -11.288   9.858  70.268  1.00  0.00    -0.357 C  
HETATM   11  C   UNL     1      -9.307   3.979  70.155  1.00  0.00    -0.240 C  
HETATM   12  C   UNL     1     -10.958  10.464  68.916  1.00  0.00    -0.289 A  
HETATM   13  C   UNL     1      -9.475   4.112  68.660  1.00  0.00    -0.156 C  
HETATM   14  C   UNL     1     -10.683   9.655  67.800  1.00  0.00    -0.316 A  
HETATM   15  C   UNL     1     -10.386  10.272  66.573  1.00  0.00    -0.276 A  
HETATM   16  O   UNL     1      -9.684   3.173  67.900  1.00  0.00    -0.143 OA 
HETATM   17  C   UNL     1     -10.339  11.655  66.452  1.00  0.00    -0.266 A  
HETATM   18  C   UNL     1     -10.596  12.458  67.556  1.00  0.00    -0.219 A  
HETATM   19  C   UNL     1     -10.919  11.865  68.783  1.00  0.00    -0.280 A  
ENDROOT
BRANCH  18  20
HETATM   20  O   UNL     1     -10.590  13.802  67.310  1.00  0.00    -0.271 OA 
HETATM   21  S   UNL     1      -9.364  14.749  67.798  1.00  0.00    -0.202 S  
HETATM   22  O   UNL     1      -8.107  14.225  67.282  1.00  0.00    -0.188 OA 
HETATM   23  O   UNL     1      -9.671  16.118  66.997  1.00  0.00    -0.224 OA 
HETATM   24  O   UNL     1      -9.548  15.070  69.192  1.00  0.00    -0.210 OA 
ENDBRANCH  18  20
TORSDOF 1
ENDMDL
MODEL       63
REMARK 921   NORMALIZED FREE ENERGY PREDICTED BY IDOCK:   -5.16 KCAL/MOL
REMARK 922        TOTAL FREE ENERGY PREDICTED BY IDOCK:   -5.59 KCAL/MOL
REMARK 923 INTER-LIGAND FREE ENERGY PREDICTED BY IDOCK:   -5.41 KCAL/MOL
REMARK 924 INTRA-LIGAND FREE ENERGY PREDICTED BY IDOCK:   -0.18 KCAL/MOL
REMARK 927      BINDING AFFINITY PREDICTED BY RF-SCORE:    0.00 PKD
ROOT
HETATM    1  C   UNL     1      -9.130  14.115  68.285  1.00  0.00    -0.190 C  
HETATM    2  C   UNL     1     -10.576  14.116  67.738  1.00  0.00    -0.243 C  
HETATM    3  C   UNL     1     -11.380  12.954  68.290  1.00  0.00    -0.326 C  
HETATM    4  C   UNL     1     -10.801  11.641  67.785  1.00  0.00    -0.264 C  
HETATM    5  C   UNL     1     -10.703  11.580  66.252  1.00  0.00    -0.321 C  
HETATM    6  C   UNL     1     -10.106  12.861  65.561  1.00  0.00    -0.270 C  
HETATM    7  C   UNL     1     -10.460  12.701  64.066  1.00  0.00    -0.443 C  
HETATM    8  C   UNL     1     -10.682  14.147  66.199  1.00  0.00    -0.297 C  
HETATM    9  C   UNL     1     -10.129  15.553  65.869  1.00  0.00    -0.374 C  
HETATM   10  C   UNL     1      -9.830  11.434  63.447  1.00  0.00    -0.422 C  
HETATM   11  C   UNL     1     -10.751  16.465  66.960  1.00  0.00    -0.217 C  
HETATM   12  C   UNL     1      -9.602  10.268  64.392  1.00  0.00    -0.378 A  
HETATM   13  C   UNL     1     -11.195  15.468  68.003  1.00  0.00    -0.332 C  
HETATM   14  C   UNL     1      -9.990  10.334  65.741  1.00  0.00    -0.337 A  
HETATM   15  C   UNL     1      -9.755   9.223  66.569  1.00  0.00    -0.305 A  
HETATM   16  O   UNL     1     -11.974  15.720  68.915  1.00  0.00    -0.382 OA 
HETATM   17  C   UNL     1      -9.130   8.081  66.085  1.00  0.00    -0.224 A  
HETATM   18  C   UNL     1      -8.732   8.017  64.756  1.00  0.00     0.173 A  
HETATM   19  C   UNL     1      -8.979   9.102  63.906  1.00  0.00    -0.008 A  
ENDROOT
BRANCH  18  20
HETATM   20  O   UNL     1      -8.191   6.823  64.368  1.00  0.00    -0.091 OA 
HETATM   21  S   UNL     1      -6.695   6.734  63.739  1.00  0.00    -0.050 S  
HETATM   22  O   UNL     1      -5.743   7.347  64.654  1.00  0.00    -0.036 OA 
HETATM   23  O   UNL     1      -6.425   5.141  63.769  1.00  0.00    -0.025 OA 
HETATM   24  O   UNL     1      -6.756   7.087  62.342  1.00  0.00    -0.050 OA 
ENDBRANCH  18  20
TORSDOF 1
ENDMDL
MODEL       64
REMARK 921   NORMALIZED FREE ENERGY PREDICTED BY IDOCK:   -4.97 KCAL/MOL
REMARK 922        TOTAL FREE ENERGY PREDICTED BY IDOCK:   -5.39 KCAL/MOL
REMARK 923 INTER-LIGAND FREE ENERGY PREDICTED BY IDOCK:   -5.19 KCAL/MOL
REMARK 924 INTRA-LIGAND FREE ENERGY PREDICTED BY IDOCK:   -0.20 KCAL/MOL
REMARK 927      BINDING AFFINITY PREDICTED BY RF-SCORE:    0.00 PKD
ROOT
HETATM    1  C   UNL     1      -8.017   8.467  64.266  1.00  0.00    -0.149 C  
HETATM    2  C   UNL     1      -7.760   9.986  64.393  1.00  0.00    -0.145 C  
HETATM    3  C   UNL     1      -6.627  10.280  65.357  1.00  0.00    -0.122 C  
HETATM    4  C   UNL     1      -7.026   9.861  66.764  1.00  0.00    -0.089 C  
HETATM    5  C   UNL     1      -8.343  10.503  67.230  1.00  0.00    -0.122 C  
HETATM    6  C   UNL     1      -9.518  10.470  66.184  1.00  0.00    -0.222 C  
HETATM    7  C   UNL     1     -10.557  11.476  66.729  1.00  0.00    -0.289 C  
HETATM    8  C   UNL     1      -9.003  10.820  64.768  1.00  0.00    -0.194 C  
HETATM    9  C   UNL     1      -9.884  10.667  63.507  1.00  0.00    -0.384 C  
HETATM   10  C   UNL     1     -11.087  11.072  68.123  1.00  0.00    -0.329 C  
HETATM   11  C   UNL     1      -8.879  10.794  62.331  1.00  0.00    -0.341 C  
HETATM   12  C   UNL     1     -10.134  10.280  68.999  1.00  0.00    -0.225 A  
HETATM   13  C   UNL     1      -7.551  10.560  63.012  1.00  0.00    -0.051 C  
HETATM   14  C   UNL     1      -8.829   9.978  68.575  1.00  0.00    -0.120 A  
HETATM   15  C   UNL     1      -7.991   9.243  69.430  1.00  0.00    -0.099 A  
HETATM   16  O   UNL     1      -6.462  10.830  62.517  1.00  0.00    -0.131 OA 
HETATM   17  C   UNL     1      -8.435   8.795  70.667  1.00  0.00    -0.193 A  
HETATM   18  C   UNL     1      -9.729   9.079  71.085  1.00  0.00    -0.299 A  
HETATM   19  C   UNL     1     -10.574   9.831  70.260  1.00  0.00    -0.348 A  
ENDROOT
BRANCH  18  20
HETATM   20  O   UNL     1     -10.040   8.650  72.345  1.00  0.00    -0.307 OA 
HETATM   21  S   UNL     1     -10.973   7.343  72.592  1.00  0.00    -0.345 S  
HETATM   22  O   UNL     1     -10.409   6.200  71.889  1.00  0.00    -0.201 OA 
HETATM   23  O   UNL     1     -10.759   7.083  74.171  1.00  0.00    -0.226 OA 
HETATM   24  O   UNL     1     -12.357   7.725  72.449  1.00  0.00    -0.259 OA 
ENDBRANCH  18  20
TORSDOF 1
ENDMDL
MODEL       65
REMARK 921   NORMALIZED FREE ENERGY PREDICTED BY IDOCK:   -4.96 KCAL/MOL
REMARK 922        TOTAL FREE ENERGY PREDICTED BY IDOCK:   -5.38 KCAL/MOL
REMARK 923 INTER-LIGAND FREE ENERGY PREDICTED BY IDOCK:   -5.84 KCAL/MOL
REMARK 924 INTRA-LIGAND FREE ENERGY PREDICTED BY IDOCK:    0.46 KCAL/MOL
REMARK 927      BINDING AFFINITY PREDICTED BY RF-SCORE:    0.00 PKD
ROOT
HETATM    1  C   UNL     1      -7.890   5.685  70.157  1.00  0.00    -0.091 C  
HETATM    2  C   UNL     1      -9.271   5.053  69.868  1.00  0.00    -0.175 C  
HETATM    3  C   UNL     1      -9.773   5.421  68.485  1.00  0.00    -0.183 C  
HETATM    4  C   UNL     1     -10.037   6.916  68.414  1.00  0.00    -0.177 C  
HETATM    5  C   UNL     1     -10.996   7.409  69.511  1.00  0.00    -0.155 C  
HETATM    6  C   UNL     1     -10.700   6.870  70.959  1.00  0.00    -0.258 C  
HETATM    7  C   UNL     1     -11.979   7.191  71.765  1.00  0.00    -0.348 C  
HETATM    8  C   UNL     1     -10.354   5.363  70.924  1.00  0.00    -0.312 C  
HETATM    9  C   UNL     1      -9.819   4.608  72.162  1.00  0.00    -0.232 C  
HETATM   10  C   UNL     1     -12.270   8.706  71.822  1.00  0.00    -0.403 C  
HETATM   11  C   UNL     1      -9.302   3.262  71.586  1.00  0.00    -0.207 C  
HETATM   12  C   UNL     1     -11.786   9.528  70.642  1.00  0.00    -0.330 A  
HETATM   13  C   UNL     1      -9.184   3.565  70.111  1.00  0.00    -0.154 C  
HETATM   14  C   UNL     1     -11.151   8.924  69.542  1.00  0.00    -0.015 A  
HETATM   15  C   UNL     1     -10.726   9.735  68.476  1.00  0.00    -0.252 A  
HETATM   16  O   UNL     1      -9.066   2.713  69.237  1.00  0.00    -0.100 OA 
HETATM   17  C   UNL     1     -10.899  11.113  68.502  1.00  0.00    -0.243 A  
HETATM   18  C   UNL     1     -11.513  11.715  69.593  1.00  0.00    -0.288 A  
HETATM   19  C   UNL     1     -11.967  10.924  70.656  1.00  0.00    -0.467 A  
ENDROOT
BRANCH  18  20
HETATM   20  O   UNL     1     -11.695  13.066  69.486  1.00  0.00    -0.297 OA 
HETATM   21  S   UNL     1     -11.189  13.889  68.180  1.00  0.00    -0.283 S  
HETATM   22  O   UNL     1     -11.755  13.295  66.978  1.00  0.00    -0.347 OA 
HETATM   23  O   UNL     1     -11.918  15.316  68.393  1.00  0.00    -0.303 OA 
HETATM   24  O   UNL     1      -9.778  14.155  68.314  1.00  0.00    -0.215 OA 
ENDBRANCH  18  20
TORSDOF 1
ENDMDL
MODEL       66
REMARK 921   NORMALIZED FREE ENERGY PREDICTED BY IDOCK:   -4.92 KCAL/MOL
REMARK 922        TOTAL FREE ENERGY PREDICTED BY IDOCK:   -5.34 KCAL/MOL
REMARK 923 INTER-LIGAND FREE ENERGY PREDICTED BY IDOCK:   -5.21 KCAL/MOL
REMARK 924 INTRA-LIGAND FREE ENERGY PREDICTED BY IDOCK:   -0.13 KCAL/MOL
REMARK 927      BINDING AFFINITY PREDICTED BY RF-SCORE:    0.00 PKD
ROOT
HETATM    1  C   UNL     1      -9.106  12.299  66.568  1.00  0.00    -0.188 C  
HETATM    2  C   UNL     1     -10.340  11.465  66.153  1.00  0.00    -0.294 C  
HETATM    3  C   UNL     1     -11.366  11.398  67.268  1.00  0.00    -0.347 C  
HETATM    4  C   UNL     1     -10.793  10.634  68.451  1.00  0.00    -0.282 C  
HETATM    5  C   UNL     1     -10.282   9.234  68.070  1.00  0.00    -0.255 C  
HETATM    6  C   UNL     1      -9.406   9.166  66.766  1.00  0.00    -0.213 C  
HETATM    7  C   UNL     1      -9.348   7.664  66.410  1.00  0.00    -0.228 C  
HETATM    8  C   UNL     1     -10.015  10.043  65.648  1.00  0.00    -0.355 C  
HETATM    9  C   UNL     1      -9.269  10.336  64.326  1.00  0.00    -0.300 C  
HETATM   10  C   UNL     1      -8.690   6.823  67.526  1.00  0.00    -0.119 C  
HETATM   11  C   UNL     1     -10.081  11.494  63.686  1.00  0.00    -0.427 C  
HETATM   12  C   UNL     1      -8.836   7.352  68.940  1.00  0.00    -0.131 A  
HETATM   13  C   UNL     1     -10.883  12.013  64.855  1.00  0.00    -0.301 C  
HETATM   14  C   UNL     1      -9.572   8.518  69.212  1.00  0.00    -0.170 A  
HETATM   15  C   UNL     1      -9.675   8.960  70.542  1.00  0.00    -0.244 A  
HETATM   16  O   UNL     1     -11.856  12.752  64.754  1.00  0.00    -0.336 OA 
HETATM   17  C   UNL     1      -9.048   8.283  71.580  1.00  0.00    -0.229 A  
HETATM   18  C   UNL     1      -8.308   7.138  71.314  1.00  0.00    -0.113 A  
HETATM   19  C   UNL     1      -8.212   6.665  69.999  1.00  0.00    -0.130 A  
ENDROOT
BRANCH  18  20
HETATM   20  O   UNL     1      -7.790   6.512  72.413  1.00  0.00    -0.100 OA 
HETATM   21  S   UNL     1      -8.586   5.306  73.157  1.00  0.00    -0.116 S  
HETATM   22  O   UNL     1      -8.904   4.262  72.193  1.00  0.00    -0.109 OA 
HETATM   23  O   UNL     1      -7.444   4.717  74.136  1.00  0.00    -0.080 OA 
HETATM   24  O   UNL     1      -9.584   5.875  74.030  1.00  0.00    -0.143 OA 
ENDBRANCH  18  20
TORSDOF 1
ENDMDL
MODEL       67
REMARK 921   NORMALIZED FREE ENERGY PREDICTED BY IDOCK:   -4.91 KCAL/MOL
REMARK 922        TOTAL FREE ENERGY PREDICTED BY IDOCK:   -5.33 KCAL/MOL
REMARK 923 INTER-LIGAND FREE ENERGY PREDICTED BY IDOCK:   -5.44 KCAL/MOL
REMARK 924 INTRA-LIGAND FREE ENERGY PREDICTED BY IDOCK:    0.11 KCAL/MOL
REMARK 927      BINDING AFFINITY PREDICTED BY RF-SCORE:    0.00 PKD
ROOT
HETATM    1  C   UNL     1     -12.082  14.487  67.433  1.00  0.00    -0.292 C  
HETATM    2  C   UNL     1     -11.137  14.483  68.656  1.00  0.00    -0.272 C  
HETATM    3  C   UNL     1      -9.682  14.405  68.236  1.00  0.00    -0.222 C  
HETATM    4  C   UNL     1      -9.410  13.069  67.564  1.00  0.00    -0.200 C  
HETATM    5  C   UNL     1      -9.809  11.867  68.436  1.00  0.00    -0.201 C  
HETATM    6  C   UNL     1     -11.218  11.972  69.128  1.00  0.00    -0.305 C  
HETATM    7  C   UNL     1     -11.209  10.863  70.205  1.00  0.00    -0.317 C  
HETATM    8  C   UNL     1     -11.444  13.390  69.702  1.00  0.00    -0.274 C  
HETATM    9  C   UNL     1     -12.812  13.850  70.255  1.00  0.00    -0.132 C  
HETATM   10  C   UNL     1     -11.031   9.456  69.594  1.00  0.00    -0.216 C  
HETATM   11  C   UNL     1     -12.662  15.389  70.391  1.00  0.00    -0.407 C  
HETATM   12  C   UNL     1     -10.247   9.381  68.297  1.00  0.00    -0.229 A  
HETATM   13  C   UNL     1     -11.460  15.677  69.523  1.00  0.00    -0.344 C  
HETATM   14  C   UNL     1      -9.680  10.529  67.718  1.00  0.00    -0.180 A  
HETATM   15  C   UNL     1      -8.963  10.399  66.517  1.00  0.00    -0.161 A  
HETATM   16  O   UNL     1     -10.823  16.724  69.547  1.00  0.00    -0.317 OA 
HETATM   17  C   UNL     1      -8.827   9.170  65.886  1.00  0.00    -0.209 A  
HETATM   18  C   UNL     1      -9.398   8.034  66.447  1.00  0.00    -0.200 A  
HETATM   19  C   UNL     1     -10.096   8.136  67.657  1.00  0.00    -0.267 A  
ENDROOT
BRANCH  18  20
HETATM   20  O   UNL     1      -9.146   6.867  65.781  1.00  0.00    -0.077 OA 
HETATM   21  S   UNL     1      -9.673   5.438  66.344  1.00  0.00    -0.173 S  
HETATM   22  O   UNL     1     -11.113   5.496  66.554  1.00  0.00    -0.179 OA 
HETATM   23  O   UNL     1      -9.417   4.473  65.074  1.00  0.00    -0.159 OA 
HETATM   24  O   UNL     1      -8.767   4.976  67.366  1.00  0.00    -0.105 OA 
ENDBRANCH  18  20
TORSDOF 1
ENDMDL
MODEL       68
REMARK 921   NORMALIZED FREE ENERGY PREDICTED BY IDOCK:   -4.88 KCAL/MOL
REMARK 922        TOTAL FREE ENERGY PREDICTED BY IDOCK:   -5.30 KCAL/MOL
REMARK 923 INTER-LIGAND FREE ENERGY PREDICTED BY IDOCK:   -5.20 KCAL/MOL
REMARK 924 INTRA-LIGAND FREE ENERGY PREDICTED BY IDOCK:   -0.10 KCAL/MOL
REMARK 927      BINDING AFFINITY PREDICTED BY RF-SCORE:    0.00 PKD
ROOT
HETATM    1  C   UNL     1     -11.634  13.475  67.415  1.00  0.00    -0.392 C  
HETATM    2  C   UNL     1     -10.410  13.187  66.517  1.00  0.00    -0.284 C  
HETATM    3  C   UNL     1     -10.639  11.975  65.635  1.00  0.00    -0.303 C  
HETATM    4  C   UNL     1     -10.759  10.727  66.495  1.00  0.00    -0.245 C  
HETATM    5  C   UNL     1      -9.554  10.524  67.429  1.00  0.00    -0.181 C  
HETATM    6  C   UNL     1      -9.078  11.807  68.206  1.00  0.00    -0.187 C  
HETATM    7  C   UNL     1      -7.680  11.439  68.751  1.00  0.00    -0.135 C  
HETATM    8  C   UNL     1      -9.074  13.042  67.277  1.00  0.00    -0.209 C  
HETATM    9  C   UNL     1      -8.852  14.477  67.808  1.00  0.00    -0.183 C  
HETATM   10  C   UNL     1      -7.725  10.232  69.714  1.00  0.00    -0.159 C  
HETATM   11  C   UNL     1      -9.263  15.385  66.619  1.00  0.00    -0.303 C  
HETATM   12  C   UNL     1      -8.832   9.222  69.472  1.00  0.00    -0.151 A  
HETATM   13  C   UNL     1     -10.063  14.442  65.751  1.00  0.00    -0.340 C  
HETATM   14  C   UNL     1      -9.729   9.363  68.400  1.00  0.00    -0.163 A  
HETATM   15  C   UNL     1     -10.733   8.395  68.224  1.00  0.00    -0.084 A  
HETATM   16  O   UNL     1     -10.357  14.659  64.582  1.00  0.00    -0.340 OA 
HETATM   17  C   UNL     1     -10.865   7.324  69.098  1.00  0.00    -0.156 A  
HETATM   18  C   UNL     1      -9.989   7.188  70.167  1.00  0.00    -0.186 A  
HETATM   19  C   UNL     1      -8.966   8.127  70.348  1.00  0.00    -0.146 A  
ENDROOT
BRANCH  18  20
HETATM   20  O   UNL     1     -10.165   6.064  70.924  1.00  0.00    -0.193 OA 
HETATM   21  S   UNL     1     -11.178   6.045  72.194  1.00  0.00    -0.297 S  
HETATM   22  O   UNL     1     -12.503   6.474  71.769  1.00  0.00    -0.345 OA 
HETATM   23  O   UNL     1     -11.271   4.464  72.513  1.00  0.00     0.024 OA 
HETATM   24  O   UNL     1     -10.511   6.628  73.332  1.00  0.00    -0.241 OA 
ENDBRANCH  18  20
TORSDOF 1
ENDMDL
MODEL       69
REMARK 921   NORMALIZED FREE ENERGY PREDICTED BY IDOCK:   -4.88 KCAL/MOL
REMARK 922        TOTAL FREE ENERGY PREDICTED BY IDOCK:   -5.29 KCAL/MOL
REMARK 923 INTER-LIGAND FREE ENERGY PREDICTED BY IDOCK:   -5.12 KCAL/MOL
REMARK 924 INTRA-LIGAND FREE ENERGY PREDICTED BY IDOCK:   -0.17 KCAL/MOL
REMARK 927      BINDING AFFINITY PREDICTED BY RF-SCORE:    0.00 PKD
ROOT
HETATM    1  C   UNL     1     -12.218  13.117  66.357  1.00  0.00    -0.396 C  
HETATM    2  C   UNL     1     -10.931  13.597  67.067  1.00  0.00    -0.298 C  
HETATM    3  C   UNL     1      -9.722  13.496  66.156  1.00  0.00    -0.264 C  
HETATM    4  C   UNL     1      -9.437  12.037  65.838  1.00  0.00    -0.207 C  
HETATM    5  C   UNL     1      -9.268  11.170  67.097  1.00  0.00    -0.165 C  
HETATM    6  C   UNL     1     -10.347  11.392  68.220  1.00  0.00    -0.209 C  
HETATM    7  C   UNL     1      -9.752  10.713  69.474  1.00  0.00    -0.085 C  
HETATM    8  C   UNL     1     -10.639  12.898  68.412  1.00  0.00    -0.267 C  
HETATM    9  C   UNL     1     -11.799  13.410  69.296  1.00  0.00    -0.385 C  
HETATM   10  C   UNL     1      -9.518   9.201  69.267  1.00  0.00    -0.158 C  
HETATM   11  C   UNL     1     -11.919  14.912  68.924  1.00  0.00    -0.295 C  
HETATM   12  C   UNL     1      -9.227   8.756  67.845  1.00  0.00    -0.149 A  
HETATM   13  C   UNL     1     -11.168  14.984  67.616  1.00  0.00    -0.326 C  
HETATM   14  C   UNL     1      -9.130   9.684  66.794  1.00  0.00    -0.171 A  
HETATM   15  C   UNL     1      -8.856   9.214  65.498  1.00  0.00    -0.229 A  
HETATM   16  O   UNL     1     -10.782  16.024  67.095  1.00  0.00    -0.314 OA 
HETATM   17  C   UNL     1      -8.703   7.858  65.238  1.00  0.00    -0.032 A  
HETATM   18  C   UNL     1      -8.811   6.936  66.272  1.00  0.00    -0.148 A  
HETATM   19  C   UNL     1      -9.060   7.384  67.576  1.00  0.00    -0.128 A  
ENDROOT
BRANCH  18  20
HETATM   20  O   UNL     1      -8.576   5.637  65.920  1.00  0.00    -0.133 OA 
HETATM   21  S   UNL     1      -9.661   4.465  66.220  1.00  0.00    -0.213 S  
HETATM   22  O   UNL     1     -10.946   4.829  65.641  1.00  0.00    -0.244 OA 
HETATM   23  O   UNL     1      -9.072   3.244  65.342  1.00  0.00    -0.139 OA 
HETATM   24  O   UNL     1      -9.528   4.049  67.595  1.00  0.00    -0.168 OA 
ENDBRANCH  18  20
TORSDOF 1
ENDMDL
MODEL       70
REMARK 921   NORMALIZED FREE ENERGY PREDICTED BY IDOCK:   -4.81 KCAL/MOL
REMARK 922        TOTAL FREE ENERGY PREDICTED BY IDOCK:   -5.22 KCAL/MOL
REMARK 923 INTER-LIGAND FREE ENERGY PREDICTED BY IDOCK:   -5.08 KCAL/MOL
REMARK 924 INTRA-LIGAND FREE ENERGY PREDICTED BY IDOCK:   -0.14 KCAL/MOL
REMARK 927      BINDING AFFINITY PREDICTED BY RF-SCORE:    0.00 PKD
ROOT
HETATM    1  C   UNL     1     -11.253  14.894  67.837  1.00  0.00    -0.324 C  
HETATM    2  C   UNL     1     -10.180  14.854  66.724  1.00  0.00    -0.259 C  
HETATM    3  C   UNL     1     -10.481  13.776  65.700  1.00  0.00    -0.312 C  
HETATM    4  C   UNL     1     -10.382  12.405  66.349  1.00  0.00    -0.255 C  
HETATM    5  C   UNL     1      -9.028  12.165  67.038  1.00  0.00    -0.201 C  
HETATM    6  C   UNL     1      -8.506  13.348  67.933  1.00  0.00    -0.173 C  
HETATM    7  C   UNL     1      -7.016  13.022  68.186  1.00  0.00    -0.105 C  
HETATM    8  C   UNL     1      -8.730  14.708  67.232  1.00  0.00    -0.224 C  
HETATM    9  C   UNL     1      -8.508  16.057  67.953  1.00  0.00    -0.165 C  
HETATM   10  C   UNL     1      -6.829  11.682  68.930  1.00  0.00    -0.101 C  
HETATM   11  C   UNL     1      -9.166  17.100  67.010  1.00  0.00    -0.251 C  
HETATM   12  C   UNL     1      -7.898  10.630  68.699  1.00  0.00    -0.121 A  
HETATM   13  C   UNL     1     -10.041  16.236  66.133  1.00  0.00    -0.344 C  
HETATM   14  C   UNL     1      -8.969  10.857  67.818  1.00  0.00    -0.139 A  
HETATM   15  C   UNL     1      -9.929   9.846  67.642  1.00  0.00    -0.212 A  
HETATM   16  O   UNL     1     -10.540  16.605  65.075  1.00  0.00    -0.683 OA 
HETATM   17  C   UNL     1      -9.850   8.646  68.336  1.00  0.00    -0.189 A  
HETATM   18  C   UNL     1      -8.801   8.422  69.219  1.00  0.00    -0.142 A  
HETATM   19  C   UNL     1      -7.819   9.406  69.391  1.00  0.00    -0.087 A  
ENDROOT
BRANCH  18  20
HETATM   20  O   UNL     1      -8.781   7.184  69.797  1.00  0.00    -0.140 OA 
HETATM   21  S   UNL     1      -9.464   6.912  71.246  1.00  0.00    -0.164 S  
HETATM   22  O   UNL     1     -10.856   7.337  71.218  1.00  0.00    -0.233 OA 
HETATM   23  O   UNL     1      -9.462   5.297  71.308  1.00  0.00    -0.144 OA 
HETATM   24  O   UNL     1      -8.552   7.337  72.278  1.00  0.00    -0.115 OA 
ENDBRANCH  18  20
TORSDOF 1
ENDMDL
MODEL       71
REMARK 921   NORMALIZED FREE ENERGY PREDICTED BY IDOCK:   -4.79 KCAL/MOL
REMARK 922        TOTAL FREE ENERGY PREDICTED BY IDOCK:   -5.20 KCAL/MOL
REMARK 923 INTER-LIGAND FREE ENERGY PREDICTED BY IDOCK:   -5.60 KCAL/MOL
REMARK 924 INTRA-LIGAND FREE ENERGY PREDICTED BY IDOCK:    0.40 KCAL/MOL
REMARK 927      BINDING AFFINITY PREDICTED BY RF-SCORE:    0.00 PKD
ROOT
HETATM    1  C   UNL     1      -8.642   7.959  65.517  1.00  0.00    -0.139 C  
HETATM    2  C   UNL     1      -7.729   9.009  64.844  1.00  0.00    -0.111 C  
HETATM    3  C   UNL     1      -6.949   9.809  65.870  1.00  0.00    -0.101 C  
HETATM    4  C   UNL     1      -7.905  10.644  66.707  1.00  0.00    -0.126 C  
HETATM    5  C   UNL     1      -8.811  11.550  65.857  1.00  0.00    -0.107 C  
HETATM    6  C   UNL     1      -9.473  10.862  64.607  1.00  0.00    -0.285 C  
HETATM    7  C   UNL     1      -9.998  12.034  63.747  1.00  0.00    -0.368 C  
HETATM    8  C   UNL     1      -8.453   9.963  63.870  1.00  0.00    -0.183 C  
HETATM    9  C   UNL     1      -8.867   9.004  62.731  1.00  0.00    -0.097 C  
HETATM   10  C   UNL     1     -11.050  12.883  64.493  1.00  0.00    -0.373 C  
HETATM   11  C   UNL     1      -7.627   8.090  62.541  1.00  0.00    -0.116 C  
HETATM   12  C   UNL     1     -10.922  12.934  66.005  1.00  0.00    -0.301 A  
HETATM   13  C   UNL     1      -6.860   8.313  63.823  1.00  0.00    -0.076 C  
HETATM   14  C   UNL     1      -9.872  12.280  66.672  1.00  0.00    -0.230 A  
HETATM   15  C   UNL     1      -9.803  12.363  68.073  1.00  0.00    -0.205 A  
HETATM   16  O   UNL     1      -5.687   7.999  63.992  1.00  0.00    -0.054 OA 
HETATM   17  C   UNL     1     -10.759  13.056  68.804  1.00  0.00    -0.250 A  
HETATM   18  C   UNL     1     -11.807  13.692  68.150  1.00  0.00    -0.372 A  
HETATM   19  C   UNL     1     -11.882  13.643  66.752  1.00  0.00    -0.452 A  
ENDROOT
BRANCH  18  20
HETATM   20  O   UNL     1     -12.651  14.401  68.957  1.00  0.00    -0.065 OA 
HETATM   21  S   UNL     1     -12.332  14.622  70.534  1.00  0.00    -0.360 S  
HETATM   22  O   UNL     1     -11.012  15.217  70.687  1.00  0.00    -0.307 OA 
HETATM   23  O   UNL     1     -13.412  15.757  70.929  1.00  0.00    -0.568 OA 
HETATM   24  O   UNL     1     -12.731  13.442  71.261  1.00  0.00    -0.354 OA 
ENDBRANCH  18  20
TORSDOF 1
ENDMDL
MODEL       72
REMARK 921   NORMALIZED FREE ENERGY PREDICTED BY IDOCK:   -4.74 KCAL/MOL
REMARK 922        TOTAL FREE ENERGY PREDICTED BY IDOCK:   -5.15 KCAL/MOL
REMARK 923 INTER-LIGAND FREE ENERGY PREDICTED BY IDOCK:   -4.96 KCAL/MOL
REMARK 924 INTRA-LIGAND FREE ENERGY PREDICTED BY IDOCK:   -0.18 KCAL/MOL
REMARK 927      BINDING AFFINITY PREDICTED BY RF-SCORE:    0.00 PKD
ROOT
HETATM    1  C   UNL     1      -9.858  10.115  66.170  1.00  0.00    -0.297 C  
HETATM    2  C   UNL     1      -9.685  11.370  67.056  1.00  0.00    -0.210 C  
HETATM    3  C   UNL     1      -8.314  11.410  67.703  1.00  0.00    -0.129 C  
HETATM    4  C   UNL     1      -8.172  10.254  68.681  1.00  0.00    -0.116 C  
HETATM    5  C   UNL     1      -9.292  10.219  69.735  1.00  0.00    -0.116 C  
HETATM    6  C   UNL     1     -10.749  10.426  69.179  1.00  0.00    -0.266 C  
HETATM    7  C   UNL     1     -11.607  10.720  70.430  1.00  0.00    -0.431 C  
HETATM    8  C   UNL     1     -10.780  11.558  68.127  1.00  0.00    -0.242 C  
HETATM    9  C   UNL     1     -12.028  11.849  67.261  1.00  0.00    -0.065 C  
HETATM   10  C   UNL     1     -11.594   9.551  71.438  1.00  0.00    -0.466 C  
HETATM   11  C   UNL     1     -11.501  12.799  66.152  1.00  0.00    -0.399 C  
HETATM   12  C   UNL     1     -10.342   8.692  71.454  1.00  0.00    -0.331 A  
HETATM   13  C   UNL     1     -10.007  12.595  66.232  1.00  0.00    -0.258 C  
HETATM   14  C   UNL     1      -9.245   8.984  70.626  1.00  0.00    -0.279 A  
HETATM   15  C   UNL     1      -8.112   8.155  70.685  1.00  0.00    -0.105 A  
HETATM   16  O   UNL     1      -9.178  13.339  65.722  1.00  0.00     0.078 OA 
HETATM   17  C   UNL     1      -8.068   7.049  71.523  1.00  0.00    -0.104 A  
HETATM   18  C   UNL     1      -9.157   6.748  72.333  1.00  0.00    -0.134 A  
HETATM   19  C   UNL     1     -10.287   7.574  72.309  1.00  0.00    -0.263 A  
ENDROOT
BRANCH  18  20
HETATM   20  O   UNL     1      -8.982   5.679  73.167  1.00  0.00    -0.123 OA 
HETATM   21  S   UNL     1      -9.957   4.381  73.100  1.00  0.00    -0.151 S  
HETATM   22  O   UNL     1      -9.975   3.853  71.743  1.00  0.00    -0.181 OA 
HETATM   23  O   UNL     1      -9.149   3.321  74.012  1.00  0.00    -0.088 OA 
HETATM   24  O   UNL     1     -11.168   4.670  73.827  1.00  0.00    -0.287 OA 
ENDBRANCH  18  20
TORSDOF 1
ENDMDL
MODEL       73
REMARK 921   NORMALIZED FREE ENERGY PREDICTED BY IDOCK:   -4.65 KCAL/MOL
REMARK 922        TOTAL FREE ENERGY PREDICTED BY IDOCK:   -5.05 KCAL/MOL
REMARK 923 INTER-LIGAND FREE ENERGY PREDICTED BY IDOCK:   -4.91 KCAL/MOL
REMARK 924 INTRA-LIGAND FREE ENERGY PREDICTED BY IDOCK:   -0.14 KCAL/MOL
REMARK 927      BINDING AFFINITY PREDICTED BY RF-SCORE:    0.00 PKD
ROOT
HETATM    1  C   UNL     1      -7.504   9.941  66.077  1.00  0.00    -0.106 C  
HETATM    2  C   UNL     1      -8.595   9.380  65.137  1.00  0.00    -0.188 C  
HETATM    3  C   UNL     1      -9.977   9.858  65.539  1.00  0.00    -0.363 C  
HETATM    4  C   UNL     1     -10.343   9.289  66.901  1.00  0.00    -0.316 C  
HETATM    5  C   UNL     1     -10.240   7.755  66.956  1.00  0.00    -0.375 C  
HETATM    6  C   UNL     1      -8.936   7.142  66.324  1.00  0.00    -0.181 C  
HETATM    7  C   UNL     1      -9.246   5.636  66.169  1.00  0.00    -0.169 C  
HETATM    8  C   UNL     1      -8.590   7.843  64.990  1.00  0.00    -0.010 C  
HETATM    9  C   UNL     1      -7.257   7.597  64.248  1.00  0.00    -0.079 C  
HETATM   10  C   UNL     1      -9.539   4.956  67.524  1.00  0.00    -0.179 C  
HETATM   11  C   UNL     1      -7.203   8.730  63.188  1.00  0.00    -0.094 C  
HETATM   12  C   UNL     1     -10.144   5.838  68.601  1.00  0.00    -0.227 A  
HETATM   13  C   UNL     1      -8.225   9.712  63.710  1.00  0.00    -0.162 C  
HETATM   14  C   UNL     1     -10.460   7.184  68.352  1.00  0.00    -0.228 A  
HETATM   15  C   UNL     1     -11.020   7.952  69.387  1.00  0.00    -0.031 A  
HETATM   16  O   UNL     1      -8.704  10.628  63.053  1.00  0.00    -0.182 OA 
HETATM   17  C   UNL     1     -11.244   7.413  70.647  1.00  0.00    -0.292 A  
HETATM   18  C   UNL     1     -10.920   6.087  70.902  1.00  0.00    -0.289 A  
HETATM   19  C   UNL     1     -10.384   5.296  69.879  1.00  0.00    -0.374 A  
ENDROOT
BRANCH  18  20
HETATM   20  O   UNL     1     -11.244   5.640  72.153  1.00  0.00    -0.257 OA 
HETATM   21  S   UNL     1     -10.226   4.710  73.012  1.00  0.00    -0.178 S  
HETATM   22  O   UNL     1      -8.936   5.376  73.128  1.00  0.00    -0.120 OA 
HETATM   23  O   UNL     1     -10.911   4.745  74.475  1.00  0.00    -0.347 OA 
HETATM   24  O   UNL     1     -10.348   3.346  72.563  1.00  0.00    -0.165 OA 
ENDBRANCH  18  20
TORSDOF 1
ENDMDL
MODEL       74
REMARK 921   NORMALIZED FREE ENERGY PREDICTED BY IDOCK:   -4.60 KCAL/MOL
REMARK 922        TOTAL FREE ENERGY PREDICTED BY IDOCK:   -5.00 KCAL/MOL
REMARK 923 INTER-LIGAND FREE ENERGY PREDICTED BY IDOCK:   -5.20 KCAL/MOL
REMARK 924 INTRA-LIGAND FREE ENERGY PREDICTED BY IDOCK:    0.20 KCAL/MOL
REMARK 927      BINDING AFFINITY PREDICTED BY RF-SCORE:    0.00 PKD
ROOT
HETATM    1  C   UNL     1     -11.447  14.161  68.699  1.00  0.00    -0.332 C  
HETATM    2  C   UNL     1     -11.039  13.423  67.403  1.00  0.00    -0.297 C  
HETATM    3  C   UNL     1     -11.848  12.156  67.205  1.00  0.00    -0.292 C  
HETATM    4  C   UNL     1     -11.524  11.160  68.306  1.00  0.00    -0.373 C  
HETATM    5  C   UNL     1     -10.021  10.856  68.417  1.00  0.00    -0.188 C  
HETATM    6  C   UNL     1      -9.073  12.110  68.375  1.00  0.00    -0.151 C  
HETATM    7  C   UNL     1      -7.663  11.529  68.124  1.00  0.00    -0.120 C  
HETATM    8  C   UNL     1      -9.531  13.110  67.288  1.00  0.00    -0.225 C  
HETATM    9  C   UNL     1      -8.920  14.524  67.153  1.00  0.00    -0.244 C  
HETATM   10  C   UNL     1      -7.215  10.573  69.252  1.00  0.00    -0.103 C  
HETATM   11  C   UNL     1      -9.892  15.262  66.194  1.00  0.00    -0.333 C  
HETATM   12  C   UNL     1      -8.320   9.830  69.980  1.00  0.00    -0.211 A  
HETATM   13  C   UNL     1     -11.124  14.390  66.246  1.00  0.00    -0.331 C  
HETATM   14  C   UNL     1      -9.667   9.976  69.609  1.00  0.00    -0.255 A  
HETATM   15  C   UNL     1     -10.647   9.261  70.319  1.00  0.00    -0.278 A  
HETATM   16  O   UNL     1     -12.046  14.446  65.440  1.00  0.00    -0.374 OA 
HETATM   17  C   UNL     1     -10.311   8.438  71.386  1.00  0.00    -0.285 A  
HETATM   18  C   UNL     1      -8.981   8.302  71.765  1.00  0.00    -0.181 A  
HETATM   19  C   UNL     1      -7.986   8.985  71.057  1.00  0.00    -0.186 A  
ENDROOT
BRANCH  18  20
HETATM   20  O   UNL     1      -8.755   7.417  72.782  1.00  0.00    -0.118 OA 
HETATM   21  S   UNL     1      -7.338   6.635  72.927  1.00  0.00    -0.080 S  
HETATM   22  O   UNL     1      -6.249   7.601  72.964  1.00  0.00    -0.057 OA 
HETATM   23  O   UNL     1      -7.464   6.006  74.410  1.00  0.00    -0.090 OA 
HETATM   24  O   UNL     1      -7.334   5.507  72.029  1.00  0.00    -0.088 OA 
ENDBRANCH  18  20
TORSDOF 1
ENDMDL
MODEL       75
REMARK 921   NORMALIZED FREE ENERGY PREDICTED BY IDOCK:   -4.55 KCAL/MOL
REMARK 922        TOTAL FREE ENERGY PREDICTED BY IDOCK:   -4.94 KCAL/MOL
REMARK 923 INTER-LIGAND FREE ENERGY PREDICTED BY IDOCK:   -4.79 KCAL/MOL
REMARK 924 INTRA-LIGAND FREE ENERGY PREDICTED BY IDOCK:   -0.16 KCAL/MOL
REMARK 927      BINDING AFFINITY PREDICTED BY RF-SCORE:    0.00 PKD
ROOT
HETATM    1  C   UNL     1      -9.383   5.987  74.306  1.00  0.00    -0.150 C  
HETATM    2  C   UNL     1      -8.807   5.019  73.248  1.00  0.00    -0.114 C  
HETATM    3  C   UNL     1      -7.485   5.519  72.697  1.00  0.00    -0.097 C  
HETATM    4  C   UNL     1      -7.703   6.811  71.926  1.00  0.00    -0.096 C  
HETATM    5  C   UNL     1      -8.760   6.676  70.817  1.00  0.00    -0.143 C  
HETATM    6  C   UNL     1     -10.085   5.935  71.232  1.00  0.00    -0.245 C  
HETATM    7  C   UNL     1     -10.786   5.608  69.895  1.00  0.00    -0.399 C  
HETATM    8  C   UNL     1      -9.770   4.686  72.088  1.00  0.00    -0.219 C  
HETATM    9  C   UNL     1     -10.873   3.879  72.810  1.00  0.00    -0.116 C  
HETATM   10  C   UNL     1     -11.130   6.878  69.087  1.00  0.00    -0.205 C  
HETATM   11  C   UNL     1     -10.089   2.964  73.788  1.00  0.00    -0.177 C  
HETATM   12  C   UNL     1     -10.216   8.072  69.293  1.00  0.00    -0.214 A  
HETATM   13  C   UNL     1      -8.736   3.633  73.844  1.00  0.00    -0.089 C  
HETATM   14  C   UNL     1      -9.095   7.998  70.137  1.00  0.00    -0.151 A  
HETATM   15  C   UNL     1      -8.283   9.135  70.288  1.00  0.00    -0.170 A  
HETATM   16  O   UNL     1      -7.721   3.107  74.285  1.00  0.00    -0.061 OA 
HETATM   17  C   UNL     1      -8.581  10.327  69.640  1.00  0.00    -0.126 A  
HETATM   18  C   UNL     1      -9.696  10.409  68.815  1.00  0.00    -0.183 A  
HETATM   19  C   UNL     1     -10.505   9.281  68.630  1.00  0.00    -0.236 A  
ENDROOT
BRANCH  18  20
HETATM   20  O   UNL     1      -9.858  11.605  68.173  1.00  0.00    -0.178 OA 
HETATM   21  S   UNL     1     -11.284  12.382  68.173  1.00  0.00    -0.289 S  
HETATM   22  O   UNL     1     -11.734  12.580  69.544  1.00  0.00    -0.290 OA 
HETATM   23  O   UNL     1     -10.864  13.832  67.597  1.00  0.00    -0.250 OA 
HETATM   24  O   UNL     1     -12.133  11.799  67.163  1.00  0.00    -0.592 OA 
ENDBRANCH  18  20
TORSDOF 1
ENDMDL
MODEL       76
REMARK 921   NORMALIZED FREE ENERGY PREDICTED BY IDOCK:   -4.54 KCAL/MOL
REMARK 922        TOTAL FREE ENERGY PREDICTED BY IDOCK:   -4.93 KCAL/MOL
REMARK 923 INTER-LIGAND FREE ENERGY PREDICTED BY IDOCK:   -4.80 KCAL/MOL
REMARK 924 INTRA-LIGAND FREE ENERGY PREDICTED BY IDOCK:   -0.13 KCAL/MOL
REMARK 927      BINDING AFFINITY PREDICTED BY RF-SCORE:    0.00 PKD
ROOT
HETATM    1  C   UNL     1     -10.850  11.546  65.108  1.00  0.00    -0.326 C  
HETATM    2  C   UNL     1     -10.197  12.388  66.228  1.00  0.00    -0.258 C  
HETATM    3  C   UNL     1      -8.741  12.012  66.430  1.00  0.00    -0.088 C  
HETATM    4  C   UNL     1      -8.645  10.585  66.946  1.00  0.00    -0.125 C  
HETATM    5  C   UNL     1      -9.470  10.352  68.223  1.00  0.00    -0.153 C  
HETATM    6  C   UNL     1     -10.929  10.938  68.201  1.00  0.00    -0.302 C  
HETATM    7  C   UNL     1     -11.386  10.908  69.677  1.00  0.00    -0.362 C  
HETATM    8  C   UNL     1     -10.944  12.353  67.578  1.00  0.00    -0.293 C  
HETATM    9  C   UNL     1     -12.257  13.093  67.236  1.00  0.00    -0.234 C  
HETATM   10  C   UNL     1     -11.407   9.476  70.255  1.00  0.00    -0.284 C  
HETATM   11  C   UNL     1     -11.798  14.280  66.347  1.00  0.00    -0.427 C  
HETATM   12  C   UNL     1     -10.415   8.496  69.656  1.00  0.00    -0.221 A  
HETATM   13  C   UNL     1     -10.412  13.852  65.925  1.00  0.00    -0.305 C  
HETATM   14  C   UNL     1      -9.501   8.894  68.666  1.00  0.00    -0.153 A  
HETATM   15  C   UNL     1      -8.604   7.944  68.149  1.00  0.00    -0.123 A  
HETATM   16  O   UNL     1      -9.576  14.601  65.433  1.00  0.00    -0.225 OA 
HETATM   17  C   UNL     1      -8.621   6.624  68.581  1.00  0.00    -0.125 A  
HETATM   18  C   UNL     1      -9.533   6.223  69.550  1.00  0.00    -0.141 A  
HETATM   19  C   UNL     1     -10.419   7.158  70.097  1.00  0.00    -0.231 A  
ENDROOT
BRANCH  18  20
HETATM   20  O   UNL     1      -9.419   4.921  69.951  1.00  0.00    -0.132 OA 
HETATM   21  S   UNL     1      -8.221   4.438  70.937  1.00  0.00    -0.081 S  
HETATM   22  O   UNL     1      -8.227   5.249  72.147  1.00  0.00    -0.112 OA 
HETATM   23  O   UNL     1      -8.720   2.959  71.355  1.00  0.00    -0.066 OA 
HETATM   24  O   UNL     1      -7.027   4.234  70.155  1.00  0.00    -0.040 OA 
ENDBRANCH  18  20
TORSDOF 1
ENDMDL
MODEL       77
REMARK 921   NORMALIZED FREE ENERGY PREDICTED BY IDOCK:   -4.51 KCAL/MOL
REMARK 922        TOTAL FREE ENERGY PREDICTED BY IDOCK:   -4.91 KCAL/MOL
REMARK 923 INTER-LIGAND FREE ENERGY PREDICTED BY IDOCK:   -4.76 KCAL/MOL
REMARK 924 INTRA-LIGAND FREE ENERGY PREDICTED BY IDOCK:   -0.15 KCAL/MOL
REMARK 927      BINDING AFFINITY PREDICTED BY RF-SCORE:    0.00 PKD
ROOT
HETATM    1  C   UNL     1     -12.031  12.601  67.614  1.00  0.00    -0.309 C  
HETATM    2  C   UNL     1     -10.986  12.755  68.742  1.00  0.00    -0.289 C  
HETATM    3  C   UNL     1      -9.573  12.788  68.191  1.00  0.00    -0.223 C  
HETATM    4  C   UNL     1      -9.234  11.446  67.563  1.00  0.00    -0.160 C  
HETATM    5  C   UNL     1      -9.435  10.265  68.528  1.00  0.00    -0.158 C  
HETATM    6  C   UNL     1     -10.780  10.279  69.343  1.00  0.00    -0.272 C  
HETATM    7  C   UNL     1     -10.568   9.241  70.467  1.00  0.00    -0.309 C  
HETATM    8  C   UNL     1     -11.090  11.701  69.865  1.00  0.00    -0.028 C  
HETATM    9  C   UNL     1     -12.442  12.065  70.520  1.00  0.00    -0.292 C  
HETATM   10  C   UNL     1     -10.309   7.823  69.913  1.00  0.00    -0.223 C  
HETATM   11  C   UNL     1     -12.431  13.617  70.566  1.00  0.00    -0.394 C  
HETATM   12  C   UNL     1      -9.640   7.746  68.553  1.00  0.00    -0.151 A  
HETATM   13  C   UNL     1     -11.345  13.963  69.575  1.00  0.00    -0.237 C  
HETATM   14  C   UNL     1      -9.241   8.905  67.867  1.00  0.00    -0.148 A  
HETATM   15  C   UNL     1      -8.624   8.772  66.612  1.00  0.00    -0.120 A  
HETATM   16  O   UNL     1     -10.813  15.064  69.488  1.00  0.00    -0.245 OA 
HETATM   17  C   UNL     1      -8.426   7.526  66.032  1.00  0.00    -0.152 A  
HETATM   18  C   UNL     1      -8.832   6.377  66.700  1.00  0.00    -0.130 A  
HETATM   19  C   UNL     1      -9.426   6.484  67.964  1.00  0.00    -0.120 A  
ENDROOT
BRANCH  18  20
HETATM   20  O   UNL     1      -8.528   5.202  66.072  1.00  0.00    -0.114 OA 
HETATM   21  S   UNL     1      -9.625   4.013  65.917  1.00  0.00    -0.188 S  
HETATM   22  O   UNL     1     -10.822   4.534  65.272  1.00  0.00    -0.254 OA 
HETATM   23  O   UNL     1      -8.898   3.037  64.854  1.00  0.00    -0.112 OA 
HETATM   24  O   UNL     1      -9.680   3.266  67.150  1.00  0.00    -0.127 OA 
ENDBRANCH  18  20
TORSDOF 1
ENDMDL
MODEL       78
REMARK 921   NORMALIZED FREE ENERGY PREDICTED BY IDOCK:   -4.47 KCAL/MOL
REMARK 922        TOTAL FREE ENERGY PREDICTED BY IDOCK:   -4.86 KCAL/MOL
REMARK 923 INTER-LIGAND FREE ENERGY PREDICTED BY IDOCK:   -4.73 KCAL/MOL
REMARK 924 INTRA-LIGAND FREE ENERGY PREDICTED BY IDOCK:   -0.13 KCAL/MOL
REMARK 927      BINDING AFFINITY PREDICTED BY RF-SCORE:    0.00 PKD
ROOT
HETATM    1  C   UNL     1      -7.977  15.684  67.255  1.00  0.00    -0.227 C  
HETATM    2  C   UNL     1      -9.466  15.463  67.608  1.00  0.00    -0.205 C  
HETATM    3  C   UNL     1      -9.621  14.634  68.869  1.00  0.00    -0.184 C  
HETATM    4  C   UNL     1      -9.093  13.228  68.631  1.00  0.00     0.025 C  
HETATM    5  C   UNL     1      -9.745  12.540  67.420  1.00  0.00    -0.194 C  
HETATM    6  C   UNL     1      -9.859  13.421  66.122  1.00  0.00    -0.289 C  
HETATM    7  C   UNL     1     -10.854  12.659  65.217  1.00  0.00    -0.319 C  
HETATM    8  C   UNL     1     -10.315  14.857  66.470  1.00  0.00    -0.295 C  
HETATM    9  C   UNL     1     -10.316  15.999  65.429  1.00  0.00    -0.386 C  
HETATM   10  C   UNL     1     -10.347  11.248  64.848  1.00  0.00    -0.362 C  
HETATM   11  C   UNL     1     -10.507  17.282  66.282  1.00  0.00    -0.268 C  
HETATM   12  C   UNL     1      -9.438  10.575  65.860  1.00  0.00    -0.236 A  
HETATM   13  C   UNL     1     -10.155  16.805  67.671  1.00  0.00    -0.275 C  
HETATM   14  C   UNL     1      -9.120  11.192  67.082  1.00  0.00    -0.151 A  
HETATM   15  C   UNL     1      -8.274  10.521  67.981  1.00  0.00    -0.112 A  
HETATM   16  O   UNL     1     -10.422  17.413  68.701  1.00  0.00    -0.352 OA 
HETATM   17  C   UNL     1      -7.733   9.279  67.674  1.00  0.00    -0.092 A  
HETATM   18  C   UNL     1      -8.033   8.671  66.461  1.00  0.00    -0.099 A  
HETATM   19  C   UNL     1      -8.894   9.311  65.561  1.00  0.00    -0.224 A  
ENDROOT
BRANCH  18  20
HETATM   20  O   UNL     1      -7.504   7.422  66.290  1.00  0.00    -0.080 OA 
HETATM   21  S   UNL     1      -8.121   6.127  67.053  1.00  0.00    -0.106 S  
HETATM   22  O   UNL     1      -9.544   6.021  66.763  1.00  0.00    -0.139 OA 
HETATM   23  O   UNL     1      -7.387   4.914  66.278  1.00  0.00    -0.076 OA 
HETATM   24  O   UNL     1      -7.607   6.090  68.400  1.00  0.00    -0.088 OA 
ENDBRANCH  18  20
TORSDOF 1
ENDMDL
MODEL       79
REMARK 921   NORMALIZED FREE ENERGY PREDICTED BY IDOCK:   -4.46 KCAL/MOL
REMARK 922        TOTAL FREE ENERGY PREDICTED BY IDOCK:   -4.85 KCAL/MOL
REMARK 923 INTER-LIGAND FREE ENERGY PREDICTED BY IDOCK:   -4.71 KCAL/MOL
REMARK 924 INTRA-LIGAND FREE ENERGY PREDICTED BY IDOCK:   -0.14 KCAL/MOL
REMARK 927      BINDING AFFINITY PREDICTED BY RF-SCORE:    0.00 PKD
ROOT
HETATM    1  C   UNL     1      -6.302   6.172  66.095  1.00  0.00    -0.038 C  
HETATM    2  C   UNL     1      -7.272   5.984  67.284  1.00  0.00    -0.076 C  
HETATM    3  C   UNL     1      -8.707   5.840  66.814  1.00  0.00    -0.116 C  
HETATM    4  C   UNL     1      -9.170   7.136  66.169  1.00  0.00    -0.126 C  
HETATM    5  C   UNL     1      -8.998   8.358  67.088  1.00  0.00    -0.153 C  
HETATM    6  C   UNL     1      -7.613   8.458  67.827  1.00  0.00    -0.102 C  
HETATM    7  C   UNL     1      -7.834   9.515  68.932  1.00  0.00    -0.080 C  
HETATM    8  C   UNL     1      -7.179   7.077  68.370  1.00  0.00    -0.088 C  
HETATM    9  C   UNL     1      -5.772   6.824  68.958  1.00  0.00    -0.018 C  
HETATM   10  C   UNL     1      -8.219  10.895  68.354  1.00  0.00    -0.133 C  
HETATM   11  C   UNL     1      -5.675   5.278  69.047  1.00  0.00    -0.015 C  
HETATM   12  C   UNL     1      -8.964  10.885  67.032  1.00  0.00    -0.148 A  
HETATM   13  C   UNL     1      -6.787   4.829  68.129  1.00  0.00    -0.056 C  
HETATM   14  C   UNL     1      -9.319   9.680  66.402  1.00  0.00    -0.224 A  
HETATM   15  C   UNL     1     -10.010   9.733  65.180  1.00  0.00    -0.197 A  
HETATM   16  O   UNL     1      -7.247   3.694  68.101  1.00  0.00    -0.051 OA 
HETATM   17  C   UNL     1     -10.324  10.944  64.578  1.00  0.00    -0.417 A  
HETATM   18  C   UNL     1      -9.962  12.138  65.190  1.00  0.00    -0.228 A  
HETATM   19  C   UNL     1      -9.295  12.110  66.421  1.00  0.00    -0.225 A  
ENDROOT
BRANCH  18  20
HETATM   20  O   UNL     1     -10.378  13.270  64.548  1.00  0.00    -0.397 OA 
HETATM   21  S   UNL     1     -11.846  13.911  64.823  1.00  0.00    -0.420 S  
HETATM   22  O   UNL     1     -12.014  14.153  66.249  1.00  0.00    -0.394 OA 
HETATM   23  O   UNL     1     -11.710  15.354  64.109  1.00  0.00    -0.356 OA 
HETATM   24  O   UNL     1     -12.823  13.188  64.046  1.00  0.00    -0.648 OA 
ENDBRANCH  18  20
TORSDOF 1
ENDMDL
MODEL       80
REMARK 921   NORMALIZED FREE ENERGY PREDICTED BY IDOCK:   -4.41 KCAL/MOL
REMARK 922        TOTAL FREE ENERGY PREDICTED BY IDOCK:   -4.80 KCAL/MOL
REMARK 923 INTER-LIGAND FREE ENERGY PREDICTED BY IDOCK:   -4.71 KCAL/MOL
REMARK 924 INTRA-LIGAND FREE ENERGY PREDICTED BY IDOCK:   -0.09 KCAL/MOL
REMARK 927      BINDING AFFINITY PREDICTED BY RF-SCORE:    0.00 PKD
ROOT
HETATM    1  C   UNL     1      -5.934   7.030  71.049  1.00  0.00    -0.036 C  
HETATM    2  C   UNL     1      -7.146   6.095  71.263  1.00  0.00    -0.077 C  
HETATM    3  C   UNL     1      -7.451   5.284  70.018  1.00  0.00    -0.064 C  
HETATM    4  C   UNL     1      -7.899   6.209  68.897  1.00  0.00    -0.101 C  
HETATM    5  C   UNL     1      -9.089   7.099  69.294  1.00  0.00    -0.137 C  
HETATM    6  C   UNL     1      -8.974   7.792  70.702  1.00  0.00    -0.145 C  
HETATM    7  C   UNL     1     -10.403   8.294  71.009  1.00  0.00    -0.230 C  
HETATM    8  C   UNL     1      -8.425   6.804  71.757  1.00  0.00    -0.120 C  
HETATM    9  C   UNL     1      -8.012   7.255  73.177  1.00  0.00    -0.120 C  
HETATM   10  C   UNL     1     -10.902   9.316  69.964  1.00  0.00    -0.264 C  
HETATM   11  C   UNL     1      -7.227   6.042  73.742  1.00  0.00    -0.085 C  
HETATM   12  C   UNL     1     -10.339   9.170  68.562  1.00  0.00    -0.236 A  
HETATM   13  C   UNL     1      -6.901   5.256  72.494  1.00  0.00    -0.075 C  
HETATM   14  C   UNL     1      -9.451   8.132  68.234  1.00  0.00    -0.148 A  
HETATM   15  C   UNL     1      -8.964   8.046  66.919  1.00  0.00    -0.160 A  
HETATM   16  O   UNL     1      -6.522   4.091  72.489  1.00  0.00    -0.019 OA 
HETATM   17  C   UNL     1      -9.324   8.976  65.952  1.00  0.00    -0.306 A  
HETATM   18  C   UNL     1     -10.191  10.013  66.275  1.00  0.00    -0.215 A  
HETATM   19  C   UNL     1     -10.709  10.103  67.573  1.00  0.00    -0.347 A  
ENDROOT
BRANCH  18  20
HETATM   20  O   UNL     1     -10.533  10.830  65.235  1.00  0.00    -0.270 OA 
HETATM   21  S   UNL     1     -10.852  12.407  65.462  1.00  0.00    -0.292 S  
HETATM   22  O   UNL     1      -9.729  13.040  66.139  1.00  0.00    -0.274 OA 
HETATM   23  O   UNL     1     -10.864  12.958  63.944  1.00  0.00    -0.394 OA 
HETATM   24  O   UNL     1     -12.208  12.545  65.932  1.00  0.00    -0.593 OA 
ENDBRANCH  18  20
TORSDOF 1
ENDMDL
MODEL       81
REMARK 921   NORMALIZED FREE ENERGY PREDICTED BY IDOCK:   -4.41 KCAL/MOL
REMARK 922        TOTAL FREE ENERGY PREDICTED BY IDOCK:   -4.79 KCAL/MOL
REMARK 923 INTER-LIGAND FREE ENERGY PREDICTED BY IDOCK:   -4.78 KCAL/MOL
REMARK 924 INTRA-LIGAND FREE ENERGY PREDICTED BY IDOCK:   -0.01 KCAL/MOL
REMARK 927      BINDING AFFINITY PREDICTED BY RF-SCORE:    0.00 PKD
ROOT
HETATM    1  C   UNL     1      -7.168   7.165  66.451  1.00  0.00    -0.078 C  
HETATM    2  C   UNL     1      -8.302   6.819  67.444  1.00  0.00    -0.122 C  
HETATM    3  C   UNL     1      -9.651   6.773  66.754  1.00  0.00    -0.210 C  
HETATM    4  C   UNL     1     -10.021   8.159  66.250  1.00  0.00    -0.148 C  
HETATM    5  C   UNL     1      -9.991   9.227  67.357  1.00  0.00    -0.253 C  
HETATM    6  C   UNL     1      -8.729   9.191  68.296  1.00  0.00    -0.129 C  
HETATM    7  C   UNL     1      -9.114  10.075  69.503  1.00  0.00    -0.236 C  
HETATM    8  C   UNL     1      -8.374   7.737  68.683  1.00  0.00    -0.129 C  
HETATM    9  C   UNL     1      -7.067   7.374  69.426  1.00  0.00    -0.070 C  
HETATM   10  C   UNL     1      -9.416  11.532  69.089  1.00  0.00     0.185 C  
HETATM   11  C   UNL     1      -6.977   5.830  69.294  1.00  0.00    -0.064 C  
HETATM   12  C   UNL     1      -9.959  11.733  67.686  1.00  0.00    -0.204 A  
HETATM   13  C   UNL     1      -7.941   5.543  68.167  1.00  0.00    -0.096 C  
HETATM   14  C   UNL     1     -10.213  10.642  66.838  1.00  0.00    -0.272 A  
HETATM   15  C   UNL     1     -10.717  10.888  65.550  1.00  0.00    -0.182 A  
HETATM   16  O   UNL     1      -8.387   4.433  67.903  1.00  0.00    -0.094 OA 
HETATM   17  C   UNL     1     -10.945  12.181  65.097  1.00  0.00    -0.355 A  
HETATM   18  C   UNL     1     -10.681  13.263  65.928  1.00  0.00    -0.275 A  
HETATM   19  C   UNL     1     -10.202  13.041  67.224  1.00  0.00    -0.239 A  
ENDROOT
BRANCH  18  20
HETATM   20  O   UNL     1     -11.004  14.486  65.409  1.00  0.00    -0.309 OA 
HETATM   21  S   UNL     1     -10.398  15.859  66.031  1.00  0.00    -0.366 S  
HETATM   22  O   UNL     1      -8.944  15.786  66.054  1.00  0.00    -0.333 OA 
HETATM   23  O   UNL     1     -10.802  16.936  64.897  1.00  0.00    -0.715 OA 
HETATM   24  O   UNL     1     -11.167  16.222  67.196  1.00  0.00    -0.092 OA 
ENDBRANCH  18  20
TORSDOF 1
ENDMDL
MODEL       82
REMARK 921   NORMALIZED FREE ENERGY PREDICTED BY IDOCK:   -4.36 KCAL/MOL
REMARK 922        TOTAL FREE ENERGY PREDICTED BY IDOCK:   -4.74 KCAL/MOL
REMARK 923 INTER-LIGAND FREE ENERGY PREDICTED BY IDOCK:   -4.68 KCAL/MOL
REMARK 924 INTRA-LIGAND FREE ENERGY PREDICTED BY IDOCK:   -0.07 KCAL/MOL
REMARK 927      BINDING AFFINITY PREDICTED BY RF-SCORE:    0.00 PKD
ROOT
HETATM    1  C   UNL     1     -10.068  12.837  63.611  1.00  0.00     0.099 C  
HETATM    2  C   UNL     1     -11.096  12.907  64.763  1.00  0.00    -0.337 C  
HETATM    3  C   UNL     1     -11.804  14.249  64.796  1.00  0.00    -0.436 C  
HETATM    4  C   UNL     1     -10.809  15.348  65.130  1.00  0.00    -0.447 C  
HETATM    5  C   UNL     1     -10.041  15.085  66.436  1.00  0.00    -0.289 C  
HETATM    6  C   UNL     1      -9.478  13.626  66.607  1.00  0.00    -0.285 C  
HETATM    7  C   UNL     1      -9.103  13.523  68.102  1.00  0.00    -0.199 C  
HETATM    8  C   UNL     1     -10.523  12.578  66.158  1.00  0.00    -0.272 C  
HETATM    9  C   UNL     1     -10.182  11.077  66.018  1.00  0.00    -0.305 C  
HETATM   10  C   UNL     1      -8.022  14.550  68.507  1.00  0.00    -0.142 C  
HETATM   11  C   UNL     1     -11.389  10.490  65.238  1.00  0.00     1.037 C  
HETATM   12  C   UNL     1      -7.997  15.844  67.715  1.00  0.00    -0.154 A  
HETATM   13  C   UNL     1     -12.031  11.726  64.653  1.00  0.00    -0.082 C  
HETATM   14  C   UNL     1      -8.939  16.103  66.705  1.00  0.00    -0.288 A  
HETATM   15  C   UNL     1      -8.867  17.320  66.006  1.00  0.00    -0.119 A  
HETATM   16  O   UNL     1     -13.163  11.763  64.185  1.00  0.00    -0.527 OA 
HETATM   17  C   UNL     1      -7.876  18.253  66.280  1.00  0.00    -0.279 A  
HETATM   18  C   UNL     1      -6.934  17.996  67.268  1.00  0.00    -0.187 A  
HETATM   19  C   UNL     1      -7.001  16.800  67.994  1.00  0.00    -0.156 A  
ENDROOT
BRANCH  18  20
HETATM   20  O   UNL     1      -6.046  19.008  67.502  1.00  0.00    -0.185 OA 
HETATM   21  S   UNL     1      -6.533  20.450  68.071  1.00  0.00    -0.309 S  
HETATM   22  O   UNL     1      -7.286  20.261  69.303  1.00  0.00    -0.089 OA 
HETATM   23  O   UNL     1      -5.126  21.133  68.474  1.00  0.00    -0.278 OA 
HETATM   24  O   UNL     1      -7.041  21.236  66.974  1.00  0.00    -0.448 OA 
ENDBRANCH  18  20
TORSDOF 1
ENDMDL
MODEL       83
REMARK 921   NORMALIZED FREE ENERGY PREDICTED BY IDOCK:   -4.20 KCAL/MOL
REMARK 922        TOTAL FREE ENERGY PREDICTED BY IDOCK:   -4.57 KCAL/MOL
REMARK 923 INTER-LIGAND FREE ENERGY PREDICTED BY IDOCK:   -4.38 KCAL/MOL
REMARK 924 INTRA-LIGAND FREE ENERGY PREDICTED BY IDOCK:   -0.20 KCAL/MOL
REMARK 927      BINDING AFFINITY PREDICTED BY RF-SCORE:    0.00 PKD
ROOT
HETATM    1  C   UNL     1      -8.871   5.629  65.603  1.00  0.00    -0.150 C  
HETATM    2  C   UNL     1      -7.422   6.068  65.291  1.00  0.00    -0.083 C  
HETATM    3  C   UNL     1      -6.882   7.001  66.359  1.00  0.00    -0.061 C  
HETATM    4  C   UNL     1      -7.665   8.303  66.350  1.00  0.00    -0.091 C  
HETATM    5  C   UNL     1      -7.687   8.980  64.969  1.00  0.00    -0.109 C  
HETATM    6  C   UNL     1      -7.994   8.029  63.754  1.00  0.00    -0.123 C  
HETATM    7  C   UNL     1      -7.592   8.845  62.505  1.00  0.00    -0.110 C  
HETATM    8  C   UNL     1      -7.226   6.694  63.894  1.00  0.00    -0.064 C  
HETATM    9  C   UNL     1      -7.486   5.488  62.964  1.00  0.00    -0.058 C  
HETATM   10  C   UNL     1      -8.412  10.147  62.368  1.00  0.00    -0.191 C  
HETATM   11  C   UNL     1      -6.768   4.307  63.671  1.00  0.00    -0.043 C  
HETATM   12  C   UNL     1      -8.906  10.768  63.661  1.00  0.00    -0.139 A  
HETATM   13  C   UNL     1      -6.577   4.835  65.073  1.00  0.00    -0.044 C  
HETATM   14  C   UNL     1      -8.590  10.206  64.910  1.00  0.00    -0.188 A  
HETATM   15  C   UNL     1      -9.075  10.826  66.075  1.00  0.00    -0.204 A  
HETATM   16  O   UNL     1      -5.818   4.345  65.900  1.00  0.00    -0.021 OA 
HETATM   17  C   UNL     1      -9.873  11.960  66.011  1.00  0.00    -0.258 A  
HETATM   18  C   UNL     1     -10.200  12.511  64.778  1.00  0.00    -0.280 A  
HETATM   19  C   UNL     1      -9.708  11.925  63.605  1.00  0.00    -0.266 A  
ENDROOT
BRANCH  18  20
HETATM   20  O   UNL     1     -10.932  13.664  64.832  1.00  0.00    -0.329 OA 
HETATM   21  S   UNL     1     -12.455  13.730  64.270  1.00  0.00    -0.180 S  
HETATM   22  O   UNL     1     -13.257  12.696  64.908  1.00  0.00    -0.819 OA 
HETATM   23  O   UNL     1     -12.957  15.149  64.856  1.00  0.00     0.010 OA 
HETATM   24  O   UNL     1     -12.417  13.897  62.838  1.00  0.00    -0.572 OA 
ENDBRANCH  18  20
TORSDOF 1
ENDMDL
MODEL       84
REMARK 921   NORMALIZED FREE ENERGY PREDICTED BY IDOCK:   -4.14 KCAL/MOL
REMARK 922        TOTAL FREE ENERGY PREDICTED BY IDOCK:   -4.51 KCAL/MOL
REMARK 923 INTER-LIGAND FREE ENERGY PREDICTED BY IDOCK:   -4.35 KCAL/MOL
REMARK 924 INTRA-LIGAND FREE ENERGY PREDICTED BY IDOCK:   -0.16 KCAL/MOL
REMARK 927      BINDING AFFINITY PREDICTED BY RF-SCORE:    0.00 PKD
ROOT
HETATM    1  C   UNL     1     -10.047   4.200  65.818  1.00  0.00    -0.179 C  
HETATM    2  C   UNL     1      -8.804   3.812  66.652  1.00  0.00    -0.129 C  
HETATM    3  C   UNL     1      -9.194   3.271  68.014  1.00  0.00    -0.243 C  
HETATM    4  C   UNL     1      -9.853   4.368  68.835  1.00  0.00    -0.163 C  
HETATM    5  C   UNL     1      -8.982   5.630  68.958  1.00  0.00    -0.117 C  
HETATM    6  C   UNL     1      -8.320   6.127  67.621  1.00  0.00    -0.112 C  
HETATM    7  C   UNL     1      -7.237   7.134  68.070  1.00  0.00    -0.091 C  
HETATM    8  C   UNL     1      -7.758   4.936  66.809  1.00  0.00    -0.092 C  
HETATM    9  C   UNL     1      -7.237   5.093  65.363  1.00  0.00    -0.068 C  
HETATM   10  C   UNL     1      -7.836   8.335  68.835  1.00  0.00    -0.111 C  
HETATM   11  C   UNL     1      -7.107   3.634  64.851  1.00  0.00    -0.065 C  
HETATM   12  C   UNL     1      -9.116   8.070  69.605  1.00  0.00    -0.152 A  
HETATM   13  C   UNL     1      -7.951   2.866  65.840  1.00  0.00    -0.082 C  
HETATM   14  C   UNL     1      -9.689   6.787  69.651  1.00  0.00    -0.160 A  
HETATM   15  C   UNL     1     -10.875   6.601  70.381  1.00  0.00    -0.316 A  
HETATM   16  O   UNL     1      -7.920   1.649  65.979  1.00  0.00    -0.073 OA 
HETATM   17  C   UNL     1     -11.496   7.658  71.034  1.00  0.00    -0.294 A  
HETATM   18  C   UNL     1     -10.941   8.930  70.979  1.00  0.00    -0.276 A  
HETATM   19  C   UNL     1      -9.746   9.135  70.278  1.00  0.00    -0.248 A  
ENDROOT
BRANCH  18  20
HETATM   20  O   UNL     1     -11.594   9.882  71.711  1.00  0.00    -0.302 OA 
HETATM   21  S   UNL     1     -12.670  10.889  71.027  1.00  0.00    -0.406 S  
HETATM   22  O   UNL     1     -13.694  10.117  70.338  1.00  0.00     0.101 OA 
HETATM   23  O   UNL     1     -13.367  11.550  72.326  1.00  0.00    -0.422 OA 
HETATM   24  O   UNL     1     -11.957  11.965  70.384  1.00  0.00    -0.351 OA 
ENDBRANCH  18  20
TORSDOF 1
ENDMDL
MODEL       85
REMARK 921   NORMALIZED FREE ENERGY PREDICTED BY IDOCK:   -4.02 KCAL/MOL
REMARK 922        TOTAL FREE ENERGY PREDICTED BY IDOCK:   -4.38 KCAL/MOL
REMARK 923 INTER-LIGAND FREE ENERGY PREDICTED BY IDOCK:   -4.37 KCAL/MOL
REMARK 924 INTRA-LIGAND FREE ENERGY PREDICTED BY IDOCK:   -0.01 KCAL/MOL
REMARK 927      BINDING AFFINITY PREDICTED BY RF-SCORE:    0.00 PKD
ROOT
HETATM    1  C   UNL     1      -8.819   7.046  72.066  1.00  0.00    -0.133 C  
HETATM    2  C   UNL     1      -8.270   5.966  71.105  1.00  0.00    -0.123 C  
HETATM    3  C   UNL     1      -7.045   6.457  70.358  1.00  0.00    -0.068 C  
HETATM    4  C   UNL     1      -7.428   7.603  69.436  1.00  0.00    -0.089 C  
HETATM    5  C   UNL     1      -8.568   7.239  68.469  1.00  0.00    -0.124 C  
HETATM    6  C   UNL     1      -9.790   6.490  69.118  1.00  0.00    -0.156 C  
HETATM    7  C   UNL     1     -10.583   5.923  67.919  1.00  0.00    -0.322 C  
HETATM    8  C   UNL     1      -9.307   5.406  70.108  1.00  0.00    -0.193 C  
HETATM    9  C   UNL     1     -10.277   4.651  71.046  1.00  0.00    -0.207 C  
HETATM   10  C   UNL     1     -11.092   7.035  66.975  1.00  0.00    -0.247 C  
HETATM   11  C   UNL     1      -9.341   3.942  72.062  1.00  0.00    -0.186 C  
HETATM   12  C   UNL     1     -10.255   8.299  66.914  1.00  0.00    -0.388 A  
HETATM   13  C   UNL     1      -8.042   4.693  71.884  1.00  0.00    -0.101 C  
HETATM   14  C   UNL     1      -9.060   8.421  67.643  1.00  0.00    -0.144 A  
HETATM   15  C   UNL     1      -8.326   9.615  67.546  1.00  0.00    -0.118 A  
HETATM   16  O   UNL     1      -6.955   4.301  72.293  1.00  0.00    -0.053 OA 
HETATM   17  C   UNL     1      -8.769  10.675  66.767  1.00  0.00    -0.133 A  
HETATM   18  C   UNL     1      -9.957  10.565  66.055  1.00  0.00    -0.237 A  
HETATM   19  C   UNL     1     -10.693   9.375  66.117  1.00  0.00     0.359 A  
ENDROOT
BRANCH  18  20
HETATM   20  O   UNL     1     -10.265  11.639  65.268  1.00  0.00    -0.249 OA 
HETATM   21  S   UNL     1     -10.947  12.977  65.886  1.00  0.00    -0.274 S  
HETATM   22  O   UNL     1     -10.129  13.482  66.980  1.00  0.00    -0.238 OA 
HETATM   23  O   UNL     1     -10.794  14.017  64.659  1.00  0.00    -0.401 OA 
HETATM   24  O   UNL     1     -12.365  12.755  66.027  1.00  0.00    -0.547 OA 
ENDBRANCH  18  20
TORSDOF 1
ENDMDL
MODEL       86
REMARK 921   NORMALIZED FREE ENERGY PREDICTED BY IDOCK:   -3.96 KCAL/MOL
REMARK 922        TOTAL FREE ENERGY PREDICTED BY IDOCK:   -4.32 KCAL/MOL
REMARK 923 INTER-LIGAND FREE ENERGY PREDICTED BY IDOCK:   -4.40 KCAL/MOL
REMARK 924 INTRA-LIGAND FREE ENERGY PREDICTED BY IDOCK:    0.08 KCAL/MOL
REMARK 927      BINDING AFFINITY PREDICTED BY RF-SCORE:    0.00 PKD
ROOT
HETATM    1  C   UNL     1      -9.501   2.920  64.437  1.00  0.00    -0.145 C  
HETATM    2  C   UNL     1      -8.085   3.476  64.711  1.00  0.00    -0.090 C  
HETATM    3  C   UNL     1      -7.552   3.005  66.051  1.00  0.00    -0.077 C  
HETATM    4  C   UNL     1      -8.394   3.587  67.175  1.00  0.00    -0.092 C  
HETATM    5  C   UNL     1      -8.494   5.121  67.116  1.00  0.00    -0.106 C  
HETATM    6  C   UNL     1      -8.798   5.725  65.696  1.00  0.00    -0.141 C  
HETATM    7  C   UNL     1      -8.477   7.230  65.833  1.00  0.00    -0.148 C  
HETATM    8  C   UNL     1      -7.965   5.012  64.606  1.00  0.00    -0.102 C  
HETATM    9  C   UNL     1      -8.202   5.248  63.097  1.00  0.00    -0.110 C  
HETATM   10  C   UNL     1      -9.359   7.923  66.895  1.00  0.00    -0.209 C  
HETATM   11  C   UNL     1      -7.407   4.106  62.409  1.00  0.00    -0.044 C  
HETATM   12  C   UNL     1      -9.838   7.052  68.042  1.00  0.00    -0.156 A  
HETATM   13  C   UNL     1      -7.192   3.131  63.543  1.00  0.00    -0.050 C  
HETATM   14  C   UNL     1      -9.453   5.704  68.146  1.00  0.00    -0.125 A  
HETATM   15  C   UNL     1      -9.926   4.947  69.231  1.00  0.00    -0.270 A  
HETATM   16  O   UNL     1      -6.384   2.210  63.521  1.00  0.00    -0.013 OA 
HETATM   17  C   UNL     1     -10.777   5.497  70.181  1.00  0.00    -0.348 A  
HETATM   18  C   UNL     1     -11.171   6.825  70.074  1.00  0.00    -0.328 A  
HETATM   19  C   UNL     1     -10.693   7.606  69.014  1.00  0.00    -0.134 A  
ENDROOT
BRANCH  18  20
HETATM   20  O   UNL     1     -11.953   7.283  71.097  1.00  0.00    -0.302 OA 
HETATM   21  S   UNL     1     -11.497   8.543  72.015  1.00  0.00    -0.382 S  
HETATM   22  O   UNL     1     -11.208   9.689  71.164  1.00  0.00    -0.331 OA 
HETATM   23  O   UNL     1     -12.862   8.876  72.812  1.00  0.00    -0.347 OA 
HETATM   24  O   UNL     1     -10.570   8.079  73.017  1.00  0.00    -0.353 OA 
ENDBRANCH  18  20
TORSDOF 1
ENDMDL
MODEL       87
REMARK 921   NORMALIZED FREE ENERGY PREDICTED BY IDOCK:   -3.94 KCAL/MOL
REMARK 922        TOTAL FREE ENERGY PREDICTED BY IDOCK:   -4.30 KCAL/MOL
REMARK 923 INTER-LIGAND FREE ENERGY PREDICTED BY IDOCK:   -4.10 KCAL/MOL
REMARK 924 INTRA-LIGAND FREE ENERGY PREDICTED BY IDOCK:   -0.20 KCAL/MOL
REMARK 927      BINDING AFFINITY PREDICTED BY RF-SCORE:    0.00 PKD
ROOT
HETATM    1  C   UNL     1      -9.174   6.128  69.972  1.00  0.00    -0.158 C  
HETATM    2  C   UNL     1      -8.041   5.988  68.930  1.00  0.00    -0.104 C  
HETATM    3  C   UNL     1      -6.883   6.918  69.238  1.00  0.00    -0.058 C  
HETATM    4  C   UNL     1      -7.332   8.364  69.094  1.00  0.00    -0.079 C  
HETATM    5  C   UNL     1      -7.947   8.667  67.717  1.00  0.00    -0.107 C  
HETATM    6  C   UNL     1      -8.987   7.608  67.194  1.00  0.00    -0.137 C  
HETATM    7  C   UNL     1      -9.154   7.933  65.692  1.00  0.00    -0.018 C  
HETATM    8  C   UNL     1      -8.489   6.169  67.464  1.00  0.00    -0.108 C  
HETATM    9  C   UNL     1      -9.386   4.929  67.248  1.00  0.00    -0.142 C  
HETATM   10  C   UNL     1      -9.699   9.359  65.459  1.00  0.00    -0.300 C  
HETATM   11  C   UNL     1      -8.614   3.781  67.951  1.00  0.00    -0.113 C  
HETATM   12  C   UNL     1      -9.349  10.392  66.514  1.00  0.00    -0.193 A  
HETATM   13  C   UNL     1      -7.646   4.533  68.833  1.00  0.00    -0.060 C  
HETATM   14  C   UNL     1      -8.534  10.069  67.612  1.00  0.00    -0.114 A  
HETATM   15  C   UNL     1      -8.242  11.067  68.557  1.00  0.00    -0.146 A  
HETATM   16  O   UNL     1      -6.663   4.032  69.367  1.00  0.00    -0.039 OA 
HETATM   17  C   UNL     1      -8.759  12.351  68.436  1.00  0.00    -0.132 A  
HETATM   18  C   UNL     1      -9.576  12.671  67.359  1.00  0.00    -0.194 A  
HETATM   19  C   UNL     1      -9.860  11.699  66.392  1.00  0.00    -0.233 A  
ENDROOT
BRANCH  18  20
HETATM   20  O   UNL     1      -9.974  13.977  67.300  1.00  0.00    -0.236 OA 
HETATM   21  S   UNL     1     -11.516  14.409  67.571  1.00  0.00    -0.366 S  
HETATM   22  O   UNL     1     -11.946  13.900  68.866  1.00  0.00    -0.336 OA 
HETATM   23  O   UNL     1     -11.386  16.013  67.711  1.00  0.00    -0.282 OA 
HETATM   24  O   UNL     1     -12.280  14.188  66.368  1.00  0.00    -0.444 OA 
ENDBRANCH  18  20
TORSDOF 1
ENDMDL
MODEL       88
REMARK 921   NORMALIZED FREE ENERGY PREDICTED BY IDOCK:   -3.94 KCAL/MOL
REMARK 922        TOTAL FREE ENERGY PREDICTED BY IDOCK:   -4.30 KCAL/MOL
REMARK 923 INTER-LIGAND FREE ENERGY PREDICTED BY IDOCK:   -4.38 KCAL/MOL
REMARK 924 INTRA-LIGAND FREE ENERGY PREDICTED BY IDOCK:    0.08 KCAL/MOL
REMARK 927      BINDING AFFINITY PREDICTED BY RF-SCORE:    0.00 PKD
ROOT
HETATM    1  C   UNL     1      -8.147   1.743  68.129  1.00  0.00    -0.066 C  
HETATM    2  C   UNL     1      -7.453   2.843  67.294  1.00  0.00    -0.065 C  
HETATM    3  C   UNL     1      -6.579   3.730  68.159  1.00  0.00    -0.042 C  
HETATM    4  C   UNL     1      -7.443   4.508  69.138  1.00  0.00    -0.056 C  
HETATM    5  C   UNL     1      -8.554   5.316  68.446  1.00  0.00    -0.095 C  
HETATM    6  C   UNL     1      -9.361   4.544  67.338  1.00  0.00    -0.168 C  
HETATM    7  C   UNL     1     -10.120   5.647  66.567  1.00  0.00    -0.225 C  
HETATM    8  C   UNL     1      -8.411   3.710  66.448  1.00  0.00    -0.105 C  
HETATM    9  C   UNL     1      -8.932   2.690  65.410  1.00  0.00    -0.134 C  
HETATM   10  C   UNL     1     -11.096   6.429  67.473  1.00  0.00    -0.401 C  
HETATM   11  C   UNL     1      -7.671   1.873  65.021  1.00  0.00    -0.068 C  
HETATM   12  C   UNL     1     -10.715   6.531  68.939  1.00  0.00    -0.318 A  
HETATM   13  C   UNL     1      -6.717   2.192  66.147  1.00  0.00    -0.038 C  
HETATM   14  C   UNL     1      -9.516   5.981  69.423  1.00  0.00    -0.155 A  
HETATM   15  C   UNL     1      -9.216   6.107  70.790  1.00  0.00    -0.163 A  
HETATM   16  O   UNL     1      -5.511   1.976  66.115  1.00  0.00    -0.012 OA 
HETATM   17  C   UNL     1     -10.087   6.741  71.666  1.00  0.00    -0.197 A  
HETATM   18  C   UNL     1     -11.280   7.274  71.194  1.00  0.00    -0.259 A  
HETATM   19  C   UNL     1     -11.589   7.181  69.832  1.00  0.00    -0.097 A  
ENDROOT
BRANCH  18  20
HETATM   20  O   UNL     1     -12.030   7.935  72.127  1.00  0.00    -0.303 OA 
HETATM   21  S   UNL     1     -13.489   8.549  71.762  1.00  0.00    -0.375 S  
HETATM   22  O   UNL     1     -14.337   7.501  71.211  1.00  0.00    -0.413 OA 
HETATM   23  O   UNL     1     -14.068   8.905  73.228  1.00  0.00    -0.248 OA 
HETATM   24  O   UNL     1     -13.309   9.818  71.101  1.00  0.00    -0.373 OA 
ENDBRANCH  18  20
TORSDOF 1
ENDMDL
MODEL       89
REMARK 921   NORMALIZED FREE ENERGY PREDICTED BY IDOCK:   -3.91 KCAL/MOL
REMARK 922        TOTAL FREE ENERGY PREDICTED BY IDOCK:   -4.27 KCAL/MOL
REMARK 923 INTER-LIGAND FREE ENERGY PREDICTED BY IDOCK:   -4.24 KCAL/MOL
REMARK 924 INTRA-LIGAND FREE ENERGY PREDICTED BY IDOCK:   -0.03 KCAL/MOL
REMARK 927      BINDING AFFINITY PREDICTED BY RF-SCORE:    0.00 PKD
ROOT
HETATM    1  C   UNL     1      -7.319   4.533  66.769  1.00  0.00    -0.081 C  
HETATM    2  C   UNL     1      -8.362   4.357  67.896  1.00  0.00    -0.095 C  
HETATM    3  C   UNL     1      -9.772   4.605  67.394  1.00  0.00    -0.215 C  
HETATM    4  C   UNL     1      -9.924   6.060  66.982  1.00  0.00    -0.197 C  
HETATM    5  C   UNL     1      -9.545   7.043  68.103  1.00  0.00    -0.131 C  
HETATM    6  C   UNL     1      -8.206   6.719  68.862  1.00  0.00    -0.121 C  
HETATM    7  C   UNL     1      -8.254   7.595  70.134  1.00  0.00    -0.124 C  
HETATM    8  C   UNL     1      -8.095   5.205  69.158  1.00  0.00    -0.084 C  
HETATM    9  C   UNL     1      -6.801   4.562  69.707  1.00  0.00    -0.041 C  
HETATM   10  C   UNL     1      -8.315   9.102  69.804  1.00  0.00    -0.136 C  
HETATM   11  C   UNL     1      -7.032   3.038  69.523  1.00  0.00    -0.041 C  
HETATM   12  C   UNL     1      -8.982   9.476  68.494  1.00  0.00    -0.128 A  
HETATM   13  C   UNL     1      -8.169   3.000  68.529  1.00  0.00    -0.064 C  
HETATM   14  C   UNL     1      -9.551   8.500  67.658  1.00  0.00    -0.187 A  
HETATM   15  C   UNL     1     -10.158   8.905  66.457  1.00  0.00    -0.356 A  
HETATM   16  O   UNL     1      -8.853   2.010  68.298  1.00  0.00    -0.081 OA 
HETATM   17  C   UNL     1     -10.183  10.240  66.075  1.00  0.00    -0.298 A  
HETATM   18  C   UNL     1      -9.610  11.207  66.891  1.00  0.00    -0.186 A  
HETATM   19  C   UNL     1      -9.022  10.829  68.104  1.00  0.00    -0.140 A  
ENDROOT
BRANCH  18  20
HETATM   20  O   UNL     1      -9.751  12.495  66.454  1.00  0.00    -0.240 OA 
HETATM   21  S   UNL     1     -11.215  13.145  66.188  1.00  0.00    -0.303 S  
HETATM   22  O   UNL     1     -12.032  13.020  67.387  1.00  0.00    -0.364 OA 
HETATM   23  O   UNL     1     -10.851  14.711  66.024  1.00  0.00    -0.303 OA 
HETATM   24  O   UNL     1     -11.685  12.722  64.891  1.00  0.00    -0.321 OA 
ENDBRANCH  18  20
TORSDOF 1
ENDMDL
MODEL       90
REMARK 921   NORMALIZED FREE ENERGY PREDICTED BY IDOCK:   -3.83 KCAL/MOL
REMARK 922        TOTAL FREE ENERGY PREDICTED BY IDOCK:   -4.18 KCAL/MOL
REMARK 923 INTER-LIGAND FREE ENERGY PREDICTED BY IDOCK:   -4.26 KCAL/MOL
REMARK 924 INTRA-LIGAND FREE ENERGY PREDICTED BY IDOCK:    0.08 KCAL/MOL
REMARK 927      BINDING AFFINITY PREDICTED BY RF-SCORE:    0.00 PKD
ROOT
HETATM    1  C   UNL     1      -8.563   3.644  66.357  1.00  0.00    -0.115 C  
HETATM    2  C   UNL     1      -7.143   4.242  66.479  1.00  0.00    -0.067 C  
HETATM    3  C   UNL     1      -6.988   5.051  67.753  1.00  0.00    -0.061 C  
HETATM    4  C   UNL     1      -7.892   6.273  67.701  1.00  0.00    -0.106 C  
HETATM    5  C   UNL     1      -7.659   7.139  66.451  1.00  0.00    -0.092 C  
HETATM    6  C   UNL     1      -7.552   6.351  65.094  1.00  0.00    -0.089 C  
HETATM    7  C   UNL     1      -6.959   7.371  64.096  1.00  0.00    -0.057 C  
HETATM    8  C   UNL     1      -6.690   5.079  65.264  1.00  0.00    -0.048 C  
HETATM    9  C   UNL     1      -6.577   4.003  64.159  1.00  0.00    -0.043 C  
HETATM   10  C   UNL     1      -7.867   8.607  63.912  1.00  0.00    -0.147 C  
HETATM   11  C   UNL     1      -5.918   2.796  64.879  1.00  0.00    -0.018 C  
HETATM   12  C   UNL     1      -8.727   8.990  65.101  1.00  0.00    -0.223 A  
HETATM   13  C   UNL     1      -6.133   3.129  66.336  1.00  0.00    -0.024 C  
HETATM   14  C   UNL     1      -8.658   8.281  66.313  1.00  0.00    -0.152 A  
HETATM   15  C   UNL     1      -9.477   8.683  67.381  1.00  0.00    -0.187 A  
HETATM   16  O   UNL     1      -5.544   2.587  67.264  1.00  0.00    -0.017 OA 
HETATM   17  C   UNL     1     -10.363   9.745  67.253  1.00  0.00    -0.308 A  
HETATM   18  C   UNL     1     -10.445  10.439  66.053  1.00  0.00    -0.140 A  
HETATM   19  C   UNL     1      -9.620  10.073  64.983  1.00  0.00    -0.362 A  
ENDROOT
BRANCH  18  20
HETATM   20  O   UNL     1     -11.298  11.508  66.057  1.00  0.00    -0.253 OA 
HETATM   21  S   UNL     1     -11.558  12.392  64.719  1.00  0.00    -0.351 S  
HETATM   22  O   UNL     1     -11.985  11.521  63.633  1.00  0.00    -0.332 OA 
HETATM   23  O   UNL     1     -12.841  13.271  65.154  1.00  0.00    -0.670 OA 
HETATM   24  O   UNL     1     -10.479  13.336  64.567  1.00  0.00    -0.394 OA 
ENDBRANCH  18  20
TORSDOF 1
ENDMDL
MODEL       91
REMARK 921   NORMALIZED FREE ENERGY PREDICTED BY IDOCK:   -3.81 KCAL/MOL
REMARK 922        TOTAL FREE ENERGY PREDICTED BY IDOCK:   -4.16 KCAL/MOL
REMARK 923 INTER-LIGAND FREE ENERGY PREDICTED BY IDOCK:   -3.96 KCAL/MOL
REMARK 924 INTRA-LIGAND FREE ENERGY PREDICTED BY IDOCK:   -0.20 KCAL/MOL
REMARK 927      BINDING AFFINITY PREDICTED BY RF-SCORE:    0.00 PKD
ROOT
HETATM    1  C   UNL     1     -10.259  11.306  69.895  1.00  0.00     0.638 C  
HETATM    2  C   UNL     1     -11.752  11.519  69.554  1.00  0.00    -0.413 C  
HETATM    3  C   UNL     1     -11.994  11.468  68.058  1.00  0.00    -0.174 C  
HETATM    4  C   UNL     1     -11.297  12.639  67.383  1.00  0.00    -0.367 C  
HETATM    5  C   UNL     1     -11.703  14.000  67.973  1.00  0.00    -0.394 C  
HETATM    6  C   UNL     1     -11.727  14.075  69.544  1.00  0.00    -0.367 C  
HETATM    7  C   UNL     1     -12.506  15.371  69.863  1.00  0.00    -0.274 C  
HETATM    8  C   UNL     1     -12.371  12.804  70.145  1.00  0.00    -0.235 C  
HETATM    9  C   UNL     1     -12.346  12.502  71.661  1.00  0.00     0.193 C  
HETATM   10  C   UNL     1     -11.812  16.627  69.291  1.00  0.00     0.525 C  
HETATM   11  C   UNL     1     -12.782  11.015  71.754  1.00  0.00    -0.408 C  
HETATM   12  C   UNL     1     -10.986  16.423  68.034  1.00  0.00    -0.327 A  
HETATM   13  C   UNL     1     -12.577  10.527  70.340  1.00  0.00    -0.286 C  
HETATM   14  C   UNL     1     -10.904  15.167  67.409  1.00  0.00    -0.302 A  
HETATM   15  C   UNL     1     -10.125  15.039  66.246  1.00  0.00    -0.298 A  
HETATM   16  O   UNL     1     -13.043   9.486  69.892  1.00  0.00     0.870 OA 
HETATM   17  C   UNL     1      -9.424  16.117  65.723  1.00  0.00    -0.254 A  
HETATM   18  C   UNL     1      -9.491  17.357  66.346  1.00  0.00    -0.261 A  
HETATM   19  C   UNL     1     -10.280  17.515  67.492  1.00  0.00    -0.340 A  
ENDROOT
BRANCH  18  20
HETATM   20  O   UNL     1      -8.819  18.364  65.711  1.00  0.00    -0.433 OA 
HETATM   21  S   UNL     1      -7.405  18.930  66.277  1.00  0.00    -0.263 S  
HETATM   22  O   UNL     1      -6.463  17.830  66.428  1.00  0.00    -0.184 OA 
HETATM   23  O   UNL     1      -6.893  19.826  65.034  1.00  0.00    -0.346 OA 
HETATM   24  O   UNL     1      -7.670  19.866  67.341  1.00  0.00    -0.261 OA 
ENDBRANCH  18  20
TORSDOF 1
ENDMDL
MODEL       92
REMARK 921   NORMALIZED FREE ENERGY PREDICTED BY IDOCK:   -3.70 KCAL/MOL
REMARK 922        TOTAL FREE ENERGY PREDICTED BY IDOCK:   -4.04 KCAL/MOL
REMARK 923 INTER-LIGAND FREE ENERGY PREDICTED BY IDOCK:   -3.93 KCAL/MOL
REMARK 924 INTRA-LIGAND FREE ENERGY PREDICTED BY IDOCK:   -0.11 KCAL/MOL
REMARK 927      BINDING AFFINITY PREDICTED BY RF-SCORE:    0.00 PKD
ROOT
HETATM    1  C   UNL     1     -11.338   7.568  71.613  1.00  0.00    -0.283 C  
HETATM    2  C   UNL     1      -9.857   7.303  71.967  1.00  0.00    -0.183 C  
HETATM    3  C   UNL     1      -8.919   8.005  71.004  1.00  0.00    -0.160 C  
HETATM    4  C   UNL     1      -9.071   7.411  69.612  1.00  0.00    -0.140 C  
HETATM    5  C   UNL     1      -8.867   5.886  69.586  1.00  0.00    -0.131 C  
HETATM    6  C   UNL     1      -9.609   5.086  70.719  1.00  0.00    -0.244 C  
HETATM    7  C   UNL     1      -8.957   3.685  70.701  1.00  0.00    -0.163 C  
HETATM    8  C   UNL     1      -9.478   5.811  72.079  1.00  0.00    -0.166 C  
HETATM    9  C   UNL     1     -10.274   5.372  73.330  1.00  0.00    -0.215 C  
HETATM   10  C   UNL     1      -9.147   2.969  69.346  1.00  0.00    -0.198 C  
HETATM   11  C   UNL     1     -10.096   6.554  74.321  1.00  0.00    -0.379 C  
HETATM   12  C   UNL     1      -9.267   3.863  68.125  1.00  0.00    -0.207 A  
HETATM   13  C   UNL     1      -9.631   7.670  73.415  1.00  0.00    -0.288 C  
HETATM   14  C   UNL     1      -9.161   5.260  68.229  1.00  0.00    -0.132 A  
HETATM   15  C   UNL     1      -9.279   6.037  67.064  1.00  0.00    -0.124 A  
HETATM   16  O   UNL     1      -9.116   8.710  73.807  1.00  0.00    -0.008 OA 
HETATM   17  C   UNL     1      -9.518   5.454  65.827  1.00  0.00    -0.104 A  
HETATM   18  C   UNL     1      -9.637   4.074  65.722  1.00  0.00    -0.191 A  
HETATM   19  C   UNL     1      -9.499   3.277  66.865  1.00  0.00    -0.145 A  
ENDROOT
BRANCH  18  20
HETATM   20  O   UNL     1      -9.803   3.600  64.450  1.00  0.00    -0.162 OA 
HETATM   21  S   UNL     1      -8.548   3.048  63.579  1.00  0.00    -0.089 S  
HETATM   22  O   UNL     1      -7.854   2.007  64.325  1.00  0.00    -0.063 OA 
HETATM   23  O   UNL     1      -9.300   2.326  62.345  1.00  0.00    -0.089 OA 
HETATM   24  O   UNL     1      -7.852   4.171  63.001  1.00  0.00    -0.067 OA 
ENDBRANCH  18  20
TORSDOF 1
ENDMDL
MODEL       93
REMARK 921   NORMALIZED FREE ENERGY PREDICTED BY IDOCK:   -3.69 KCAL/MOL
REMARK 922        TOTAL FREE ENERGY PREDICTED BY IDOCK:   -4.04 KCAL/MOL
REMARK 923 INTER-LIGAND FREE ENERGY PREDICTED BY IDOCK:   -3.87 KCAL/MOL
REMARK 924 INTRA-LIGAND FREE ENERGY PREDICTED BY IDOCK:   -0.17 KCAL/MOL
REMARK 927      BINDING AFFINITY PREDICTED BY RF-SCORE:    0.00 PKD
ROOT
HETATM    1  C   UNL     1      -8.623   9.155  65.002  1.00  0.00    -0.204 C  
HETATM    2  C   UNL     1      -8.106   8.709  66.389  1.00  0.00    -0.100 C  
HETATM    3  C   UNL     1      -9.142   8.946  67.471  1.00  0.00    -0.146 C  
HETATM    4  C   UNL     1      -9.383  10.439  67.636  1.00  0.00    -0.161 C  
HETATM    5  C   UNL     1      -8.091  11.228  67.910  1.00  0.00    -0.121 C  
HETATM    6  C   UNL     1      -6.869  10.864  66.989  1.00  0.00    -0.100 C  
HETATM    7  C   UNL     1      -5.646  11.493  67.694  1.00  0.00    -0.054 C  
HETATM    8  C   UNL     1      -6.756   9.333  66.804  1.00  0.00    -0.076 C  
HETATM    9  C   UNL     1      -5.782   8.691  65.790  1.00  0.00    -0.046 C  
HETATM   10  C   UNL     1      -5.767  13.027  67.819  1.00  0.00    -0.134 C  
HETATM   11  C   UNL     1      -6.248   7.213  65.706  1.00  0.00    -0.037 C  
HETATM   12  C   UNL     1      -7.176  13.584  67.912  1.00  0.00    -0.139 A  
HETATM   13  C   UNL     1      -7.637   7.277  66.296  1.00  0.00    -0.092 C  
HETATM   14  C   UNL     1      -8.297  12.737  67.930  1.00  0.00    -0.172 A  
HETATM   15  C   UNL     1      -9.578  13.309  68.019  1.00  0.00    -0.220 A  
HETATM   16  O   UNL     1      -8.275   6.300  66.671  1.00  0.00    -0.108 OA 
HETATM   17  C   UNL     1      -9.752  14.686  68.066  1.00  0.00    -0.216 A  
HETATM   18  C   UNL     1      -8.648  15.528  68.035  1.00  0.00    -0.155 A  
HETATM   19  C   UNL     1      -7.361  14.979  67.971  1.00  0.00    -0.135 A  
ENDROOT
BRANCH  18  20
HETATM   20  O   UNL     1      -8.928  16.860  68.155  1.00  0.00    -0.215 OA 
HETATM   21  S   UNL     1      -8.380  17.944  67.076  1.00  0.00    -0.241 S  
HETATM   22  O   UNL     1      -8.790  17.551  65.736  1.00  0.00    -0.514 OA 
HETATM   23  O   UNL     1      -9.237  19.256  67.470  1.00  0.00    -0.292 OA 
HETATM   24  O   UNL     1      -7.012  18.269  67.396  1.00  0.00    -0.195 OA 
ENDBRANCH  18  20
TORSDOF 1
ENDMDL
MODEL       94
REMARK 921   NORMALIZED FREE ENERGY PREDICTED BY IDOCK:   -3.67 KCAL/MOL
REMARK 922        TOTAL FREE ENERGY PREDICTED BY IDOCK:   -4.01 KCAL/MOL
REMARK 923 INTER-LIGAND FREE ENERGY PREDICTED BY IDOCK:   -3.90 KCAL/MOL
REMARK 924 INTRA-LIGAND FREE ENERGY PREDICTED BY IDOCK:   -0.11 KCAL/MOL
REMARK 927      BINDING AFFINITY PREDICTED BY RF-SCORE:    0.00 PKD
ROOT
HETATM    1  C   UNL     1      -9.436  14.082  65.884  1.00  0.00    -0.106 C  
HETATM    2  C   UNL     1     -10.808  13.371  65.826  1.00  0.00    -0.283 C  
HETATM    3  C   UNL     1     -11.433  13.255  67.203  1.00  0.00    -0.380 C  
HETATM    4  C   UNL     1     -10.589  12.343  68.078  1.00  0.00    -0.238 C  
HETATM    5  C   UNL     1     -10.352  10.959  67.448  1.00  0.00    -0.248 C  
HETATM    6  C   UNL     1      -9.939  10.969  65.930  1.00  0.00    -0.289 C  
HETATM    7  C   UNL     1     -10.132   9.509  65.462  1.00  0.00    -0.072 C  
HETATM    8  C   UNL     1     -10.788  11.990  65.137  1.00  0.00    -0.347 C  
HETATM    9  C   UNL     1     -10.471  12.368  63.672  1.00  0.00    -0.460 C  
HETATM   10  C   UNL     1      -9.235   8.522  66.241  1.00  0.00    -0.262 C  
HETATM   11  C   UNL     1     -11.335  13.632  63.416  1.00  0.00     0.505 C  
HETATM   12  C   UNL     1      -8.882   8.915  67.663  1.00  0.00    -0.137 A  
HETATM   13  C   UNL     1     -11.680  14.079  64.816  1.00  0.00    -0.394 C  
HETATM   14  C   UNL     1      -9.387  10.090  68.244  1.00  0.00    -0.136 A  
HETATM   15  C   UNL     1      -9.026  10.402  69.566  1.00  0.00    -0.127 A  
HETATM   16  O   UNL     1     -12.565  14.882  65.089  1.00  0.00    -0.134 OA 
HETATM   17  C   UNL     1      -8.169   9.586  70.293  1.00  0.00    -0.209 A  
HETATM   18  C   UNL     1      -7.656   8.431  69.718  1.00  0.00    -0.087 A  
HETATM   19  C   UNL     1      -8.021   8.087  68.410  1.00  0.00    -0.120 A  
ENDROOT
BRANCH  18  20
HETATM   20  O   UNL     1      -6.878   7.667  70.542  1.00  0.00    -0.046 OA 
HETATM   21  S   UNL     1      -7.486   6.387  71.338  1.00  0.00    -0.090 S  
HETATM   22  O   UNL     1      -8.112   5.475  70.391  1.00  0.00    -0.099 OA 
HETATM   23  O   UNL     1      -6.141   5.668  71.872  1.00  0.00    -0.035 OA 
HETATM   24  O   UNL     1      -8.167   6.854  72.520  1.00  0.00    -0.106 OA 
ENDBRANCH  18  20
TORSDOF 1
ENDMDL
MODEL       95
REMARK 921   NORMALIZED FREE ENERGY PREDICTED BY IDOCK:   -3.66 KCAL/MOL
REMARK 922        TOTAL FREE ENERGY PREDICTED BY IDOCK:   -4.00 KCAL/MOL
REMARK 923 INTER-LIGAND FREE ENERGY PREDICTED BY IDOCK:   -4.41 KCAL/MOL
REMARK 924 INTRA-LIGAND FREE ENERGY PREDICTED BY IDOCK:    0.40 KCAL/MOL
REMARK 927      BINDING AFFINITY PREDICTED BY RF-SCORE:    0.00 PKD
ROOT
HETATM    1  C   UNL     1     -11.777  11.854  64.673  1.00  0.00    -0.306 C  
HETATM    2  C   UNL     1     -10.690  12.378  65.640  1.00  0.00    -0.299 C  
HETATM    3  C   UNL     1      -9.295  12.104  65.112  1.00  0.00     0.159 C  
HETATM    4  C   UNL     1      -9.047  10.604  65.065  1.00  0.00    -0.229 C  
HETATM    5  C   UNL     1      -9.281   9.915  66.420  1.00  0.00    -0.195 C  
HETATM    6  C   UNL     1     -10.598  10.334  67.172  1.00  0.00    -0.320 C  
HETATM    7  C   UNL     1     -10.408   9.813  68.615  1.00  0.00    -0.224 C  
HETATM    8  C   UNL     1     -10.816  11.862  67.090  1.00  0.00    -0.301 C  
HETATM    9  C   UNL     1     -12.126  12.538  67.557  1.00  0.00    -0.124 C  
HETATM   10  C   UNL     1     -10.242   8.279  68.666  1.00  0.00    -0.223 C  
HETATM   11  C   UNL     1     -12.031  13.977  66.983  1.00  0.00    -0.472 C  
HETATM   12  C   UNL     1      -9.621   7.629  67.444  1.00  0.00    -0.187 A  
HETATM   13  C   UNL     1     -10.958  13.836  65.929  1.00  0.00    -0.283 C  
HETATM   14  C   UNL     1      -9.181   8.397  66.352  1.00  0.00    -0.253 A  
HETATM   15  C   UNL     1      -8.612   7.740  65.247  1.00  0.00    -0.065 A  
HETATM   16  O   UNL     1     -10.371  14.778  65.408  1.00  0.00    -0.331 OA 
HETATM   17  C   UNL     1      -8.498   6.357  65.208  1.00  0.00    -0.102 A  
HETATM   18  C   UNL     1      -8.944   5.593  66.279  1.00  0.00    -0.140 A  
HETATM   19  C   UNL     1      -9.492   6.227  67.401  1.00  0.00    -0.120 A  
ENDROOT
BRANCH  18  20
HETATM   20  O   UNL     1      -8.723   4.249  66.167  1.00  0.00    -0.112 OA 
HETATM   21  S   UNL     1      -7.842   3.632  64.949  1.00  0.00    -0.086 S  
HETATM   22  O   UNL     1      -6.536   4.275  64.916  1.00  0.00    -0.034 OA 
HETATM   23  O   UNL     1      -7.612   2.114  65.451  1.00  0.00    -0.069 OA 
HETATM   24  O   UNL     1      -8.676   3.528  63.777  1.00  0.00    -0.093 OA 
ENDBRANCH  18  20
TORSDOF 1
ENDMDL
MODEL       96
REMARK 921   NORMALIZED FREE ENERGY PREDICTED BY IDOCK:   -3.66 KCAL/MOL
REMARK 922        TOTAL FREE ENERGY PREDICTED BY IDOCK:   -4.00 KCAL/MOL
REMARK 923 INTER-LIGAND FREE ENERGY PREDICTED BY IDOCK:   -3.80 KCAL/MOL
REMARK 924 INTRA-LIGAND FREE ENERGY PREDICTED BY IDOCK:   -0.20 KCAL/MOL
REMARK 927      BINDING AFFINITY PREDICTED BY RF-SCORE:    0.00 PKD
ROOT
HETATM    1  C   UNL     1      -8.634   8.058  64.303  1.00  0.00     0.196 C  
HETATM    2  C   UNL     1      -7.302   7.800  65.044  1.00  0.00    -0.073 C  
HETATM    3  C   UNL     1      -7.349   6.510  65.840  1.00  0.00    -0.079 C  
HETATM    4  C   UNL     1      -8.369   6.632  66.961  1.00  0.00    -0.113 C  
HETATM    5  C   UNL     1      -8.117   7.847  67.871  1.00  0.00    -0.129 C  
HETATM    6  C   UNL     1      -7.805   9.196  67.125  1.00  0.00    -0.102 C  
HETATM    7  C   UNL     1      -7.235  10.126  68.220  1.00  0.00    -0.080 C  
HETATM    8  C   UNL     1      -6.832   8.961  65.947  1.00  0.00    -0.072 C  
HETATM    9  C   UNL     1      -6.506  10.060  64.910  1.00  0.00    -0.125 C  
HETATM   10  C   UNL     1      -8.249  10.380  69.358  1.00  0.00    -0.158 C  
HETATM   11  C   UNL     1      -5.791   9.295  63.765  1.00  0.00    -0.079 C  
HETATM   12  C   UNL     1      -9.249   9.271  69.626  1.00  0.00    -0.182 A  
HETATM   13  C   UNL     1      -6.170   7.861  64.045  1.00  0.00    -0.058 C  
HETATM   14  C   UNL     1      -9.214   8.065  68.905  1.00  0.00    -0.147 A  
HETATM   15  C   UNL     1     -10.165   7.073  69.198  1.00  0.00    -0.193 A  
HETATM   16  O   UNL     1      -5.613   6.887  63.551  1.00  0.00    -0.034 OA 
HETATM   17  C   UNL     1     -11.143   7.271  70.163  1.00  0.00    -0.281 A  
HETATM   18  C   UNL     1     -11.190   8.467  70.869  1.00  0.00    -0.266 A  
HETATM   19  C   UNL     1     -10.237   9.461  70.611  1.00  0.00    -0.353 A  
ENDROOT
BRANCH  18  20
HETATM   20  O   UNL     1     -12.148   8.531  71.842  1.00  0.00    -0.304 OA 
HETATM   21  S   UNL     1     -13.389   9.574  71.744  1.00  0.00    -0.429 S  
HETATM   22  O   UNL     1     -14.089   9.384  70.481  1.00  0.00     0.228 OA 
HETATM   23  O   UNL     1     -14.363   9.031  72.913  1.00  0.00    -0.550 OA 
HETATM   24  O   UNL     1     -12.944  10.872  72.187  1.00  0.00    -0.419 OA 
ENDBRANCH  18  20
TORSDOF 1
ENDMDL
MODEL       97
REMARK 921   NORMALIZED FREE ENERGY PREDICTED BY IDOCK:   -3.61 KCAL/MOL
REMARK 922        TOTAL FREE ENERGY PREDICTED BY IDOCK:   -3.95 KCAL/MOL
REMARK 923 INTER-LIGAND FREE ENERGY PREDICTED BY IDOCK:   -3.96 KCAL/MOL
REMARK 924 INTRA-LIGAND FREE ENERGY PREDICTED BY IDOCK:    0.01 KCAL/MOL
REMARK 927      BINDING AFFINITY PREDICTED BY RF-SCORE:    0.00 PKD
ROOT
HETATM    1  C   UNL     1      -9.723   3.970  69.665  1.00  0.00    -0.245 C  
HETATM    2  C   UNL     1      -8.418   4.411  70.366  1.00  0.00    -0.098 C  
HETATM    3  C   UNL     1      -8.703   5.164  71.652  1.00  0.00    -0.140 C  
HETATM    4  C   UNL     1      -9.407   6.474  71.337  1.00  0.00    -0.154 C  
HETATM    5  C   UNL     1      -8.630   7.346  70.335  1.00  0.00    -0.144 C  
HETATM    6  C   UNL     1      -8.069   6.590  69.075  1.00  0.00    -0.112 C  
HETATM    7  C   UNL     1      -7.048   7.569  68.453  1.00  0.00    -0.081 C  
HETATM    8  C   UNL     1      -7.455   5.229  69.478  1.00  0.00    -0.065 C  
HETATM    9  C   UNL     1      -7.013   4.179  68.434  1.00  0.00    -0.051 C  
HETATM   10  C   UNL     1      -7.702   8.898  68.017  1.00  0.00    -0.101 C  
HETATM   11  C   UNL     1      -6.794   2.889  69.269  1.00  0.00    -0.037 C  
HETATM   12  C   UNL     1      -8.922   9.336  68.805  1.00  0.00    -0.132 A  
HETATM   13  C   UNL     1      -7.532   3.202  70.550  1.00  0.00    -0.040 C  
HETATM   14  C   UNL     1      -9.393   8.590  69.899  1.00  0.00    -0.159 A  
HETATM   15  C   UNL     1     -10.527   9.046  70.592  1.00  0.00    -0.285 A  
HETATM   16  O   UNL     1      -7.402   2.576  71.595  1.00  0.00    -0.038 OA 
HETATM   17  C   UNL     1     -11.197  10.199  70.204  1.00  0.00    -0.377 A  
HETATM   18  C   UNL     1     -10.744  10.932  69.114  1.00  0.00    -0.226 A  
HETATM   19  C   UNL     1      -9.601  10.510  68.423  1.00  0.00    -0.164 A  
ENDROOT
BRANCH  18  20
HETATM   20  O   UNL     1     -11.434  12.084  68.860  1.00  0.00    -0.250 OA 
HETATM   21  S   UNL     1     -11.264  12.884  67.457  1.00  0.00    -0.307 S  
HETATM   22  O   UNL     1     -11.530  11.983  66.344  1.00  0.00    -0.351 OA 
HETATM   23  O   UNL     1     -12.494  13.929  67.527  1.00  0.00    -0.177 OA 
HETATM   24  O   UNL     1     -10.070  13.691  67.523  1.00  0.00    -0.233 OA 
ENDBRANCH  18  20
TORSDOF 1
ENDMDL
MODEL       98
REMARK 921   NORMALIZED FREE ENERGY PREDICTED BY IDOCK:   -3.61 KCAL/MOL
REMARK 922        TOTAL FREE ENERGY PREDICTED BY IDOCK:   -3.95 KCAL/MOL
REMARK 923 INTER-LIGAND FREE ENERGY PREDICTED BY IDOCK:   -3.80 KCAL/MOL
REMARK 924 INTRA-LIGAND FREE ENERGY PREDICTED BY IDOCK:   -0.15 KCAL/MOL
REMARK 927      BINDING AFFINITY PREDICTED BY RF-SCORE:    0.00 PKD
ROOT
HETATM    1  C   UNL     1      -7.619   4.792  63.942  1.00  0.00    -0.068 C  
HETATM    2  C   UNL     1      -8.227   3.416  64.296  1.00  0.00    -0.089 C  
HETATM    3  C   UNL     1      -9.742   3.474  64.350  1.00  0.00    -0.172 C  
HETATM    4  C   UNL     1     -10.182   4.371  65.496  1.00  0.00    -0.260 C  
HETATM    5  C   UNL     1      -9.586   3.951  66.850  1.00  0.00    -0.226 C  
HETATM    6  C   UNL     1      -8.048   3.620  66.837  1.00  0.00    -0.095 C  
HETATM    7  C   UNL     1      -7.795   2.885  68.173  1.00  0.00    -0.055 C  
HETATM    8  C   UNL     1      -7.676   2.783  65.591  1.00  0.00    -0.077 C  
HETATM    9  C   UNL     1      -6.210   2.484  65.203  1.00  0.00    -0.019 C  
HETATM   10  C   UNL     1      -8.130   3.765  69.398  1.00  0.00    -0.062 C  
HETATM   11  C   UNL     1      -6.310   1.937  63.754  1.00  0.00    -0.014 C  
HETATM   12  C   UNL     1      -9.214   4.808  69.198  1.00  0.00    -0.175 A  
HETATM   13  C   UNL     1      -7.689   2.385  63.332  1.00  0.00    -0.063 C  
HETATM   14  C   UNL     1      -9.900   4.926  67.977  1.00  0.00    -0.197 A  
HETATM   15  C   UNL     1     -10.896   5.909  67.851  1.00  0.00    -0.323 A  
HETATM   16  O   UNL     1      -8.293   1.946  62.360  1.00  0.00    -0.062 OA 
HETATM   17  C   UNL     1     -11.194   6.774  68.896  1.00  0.00    -0.196 A  
HETATM   18  C   UNL     1     -10.508   6.671  70.100  1.00  0.00    -0.210 A  
HETATM   19  C   UNL     1      -9.530   5.682  70.257  1.00  0.00    -0.202 A  
ENDROOT
BRANCH  18  20
HETATM   20  O   UNL     1     -10.927   7.524  71.083  1.00  0.00    -0.241 OA 
HETATM   21  S   UNL     1     -12.184   7.159  72.046  1.00  0.00    -0.245 S  
HETATM   22  O   UNL     1     -11.954   5.870  72.682  1.00  0.00    -0.229 OA 
HETATM   23  O   UNL     1     -12.051   8.286  73.195  1.00  0.00    -0.150 OA 
HETATM   24  O   UNL     1     -13.409   7.463  71.348  1.00  0.00    -0.370 OA 
ENDBRANCH  18  20
TORSDOF 1
ENDMDL
MODEL       99
REMARK 921   NORMALIZED FREE ENERGY PREDICTED BY IDOCK:   -3.61 KCAL/MOL
REMARK 922        TOTAL FREE ENERGY PREDICTED BY IDOCK:   -3.95 KCAL/MOL
REMARK 923 INTER-LIGAND FREE ENERGY PREDICTED BY IDOCK:   -4.09 KCAL/MOL
REMARK 924 INTRA-LIGAND FREE ENERGY PREDICTED BY IDOCK:    0.14 KCAL/MOL
REMARK 927      BINDING AFFINITY PREDICTED BY RF-SCORE:    0.00 PKD
ROOT
HETATM    1  C   UNL     1     -10.971  14.575  71.376  1.00  0.00     0.812 C  
HETATM    2  C   UNL     1     -12.286  14.300  70.612  1.00  0.00    -0.431 C  
HETATM    3  C   UNL     1     -13.158  13.300  71.347  1.00  0.00    -0.361 C  
HETATM    4  C   UNL     1     -12.470  11.945  71.383  1.00  0.00    -0.261 C  
HETATM    5  C   UNL     1     -12.080  11.433  69.986  1.00  0.00    -0.417 C  
HETATM    6  C   UNL     1     -11.388  12.489  69.048  1.00  0.00    -0.342 C  
HETATM    7  C   UNL     1     -11.449  11.860  67.638  1.00  0.00    -0.387 C  
HETATM    8  C   UNL     1     -12.099  13.859  69.145  1.00  0.00    -0.377 C  
HETATM    9  C   UNL     1     -11.520  15.138  68.498  1.00  0.00    -0.335 C  
HETATM   10  C   UNL     1     -10.689  10.517  67.562  1.00  0.00    -0.326 C  
HETATM   11  C   UNL     1     -12.355  16.286  69.126  1.00  0.00     0.648 C  
HETATM   12  C   UNL     1     -10.622   9.711  68.846  1.00  0.00    -0.239 A  
HETATM   13  C   UNL     1     -12.970  15.617  70.332  1.00  0.00    -0.101 C  
HETATM   14  C   UNL     1     -11.260  10.149  70.019  1.00  0.00    -0.361 A  
HETATM   15  C   UNL     1     -11.165   9.360  71.178  1.00  0.00    -0.427 A  
HETATM   16  O   UNL     1     -13.913  16.072  70.971  1.00  0.00    -0.043 OA 
HETATM   17  C   UNL     1     -10.439   8.177  71.189  1.00  0.00    -0.238 A  
HETATM   18  C   UNL     1      -9.794   7.747  70.036  1.00  0.00    -0.181 A  
HETATM   19  C   UNL     1      -9.896   8.504  68.862  1.00  0.00    -0.181 A  
ENDROOT
BRANCH  18  20
HETATM   20  O   UNL     1      -9.166   6.537  70.137  1.00  0.00    -0.156 OA 
HETATM   21  S   UNL     1      -8.565   5.780  68.832  1.00  0.00    -0.105 S  
HETATM   22  O   UNL     1      -7.649   6.668  68.130  1.00  0.00    -0.099 OA 
HETATM   23  O   UNL     1      -7.672   4.618  69.512  1.00  0.00    -0.055 OA 
HETATM   24  O   UNL     1      -9.638   5.093  68.156  1.00  0.00    -0.123 OA 
ENDBRANCH  18  20
TORSDOF 1
ENDMDL
MODEL      100
REMARK 921   NORMALIZED FREE ENERGY PREDICTED BY IDOCK:   -3.55 KCAL/MOL
REMARK 922        TOTAL FREE ENERGY PREDICTED BY IDOCK:   -3.89 KCAL/MOL
REMARK 923 INTER-LIGAND FREE ENERGY PREDICTED BY IDOCK:   -4.06 KCAL/MOL
REMARK 924 INTRA-LIGAND FREE ENERGY PREDICTED BY IDOCK:    0.18 KCAL/MOL
REMARK 927      BINDING AFFINITY PREDICTED BY RF-SCORE:    0.00 PKD
ROOT
HETATM    1  C   UNL     1      -8.971   1.640  65.264  1.00  0.00    -0.123 C  
HETATM    2  C   UNL     1      -8.583   2.977  64.591  1.00  0.00    -0.100 C  
HETATM    3  C   UNL     1      -7.267   3.507  65.125  1.00  0.00    -0.067 C  
HETATM    4  C   UNL     1      -7.415   3.870  66.594  1.00  0.00    -0.080 C  
HETATM    5  C   UNL     1      -8.566   4.856  66.855  1.00  0.00    -0.104 C  
HETATM    6  C   UNL     1      -9.921   4.521  66.128  1.00  0.00    -0.267 C  
HETATM    7  C   UNL     1     -10.757   5.815  66.241  1.00  0.00    -0.092 C  
HETATM    8  C   UNL     1      -9.665   4.075  64.669  1.00  0.00    -0.185 C  
HETATM    9  C   UNL     1     -10.782   3.487  63.777  1.00  0.00    -0.263 C  
HETATM   10  C   UNL     1     -11.035   6.206  67.709  1.00  0.00    -0.400 C  
HETATM   11  C   UNL     1     -10.017   2.883  62.568  1.00  0.00    -0.094 C  
HETATM   12  C   UNL     1      -9.992   5.781  68.726  1.00  0.00    -0.207 A  
HETATM   13  C   UNL     1      -8.604   2.791  63.092  1.00  0.00    -0.085 C  
HETATM   14  C   UNL     1      -8.820   5.112  68.335  1.00  0.00    -0.108 A  
HETATM   15  C   UNL     1      -7.888   4.744  69.321  1.00  0.00    -0.070 A  
HETATM   16  O   UNL     1      -7.615   2.619  62.389  1.00  0.00    -0.046 OA 
HETATM   17  C   UNL     1      -8.116   5.009  70.665  1.00  0.00    -0.094 A  
HETATM   18  C   UNL     1      -9.280   5.658  71.058  1.00  0.00    -0.152 A  
HETATM   19  C   UNL     1     -10.211   6.055  70.090  1.00  0.00    -0.267 A  
ENDROOT
BRANCH  18  20
HETATM   20  O   UNL     1      -9.372   5.929  72.394  1.00  0.00    -0.144 OA 
HETATM   21  S   UNL     1     -10.415   7.036  72.966  1.00  0.00    -0.309 S  
HETATM   22  O   UNL     1     -11.761   6.721  72.510  1.00  0.00    -0.245 OA 
HETATM   23  O   UNL     1     -10.368   6.737  74.553  1.00  0.00    -0.283 OA 
HETATM   24  O   UNL     1      -9.837   8.348  72.805  1.00  0.00    -0.274 OA 
ENDBRANCH  18  20
TORSDOF 1
ENDMDL
MODEL      101
REMARK 921   NORMALIZED FREE ENERGY PREDICTED BY IDOCK:   -3.53 KCAL/MOL
REMARK 922        TOTAL FREE ENERGY PREDICTED BY IDOCK:   -3.87 KCAL/MOL
REMARK 923 INTER-LIGAND FREE ENERGY PREDICTED BY IDOCK:   -3.93 KCAL/MOL
REMARK 924 INTRA-LIGAND FREE ENERGY PREDICTED BY IDOCK:    0.07 KCAL/MOL
REMARK 927      BINDING AFFINITY PREDICTED BY RF-SCORE:    0.00 PKD
ROOT
HETATM    1  C   UNL     1     -11.192  10.095  67.755  1.00  0.00    -0.205 C  
HETATM    2  C   UNL     1      -9.968   9.602  66.949  1.00  0.00    -0.272 C  
HETATM    3  C   UNL     1     -10.154   8.174  66.473  1.00  0.00    -0.286 C  
HETATM    4  C   UNL     1     -10.203   7.235  67.668  1.00  0.00    -0.257 C  
HETATM    5  C   UNL     1      -8.976   7.369  68.586  1.00  0.00    -0.131 C  
HETATM    6  C   UNL     1      -8.549   8.842  68.934  1.00  0.00    -0.135 C  
HETATM    7  C   UNL     1      -7.127   8.709  69.524  1.00  0.00    -0.055 C  
HETATM    8  C   UNL     1      -8.617   9.744  67.680  1.00  0.00    -0.125 C  
HETATM    9  C   UNL     1      -8.453  11.280  67.756  1.00  0.00    -0.126 C  
HETATM   10  C   UNL     1      -7.103   7.843  70.803  1.00  0.00    -0.052 C  
HETATM   11  C   UNL     1      -8.925  11.776  66.362  1.00  0.00    -0.201 C  
HETATM   12  C   UNL     1      -8.164   6.763  70.902  1.00  0.00    -0.123 A  
HETATM   13  C   UNL     1      -9.691  10.585  65.836  1.00  0.00    -0.217 C  
HETATM   14  C   UNL     1      -9.083   6.543  69.862  1.00  0.00    -0.143 A  
HETATM   15  C   UNL     1     -10.043   5.527  70.009  1.00  0.00    -0.311 A  
HETATM   16  O   UNL     1     -10.013  10.432  64.663  1.00  0.00    -0.324 OA 
HETATM   17  C   UNL     1     -10.112   4.760  71.165  1.00  0.00    -0.261 A  
HETATM   18  C   UNL     1      -9.215   4.984  72.202  1.00  0.00    -0.135 A  
HETATM   19  C   UNL     1      -8.234   5.974  72.067  1.00  0.00    -0.107 A  
ENDROOT
BRANCH  18  20
HETATM   20  O   UNL     1      -9.328   4.130  73.263  1.00  0.00    -0.111 OA 
HETATM   21  S   UNL     1      -9.501   2.529  73.049  1.00  0.00    -0.092 S  
HETATM   22  O   UNL     1      -8.413   2.026  72.221  1.00  0.00    -0.053 OA 
HETATM   23  O   UNL     1      -9.255   1.972  74.546  1.00  0.00    -0.070 OA 
HETATM   24  O   UNL     1     -10.884   2.244  72.756  1.00  0.00    -0.139 OA 
ENDBRANCH  18  20
TORSDOF 1
ENDMDL
MODEL      102
REMARK 921   NORMALIZED FREE ENERGY PREDICTED BY IDOCK:   -3.52 KCAL/MOL
REMARK 922        TOTAL FREE ENERGY PREDICTED BY IDOCK:   -3.85 KCAL/MOL
REMARK 923 INTER-LIGAND FREE ENERGY PREDICTED BY IDOCK:   -4.03 KCAL/MOL
REMARK 924 INTRA-LIGAND FREE ENERGY PREDICTED BY IDOCK:    0.18 KCAL/MOL
REMARK 927      BINDING AFFINITY PREDICTED BY RF-SCORE:    0.00 PKD
ROOT
HETATM    1  C   UNL     1      -7.955  11.087  69.306  1.00  0.00    -0.034 C  
HETATM    2  C   UNL     1      -8.489  11.742  68.012  1.00  0.00    -0.157 C  
HETATM    3  C   UNL     1      -9.963  11.447  67.806  1.00  0.00    -0.192 C  
HETATM    4  C   UNL     1     -10.163   9.959  67.568  1.00  0.00    -0.265 C  
HETATM    5  C   UNL     1      -9.313   9.418  66.406  1.00  0.00    -0.241 C  
HETATM    6  C   UNL     1      -7.810   9.882  66.395  1.00  0.00    -0.107 C  
HETATM    7  C   UNL     1      -7.301   9.529  64.979  1.00  0.00    -0.110 C  
HETATM    8  C   UNL     1      -7.697  11.386  66.736  1.00  0.00    -0.150 C  
HETATM    9  C   UNL     1      -6.338  12.074  67.001  1.00  0.00    -0.124 C  
HETATM   10  C   UNL     1      -7.382   8.014  64.689  1.00  0.00    -0.084 C  
HETATM   11  C   UNL     1      -6.726  13.443  67.621  1.00  0.00    -0.174 C  
HETATM   12  C   UNL     1      -8.478   7.250  65.409  1.00  0.00    -0.096 A  
HETATM   13  C   UNL     1      -8.159  13.215  68.041  1.00  0.00    -0.157 C  
HETATM   14  C   UNL     1      -9.392   7.904  66.253  1.00  0.00    -0.225 A  
HETATM   15  C   UNL     1     -10.387   7.145  66.892  1.00  0.00    -0.349 A  
HETATM   16  O   UNL     1      -8.946  14.109  68.333  1.00  0.00    -0.183 OA 
HETATM   17  C   UNL     1     -10.467   5.769  66.723  1.00  0.00    -0.350 A  
HETATM   18  C   UNL     1      -9.558   5.117  65.900  1.00  0.00    -0.148 A  
HETATM   19  C   UNL     1      -8.573   5.856  65.233  1.00  0.00    -0.119 A  
ENDROOT
BRANCH  18  20
HETATM   20  O   UNL     1      -9.769   3.775  65.749  1.00  0.00    -0.179 OA 
HETATM   21  S   UNL     1      -9.594   3.044  64.309  1.00  0.00    -0.150 S  
HETATM   22  O   UNL     1      -8.266   3.320  63.779  1.00  0.00    -0.088 OA 
HETATM   23  O   UNL     1      -9.622   1.484  64.730  1.00  0.00    -0.101 OA 
HETATM   24  O   UNL     1     -10.790   3.254  63.531  1.00  0.00    -0.248 OA 
ENDBRANCH  18  20
TORSDOF 1
ENDMDL
MODEL      103
REMARK 921   NORMALIZED FREE ENERGY PREDICTED BY IDOCK:   -3.48 KCAL/MOL
REMARK 922        TOTAL FREE ENERGY PREDICTED BY IDOCK:   -3.81 KCAL/MOL
REMARK 923 INTER-LIGAND FREE ENERGY PREDICTED BY IDOCK:   -3.90 KCAL/MOL
REMARK 924 INTRA-LIGAND FREE ENERGY PREDICTED BY IDOCK:    0.09 KCAL/MOL
REMARK 927      BINDING AFFINITY PREDICTED BY RF-SCORE:    0.00 PKD
ROOT
HETATM    1  C   UNL     1      -8.613   5.696  65.769  1.00  0.00    -0.148 C  
HETATM    2  C   UNL     1      -7.387   6.412  65.158  1.00  0.00    -0.077 C  
HETATM    3  C   UNL     1      -6.647   7.233  66.196  1.00  0.00    -0.052 C  
HETATM    4  C   UNL     1      -7.529   8.373  66.678  1.00  0.00    -0.082 C  
HETATM    5  C   UNL     1      -8.050   9.255  65.530  1.00  0.00    -0.113 C  
HETATM    6  C   UNL     1      -8.613   8.478  64.284  1.00  0.00    -0.003 C  
HETATM    7  C   UNL     1      -8.708   9.543  63.168  1.00  0.00    -0.234 C  
HETATM    8  C   UNL     1      -7.701   7.283  63.922  1.00  0.00    -0.120 C  
HETATM    9  C   UNL     1      -8.106   6.220  62.876  1.00  0.00    -0.068 C  
HETATM   10  C   UNL     1      -9.664  10.697  63.540  1.00  0.00    -0.389 C  
HETATM   11  C   UNL     1      -7.082   5.073  63.092  1.00  0.00    -0.043 C  
HETATM   12  C   UNL     1      -9.798  11.008  65.019  1.00  0.00    -0.321 A  
HETATM   13  C   UNL     1      -6.525   5.388  64.459  1.00  0.00    -0.038 C  
HETATM   14  C   UNL     1      -9.052  10.308  65.983  1.00  0.00    -0.189 A  
HETATM   15  C   UNL     1      -9.217  10.640  67.339  1.00  0.00    -0.153 A  
HETATM   16  O   UNL     1      -5.499   4.899  64.919  1.00  0.00    -0.013 OA 
HETATM   17  C   UNL     1     -10.112  11.624  67.739  1.00  0.00    -0.200 A  
HETATM   18  C   UNL     1     -10.862  12.308  66.790  1.00  0.00    -0.253 A  
HETATM   19  C   UNL     1     -10.696  12.011  65.432  1.00  0.00    -0.330 A  
ENDROOT
BRANCH  18  20
HETATM   20  O   UNL     1     -11.660  13.300  67.286  1.00  0.00    -0.319 OA 
HETATM   21  S   UNL     1     -11.134  14.319  68.436  1.00  0.00    -0.269 S  
HETATM   22  O   UNL     1      -9.900  14.956  67.997  1.00  0.00    -0.212 OA 
HETATM   23  O   UNL     1     -12.285  15.452  68.418  1.00  0.00    -0.115 OA 
HETATM   24  O   UNL     1     -11.250  13.673  69.720  1.00  0.00    -0.160 OA 
ENDBRANCH  18  20
TORSDOF 1
ENDMDL
MODEL      104
REMARK 921   NORMALIZED FREE ENERGY PREDICTED BY IDOCK:   -3.33 KCAL/MOL
REMARK 922        TOTAL FREE ENERGY PREDICTED BY IDOCK:   -3.66 KCAL/MOL
REMARK 923 INTER-LIGAND FREE ENERGY PREDICTED BY IDOCK:   -3.96 KCAL/MOL
REMARK 924 INTRA-LIGAND FREE ENERGY PREDICTED BY IDOCK:    0.30 KCAL/MOL
REMARK 927      BINDING AFFINITY PREDICTED BY RF-SCORE:    0.00 PKD
ROOT
HETATM    1  C   UNL     1     -11.775  11.208  67.922  1.00  0.00    -0.260 C  
HETATM    2  C   UNL     1     -10.599  11.010  66.939  1.00  0.00    -0.307 C  
HETATM    3  C   UNL     1     -10.471   9.562  66.508  1.00  0.00    -0.201 C  
HETATM    4  C   UNL     1     -10.094   8.700  67.702  1.00  0.00    -0.271 C  
HETATM    5  C   UNL     1      -8.823   9.189  68.417  1.00  0.00    -0.129 C  
HETATM    6  C   UNL     1      -8.752  10.738  68.684  1.00  0.00    -0.152 C  
HETATM    7  C   UNL     1      -7.273  11.005  69.047  1.00  0.00    -0.111 C  
HETATM    8  C   UNL     1      -9.239  11.531  67.450  1.00  0.00    -0.166 C  
HETATM    9  C   UNL     1      -9.475  13.058  67.488  1.00  0.00    -0.198 C  
HETATM   10  C   UNL     1      -6.833  10.237  70.312  1.00  0.00    -0.145 C  
HETATM   11  C   UNL     1     -10.262  13.349  66.182  1.00  0.00    -0.301 C  
HETATM   12  C   UNL     1      -7.546   8.925  70.583  1.00  0.00    -0.101 A  
HETATM   13  C   UNL     1     -10.758  11.978  65.790  1.00  0.00    -0.279 C  
HETATM   14  C   UNL     1      -8.518   8.426  69.700  1.00  0.00    -0.127 A  
HETATM   15  C   UNL     1      -9.145   7.204  70.002  1.00  0.00    -0.145 A  
HETATM   16  O   UNL     1     -11.198  11.691  64.683  1.00  0.00    -0.308 OA 
HETATM   17  C   UNL     1      -8.838   6.502  71.160  1.00  0.00    -0.138 A  
HETATM   18  C   UNL     1      -7.888   6.999  72.043  1.00  0.00    -0.093 A  
HETATM   19  C   UNL     1      -7.233   8.201  71.750  1.00  0.00    -0.089 A  
ENDROOT
BRANCH  18  20
HETATM   20  O   UNL     1      -7.614   6.196  73.114  1.00  0.00    -0.096 OA 
HETATM   21  S   UNL     1      -7.960   4.608  73.097  1.00  0.00    -0.100 S  
HETATM   22  O   UNL     1      -7.338   3.985  71.937  1.00  0.00    -0.055 OA 
HETATM   23  O   UNL     1      -7.162   4.087  74.401  1.00  0.00    -0.066 OA 
HETATM   24  O   UNL     1      -9.358   4.433  73.405  1.00  0.00    -0.115 OA 
ENDBRANCH  18  20
TORSDOF 1
ENDMDL
MODEL      105
REMARK 921   NORMALIZED FREE ENERGY PREDICTED BY IDOCK:   -3.24 KCAL/MOL
REMARK 922        TOTAL FREE ENERGY PREDICTED BY IDOCK:   -3.56 KCAL/MOL
REMARK 923 INTER-LIGAND FREE ENERGY PREDICTED BY IDOCK:   -3.48 KCAL/MOL
REMARK 924 INTRA-LIGAND FREE ENERGY PREDICTED BY IDOCK:   -0.08 KCAL/MOL
REMARK 927      BINDING AFFINITY PREDICTED BY RF-SCORE:    0.00 PKD
ROOT
HETATM    1  C   UNL     1      -7.368   7.999  63.826  1.00  0.00    -0.102 C  
HETATM    2  C   UNL     1      -7.097   9.425  64.357  1.00  0.00    -0.101 C  
HETATM    3  C   UNL     1      -5.965   9.438  65.367  1.00  0.00    -0.063 C  
HETATM    4  C   UNL     1      -6.374   8.660  66.608  1.00  0.00    -0.059 C  
HETATM    5  C   UNL     1      -7.688   9.167  67.228  1.00  0.00    -0.095 C  
HETATM    6  C   UNL     1      -8.858   9.429  66.210  1.00  0.00    -0.172 C  
HETATM    7  C   UNL     1      -9.889  10.262  67.004  1.00  0.00    -0.238 C  
HETATM    8  C   UNL     1      -8.334  10.141  64.941  1.00  0.00    -0.166 C  
HETATM    9  C   UNL     1      -9.210  10.342  63.683  1.00  0.00    -0.315 C  
HETATM   10  C   UNL     1     -10.429   9.504  68.236  1.00  0.00    -0.265 C  
HETATM   11  C   UNL     1      -8.198  10.770  62.586  1.00  0.00    -0.184 C  
HETATM   12  C   UNL     1      -9.489   8.495  68.869  1.00  0.00    -0.147 A  
HETATM   13  C   UNL     1      -6.876  10.348  63.182  1.00  0.00    -0.069 C  
HETATM   14  C   UNL     1      -8.185   8.305  68.381  1.00  0.00    -0.132 A  
HETATM   15  C   UNL     1      -7.357   7.358  69.009  1.00  0.00    -0.091 A  
HETATM   16  O   UNL     1      -5.782  10.729  62.780  1.00  0.00    -0.155 OA 
HETATM   17  C   UNL     1      -7.811   6.599  70.079  1.00  0.00    -0.111 A  
HETATM   18  C   UNL     1      -9.104   6.773  70.556  1.00  0.00    -0.156 A  
HETATM   19  C   UNL     1      -9.938   7.728  69.962  1.00  0.00    -0.187 A  
ENDROOT
BRANCH  18  20
HETATM   20  O   UNL     1      -9.425   6.025  71.654  1.00  0.00    -0.149 OA 
HETATM   21  S   UNL     1      -8.712   6.278  73.092  1.00  0.00    -0.122 S  
HETATM   22  O   UNL     1      -8.870   7.673  73.477  1.00  0.00    -0.180 OA 
HETATM   23  O   UNL     1      -9.649   5.404  74.077  1.00  0.00    -0.133 OA 
HETATM   24  O   UNL     1      -7.429   5.620  73.098  1.00  0.00    -0.094 OA 
ENDBRANCH  18  20
TORSDOF 1
ENDMDL
MODEL      106
REMARK 921   NORMALIZED FREE ENERGY PREDICTED BY IDOCK:   -3.15 KCAL/MOL
REMARK 922        TOTAL FREE ENERGY PREDICTED BY IDOCK:   -3.46 KCAL/MOL
REMARK 923 INTER-LIGAND FREE ENERGY PREDICTED BY IDOCK:   -3.42 KCAL/MOL
REMARK 924 INTRA-LIGAND FREE ENERGY PREDICTED BY IDOCK:   -0.04 KCAL/MOL
REMARK 927      BINDING AFFINITY PREDICTED BY RF-SCORE:    0.00 PKD
ROOT
HETATM    1  C   UNL     1      -8.105   4.585  64.513  1.00  0.00    -0.102 C  
HETATM    2  C   UNL     1      -9.000   3.724  65.434  1.00  0.00    -0.134 C  
HETATM    3  C   UNL     1     -10.456   4.137  65.340  1.00  0.00    -0.128 C  
HETATM    4  C   UNL     1     -10.628   5.547  65.882  1.00  0.00     0.084 C  
HETATM    5  C   UNL     1     -10.089   5.708  67.314  1.00  0.00    -0.210 C  
HETATM    6  C   UNL     1      -8.671   5.079  67.576  1.00  0.00    -0.103 C  
HETATM    7  C   UNL     1      -8.538   5.041  69.115  1.00  0.00    -0.098 C  
HETATM    8  C   UNL     1      -8.556   3.687  66.912  1.00  0.00    -0.112 C  
HETATM    9  C   UNL     1      -7.217   2.920  66.824  1.00  0.00    -0.061 C  
HETATM   10  C   UNL     1      -8.608   6.450  69.743  1.00  0.00    -0.138 C  
HETATM   11  C   UNL     1      -7.503   1.781  65.809  1.00  0.00    -0.062 C  
HETATM   12  C   UNL     1      -9.428   7.481  68.990  1.00  0.00    -0.145 A  
HETATM   13  C   UNL     1      -8.757   2.266  65.122  1.00  0.00    -0.116 C  
HETATM   14  C   UNL     1     -10.120   7.147  67.813  1.00  0.00    -0.215 A  
HETATM   15  C   UNL     1     -10.865   8.143  67.159  1.00  0.00    -0.120 A  
HETATM   16  O   UNL     1      -9.487   1.561  64.434  1.00  0.00    -0.132 OA 
HETATM   17  C   UNL     1     -10.910   9.445  67.639  1.00  0.00    -0.222 A  
HETATM   18  C   UNL     1     -10.217   9.783  68.795  1.00  0.00    -0.194 A  
HETATM   19  C   UNL     1      -9.488   8.801  69.477  1.00  0.00    -0.165 A  
ENDROOT
BRANCH  18  20
HETATM   20  O   UNL     1     -10.384  11.072  69.217  1.00  0.00    -0.214 OA 
HETATM   21  S   UNL     1     -11.851  11.657  69.599  1.00  0.00    -0.357 S  
HETATM   22  O   UNL     1     -12.471  10.804  70.604  1.00  0.00    -0.317 OA 
HETATM   23  O   UNL     1     -11.468  13.047  70.327  1.00  0.00    -0.061 OA 
HETATM   24  O   UNL     1     -12.533  12.034  68.385  1.00  0.00    -0.096 OA 
ENDBRANCH  18  20
TORSDOF 1
ENDMDL
MODEL      107
REMARK 921   NORMALIZED FREE ENERGY PREDICTED BY IDOCK:   -3.13 KCAL/MOL
REMARK 922        TOTAL FREE ENERGY PREDICTED BY IDOCK:   -3.44 KCAL/MOL
REMARK 923 INTER-LIGAND FREE ENERGY PREDICTED BY IDOCK:   -3.58 KCAL/MOL
REMARK 924 INTRA-LIGAND FREE ENERGY PREDICTED BY IDOCK:    0.14 KCAL/MOL
REMARK 927      BINDING AFFINITY PREDICTED BY RF-SCORE:    0.00 PKD
ROOT
HETATM    1  C   UNL     1     -12.311  12.201  65.914  1.00  0.00     0.308 C  
HETATM    2  C   UNL     1     -11.012  12.831  65.361  1.00  0.00    -0.313 C  
HETATM    3  C   UNL     1     -10.430  12.003  64.231  1.00  0.00    -0.369 C  
HETATM    4  C   UNL     1      -9.981  10.650  64.760  1.00  0.00    -0.391 C  
HETATM    5  C   UNL     1      -8.999  10.763  65.939  1.00  0.00    -0.200 C  
HETATM    6  C   UNL     1      -9.399  11.798  67.054  1.00  0.00    -0.187 C  
HETATM    7  C   UNL     1      -8.113  11.990  67.890  1.00  0.00    -0.150 C  
HETATM    8  C   UNL     1      -9.928  13.108  66.425  1.00  0.00    -0.282 C  
HETATM    9  C   UNL     1     -10.585  14.224  67.268  1.00  0.00    -0.278 C  
HETATM   10  C   UNL     1      -7.638  10.674  68.544  1.00  0.00    -0.097 C  
HETATM   11  C   UNL     1     -11.249  15.149  66.213  1.00  0.00    -0.273 C  
HETATM   12  C   UNL     1      -7.985   9.394  67.806  1.00  0.00    -0.096 A  
HETATM   13  C   UNL     1     -11.288  14.267  64.987  1.00  0.00    -0.365 C  
HETATM   14  C   UNL     1      -8.658   9.421  66.573  1.00  0.00    -0.142 A  
HETATM   15  C   UNL     1      -8.951   8.204  65.934  1.00  0.00    -0.195 A  
HETATM   16  O   UNL     1     -11.487  14.674  63.848  1.00  0.00     0.043 OA 
HETATM   17  C   UNL     1      -8.609   6.986  66.507  1.00  0.00    -0.130 A  
HETATM   18  C   UNL     1      -7.956   6.954  67.732  1.00  0.00    -0.114 A  
HETATM   19  C   UNL     1      -7.632   8.155  68.376  1.00  0.00    -0.105 A  
ENDROOT
BRANCH  18  20
HETATM   20  O   UNL     1      -7.606   5.708  68.173  1.00  0.00    -0.080 OA 
HETATM   21  S   UNL     1      -6.631   5.504  69.456  1.00  0.00    -0.052 S  
HETATM   22  O   UNL     1      -7.179   6.214  70.604  1.00  0.00    -0.072 OA 
HETATM   23  O   UNL     1      -6.804   3.925  69.748  1.00  0.00    -0.040 OA 
HETATM   24  O   UNL     1      -5.262   5.669  69.033  1.00  0.00    -0.003 OA 
ENDBRANCH  18  20
TORSDOF 1
ENDMDL
MODEL      108
REMARK 921   NORMALIZED FREE ENERGY PREDICTED BY IDOCK:   -2.96 KCAL/MOL
REMARK 922        TOTAL FREE ENERGY PREDICTED BY IDOCK:   -3.26 KCAL/MOL
REMARK 923 INTER-LIGAND FREE ENERGY PREDICTED BY IDOCK:   -3.73 KCAL/MOL
REMARK 924 INTRA-LIGAND FREE ENERGY PREDICTED BY IDOCK:    0.48 KCAL/MOL
REMARK 927      BINDING AFFINITY PREDICTED BY RF-SCORE:    0.00 PKD
ROOT
HETATM    1  C   UNL     1     -10.693  13.976  70.911  1.00  0.00     1.760 C  
HETATM    2  C   UNL     1     -12.131  13.570  70.518  1.00  0.00    -0.409 C  
HETATM    3  C   UNL     1     -12.285  12.063  70.448  1.00  0.00    -0.379 C  
HETATM    4  C   UNL     1     -11.430  11.509  69.318  1.00  0.00    -0.370 C  
HETATM    5  C   UNL     1     -11.730  12.169  67.962  1.00  0.00    -0.409 C  
HETATM    6  C   UNL     1     -11.842  13.738  67.984  1.00  0.00    -0.408 C  
HETATM    7  C   UNL     1     -12.500  14.103  66.634  1.00  0.00    -0.255 C  
HETATM    8  C   UNL     1     -12.649  14.214  69.214  1.00  0.00     0.139 C  
HETATM    9  C   UNL     1     -12.749  15.705  69.612  1.00  0.00     0.168 C  
HETATM   10  C   UNL     1     -11.647  13.658  65.427  1.00  0.00    -0.334 C  
HETATM   11  C   UNL     1     -13.341  15.671  71.046  1.00  0.00    -0.367 C  
HETATM   12  C   UNL     1     -10.771  12.437  65.638  1.00  0.00    -0.299 A  
HETATM   13  C   UNL     1     -13.101  14.239  71.463  1.00  0.00    -0.343 C  
HETATM   14  C   UNL     1     -10.780  11.731  66.854  1.00  0.00    -0.288 A  
HETATM   15  C   UNL     1      -9.949  10.606  66.991  1.00  0.00    -0.243 A  
HETATM   16  O   UNL     1     -13.644  13.696  72.418  1.00  0.00    -0.515 OA 
HETATM   17  C   UNL     1      -9.109  10.198  65.963  1.00  0.00    -0.185 A  
HETATM   18  C   UNL     1      -9.086  10.901  64.765  1.00  0.00    -0.178 A  
HETATM   19  C   UNL     1      -9.924  12.010  64.597  1.00  0.00    -0.240 A  
ENDROOT
BRANCH  18  20
HETATM   20  O   UNL     1      -8.276  10.374  63.798  1.00  0.00    -0.161 OA 
HETATM   21  S   UNL     1      -7.303   9.109  64.102  1.00  0.00    -0.107 S  
HETATM   22  O   UNL     1      -8.089   8.005  64.635  1.00  0.00    -0.145 OA 
HETATM   23  O   UNL     1      -6.843   8.688  62.611  1.00  0.00    -0.095 OA 
HETATM   24  O   UNL     1      -6.108   9.585  64.753  1.00  0.00    -0.072 OA 
ENDBRANCH  18  20
TORSDOF 1
ENDMDL
MODEL      109
REMARK 921   NORMALIZED FREE ENERGY PREDICTED BY IDOCK:   -2.86 KCAL/MOL
REMARK 922        TOTAL FREE ENERGY PREDICTED BY IDOCK:   -3.15 KCAL/MOL
REMARK 923 INTER-LIGAND FREE ENERGY PREDICTED BY IDOCK:   -3.03 KCAL/MOL
REMARK 924 INTRA-LIGAND FREE ENERGY PREDICTED BY IDOCK:   -0.13 KCAL/MOL
REMARK 927      BINDING AFFINITY PREDICTED BY RF-SCORE:    0.00 PKD
ROOT
HETATM    1  C   UNL     1      -8.534   7.428  65.375  1.00  0.00    -0.101 C  
HETATM    2  C   UNL     1      -7.609   8.248  66.304  1.00  0.00    -0.096 C  
HETATM    3  C   UNL     1      -6.483   7.396  66.859  1.00  0.00    -0.056 C  
HETATM    4  C   UNL     1      -7.052   6.321  67.771  1.00  0.00    -0.081 C  
HETATM    5  C   UNL     1      -7.934   6.892  68.895  1.00  0.00    -0.116 C  
HETATM    6  C   UNL     1      -8.975   7.983  68.448  1.00  0.00    -0.133 C  
HETATM    7  C   UNL     1      -9.443   8.641  69.766  1.00  0.00    -0.166 C  
HETATM    8  C   UNL     1      -8.335   8.979  67.453  1.00  0.00    -0.112 C  
HETATM    9  C   UNL     1      -9.167  10.033  66.687  1.00  0.00    -0.178 C  
HETATM   10  C   UNL     1     -10.121   7.630  70.716  1.00  0.00    -0.189 C  
HETATM   11  C   UNL     1      -8.198  10.550  65.590  1.00  0.00    -0.161 C  
HETATM   12  C   UNL     1      -9.654   6.190  70.609  1.00  0.00    -0.195 A  
HETATM   13  C   UNL     1      -7.137   9.475  65.560  1.00  0.00    -0.090 C  
HETATM   14  C   UNL     1      -8.628   5.818  69.723  1.00  0.00    -0.127 A  
HETATM   15  C   UNL     1      -8.235   4.470  69.668  1.00  0.00    -0.066 A  
HETATM   16  O   UNL     1      -6.039   9.600  65.031  1.00  0.00    -0.075 OA 
HETATM   17  C   UNL     1      -8.855   3.504  70.450  1.00  0.00    -0.143 A  
HETATM   18  C   UNL     1      -9.880   3.865  71.316  1.00  0.00    -0.157 A  
HETATM   19  C   UNL     1     -10.271   5.206  71.406  1.00  0.00    -0.282 A  
ENDROOT
BRANCH  18  20
HETATM   20  O   UNL     1     -10.373   2.850  72.087  1.00  0.00    -0.124 OA 
HETATM   21  S   UNL     1      -9.809   2.570  73.585  1.00  0.00    -0.103 S  
HETATM   22  O   UNL     1      -9.910   3.786  74.380  1.00  0.00    -0.114 OA 
HETATM   23  O   UNL     1     -10.909   1.535  74.159  1.00  0.00    -0.111 OA 
HETATM   24  O   UNL     1      -8.585   1.815  73.488  1.00  0.00    -0.053 OA 
ENDBRANCH  18  20
TORSDOF 1
ENDMDL
MODEL      110
REMARK 921   NORMALIZED FREE ENERGY PREDICTED BY IDOCK:   -2.85 KCAL/MOL
REMARK 922        TOTAL FREE ENERGY PREDICTED BY IDOCK:   -3.14 KCAL/MOL
REMARK 923 INTER-LIGAND FREE ENERGY PREDICTED BY IDOCK:   -3.03 KCAL/MOL
REMARK 924 INTRA-LIGAND FREE ENERGY PREDICTED BY IDOCK:   -0.12 KCAL/MOL
REMARK 927      BINDING AFFINITY PREDICTED BY RF-SCORE:    0.00 PKD
ROOT
HETATM    1  C   UNL     1      -8.232   8.092  64.008  1.00  0.00    -0.049 C  
HETATM    2  C   UNL     1      -6.768   8.044  64.503  1.00  0.00    -0.060 C  
HETATM    3  C   UNL     1      -6.336   6.627  64.827  1.00  0.00    -0.038 C  
HETATM    4  C   UNL     1      -7.135   6.101  66.009  1.00  0.00    -0.067 C  
HETATM    5  C   UNL     1      -7.048   7.013  67.244  1.00  0.00    -0.084 C  
HETATM    6  C   UNL     1      -7.235   8.550  66.965  1.00  0.00    -0.079 C  
HETATM    7  C   UNL     1      -6.739   9.245  68.252  1.00  0.00    -0.060 C  
HETATM    8  C   UNL     1      -6.461   8.975  65.695  1.00  0.00    -0.067 C  
HETATM    9  C   UNL     1      -6.623  10.374  65.058  1.00  0.00    -0.075 C  
HETATM   10  C   UNL     1      -7.563   8.837  69.493  1.00  0.00    -0.080 C  
HETATM   11  C   UNL     1      -5.951  10.232  63.666  1.00  0.00    -0.140 C  
HETATM   12  C   UNL     1      -8.177   7.449  69.464  1.00  0.00    -0.131 A  
HETATM   13  C   UNL     1      -5.889   8.734  63.487  1.00  0.00    -0.076 C  
HETATM   14  C   UNL     1      -7.961   6.577  68.383  1.00  0.00    -0.110 A  
HETATM   15  C   UNL     1      -8.554   5.303  68.412  1.00  0.00    -0.095 A  
HETATM   16  O   UNL     1      -5.197   8.164  62.651  1.00  0.00    -0.061 OA 
HETATM   17  C   UNL     1      -9.360   4.904  69.469  1.00  0.00    -0.190 A  
HETATM   18  C   UNL     1      -9.588   5.769  70.533  1.00  0.00    -0.173 A  
HETATM   19  C   UNL     1      -8.988   7.034  70.538  1.00  0.00    -0.155 A  
ENDROOT
BRANCH  18  20
HETATM   20  O   UNL     1     -10.340   5.252  71.551  1.00  0.00    -0.211 OA 
HETATM   21  S   UNL     1     -11.409   6.165  72.365  1.00  0.00    -0.296 S  
HETATM   22  O   UNL     1     -12.340   6.779  71.429  1.00  0.00    -0.354 OA 
HETATM   23  O   UNL     1     -12.233   5.045  73.188  1.00  0.00    -0.070 OA 
HETATM   24  O   UNL     1     -10.703   6.932  73.361  1.00  0.00    -0.306 OA 
ENDBRANCH  18  20
TORSDOF 1
ENDMDL
MODEL      111
REMARK 921   NORMALIZED FREE ENERGY PREDICTED BY IDOCK:   -2.82 KCAL/MOL
REMARK 922        TOTAL FREE ENERGY PREDICTED BY IDOCK:   -3.11 KCAL/MOL
REMARK 923 INTER-LIGAND FREE ENERGY PREDICTED BY IDOCK:   -3.60 KCAL/MOL
REMARK 924 INTRA-LIGAND FREE ENERGY PREDICTED BY IDOCK:    0.49 KCAL/MOL
REMARK 927      BINDING AFFINITY PREDICTED BY RF-SCORE:    0.00 PKD
ROOT
HETATM    1  C   UNL     1     -12.095   6.674  70.243  1.00  0.00    -0.188 C  
HETATM    2  C   UNL     1     -10.911   7.611  70.578  1.00  0.00    -0.259 C  
HETATM    3  C   UNL     1     -10.502   8.442  69.376  1.00  0.00    -0.222 C  
HETATM    4  C   UNL     1      -9.951   7.535  68.287  1.00  0.00    -0.193 C  
HETATM    5  C   UNL     1      -8.796   6.644  68.775  1.00  0.00    -0.126 C  
HETATM    6  C   UNL     1      -9.031   5.931  70.157  1.00  0.00    -0.148 C  
HETATM    7  C   UNL     1      -7.633   5.430  70.583  1.00  0.00    -0.081 C  
HETATM    8  C   UNL     1      -9.677   6.901  71.174  1.00  0.00    -0.177 C  
HETATM    9  C   UNL     1     -10.212   6.427  72.545  1.00  0.00    -0.201 C  
HETATM   10  C   UNL     1      -7.037   4.427  69.571  1.00  0.00    -0.050 C  
HETATM   11  C   UNL     1     -11.051   7.629  73.055  1.00  0.00    -0.437 C  
HETATM   12  C   UNL     1      -7.474   4.590  68.127  1.00  0.00    -0.065 A  
HETATM   13  C   UNL     1     -11.269   8.431  71.794  1.00  0.00    -0.293 C  
HETATM   14  C   UNL     1      -8.335   5.629  67.737  1.00  0.00    -0.100 A  
HETATM   15  C   UNL     1      -8.705   5.732  66.385  1.00  0.00    -0.128 A  
HETATM   16  O   UNL     1     -11.654   9.595  71.772  1.00  0.00    -0.378 OA 
HETATM   17  C   UNL     1      -8.254   4.818  65.441  1.00  0.00    -0.118 A  
HETATM   18  C   UNL     1      -7.414   3.780  65.825  1.00  0.00    -0.077 A  
HETATM   19  C   UNL     1      -7.013   3.673  67.163  1.00  0.00    -0.058 A  
ENDROOT
BRANCH  18  20
HETATM   20  O   UNL     1      -6.976   2.980  64.807  1.00  0.00    -0.047 OA 
HETATM   21  S   UNL     1      -7.868   2.741  63.471  1.00  0.00    -0.073 S  
HETATM   22  O   UNL     1      -8.209   4.026  62.875  1.00  0.00    -0.078 OA 
HETATM   23  O   UNL     1      -6.800   2.031  62.489  1.00  0.00    -0.020 OA 
HETATM   24  O   UNL     1      -8.864   1.735  63.748  1.00  0.00    -0.087 OA 
ENDBRANCH  18  20
TORSDOF 1
ENDMDL
MODEL      112
REMARK 921   NORMALIZED FREE ENERGY PREDICTED BY IDOCK:   -2.79 KCAL/MOL
REMARK 922        TOTAL FREE ENERGY PREDICTED BY IDOCK:   -3.08 KCAL/MOL
REMARK 923 INTER-LIGAND FREE ENERGY PREDICTED BY IDOCK:   -3.48 KCAL/MOL
REMARK 924 INTRA-LIGAND FREE ENERGY PREDICTED BY IDOCK:    0.41 KCAL/MOL
REMARK 927      BINDING AFFINITY PREDICTED BY RF-SCORE:    0.00 PKD
ROOT
HETATM    1  C   UNL     1      -9.741  11.511  69.097  1.00  0.00     0.124 C  
HETATM    2  C   UNL     1     -10.396  11.825  67.732  1.00  0.00    -0.211 C  
HETATM    3  C   UNL     1     -11.535  10.871  67.430  1.00  0.00    -0.175 C  
HETATM    4  C   UNL     1     -10.994   9.461  67.257  1.00  0.00    -0.022 C  
HETATM    5  C   UNL     1      -9.886   9.370  66.194  1.00  0.00    -0.356 C  
HETATM    6  C   UNL     1      -8.780  10.485  66.274  1.00  0.00    -0.159 C  
HETATM    7  C   UNL     1      -8.036  10.397  64.922  1.00  0.00    -0.130 C  
HETATM    8  C   UNL     1      -9.414  11.870  66.542  1.00  0.00    -0.226 C  
HETATM    9  C   UNL     1      -8.565  13.118  66.874  1.00  0.00    -0.118 C  
HETATM   10  C   UNL     1      -7.373   9.019  64.707  1.00  0.00    -0.100 C  
HETATM   11  C   UNL     1      -9.603  14.151  67.389  1.00  0.00    -0.229 C  
HETATM   12  C   UNL     1      -8.047   7.838  65.380  1.00  0.00    -0.131 A  
HETATM   13  C   UNL     1     -10.796  13.281  67.709  1.00  0.00    -0.252 C  
HETATM   14  C   UNL     1      -9.234   7.995  66.116  1.00  0.00    -0.219 A  
HETATM   15  C   UNL     1      -9.815   6.864  66.716  1.00  0.00    -0.243 A  
HETATM   16  O   UNL     1     -11.932  13.704  67.892  1.00  0.00    -0.358 OA 
HETATM   17  C   UNL     1      -9.227   5.610  66.614  1.00  0.00    -0.138 A  
HETATM   18  C   UNL     1      -8.046   5.453  65.899  1.00  0.00    -0.108 A  
HETATM   19  C   UNL     1      -7.463   6.561  65.272  1.00  0.00    -0.082 A  
ENDROOT
BRANCH  18  20
HETATM   20  O   UNL     1      -7.591   4.167  65.804  1.00  0.00    -0.083 OA 
HETATM   21  S   UNL     1      -7.536   3.188  67.099  1.00  0.00    -0.075 S  
HETATM   22  O   UNL     1      -8.853   3.120  67.718  1.00  0.00    -0.108 OA 
HETATM   23  O   UNL     1      -7.261   1.753  66.411  1.00  0.00    -0.050 OA 
HETATM   24  O   UNL     1      -6.346   3.485  67.858  1.00  0.00    -0.035 OA 
ENDBRANCH  18  20
TORSDOF 1
ENDMDL
MODEL      113
REMARK 921   NORMALIZED FREE ENERGY PREDICTED BY IDOCK:   -2.70 KCAL/MOL
REMARK 922        TOTAL FREE ENERGY PREDICTED BY IDOCK:   -2.99 KCAL/MOL
REMARK 923 INTER-LIGAND FREE ENERGY PREDICTED BY IDOCK:   -3.36 KCAL/MOL
REMARK 924 INTRA-LIGAND FREE ENERGY PREDICTED BY IDOCK:    0.37 KCAL/MOL
REMARK 927      BINDING AFFINITY PREDICTED BY RF-SCORE:    0.00 PKD
ROOT
HETATM    1  C   UNL     1      -7.557   8.088  72.016  1.00  0.00    -0.108 C  
HETATM    2  C   UNL     1      -8.175   7.107  70.994  1.00  0.00    -0.109 C  
HETATM    3  C   UNL     1      -7.581   7.297  69.611  1.00  0.00    -0.099 C  
HETATM    4  C   UNL     1      -7.959   8.667  69.072  1.00  0.00    -0.115 C  
HETATM    5  C   UNL     1      -9.477   8.914  69.073  1.00  0.00    -0.156 C  
HETATM    6  C   UNL     1     -10.228   8.506  70.393  1.00  0.00    -0.215 C  
HETATM    7  C   UNL     1     -11.724   8.496  70.006  1.00  0.00     0.301 C  
HETATM    8  C   UNL     1      -9.716   7.144  70.917  1.00  0.00    -0.170 C  
HETATM    9  C   UNL     1     -10.119   6.586  72.301  1.00  0.00    -0.191 C  
HETATM   10  C   UNL     1     -12.216   9.882  69.534  1.00  0.00     0.412 C  
HETATM   11  C   UNL     1      -9.130   5.412  72.535  1.00  0.00    -0.142 C  
HETATM   12  C   UNL     1     -11.178  10.774  68.878  1.00  0.00    -0.328 A  
HETATM   13  C   UNL     1      -8.041   5.700  71.528  1.00  0.00    -0.118 C  
HETATM   14  C   UNL     1      -9.859  10.335  68.675  1.00  0.00    -0.180 A  
HETATM   15  C   UNL     1      -8.941  11.205  68.061  1.00  0.00    -0.149 A  
HETATM   16  O   UNL     1      -7.190   4.891  71.178  1.00  0.00    -0.053 OA 
HETATM   17  C   UNL     1      -9.308  12.487  67.676  1.00  0.00    -0.189 A  
HETATM   18  C   UNL     1     -10.607  12.931  67.888  1.00  0.00    -0.222 A  
HETATM   19  C   UNL     1     -11.545  12.073  68.475  1.00  0.00    -0.363 A  
ENDROOT
BRANCH  18  20
HETATM   20  O   UNL     1     -10.879  14.183  67.410  1.00  0.00    -0.280 OA 
HETATM   21  S   UNL     1      -9.912  15.446  67.738  1.00  0.00    -0.226 S  
HETATM   22  O   UNL     1      -8.547  15.133  67.337  1.00  0.00    -0.163 OA 
HETATM   23  O   UNL     1     -10.467  16.557  66.706  1.00  0.00    -0.296 OA 
HETATM   24  O   UNL     1     -10.230  15.948  69.052  1.00  0.00    -0.204 OA 
ENDBRANCH  18  20
TORSDOF 1
ENDMDL
MODEL      114
REMARK 921   NORMALIZED FREE ENERGY PREDICTED BY IDOCK:   -2.64 KCAL/MOL
REMARK 922        TOTAL FREE ENERGY PREDICTED BY IDOCK:   -2.93 KCAL/MOL
REMARK 923 INTER-LIGAND FREE ENERGY PREDICTED BY IDOCK:   -3.14 KCAL/MOL
REMARK 924 INTRA-LIGAND FREE ENERGY PREDICTED BY IDOCK:    0.21 KCAL/MOL
REMARK 927      BINDING AFFINITY PREDICTED BY RF-SCORE:    0.00 PKD
ROOT
HETATM    1  C   UNL     1     -11.897  14.601  65.613  1.00  0.00    -0.273 C  
HETATM    2  C   UNL     1     -10.538  14.854  66.305  1.00  0.00    -0.309 C  
HETATM    3  C   UNL     1      -9.739  13.572  66.446  1.00  0.00    -0.296 C  
HETATM    4  C   UNL     1     -10.454  12.619  67.390  1.00  0.00    -0.233 C  
HETATM    5  C   UNL     1     -10.757  13.248  68.761  1.00  0.00    -0.253 C  
HETATM    6  C   UNL     1     -11.363  14.699  68.720  1.00  0.00    -0.302 C  
HETATM    7  C   UNL     1     -11.218  15.225  70.165  1.00  0.00    -0.313 C  
HETATM    8  C   UNL     1     -10.633  15.569  67.670  1.00  0.00    -0.291 C  
HETATM    9  C   UNL     1     -11.140  16.971  67.261  1.00  0.00     0.113 C  
HETATM   10  C   UNL     1     -11.997  14.363  71.183  1.00  0.00    -0.383 C  
HETATM   11  C   UNL     1     -10.328  17.305  65.981  1.00  0.00    -0.312 C  
HETATM   12  C   UNL     1     -12.168  12.897  70.828  1.00  0.00    -0.348 A  
HETATM   13  C   UNL     1      -9.810  15.949  65.562  1.00  0.00    -0.230 C  
HETATM   14  C   UNL     1     -11.603  12.356  69.661  1.00  0.00    -0.330 A  
HETATM   15  C   UNL     1     -11.793  10.991  69.385  1.00  0.00    -0.407 A  
HETATM   16  O   UNL     1      -8.905  15.772  64.755  1.00  0.00     1.861 OA 
HETATM   17  C   UNL     1     -12.542  10.181  70.229  1.00  0.00    -0.139 A  
HETATM   18  C   UNL     1     -13.114  10.714  71.377  1.00  0.00    -0.400 A  
HETATM   19  C   UNL     1     -12.917  12.066  71.684  1.00  0.00    -0.439 A  
ENDROOT
BRANCH  18  20
HETATM   20  O   UNL     1     -13.771   9.816  72.170  1.00  0.00    -0.385 OA 
HETATM   21  S   UNL     1     -13.323   8.256  72.239  1.00  0.00    -0.157 S  
HETATM   22  O   UNL     1     -11.912   8.168  72.589  1.00  0.00    -0.381 OA 
HETATM   23  O   UNL     1     -14.162   7.732  73.516  1.00  0.00     1.366 OA 
HETATM   24  O   UNL     1     -13.877   7.561  71.103  1.00  0.00    -0.294 OA 
ENDBRANCH  18  20
TORSDOF 1
ENDMDL
MODEL      115
REMARK 921   NORMALIZED FREE ENERGY PREDICTED BY IDOCK:   -1.65 KCAL/MOL
REMARK 922        TOTAL FREE ENERGY PREDICTED BY IDOCK:   -1.87 KCAL/MOL
REMARK 923 INTER-LIGAND FREE ENERGY PREDICTED BY IDOCK:   -1.73 KCAL/MOL
REMARK 924 INTRA-LIGAND FREE ENERGY PREDICTED BY IDOCK:   -0.15 KCAL/MOL
REMARK 927      BINDING AFFINITY PREDICTED BY RF-SCORE:    0.00 PKD
ROOT
HETATM    1  C   UNL     1      -7.714   9.688  72.514  1.00  0.00     2.152 C  
HETATM    2  C   UNL     1      -7.075   8.933  71.326  1.00  0.00    -0.103 C  
HETATM    3  C   UNL     1      -6.071   9.800  70.591  1.00  0.00    -0.088 C  
HETATM    4  C   UNL     1      -6.785  10.971  69.934  1.00  0.00    -0.125 C  
HETATM    5  C   UNL     1      -7.934  10.531  69.010  1.00  0.00    -0.136 C  
HETATM    6  C   UNL     1      -8.893   9.433  69.600  1.00  0.00    -0.178 C  
HETATM    7  C   UNL     1      -9.690   8.914  68.383  1.00  0.00    -0.175 C  
HETATM    8  C   UNL     1      -8.086   8.332  70.327  1.00  0.00    -0.104 C  
HETATM    9  C   UNL     1      -8.765   7.235  71.179  1.00  0.00    -0.135 C  
HETATM   10  C   UNL     1     -10.522  10.027  67.710  1.00  0.00    -0.282 C  
HETATM   11  C   UNL     1      -7.591   6.591  71.965  1.00  0.00    -0.093 C  
HETATM   12  C   UNL     1      -9.973  11.437  67.822  1.00  0.00    -0.192 A  
HETATM   13  C   UNL     1      -6.502   7.629  71.830  1.00  0.00    -0.042 C  
HETATM   14  C   UNL     1      -8.750  11.696  68.464  1.00  0.00    -0.130 A  
HETATM   15  C   UNL     1      -8.290  13.022  68.536  1.00  0.00    -0.057 A  
HETATM   16  O   UNL     1      -5.318   7.425  72.070  1.00  0.00    -0.036 OA 
HETATM   17  C   UNL     1      -9.028  14.073  68.009  1.00  0.00    -0.182 A  
HETATM   18  C   UNL     1     -10.245  13.823  67.386  1.00  0.00    -0.252 A  
HETATM   19  C   UNL     1     -10.711  12.507  67.280  1.00  0.00    -0.259 A  
ENDROOT
BRANCH  18  20
HETATM   20  O   UNL     1     -10.855  14.919  66.842  1.00  0.00    -0.306 OA 
HETATM   21  S   UNL     1     -10.448  15.475  65.371  1.00  0.00    -0.415 S  
HETATM   22  O   UNL     1     -10.566  14.403  64.393  1.00  0.00    -0.270 OA 
HETATM   23  O   UNL     1     -11.645  16.520  65.077  1.00  0.00     0.086 OA 
HETATM   24  O   UNL     1      -9.257  16.278  65.490  1.00  0.00    -0.402 OA 
ENDBRANCH  18  20
TORSDOF 1
ENDMDL
MODEL      116
REMARK 921   NORMALIZED FREE ENERGY PREDICTED BY IDOCK:   -1.33 KCAL/MOL
REMARK 922        TOTAL FREE ENERGY PREDICTED BY IDOCK:   -1.54 KCAL/MOL
REMARK 923 INTER-LIGAND FREE ENERGY PREDICTED BY IDOCK:   -1.39 KCAL/MOL
REMARK 924 INTRA-LIGAND FREE ENERGY PREDICTED BY IDOCK:   -0.14 KCAL/MOL
REMARK 927      BINDING AFFINITY PREDICTED BY RF-SCORE:    0.00 PKD
ROOT
HETATM    1  C   UNL     1      -9.077  14.165  69.913  1.00  0.00     1.342 C  
HETATM    2  C   UNL     1      -8.029  14.023  68.786  1.00  0.00    -0.081 C  
HETATM    3  C   UNL     1      -8.628  13.385  67.547  1.00  0.00    -0.200 C  
HETATM    4  C   UNL     1      -9.032  11.951  67.849  1.00  0.00    -0.179 C  
HETATM    5  C   UNL     1      -7.876  11.108  68.414  1.00  0.00    -0.133 C  
HETATM    6  C   UNL     1      -7.027  11.797  69.545  1.00  0.00     0.027 C  
HETATM    7  C   UNL     1      -5.752  10.932  69.660  1.00  0.00    -0.046 C  
HETATM    8  C   UNL     1      -6.742  13.276  69.194  1.00  0.00    -0.092 C  
HETATM    9  C   UNL     1      -6.109  14.259  70.206  1.00  0.00    -0.168 C  
HETATM   10  C   UNL     1      -6.068   9.474  70.059  1.00  0.00    -0.046 C  
HETATM   11  C   UNL     1      -6.327  15.653  69.560  1.00  0.00    -0.166 C  
HETATM   12  C   UNL     1      -7.418   8.936  69.623  1.00  0.00    -0.071 A  
HETATM   13  C   UNL     1      -7.400  15.372  68.534  1.00  0.00    -0.116 C  
HETATM   14  C   UNL     1      -8.303   9.716  68.859  1.00  0.00    -0.116 A  
HETATM   15  C   UNL     1      -9.540   9.164  68.482  1.00  0.00    -0.156 A  
HETATM   16  O   UNL     1      -7.691  16.126  67.613  1.00  0.00    -0.131 OA 
HETATM   17  C   UNL     1      -9.907   7.882  68.869  1.00  0.00    -0.174 A  
HETATM   18  C   UNL     1      -9.041   7.113  69.637  1.00  0.00    -0.140 A  
HETATM   19  C   UNL     1      -7.793   7.633  70.002  1.00  0.00    -0.101 A  
ENDROOT
BRANCH  18  20
HETATM   20  O   UNL     1      -9.472   5.844  69.903  1.00  0.00    -0.146 OA 
HETATM   21  S   UNL     1      -9.174   4.614  68.884  1.00  0.00    -0.140 S  
HETATM   22  O   UNL     1      -7.743   4.525  68.630  1.00  0.00    -0.070 OA 
HETATM   23  O   UNL     1      -9.577   3.337  69.789  1.00  0.00    -0.167 OA 
HETATM   24  O   UNL     1     -10.143   4.649  67.816  1.00  0.00    -0.122 OA 
ENDBRANCH  18  20
TORSDOF 1
ENDMDL
MODEL      117
REMARK 921   NORMALIZED FREE ENERGY PREDICTED BY IDOCK:   -0.49 KCAL/MOL
REMARK 922        TOTAL FREE ENERGY PREDICTED BY IDOCK:   -0.65 KCAL/MOL
REMARK 923 INTER-LIGAND FREE ENERGY PREDICTED BY IDOCK:   -0.93 KCAL/MOL
REMARK 924 INTRA-LIGAND FREE ENERGY PREDICTED BY IDOCK:    0.28 KCAL/MOL
REMARK 927      BINDING AFFINITY PREDICTED BY RF-SCORE:    0.00 PKD
ROOT
HETATM    1  C   UNL     1      -8.717  12.910  69.546  1.00  0.00     1.578 C  
HETATM    2  C   UNL     1      -8.163  12.455  68.177  1.00  0.00    -0.173 C  
HETATM    3  C   UNL     1      -9.132  11.532  67.463  1.00  0.00    -0.166 C  
HETATM    4  C   UNL     1      -9.280  10.236  68.244  1.00  0.00    -0.139 C  
HETATM    5  C   UNL     1      -7.935   9.540  68.512  1.00  0.00    -0.093 C  
HETATM    6  C   UNL     1      -6.779  10.478  69.022  1.00  0.00    -0.063 C  
HETATM    7  C   UNL     1      -5.492   9.641  68.851  1.00  0.00    -0.036 C  
HETATM    8  C   UNL     1      -6.762  11.808  68.233  1.00  0.00    -0.065 C  
HETATM    9  C   UNL     1      -5.874  13.003  68.646  1.00  0.00    -0.070 C  
HETATM   10  C   UNL     1      -5.520   8.344  69.689  1.00  0.00    -0.030 C  
HETATM   11  C   UNL     1      -6.426  14.187  67.807  1.00  0.00    -0.181 C  
HETATM   12  C   UNL     1      -6.890   7.746  69.953  1.00  0.00    -0.049 A  
HETATM   13  C   UNL     1      -7.780  13.677  67.376  1.00  0.00    -0.143 C  
HETATM   14  C   UNL     1      -8.055   8.322  69.419  1.00  0.00    -0.115 A  
HETATM   15  C   UNL     1      -9.295   7.722  69.695  1.00  0.00    -0.153 A  
HETATM   16  O   UNL     1      -8.454  14.172  66.481  1.00  0.00     0.015 OA 
HETATM   17  C   UNL     1      -9.390   6.594  70.499  1.00  0.00    -0.167 A  
HETATM   18  C   UNL     1      -8.242   6.030  71.041  1.00  0.00    -0.123 A  
HETATM   19  C   UNL     1      -6.993   6.595  70.759  1.00  0.00    -0.067 A  
ENDROOT
BRANCH  18  20
HETATM   20  O   UNL     1      -8.441   4.884  71.760  1.00  0.00    -0.118 OA 
HETATM   21  S   UNL     1      -9.424   4.852  73.053  1.00  0.00    -0.135 S  
HETATM   22  O   UNL     1     -10.742   5.344  72.677  1.00  0.00    -0.214 OA 
HETATM   23  O   UNL     1      -9.566   3.264  73.315  1.00  0.00    -0.102 OA 
HETATM   24  O   UNL     1      -8.709   5.367  74.194  1.00  0.00    -0.119 OA 
ENDBRANCH  18  20
TORSDOF 1
ENDMDL
MODEL      118
REMARK 921   NORMALIZED FREE ENERGY PREDICTED BY IDOCK:    3.44 KCAL/MOL
REMARK 922        TOTAL FREE ENERGY PREDICTED BY IDOCK:    3.52 KCAL/MOL
REMARK 923 INTER-LIGAND FREE ENERGY PREDICTED BY IDOCK:    3.64 KCAL/MOL
REMARK 924 INTRA-LIGAND FREE ENERGY PREDICTED BY IDOCK:   -0.12 KCAL/MOL
REMARK 927      BINDING AFFINITY PREDICTED BY RF-SCORE:    0.00 PKD
ROOT
HETATM    1  C   UNL     1      -8.294  13.812  65.370  1.00  0.00     3.500 C  
HETATM    2  C   UNL     1      -9.649  13.203  65.798  1.00  0.00    -0.075 C  
HETATM    3  C   UNL     1      -9.481  12.213  66.934  1.00  0.00    -0.210 C  
HETATM    4  C   UNL     1      -8.678  11.013  66.458  1.00  0.00    -0.169 C  
HETATM    5  C   UNL     1      -9.283  10.343  65.213  1.00  0.00    -0.240 C  
HETATM    6  C   UNL     1      -9.728  11.324  64.067  1.00  0.00    -0.301 C  
HETATM    7  C   UNL     1     -10.616  10.465  63.138  1.00  0.00     0.878 C  
HETATM    8  C   UNL     1     -10.455  12.557  64.650  1.00  0.00    -0.344 C  
HETATM    9  C   UNL     1     -10.824  13.786  63.787  1.00  0.00     0.552 C  
HETATM   10  C   UNL     1      -9.847   9.270  62.534  1.00  0.00     1.541 C  
HETATM   11  C   UNL     1     -11.207  14.873  64.827  1.00  0.00    -0.393 C  
HETATM   12  C   UNL     1      -8.708   8.713  63.368  1.00  0.00     0.093 A  
HETATM   13  C   UNL     1     -10.612  14.326  66.103  1.00  0.00    -0.293 C  
HETATM   14  C   UNL     1      -8.410   9.234  64.639  1.00  0.00    -0.167 A  
HETATM   15  C   UNL     1      -7.345   8.677  65.367  1.00  0.00    -0.084 A  
HETATM   16  O   UNL     1     -10.899  14.723  67.227  1.00  0.00    -0.294 OA 
HETATM   17  C   UNL     1      -6.574   7.646  64.847  1.00  0.00    -0.047 A  
HETATM   18  C   UNL     1      -6.856   7.138  63.585  1.00  0.00    -0.052 A  
HETATM   19  C   UNL     1      -7.928   7.660  62.851  1.00  0.00    -0.120 A  
ENDROOT
BRANCH  18  20
HETATM   20  O   UNL     1      -6.081   6.080  63.197  1.00  0.00    -0.021 OA 
HETATM   21  S   UNL     1      -6.292   4.598  63.827  1.00  0.00    -0.026 S  
HETATM   22  O   UNL     1      -7.677   4.185  63.654  1.00  0.00    -0.068 OA 
HETATM   23  O   UNL     1      -5.399   3.692  62.831  1.00  0.00    -0.005 OA 
HETATM   24  O   UNL     1      -5.626   4.535  65.105  1.00  0.00    -0.013 OA 
ENDBRANCH  18  20
TORSDOF 1
ENDMDL
MODEL      119
REMARK 921   NORMALIZED FREE ENERGY PREDICTED BY IDOCK:    5.44 KCAL/MOL
REMARK 922        TOTAL FREE ENERGY PREDICTED BY IDOCK:    5.63 KCAL/MOL
REMARK 923 INTER-LIGAND FREE ENERGY PREDICTED BY IDOCK:    5.53 KCAL/MOL
REMARK 924 INTRA-LIGAND FREE ENERGY PREDICTED BY IDOCK:    0.10 KCAL/MOL
REMARK 927      BINDING AFFINITY PREDICTED BY RF-SCORE:    0.00 PKD
ROOT
HETATM    1  C   UNL     1      -5.346  12.392  70.804  1.00  0.00    -0.163 C  
HETATM    2  C   UNL     1      -6.526  13.121  70.122  1.00  0.00     0.143 C  
HETATM    3  C   UNL     1      -7.860  12.532  70.539  1.00  0.00     4.639 C  
HETATM    4  C   UNL     1      -7.974  11.104  70.031  1.00  0.00     1.113 C  
HETATM    5  C   UNL     1      -7.758  10.988  68.513  1.00  0.00    -0.122 C  
HETATM    6  C   UNL     1      -6.526  11.784  67.943  1.00  0.00    -0.068 C  
HETATM    7  C   UNL     1      -6.751  11.813  66.415  1.00  0.00     0.231 C  
HETATM    8  C   UNL     1      -6.437  13.189  68.582  1.00  0.00    -0.087 C  
HETATM    9  C   UNL     1      -5.219  14.117  68.373  1.00  0.00    -0.104 C  
HETATM   10  C   UNL     1      -6.786  10.396  65.801  1.00  0.00    -0.132 C  
HETATM   11  C   UNL     1      -5.406  15.228  69.441  1.00  0.00    -0.093 C  
HETATM   12  C   UNL     1      -7.280   9.284  66.708  1.00  0.00    -0.083 A  
HETATM   13  C   UNL     1      -6.402  14.602  70.389  1.00  0.00    -0.153 C  
HETATM   14  C   UNL     1      -7.722   9.548  68.015  1.00  0.00    -0.087 A  
HETATM   15  C   UNL     1      -8.170   8.479  68.809  1.00  0.00    -0.122 A  
HETATM   16  O   UNL     1      -7.038  15.223  71.233  1.00  0.00     1.211 OA 
HETATM   17  C   UNL     1      -8.161   7.174  68.334  1.00  0.00    -0.125 A  
HETATM   18  C   UNL     1      -7.711   6.906  67.048  1.00  0.00    -0.103 A  
HETATM   19  C   UNL     1      -7.284   7.959  66.230  1.00  0.00    -0.074 A  
ENDROOT
BRANCH  18  20
HETATM   20  O   UNL     1      -7.809   5.599  66.658  1.00  0.00    -0.099 OA 
HETATM   21  S   UNL     1      -6.824   4.457  67.262  1.00  0.00    -0.053 S  
HETATM   22  O   UNL     1      -6.900   4.465  68.716  1.00  0.00    -0.048 OA 
HETATM   23  O   UNL     1      -7.548   3.103  66.757  1.00  0.00    -0.074 OA 
HETATM   24  O   UNL     1      -5.567   4.506  66.558  1.00  0.00    -0.013 OA 
ENDBRANCH  18  20
TORSDOF 1
ENDMDL
MODEL      120
REMARK 921   NORMALIZED FREE ENERGY PREDICTED BY IDOCK:   10.66 KCAL/MOL
REMARK 922        TOTAL FREE ENERGY PREDICTED BY IDOCK:   11.15 KCAL/MOL
REMARK 923 INTER-LIGAND FREE ENERGY PREDICTED BY IDOCK:   11.17 KCAL/MOL
REMARK 924 INTRA-LIGAND FREE ENERGY PREDICTED BY IDOCK:   -0.01 KCAL/MOL
REMARK 927      BINDING AFFINITY PREDICTED BY RF-SCORE:    0.00 PKD
ROOT
HETATM    1  C   UNL     1      -8.943   4.050  69.503  1.00  0.00    -0.163 C  
HETATM    2  C   UNL     1      -7.687   3.883  70.390  1.00  0.00    -0.048 C  
HETATM    3  C   UNL     1      -7.939   4.361  71.807  1.00  0.00    -0.089 C  
HETATM    4  C   UNL     1      -8.186   5.861  71.808  1.00  0.00    -0.119 C  
HETATM    5  C   UNL     1      -7.053   6.657  71.138  1.00  0.00    -0.076 C  
HETATM    6  C   UNL     1      -6.546   6.083  69.764  1.00  0.00    -0.047 C  
HETATM    7  C   UNL     1      -5.207   6.810  69.506  1.00  0.00    -0.014 C  
HETATM    8  C   UNL     1      -6.410   4.543  69.828  1.00  0.00    -0.027 C  
HETATM    9  C   UNL     1      -6.131   3.685  68.573  1.00  0.00    -0.031 C  
HETATM   10  C   UNL     1      -5.384   8.341  69.399  1.00  0.00    -0.030 C  
HETATM   11  C   UNL     1      -6.415   2.233  69.042  1.00  0.00    -0.029 C  
HETATM   12  C   UNL     1      -6.535   8.940  70.186  1.00  0.00    -0.039 A  
HETATM   13  C   UNL     1      -7.219   2.450  70.303  1.00  0.00    -0.033 C  
HETATM   14  C   UNL     1      -7.357   8.143  71.000  1.00  0.00    -0.058 A  
HETATM   15  C   UNL     1      -8.407   8.754  71.708  1.00  0.00    -0.161 A  
HETATM   16  O   UNL     1      -7.430   1.586  71.147  1.00  0.00    -0.032 OA 
HETATM   17  C   UNL     1      -8.656  10.115  71.598  1.00  0.00     3.536 A  
HETATM   18  C   UNL     1      -7.855  10.905  70.783  1.00  0.00     2.845 A  
HETATM   19  C   UNL     1      -6.788  10.322  70.088  1.00  0.00    -0.152 A  
ENDROOT
BRANCH  18  20
HETATM   20  O   UNL     1      -8.145  12.240  70.800  1.00  0.00     4.780 OA 
HETATM   21  S   UNL     1      -7.631  13.237  69.624  1.00  0.00     1.055 S  
HETATM   22  O   UNL     1      -8.068  12.732  68.330  1.00  0.00    -0.149 OA 
HETATM   23  O   UNL     1      -8.491  14.570  69.929  1.00  0.00     0.378 OA 
HETATM   24  O   UNL     1      -6.259  13.596  69.884  1.00  0.00    -0.130 OA 
ENDBRANCH  18  20
TORSDOF 1
ENDMDL
MODEL      121
REMARK 921   NORMALIZED FREE ENERGY PREDICTED BY IDOCK:   12.58 KCAL/MOL
REMARK 922        TOTAL FREE ENERGY PREDICTED BY IDOCK:   13.19 KCAL/MOL
REMARK 923 INTER-LIGAND FREE ENERGY PREDICTED BY IDOCK:   12.76 KCAL/MOL
REMARK 924 INTRA-LIGAND FREE ENERGY PREDICTED BY IDOCK:    0.43 KCAL/MOL
REMARK 927      BINDING AFFINITY PREDICTED BY RF-SCORE:    0.00 PKD
ROOT
HETATM    1  C   UNL     1      -8.958  12.750  70.491  1.00  0.00     6.718 C  
HETATM    2  C   UNL     1      -7.542  12.988  69.917  1.00  0.00     1.433 C  
HETATM    3  C   UNL     1      -7.540  12.930  68.401  1.00  0.00    -0.133 C  
HETATM    4  C   UNL     1      -7.888  11.525  67.938  1.00  0.00    -0.123 C  
HETATM    5  C   UNL     1      -6.970  10.449  68.544  1.00  0.00    -0.062 C  
HETATM    6  C   UNL     1      -6.707  10.578  70.089  1.00  0.00    -0.149 C  
HETATM    7  C   UNL     1      -5.502   9.650  70.361  1.00  0.00    -0.039 C  
HETATM    8  C   UNL     1      -6.453  12.052  70.482  1.00  0.00     0.619 C  
HETATM    9  C   UNL     1      -6.369  12.513  71.956  1.00  0.00     3.303 C  
HETATM   10  C   UNL     1      -5.804   8.178  70.004  1.00  0.00    -0.022 C  
HETATM   11  C   UNL     1      -6.450  14.060  71.870  1.00  0.00     1.282 C  
HETATM   12  C   UNL     1      -6.815   7.951  68.894  1.00  0.00    -0.058 A  
HETATM   13  C   UNL     1      -7.000  14.280  70.480  1.00  0.00     0.455 C  
HETATM   14  C   UNL     1      -7.400   9.027  68.206  1.00  0.00    -0.082 A  
HETATM   15  C   UNL     1      -8.328   8.756  67.187  1.00  0.00    -0.103 A  
HETATM   16  O   UNL     1      -6.977  15.353  69.888  1.00  0.00    -0.169 OA 
HETATM   17  C   UNL     1      -8.691   7.454  66.867  1.00  0.00    -0.126 A  
HETATM   18  C   UNL     1      -8.126   6.387  67.554  1.00  0.00    -0.117 A  
HETATM   19  C   UNL     1      -7.180   6.633  68.557  1.00  0.00    -0.085 A  
ENDROOT
BRANCH  18  20
HETATM   20  O   UNL     1      -8.500   5.148  67.114  1.00  0.00    -0.107 OA 
HETATM   21  S   UNL     1     -10.043   4.813  66.732  1.00  0.00    -0.214 S  
HETATM   22  O   UNL     1     -10.521   5.769  65.743  1.00  0.00     0.203 OA 
HETATM   23  O   UNL     1      -9.891   3.391  65.982  1.00  0.00    -0.046 OA 
HETATM   24  O   UNL     1     -10.773   4.533  67.944  1.00  0.00     0.383 OA 
ENDBRANCH  18  20
TORSDOF 1
ENDMDL
MODEL      122
REMARK 921   NORMALIZED FREE ENERGY PREDICTED BY IDOCK:   21.27 KCAL/MOL
REMARK 922        TOTAL FREE ENERGY PREDICTED BY IDOCK:   22.38 KCAL/MOL
REMARK 923 INTER-LIGAND FREE ENERGY PREDICTED BY IDOCK:   22.43 KCAL/MOL
REMARK 924 INTRA-LIGAND FREE ENERGY PREDICTED BY IDOCK:   -0.04 KCAL/MOL
REMARK 927      BINDING AFFINITY PREDICTED BY RF-SCORE:    0.00 PKD
ROOT
HETATM    1  C   UNL     1      -7.856  12.852  71.934  1.00  0.00    12.010 C  
HETATM    2  C   UNL     1      -8.247  12.764  70.441  1.00  0.00     4.877 C  
HETATM    3  C   UNL     1      -9.432  11.841  70.230  1.00  0.00     3.609 C  
HETATM    4  C   UNL     1      -9.044  10.415  70.588  1.00  0.00     1.421 C  
HETATM    5  C   UNL     1      -7.803   9.922  69.826  1.00  0.00    -0.169 C  
HETATM    6  C   UNL     1      -6.596  10.930  69.775  1.00  0.00    -0.140 C  
HETATM    7  C   UNL     1      -5.667  10.373  68.673  1.00  0.00    -0.041 C  
HETATM    8  C   UNL     1      -7.093  12.367  69.496  1.00  0.00     0.243 C  
HETATM    9  C   UNL     1      -6.162  13.598  69.594  1.00  0.00    -0.122 C  
HETATM   10  C   UNL     1      -5.149   8.956  69.005  1.00  0.00    -0.036 C  
HETATM   11  C   UNL     1      -7.136  14.807  69.575  1.00  0.00    -0.172 C  
HETATM   12  C   UNL     1      -6.058   8.093  69.861  1.00  0.00    -0.028 A  
HETATM   13  C   UNL     1      -8.460  14.162  69.912  1.00  0.00     1.235 C  
HETATM   14  C   UNL     1      -7.318   8.552  70.283  1.00  0.00    -0.052 A  
HETATM   15  C   UNL     1      -8.117   7.708  71.073  1.00  0.00    -0.095 A  
HETATM   16  O   UNL     1      -9.551  14.695  69.746  1.00  0.00     0.147 OA 
HETATM   17  C   UNL     1      -7.676   6.449  71.460  1.00  0.00    -0.100 A  
HETATM   18  C   UNL     1      -6.426   5.997  71.057  1.00  0.00    -0.045 A  
HETATM   19  C   UNL     1      -5.622   6.811  70.248  1.00  0.00    -0.023 A  
ENDROOT
BRANCH  18  20
HETATM   20  O   UNL     1      -6.120   4.720  71.435  1.00  0.00    -0.016 OA 
HETATM   21  S   UNL     1      -6.121   3.495  70.367  1.00  0.00    -0.019 S  
HETATM   22  O   UNL     1      -5.247   3.820  69.249  1.00  0.00    -0.010 OA 
HETATM   23  O   UNL     1      -5.395   2.325  71.213  1.00  0.00    -0.004 OA 
HETATM   24  O   UNL     1      -7.478   3.045  70.176  1.00  0.00    -0.043 OA 
ENDBRANCH  18  20
TORSDOF 1
ENDMDL
MODEL      123
REMARK 921   NORMALIZED FREE ENERGY PREDICTED BY IDOCK:   40.05 KCAL/MOL
REMARK 922        TOTAL FREE ENERGY PREDICTED BY IDOCK:   42.26 KCAL/MOL
REMARK 923 INTER-LIGAND FREE ENERGY PREDICTED BY IDOCK:   42.38 KCAL/MOL
REMARK 924 INTRA-LIGAND FREE ENERGY PREDICTED BY IDOCK:   -0.12 KCAL/MOL
REMARK 927      BINDING AFFINITY PREDICTED BY RF-SCORE:    0.00 PKD
ROOT
HETATM    1  C   UNL     1     -10.690   6.077  68.311  1.00  0.00    -0.352 C  
HETATM    2  C   UNL     1     -11.947   6.893  68.688  1.00  0.00     1.350 C  
HETATM    3  C   UNL     1     -12.461   7.700  67.511  1.00  0.00     7.177 C  
HETATM    4  C   UNL     1     -11.441   8.761  67.129  1.00  0.00     1.830 C  
HETATM    5  C   UNL     1     -11.051   9.670  68.307  1.00  0.00    -0.102 C  
HETATM    6  C   UNL     1     -10.742   8.928  69.659  1.00  0.00    -0.222 C  
HETATM    7  C   UNL     1     -10.755  10.042  70.729  1.00  0.00    -0.272 C  
HETATM    8  C   UNL     1     -11.775   7.808  69.920  1.00  0.00     0.316 C  
HETATM    9  C   UNL     1     -11.610   6.778  71.061  1.00  0.00    -0.388 C  
HETATM   10  C   UNL     1      -9.679  11.118  70.467  1.00  0.00     2.770 C  
HETATM   11  C   UNL     1     -12.659   5.683  70.733  1.00  0.00     2.864 C  
HETATM   12  C   UNL     1      -9.294  11.343  69.016  1.00  0.00     0.036 A  
HETATM   13  C   UNL     1     -12.974   5.958  69.282  1.00  0.00     8.083 C  
HETATM   14  C   UNL     1      -9.923  10.639  67.975  1.00  0.00    -0.180 A  
HETATM   15  C   UNL     1      -9.526  10.890  66.651  1.00  0.00    -0.204 A  
HETATM   16  O   UNL     1     -13.944   5.506  68.685  1.00  0.00    16.549 OA 
HETATM   17  C   UNL     1      -8.517  11.798  66.358  1.00  0.00    -0.081 A  
HETATM   18  C   UNL     1      -7.883  12.486  67.385  1.00  0.00    -0.175 A  
HETATM   19  C   UNL     1      -8.278  12.270  68.711  1.00  0.00     0.081 A  
ENDROOT
BRANCH  18  20
HETATM   20  O   UNL     1      -6.953  13.403  66.982  1.00  0.00    -0.017 OA 
HETATM   21  S   UNL     1      -7.333  14.972  66.797  1.00  0.00     0.852 S  
HETATM   22  O   UNL     1      -7.917  15.482  68.030  1.00  0.00    -0.128 OA 
HETATM   23  O   UNL     1      -5.872  15.645  66.650  1.00  0.00     0.185 OA 
HETATM   24  O   UNL     1      -7.969  15.150  65.515  1.00  0.00     2.412 OA 
ENDBRANCH  18  20
TORSDOF 1
ENDMDL
MODEL      124
REMARK 921   NORMALIZED FREE ENERGY PREDICTED BY IDOCK:   49.59 KCAL/MOL
REMARK 922        TOTAL FREE ENERGY PREDICTED BY IDOCK:   52.36 KCAL/MOL
REMARK 923 INTER-LIGAND FREE ENERGY PREDICTED BY IDOCK:   52.53 KCAL/MOL
REMARK 924 INTRA-LIGAND FREE ENERGY PREDICTED BY IDOCK:   -0.17 KCAL/MOL
REMARK 927      BINDING AFFINITY PREDICTED BY RF-SCORE:    0.00 PKD
ROOT
HETATM    1  C   UNL     1      -9.484   7.674  72.237  1.00  0.00    -0.209 C  
HETATM    2  C   UNL     1      -8.080   8.287  72.444  1.00  0.00    -0.204 C  
HETATM    3  C   UNL     1      -8.109   9.418  73.455  1.00  0.00     2.219 C  
HETATM    4  C   UNL     1      -8.934  10.574  72.911  1.00  0.00    11.541 C  
HETATM    5  C   UNL     1      -8.448  11.061  71.535  1.00  0.00     8.216 C  
HETATM    6  C   UNL     1      -8.145   9.929  70.486  1.00  0.00     0.098 C  
HETATM    7  C   UNL     1      -7.341  10.634  69.370  1.00  0.00    -0.133 C  
HETATM    8  C   UNL     1      -7.385   8.756  71.148  1.00  0.00    -0.106 C  
HETATM    9  C   UNL     1      -7.133   7.417  70.418  1.00  0.00    -0.064 C  
HETATM   10  C   UNL     1      -8.146  11.768  68.697  1.00  0.00    -0.104 C  
HETATM   11  C   UNL     1      -6.665   6.458  71.545  1.00  0.00    -0.055 C  
HETATM   12  C   UNL     1      -9.180  12.463  69.563  1.00  0.00     1.532 A  
HETATM   13  C   UNL     1      -7.113   7.181  72.793  1.00  0.00    -0.069 C  
HETATM   14  C   UNL     1      -9.354  12.117  70.914  1.00  0.00     9.075 A  
HETATM   15  C   UNL     1     -10.326  12.797  71.667  1.00  0.00     9.854 A  
HETATM   16  O   UNL     1      -6.719   6.920  73.924  1.00  0.00    -0.071 OA 
HETATM   17  C   UNL     1     -11.126  13.779  71.098  1.00  0.00     1.814 A  
HETATM   18  C   UNL     1     -10.967  14.114  69.759  1.00  0.00    -0.021 A  
HETATM   19  C   UNL     1      -9.988  13.467  68.995  1.00  0.00     0.122 A  
ENDROOT
BRANCH  18  20
HETATM   20  O   UNL     1     -11.757  15.139  69.319  1.00  0.00    -0.295 OA 
HETATM   21  S   UNL     1     -12.723  14.970  68.023  1.00  0.00     1.658 S  
HETATM   22  O   UNL     1     -13.596  13.821  68.210  1.00  0.00     3.824 OA 
HETATM   23  O   UNL     1     -13.646  16.291  68.132  1.00  0.00     4.008 OA 
HETATM   24  O   UNL     1     -11.935  15.150  66.829  1.00  0.00    -0.099 OA 
ENDBRANCH  18  20
TORSDOF 1
ENDMDL
MODEL      125
REMARK 921   NORMALIZED FREE ENERGY PREDICTED BY IDOCK:   62.67 KCAL/MOL
REMARK 922        TOTAL FREE ENERGY PREDICTED BY IDOCK:   66.21 KCAL/MOL
REMARK 923 INTER-LIGAND FREE ENERGY PREDICTED BY IDOCK:   65.92 KCAL/MOL
REMARK 924 INTRA-LIGAND FREE ENERGY PREDICTED BY IDOCK:    0.29 KCAL/MOL
REMARK 927      BINDING AFFINITY PREDICTED BY RF-SCORE:    0.00 PKD
ROOT
HETATM    1  C   UNL     1      -5.398  11.782  71.558  1.00  0.00     0.109 C  
HETATM    2  C   UNL     1      -6.436  12.781  72.119  1.00  0.00     3.818 C  
HETATM    3  C   UNL     1      -7.037  12.287  73.421  1.00  0.00     9.981 C  
HETATM    4  C   UNL     1      -7.847  11.026  73.169  1.00  0.00    13.391 C  
HETATM    5  C   UNL     1      -8.924  11.211  72.086  1.00  0.00    13.982 C  
HETATM    6  C   UNL     1      -8.450  11.951  70.782  1.00  0.00     7.172 C  
HETATM    7  C   UNL     1      -9.757  12.334  70.051  1.00  0.00     2.822 C  
HETATM    8  C   UNL     1      -7.559  13.165  71.131  1.00  0.00     5.982 C  
HETATM    9  C   UNL     1      -6.781  13.958  70.056  1.00  0.00     0.088 C  
HETATM   10  C   UNL     1     -10.600  11.096  69.673  1.00  0.00    -0.076 C  
HETATM   11  C   UNL     1      -5.791  14.829  70.875  1.00  0.00    -0.100 C  
HETATM   12  C   UNL     1     -10.460   9.886  70.578  1.00  0.00    -0.330 A  
HETATM   13  C   UNL     1      -5.793  14.144  72.221  1.00  0.00     0.093 C  
HETATM   14  C   UNL     1      -9.642   9.918  71.720  1.00  0.00     2.256 A  
HETATM   15  C   UNL     1      -9.552   8.768  72.522  1.00  0.00    -0.114 A  
HETATM   16  O   UNL     1      -5.359  14.643  73.252  1.00  0.00    -0.239 OA 
HETATM   17  C   UNL     1     -10.235   7.603  72.195  1.00  0.00    -0.256 A  
HETATM   18  C   UNL     1     -11.033   7.563  71.059  1.00  0.00    -0.251 A  
HETATM   19  C   UNL     1     -11.157   8.705  70.258  1.00  0.00    -0.230 A  
ENDROOT
BRANCH  18  20
HETATM   20  O   UNL     1     -11.713   6.392  70.867  1.00  0.00    -0.349 OA 
HETATM   21  S   UNL     1     -10.939   4.967  70.768  1.00  0.00     0.614 S  
HETATM   22  O   UNL     1     -10.107   4.779  71.949  1.00  0.00    -0.186 OA 
HETATM   23  O   UNL     1     -12.165   3.922  70.880  1.00  0.00     7.842 OA 
HETATM   24  O   UNL     1     -10.420   4.810  69.432  1.00  0.00    -0.103 OA 
ENDBRANCH  18  20
TORSDOF 1
ENDMDL
