MODEL        1
REMARK 921   NORMALIZED FREE ENERGY PREDICTED BY IDOCK:   -7.62 KCAL/MOL
REMARK 922        TOTAL FREE ENERGY PREDICTED BY IDOCK:  -10.63 KCAL/MOL
REMARK 923 INTER-LIGAND FREE ENERGY PREDICTED BY IDOCK:   -9.85 KCAL/MOL
REMARK 924 INTRA-LIGAND FREE ENERGY PREDICTED BY IDOCK:   -0.78 KCAL/MOL
REMARK 927      BINDING AFFINITY PREDICTED BY RF-SCORE:    0.00 PKD
ROOT
HETATM    1  C   UNL     1     -11.845  14.535  68.842  1.00  0.00    -0.359 C  
HETATM    2  C   UNL     1     -10.939  15.211  69.705  1.00  0.00    -0.291 C  
HETATM    3  C   UNL     1     -10.206  14.248  68.814  1.00  0.00    -0.226 C  
HETATM    4  C   UNL     1     -11.306  13.424  67.283  1.00  0.00    -0.319 C  
HETATM    5  C   UNL     1     -10.695  14.640  67.353  1.00  0.00    -0.280 C  
HETATM    6  C   UNL     1     -10.280   9.309  69.864  1.00  0.00    -0.235 A  
HETATM    7  C   UNL     1      -9.296  13.341  67.159  1.00  0.00    -0.240 C  
HETATM    8  C   UNL     1     -12.010  12.860  69.540  1.00  0.00    -0.346 C  
HETATM    9  C   UNL     1     -10.651  15.910  66.565  1.00  0.00    -0.297 C  
HETATM   10  C   UNL     1      -9.711  11.831  68.054  1.00  0.00    -0.185 C  
HETATM   11  C   UNL     1     -10.518   8.114  70.567  1.00  0.00    -0.222 A  
HETATM   12  C   UNL     1     -11.539   8.056  71.513  1.00  0.00    -0.275 A  
HETATM   13  C   UNL     1     -12.413  12.921  71.027  1.00  0.00    -0.374 C  
HETATM   14  C   UNL     1     -10.697  11.816  69.452  1.00  0.00    -0.049 C  
HETATM   15  C   UNL     1     -11.060  10.458  70.087  1.00  0.00    -0.383 A  
HETATM   16  C   UNL     1     -12.056  10.392  71.098  1.00  0.00    -0.487 A  
HETATM   17  C   UNL     1     -12.293   9.188  71.789  1.00  0.00    -0.444 A  
HETATM   18  C   UNL     1     -12.912  11.565  71.512  1.00  0.00    -0.485 C  
ENDROOT
BRANCH   4  19
HETATM   19  O   UNL     1     -11.169  13.453  65.730  1.00  0.00    -0.289 OA 
HETATM   20  O   UNL     1     -13.000  14.157  64.529  1.00  0.00    -0.579 OA 
HETATM   21  O   UNL     1     -13.200  12.039  63.580  1.00  0.00    -0.737 OA 
HETATM   22  O   UNL     1     -11.078  13.080  63.511  1.00  0.00    -0.338 OA 
HETATM   23  P   UNL     1     -12.241  12.707  64.595  1.00  0.00    -0.441 P  
ENDBRANCH   4  19
BRANCH  12  24
HETATM   24  O   UNL     1     -11.719   6.861  72.234  1.00  0.00    -0.278 OA 
BRANCH  24  25
HETATM   25  C   UNL     1     -10.589   6.368  72.892  1.00  0.00    -0.235 C  
HETATM   26  O   UNL     1     -10.014   6.921  73.821  1.00  0.00    -0.244 OA 
HETATM   27  N   UNL     1     -10.281   5.077  72.481  1.00  0.00    -0.189 N  
BRANCH  27  28
HETATM   28  C   UNL     1     -10.075   4.799  71.054  1.00  0.00    -0.199 C  
HETATM   29 CL   UNL     1      -9.294   3.156  69.032  1.00  0.00    -0.230 Cl 
HETATM   30  C   UNL     1      -9.503   3.412  70.783  1.00  0.00    -0.170 C  
ENDBRANCH  27  28
BRANCH  27  31
HETATM   31  C   UNL     1      -9.654   4.187  73.464  1.00  0.00    -0.112 C  
HETATM   32 CL   UNL     1     -11.866   2.546  73.378  1.00  0.00    -0.142 Cl 
HETATM   33  C   UNL     1     -10.655   3.428  74.353  1.00  0.00    -0.167 C  
ENDBRANCH  27  31
ENDBRANCH  24  25
ENDBRANCH  12  24
TORSDOF 5
ENDMDL
MODEL        2
REMARK 921   NORMALIZED FREE ENERGY PREDICTED BY IDOCK:   -7.55 KCAL/MOL
REMARK 922        TOTAL FREE ENERGY PREDICTED BY IDOCK:  -10.54 KCAL/MOL
REMARK 923 INTER-LIGAND FREE ENERGY PREDICTED BY IDOCK:   -9.19 KCAL/MOL
REMARK 924 INTRA-LIGAND FREE ENERGY PREDICTED BY IDOCK:   -1.36 KCAL/MOL
REMARK 927      BINDING AFFINITY PREDICTED BY RF-SCORE:    0.00 PKD
ROOT
HETATM    1  C   UNL     1      -9.454  18.574  65.971  1.00  0.00    -0.038 C  
HETATM    2  C   UNL     1     -10.701  19.171  65.638  1.00  0.00    -0.297 C  
HETATM    3  C   UNL     1     -10.576  18.997  67.126  1.00  0.00    -0.545 C  
HETATM    4  C   UNL     1      -8.715  18.453  67.813  1.00  0.00    -0.267 C  
HETATM    5  C   UNL     1      -9.184  19.685  67.469  1.00  0.00    -0.409 C  
HETATM    6  C   UNL     1     -11.300  14.442  69.184  1.00  0.00    -0.308 A  
HETATM    7  C   UNL     1     -10.025  19.229  69.134  1.00  0.00    -0.373 C  
HETATM    8  C   UNL     1      -9.848  16.845  66.386  1.00  0.00    -0.319 C  
HETATM    9  C   UNL     1      -8.644  21.063  67.257  1.00  0.00    -0.013 C  
HETATM   10  C   UNL     1     -10.385  17.463  69.193  1.00  0.00    -0.271 C  
HETATM   11  C   UNL     1     -11.644  13.083  69.288  1.00  0.00    -0.367 A  
HETATM   12  C   UNL     1     -11.614  12.269  68.158  1.00  0.00    -0.339 A  
HETATM   13  C   UNL     1     -10.635  16.171  65.244  1.00  0.00    -0.390 C  
HETATM   14  C   UNL     1     -10.703  16.528  67.797  1.00  0.00    -0.329 C  
HETATM   15  C   UNL     1     -10.912  15.008  67.956  1.00  0.00    -0.285 A  
HETATM   16  C   UNL     1     -10.945  14.173  66.806  1.00  0.00    -0.300 A  
HETATM   17  C   UNL     1     -11.282  12.810  66.924  1.00  0.00    -0.339 A  
HETATM   18  C   UNL     1     -10.642  14.655  65.409  1.00  0.00    -0.390 C  
ENDROOT
BRANCH   4  19
HETATM   19  O   UNL     1      -7.695  19.122  68.785  1.00  0.00    -0.339 OA 
HETATM   20  O   UNL     1      -5.461  18.852  68.309  1.00  0.00    -0.187 OA 
HETATM   21  O   UNL     1      -5.181  17.637  70.276  1.00  0.00    -0.205 OA 
HETATM   22  O   UNL     1      -6.272  19.730  70.421  1.00  0.00    -0.288 OA 
HETATM   23  P   UNL     1      -6.368  18.338  69.572  1.00  0.00    -0.122 P  
ENDBRANCH   4  19
BRANCH  12  24
HETATM   24  O   UNL     1     -12.011  10.925  68.287  1.00  0.00    -0.561 OA 
BRANCH  24  25
HETATM   25  C   UNL     1     -11.024   9.969  68.033  1.00  0.00    -0.240 C  
HETATM   26  O   UNL     1     -10.925   9.308  67.007  1.00  0.00    -0.106 OA 
HETATM   27  N   UNL     1     -10.049   9.968  69.024  1.00  0.00    -0.189 N  
BRANCH  27  28
HETATM   28  C   UNL     1     -10.439   9.789  70.427  1.00  0.00    -0.297 C  
HETATM   29 CL   UNL     1     -11.556   8.318  72.424  1.00  0.00    -0.449 Cl 
HETATM   30  C   UNL     1     -11.127   8.456  70.701  1.00  0.00    -0.256 C  
ENDBRANCH  27  28
BRANCH  27  31
HETATM   31  C   UNL     1      -8.684   9.606  68.626  1.00  0.00    -0.124 C  
HETATM   32 CL   UNL     1      -8.004  12.276  68.561  1.00  0.00    -0.133 Cl 
HETATM   33  C   UNL     1      -7.975  10.672  67.772  1.00  0.00    -0.110 C  
ENDBRANCH  27  31
ENDBRANCH  24  25
ENDBRANCH  12  24
TORSDOF 5
ENDMDL
MODEL        3
REMARK 921   NORMALIZED FREE ENERGY PREDICTED BY IDOCK:   -7.44 KCAL/MOL
REMARK 922        TOTAL FREE ENERGY PREDICTED BY IDOCK:  -10.40 KCAL/MOL
REMARK 923 INTER-LIGAND FREE ENERGY PREDICTED BY IDOCK:   -9.42 KCAL/MOL
REMARK 924 INTRA-LIGAND FREE ENERGY PREDICTED BY IDOCK:   -0.98 KCAL/MOL
REMARK 927      BINDING AFFINITY PREDICTED BY RF-SCORE:    0.00 PKD
ROOT
HETATM    1  C   UNL     1     -11.874   7.657  72.312  1.00  0.00    -0.354 C  
HETATM    2  C   UNL     1     -12.999   7.070  71.671  1.00  0.00    -0.400 C  
HETATM    3  C   UNL     1     -11.853   7.210  70.708  1.00  0.00    -0.367 C  
HETATM    4  C   UNL     1     -10.044   7.735  71.535  1.00  0.00    -0.178 C  
HETATM    5  C   UNL     1     -10.640   6.512  71.463  1.00  0.00    -0.265 C  
HETATM    6  C   UNL     1     -10.826  11.718  68.676  1.00  0.00    -0.259 A  
HETATM    7  C   UNL     1     -10.045   6.931  69.687  1.00  0.00    -0.195 C  
HETATM    8  C   UNL     1     -11.827   9.377  71.714  1.00  0.00    -0.452 C  
HETATM    9  C   UNL     1     -10.433   5.139  72.016  1.00  0.00    -0.278 C  
HETATM   10  C   UNL     1     -10.227   8.696  69.363  1.00  0.00    -0.211 C  
HETATM   11  C   UNL     1     -10.971  13.075  68.338  1.00  0.00    -0.288 A  
HETATM   12  C   UNL     1     -11.737  13.914  69.145  1.00  0.00    -0.338 A  
HETATM   13  C   UNL     1     -13.180  10.078  71.950  1.00  0.00    -0.557 C  
HETATM   14  C   UNL     1     -11.424   9.664  70.108  1.00  0.00    -0.238 C  
HETATM   15  C   UNL     1     -11.433  11.180  69.825  1.00  0.00    -0.388 A  
HETATM   16  C   UNL     1     -12.256  12.041  70.600  1.00  0.00    -0.409 A  
HETATM   17  C   UNL     1     -12.387  13.401  70.258  1.00  0.00    -0.354 A  
HETATM   18  C   UNL     1     -13.042  11.590  71.807  1.00  0.00    -0.503 C  
ENDROOT
BRANCH   4  19
HETATM   19  O   UNL     1      -8.648   7.043  71.584  1.00  0.00    -0.116 OA 
HETATM   20  O   UNL     1      -7.742   6.653  73.661  1.00  0.00    -0.090 OA 
HETATM   21  O   UNL     1      -6.003   8.129  73.187  1.00  0.00    -0.057 OA 
HETATM   22  O   UNL     1      -6.477   6.441  71.600  1.00  0.00    -0.048 OA 
HETATM   23  P   UNL     1      -7.252   7.616  72.430  1.00  0.00    -0.088 P  
ENDBRANCH   4  19
BRANCH  12  24
HETATM   24  O   UNL     1     -11.902  15.256  68.752  1.00  0.00    -0.338 OA 
BRANCH  24  25
HETATM   25  C   UNL     1     -11.063  16.183  69.375  1.00  0.00    -0.335 C  
HETATM   26  O   UNL     1     -11.062  16.444  70.572  1.00  0.00    -0.340 OA 
HETATM   27  N   UNL     1     -10.097  16.665  68.501  1.00  0.00    -0.252 N  
BRANCH  27  28
HETATM   28  C   UNL     1     -10.507  17.276  67.230  1.00  0.00    -0.319 C  
HETATM   29 CL   UNL     1     -10.759  19.433  65.592  1.00  0.00    -0.488 Cl 
HETATM   30  C   UNL     1     -10.242  18.777  67.165  1.00  0.00    -0.386 C  
ENDBRANCH  27  28
BRANCH  27  31
HETATM   31  C   UNL     1      -8.799  17.042  69.071  1.00  0.00    -0.130 C  
HETATM   32 CL   UNL     1      -7.604  14.973  67.698  1.00  0.00    -0.177 Cl 
HETATM   33  C   UNL     1      -7.818  15.868  69.232  1.00  0.00    -0.226 C  
ENDBRANCH  27  31
ENDBRANCH  24  25
ENDBRANCH  12  24
TORSDOF 5
ENDMDL
MODEL        4
REMARK 921   NORMALIZED FREE ENERGY PREDICTED BY IDOCK:   -7.29 KCAL/MOL
REMARK 922        TOTAL FREE ENERGY PREDICTED BY IDOCK:  -10.21 KCAL/MOL
REMARK 923 INTER-LIGAND FREE ENERGY PREDICTED BY IDOCK:   -9.18 KCAL/MOL
REMARK 924 INTRA-LIGAND FREE ENERGY PREDICTED BY IDOCK:   -1.03 KCAL/MOL
REMARK 927      BINDING AFFINITY PREDICTED BY RF-SCORE:    0.00 PKD
ROOT
HETATM    1  C   UNL     1     -10.618  13.221  64.121  1.00  0.00    -0.331 C  
HETATM    2  C   UNL     1     -11.823  12.839  63.470  1.00  0.00    -0.618 C  
HETATM    3  C   UNL     1     -12.088  13.206  64.903  1.00  0.00    -0.448 C  
HETATM    4  C   UNL     1     -10.527  14.093  65.906  1.00  0.00    -0.306 C  
HETATM    5  C   UNL     1     -11.430  14.646  65.049  1.00  0.00    -0.386 C  
HETATM    6  C   UNL     1     -10.963   9.931  68.579  1.00  0.00    -0.226 A  
HETATM    7  C   UNL     1     -12.379  14.281  66.677  1.00  0.00    -0.320 C  
HETATM    8  C   UNL     1     -10.174  11.802  65.175  1.00  0.00    -0.309 C  
HETATM    9  C   UNL     1     -11.638  15.944  64.337  1.00  0.00    -0.234 C  
HETATM   10  C   UNL     1     -11.781  12.753  67.425  1.00  0.00    -0.425 C  
HETATM   11  C   UNL     1     -10.573   8.733  69.202  1.00  0.00    -0.200 A  
HETATM   12  C   UNL     1      -9.786   7.814  68.512  1.00  0.00    -0.172 A  
HETATM   13  C   UNL     1     -10.111  10.502  64.348  1.00  0.00    -0.395 C  
HETATM   14  C   UNL     1     -11.129  11.461  66.514  1.00  0.00    -0.312 C  
HETATM   15  C   UNL     1     -10.566  10.236  67.264  1.00  0.00    -0.324 A  
HETATM   16  C   UNL     1      -9.813   9.259  66.560  1.00  0.00    -0.331 A  
HETATM   17  C   UNL     1      -9.420   8.065  67.197  1.00  0.00    -0.207 A  
HETATM   18  C   UNL     1      -9.390   9.402  65.118  1.00  0.00    -0.288 C  
ENDROOT
BRANCH   4  19
HETATM   19  O   UNL     1     -10.348  15.478  66.600  1.00  0.00    -0.272 OA 
HETATM   20  O   UNL     1      -8.633  16.813  65.850  1.00  0.00    -0.500 OA 
HETATM   21  O   UNL     1      -7.582  16.640  67.922  1.00  0.00    -0.154 OA 
HETATM   22  O   UNL     1      -9.865  17.258  67.893  1.00  0.00    -0.266 OA 
HETATM   23  P   UNL     1      -8.888  16.091  67.297  1.00  0.00    -0.209 P  
ENDBRANCH   4  19
BRANCH  12  24
HETATM   24  O   UNL     1      -9.455   6.602  69.147  1.00  0.00    -0.138 OA 
BRANCH  24  25
HETATM   25  C   UNL     1      -8.689   6.711  70.310  1.00  0.00    -0.147 C  
HETATM   26  O   UNL     1      -7.628   7.316  70.405  1.00  0.00    -0.085 OA 
HETATM   27  N   UNL     1      -9.357   6.190  71.412  1.00  0.00    -0.153 N  
BRANCH  27  28
HETATM   28  C   UNL     1      -9.848   4.807  71.376  1.00  0.00    -0.187 C  
HETATM   29 CL   UNL     1     -10.180   2.363  72.521  1.00  0.00    -0.227 Cl 
HETATM   30  C   UNL     1      -9.542   4.021  72.646  1.00  0.00    -0.136 C  
ENDBRANCH  27  28
BRANCH  27  31
HETATM   31  C   UNL     1      -9.084   6.801  72.717  1.00  0.00    -0.135 C  
HETATM   32 CL   UNL     1     -11.569   7.992  72.669  1.00  0.00    -0.463 Cl 
HETATM   33  C   UNL     1      -9.809   8.139  72.948  1.00  0.00    -0.268 C  
ENDBRANCH  27  31
ENDBRANCH  24  25
ENDBRANCH  12  24
TORSDOF 5
ENDMDL
MODEL        5
REMARK 921   NORMALIZED FREE ENERGY PREDICTED BY IDOCK:   -7.20 KCAL/MOL
REMARK 922        TOTAL FREE ENERGY PREDICTED BY IDOCK:  -10.09 KCAL/MOL
REMARK 923 INTER-LIGAND FREE ENERGY PREDICTED BY IDOCK:   -9.58 KCAL/MOL
REMARK 924 INTRA-LIGAND FREE ENERGY PREDICTED BY IDOCK:   -0.51 KCAL/MOL
REMARK 927      BINDING AFFINITY PREDICTED BY RF-SCORE:    0.00 PKD
ROOT
HETATM    1  C   UNL     1     -12.284   8.078  72.392  1.00  0.00    -0.337 C  
HETATM    2  C   UNL     1     -13.386   7.539  71.672  1.00  0.00    -0.414 C  
HETATM    3  C   UNL     1     -12.156   7.580  70.808  1.00  0.00    -0.190 C  
HETATM    4  C   UNL     1     -10.394   8.022  71.774  1.00  0.00    -0.217 C  
HETATM    5  C   UNL     1     -11.057   6.835  71.683  1.00  0.00    -0.282 C  
HETATM    6  C   UNL     1     -10.683  11.952  68.753  1.00  0.00    -0.257 A  
HETATM    7  C   UNL     1     -10.290   7.161  69.954  1.00  0.00    -0.224 C  
HETATM    8  C   UNL     1     -12.080   9.772  71.755  1.00  0.00    -0.425 C  
HETATM    9  C   UNL     1     -10.983   5.470  72.288  1.00  0.00    -0.296 C  
HETATM   10  C   UNL     1     -10.333   8.923  69.570  1.00  0.00    -0.213 C  
HETATM   11  C   UNL     1     -10.715  13.304  68.369  1.00  0.00    -0.273 A  
HETATM   12  C   UNL     1     -11.492  14.212  69.084  1.00  0.00    -0.296 A  
HETATM   13  C   UNL     1     -13.402  10.560  71.856  1.00  0.00    -0.461 C  
HETATM   14  C   UNL     1     -11.527   9.983  70.183  1.00  0.00    -0.344 C  
HETATM   15  C   UNL     1     -11.417  11.488  69.860  1.00  0.00    -0.340 A  
HETATM   16  C   UNL     1     -12.248  12.420  70.538  1.00  0.00    -0.382 A  
HETATM   17  C   UNL     1     -12.264  13.774  70.150  1.00  0.00    -0.425 A  
HETATM   18  C   UNL     1     -13.158  12.056  71.685  1.00  0.00    -0.422 C  
ENDROOT
BRANCH   4  19
HETATM   19  O   UNL     1      -9.053   7.249  71.961  1.00  0.00    -0.130 OA 
HETATM   20  O   UNL     1      -8.012   7.434  74.003  1.00  0.00    -0.117 OA 
HETATM   21  O   UNL     1      -6.214   8.520  72.996  1.00  0.00    -0.093 OA 
HETATM   22  O   UNL     1      -6.938   6.479  72.047  1.00  0.00    -0.070 OA 
HETATM   23  P   UNL     1      -7.555   7.920  72.507  1.00  0.00    -0.121 P  
ENDBRANCH   4  19
BRANCH  12  24
HETATM   24  O   UNL     1     -11.540  15.548  68.643  1.00  0.00    -0.339 OA 
BRANCH  24  25
HETATM   25  C   UNL     1     -10.861  15.824  67.453  1.00  0.00    -0.306 C  
HETATM   26  O   UNL     1     -11.155  15.379  66.351  1.00  0.00    -0.313 OA 
HETATM   27  N   UNL     1      -9.896  16.809  67.632  1.00  0.00    -0.256 N  
BRANCH  27  28
HETATM   28  C   UNL     1      -8.864  16.635  68.661  1.00  0.00    -0.249 C  
HETATM   29 CL   UNL     1      -6.386  17.141  69.663  1.00  0.00    -0.237 Cl 
HETATM   30  C   UNL     1      -7.578  17.399  68.364  1.00  0.00    -0.255 C  
ENDBRANCH  27  28
BRANCH  27  31
HETATM   31  C   UNL     1      -9.608  17.685  66.492  1.00  0.00    -0.292 C  
HETATM   32 CL   UNL     1     -10.260  19.880  68.025  1.00  0.00    -0.568 Cl 
HETATM   33  C   UNL     1     -10.421  18.991  66.482  1.00  0.00    -0.443 C  
ENDBRANCH  27  31
ENDBRANCH  24  25
ENDBRANCH  12  24
TORSDOF 5
ENDMDL
MODEL        6
REMARK 921   NORMALIZED FREE ENERGY PREDICTED BY IDOCK:   -7.03 KCAL/MOL
REMARK 922        TOTAL FREE ENERGY PREDICTED BY IDOCK:   -9.87 KCAL/MOL
REMARK 923 INTER-LIGAND FREE ENERGY PREDICTED BY IDOCK:   -8.67 KCAL/MOL
REMARK 924 INTRA-LIGAND FREE ENERGY PREDICTED BY IDOCK:   -1.21 KCAL/MOL
REMARK 927      BINDING AFFINITY PREDICTED BY RF-SCORE:    0.00 PKD
ROOT
HETATM    1  C   UNL     1     -10.661   7.750  67.410  1.00  0.00    -0.345 C  
HETATM    2  C   UNL     1      -9.614   7.099  66.701  1.00  0.00    -0.226 C  
HETATM    3  C   UNL     1      -9.099   7.689  67.984  1.00  0.00    -0.135 C  
HETATM    4  C   UNL     1     -10.528   8.382  69.291  1.00  0.00    -0.215 C  
HETATM    5  C   UNL     1     -10.086   7.109  69.087  1.00  0.00    -0.183 C  
HETATM    6  C   UNL     1      -8.203  12.651  68.279  1.00  0.00    -0.164 A  
HETATM    7  C   UNL     1      -8.676   8.032  70.007  1.00  0.00    -0.135 C  
HETATM    8  C   UNL     1     -10.375   9.531  67.156  1.00  0.00    -0.320 C  
HETATM    9  C   UNL     1     -10.463   5.721  69.496  1.00  0.00    -0.364 C  
HETATM   10  C   UNL     1      -8.582   9.746  69.454  1.00  0.00    -0.168 C  
HETATM   11  C   UNL     1      -8.046  13.988  67.873  1.00  0.00    -0.156 A  
HETATM   12  C   UNL     1      -8.683  14.445  66.722  1.00  0.00    -0.159 A  
HETATM   13  C   UNL     1     -10.272   9.862  65.653  1.00  0.00    -0.229 C  
HETATM   14  C   UNL     1      -9.044  10.248  67.886  1.00  0.00    -0.133 C  
HETATM   15  C   UNL     1      -9.005  11.753  67.550  1.00  0.00    -0.168 A  
HETATM   16  C   UNL     1      -9.597  12.226  66.348  1.00  0.00    -0.242 A  
HETATM   17  C   UNL     1      -9.441  13.570  65.956  1.00  0.00    -0.109 A  
HETATM   18  C   UNL     1     -10.410  11.361  65.415  1.00  0.00    -0.331 C  
ENDROOT
BRANCH   4  19
HETATM   19  O   UNL     1     -10.913   8.004  70.755  1.00  0.00    -0.239 OA 
HETATM   20  O   UNL     1     -13.086   7.354  71.132  1.00  0.00    -0.313 OA 
HETATM   21  O   UNL     1     -13.423   9.229  72.473  1.00  0.00    -0.464 OA 
HETATM   22  O   UNL     1     -11.530   7.882  72.918  1.00  0.00    -0.403 OA 
HETATM   23  P   UNL     1     -12.238   8.650  71.661  1.00  0.00    -0.376 P  
ENDBRANCH   4  19
BRANCH  12  24
HETATM   24  O   UNL     1      -8.465  15.775  66.316  1.00  0.00    -0.298 OA 
BRANCH  24  25
HETATM   25  C   UNL     1      -9.530  16.657  66.518  1.00  0.00    -0.266 C  
HETATM   26  O   UNL     1     -10.353  16.979  65.670  1.00  0.00    -0.542 OA 
HETATM   27  N   UNL     1      -9.656  17.008  67.857  1.00  0.00    -0.245 N  
BRANCH  27  28
HETATM   28  C   UNL     1      -8.508  17.585  68.567  1.00  0.00    -0.280 C  
HETATM   29 CL   UNL     1      -6.760  19.619  69.020  1.00  0.00    -0.358 Cl 
HETATM   30  C   UNL     1      -8.152  18.993  68.102  1.00  0.00    -0.312 C  
ENDBRANCH  27  28
BRANCH  27  31
HETATM   31  C   UNL     1     -11.004  17.300  68.353  1.00  0.00    -0.171 C  
HETATM   32 CL   UNL     1     -10.767  15.250  70.179  1.00  0.00    -0.301 Cl 
HETATM   33  C   UNL     1     -11.741  16.078  68.929  1.00  0.00    -0.319 C  
ENDBRANCH  27  31
ENDBRANCH  24  25
ENDBRANCH  12  24
TORSDOF 5
ENDMDL
MODEL        7
REMARK 921   NORMALIZED FREE ENERGY PREDICTED BY IDOCK:   -7.01 KCAL/MOL
REMARK 922        TOTAL FREE ENERGY PREDICTED BY IDOCK:   -9.84 KCAL/MOL
REMARK 923 INTER-LIGAND FREE ENERGY PREDICTED BY IDOCK:   -8.93 KCAL/MOL
REMARK 924 INTRA-LIGAND FREE ENERGY PREDICTED BY IDOCK:   -0.91 KCAL/MOL
REMARK 927      BINDING AFFINITY PREDICTED BY RF-SCORE:    0.00 PKD
ROOT
HETATM    1  C   UNL     1     -11.868   7.870  72.198  1.00  0.00    -0.384 C  
HETATM    2  C   UNL     1     -13.175   7.464  71.812  1.00  0.00    -0.371 C  
HETATM    3  C   UNL     1     -12.146   6.913  70.864  1.00  0.00    -0.424 C  
HETATM    4  C   UNL     1     -10.184   7.122  71.447  1.00  0.00    -0.192 C  
HETATM    5  C   UNL     1     -11.103   6.189  71.821  1.00  0.00    -0.327 C  
HETATM    6  C   UNL     1     -10.124   9.911  67.340  1.00  0.00    -0.254 A  
HETATM    7  C   UNL     1     -10.610   5.770  70.014  1.00  0.00    -0.380 C  
HETATM    8  C   UNL     1     -11.406   9.179  71.018  1.00  0.00    -0.377 C  
HETATM    9  C   UNL     1     -11.231   5.096  72.834  1.00  0.00    -0.362 C  
HETATM   10  C   UNL     1     -10.324   7.282  69.074  1.00  0.00    -0.208 C  
HETATM   11  C   UNL     1      -9.919  11.045  66.534  1.00  0.00    -0.253 A  
HETATM   12  C   UNL     1     -10.327  12.299  66.981  1.00  0.00    -0.219 A  
HETATM   13  C   UNL     1     -12.475  10.290  70.984  1.00  0.00    -0.484 C  
HETATM   14  C   UNL     1     -11.115   8.759  69.418  1.00  0.00     0.049 C  
HETATM   15  C   UNL     1     -10.729  10.012  68.606  1.00  0.00    -0.256 A  
HETATM   16  C   UNL     1     -11.190  11.292  69.015  1.00  0.00    -0.321 A  
HETATM   17  C   UNL     1     -10.971  12.422  68.205  1.00  0.00    -0.263 A  
HETATM   18  C   UNL     1     -11.935  11.543  70.304  1.00  0.00    -0.455 C  
ENDROOT
BRANCH   4  19
HETATM   19  O   UNL     1      -9.041   6.104  71.743  1.00  0.00    -0.145 OA 
HETATM   20  O   UNL     1      -7.849   6.403  73.687  1.00  0.00    -0.093 OA 
HETATM   21  O   UNL     1      -5.926   6.843  72.448  1.00  0.00    -0.041 OA 
HETATM   22  O   UNL     1      -7.152   4.890  71.921  1.00  0.00    -0.058 OA 
HETATM   23  P   UNL     1      -7.397   6.494  72.115  1.00  0.00    -0.092 P  
ENDBRANCH   4  19
BRANCH  12  24
HETATM   24  O   UNL     1     -10.152  13.406  66.130  1.00  0.00    -0.289 OA 
BRANCH  24  25
HETATM   25  C   UNL     1     -11.013  14.485  66.346  1.00  0.00    -0.324 C  
HETATM   26  O   UNL     1     -12.231  14.455  66.222  1.00  0.00    -0.412 OA 
HETATM   27  N   UNL     1     -10.341  15.574  66.889  1.00  0.00    -0.284 N  
BRANCH  27  28
HETATM   28  C   UNL     1      -9.167  16.121  66.198  1.00  0.00    -0.347 C  
HETATM   29 CL   UNL     1      -7.141  17.925  65.999  1.00  0.00    -0.337 Cl 
HETATM   30  C   UNL     1      -8.562  17.333  66.897  1.00  0.00    -0.240 C  
ENDBRANCH  27  28
BRANCH  27  31
HETATM   31  C   UNL     1     -11.096  16.454  67.787  1.00  0.00    -0.199 C  
HETATM   32 CL   UNL     1      -9.661  15.484  69.930  1.00  0.00    -0.259 Cl 
HETATM   33  C   UNL     1     -11.245  15.912  69.219  1.00  0.00    -0.335 C  
ENDBRANCH  27  31
ENDBRANCH  24  25
ENDBRANCH  12  24
TORSDOF 5
ENDMDL
MODEL        8
REMARK 921   NORMALIZED FREE ENERGY PREDICTED BY IDOCK:   -6.99 KCAL/MOL
REMARK 922        TOTAL FREE ENERGY PREDICTED BY IDOCK:   -9.82 KCAL/MOL
REMARK 923 INTER-LIGAND FREE ENERGY PREDICTED BY IDOCK:   -9.19 KCAL/MOL
REMARK 924 INTRA-LIGAND FREE ENERGY PREDICTED BY IDOCK:   -0.62 KCAL/MOL
REMARK 927      BINDING AFFINITY PREDICTED BY RF-SCORE:    0.00 PKD
ROOT
HETATM    1  C   UNL     1     -10.646   7.950  67.347  1.00  0.00    -0.342 C  
HETATM    2  C   UNL     1      -9.589   7.366  66.597  1.00  0.00    -0.251 C  
HETATM    3  C   UNL     1      -9.071   7.941  67.886  1.00  0.00    -0.133 C  
HETATM    4  C   UNL     1     -10.498   8.533  69.243  1.00  0.00    -0.215 C  
HETATM    5  C   UNL     1     -10.007   7.287  68.992  1.00  0.00    -0.177 C  
HETATM    6  C   UNL     1      -8.382  12.926  68.309  1.00  0.00    -0.157 A  
HETATM    7  C   UNL     1      -8.618   8.243  69.909  1.00  0.00    -0.125 C  
HETATM    8  C   UNL     1     -10.443   9.748  67.140  1.00  0.00    -0.316 C  
HETATM    9  C   UNL     1     -10.315   5.873  69.367  1.00  0.00    -0.313 C  
HETATM   10  C   UNL     1      -8.610   9.975  69.406  1.00  0.00    -0.182 C  
HETATM   11  C   UNL     1      -8.292  14.280  67.940  1.00  0.00    -0.162 A  
HETATM   12  C   UNL     1      -8.974  14.741  66.817  1.00  0.00    -0.266 A  
HETATM   13  C   UNL     1     -10.388  10.126  65.645  1.00  0.00    -0.210 C  
HETATM   14  C   UNL     1      -9.128  10.501  67.863  1.00  0.00    -0.136 C  
HETATM   15  C   UNL     1      -9.161  12.016  67.571  1.00  0.00    -0.177 A  
HETATM   16  C   UNL     1      -9.800  12.497  66.396  1.00  0.00    -0.260 A  
HETATM   17  C   UNL     1      -9.710  13.857  66.042  1.00  0.00    -0.270 A  
HETATM   18  C   UNL     1     -10.595  11.625  65.455  1.00  0.00    -0.329 C  
ENDROOT
BRANCH   4  19
HETATM   19  O   UNL     1     -10.835   8.097  70.702  1.00  0.00    -0.225 OA 
HETATM   20  O   UNL     1     -12.965   7.330  71.103  1.00  0.00    -0.346 OA 
HETATM   21  O   UNL     1     -13.364   9.149  72.503  1.00  0.00    -0.458 OA 
HETATM   22  O   UNL     1     -11.399   7.885  72.873  1.00  0.00    -0.406 OA 
HETATM   23  P   UNL     1     -12.170   8.652  71.653  1.00  0.00    -0.376 P  
ENDBRANCH   4  19
BRANCH  12  24
HETATM   24  O   UNL     1      -8.822  16.091  66.446  1.00  0.00    -0.267 OA 
BRANCH  24  25
HETATM   25  C   UNL     1      -8.658  16.998  67.497  1.00  0.00    -0.205 C  
HETATM   26  O   UNL     1      -7.584  17.350  67.968  1.00  0.00    -0.195 OA 
HETATM   27  N   UNL     1      -9.863  17.597  67.846  1.00  0.00    -0.288 N  
BRANCH  27  28
HETATM   28  C   UNL     1     -11.013  16.759  68.206  1.00  0.00    -0.327 C  
HETATM   29 CL   UNL     1     -12.390  15.237  69.991  1.00  0.00    -0.374 Cl 
HETATM   30  C   UNL     1     -10.957  16.233  69.636  1.00  0.00    -0.346 C  
ENDBRANCH  27  28
BRANCH  27  31
HETATM   31  C   UNL     1      -9.810  18.969  68.360  1.00  0.00    -0.392 C  
HETATM   32 CL   UNL     1     -10.641  19.912  65.908  1.00  0.00    -0.586 Cl 
HETATM   33  C   UNL     1      -9.510  20.031  67.288  1.00  0.00    -0.381 C  
ENDBRANCH  27  31
ENDBRANCH  24  25
ENDBRANCH  12  24
TORSDOF 5
ENDMDL
MODEL        9
REMARK 921   NORMALIZED FREE ENERGY PREDICTED BY IDOCK:   -6.96 KCAL/MOL
REMARK 922        TOTAL FREE ENERGY PREDICTED BY IDOCK:   -9.78 KCAL/MOL
REMARK 923 INTER-LIGAND FREE ENERGY PREDICTED BY IDOCK:   -9.08 KCAL/MOL
REMARK 924 INTRA-LIGAND FREE ENERGY PREDICTED BY IDOCK:   -0.70 KCAL/MOL
REMARK 927      BINDING AFFINITY PREDICTED BY RF-SCORE:    0.00 PKD
ROOT
HETATM    1  C   UNL     1     -10.195  12.715  65.864  1.00  0.00    -0.290 C  
HETATM    2  C   UNL     1     -11.328  12.432  65.052  1.00  0.00    -0.363 C  
HETATM    3  C   UNL     1     -11.728  13.229  66.263  1.00  0.00    -0.412 C  
HETATM    4  C   UNL     1     -10.184  14.007  67.377  1.00  0.00    -0.248 C  
HETATM    5  C   UNL     1     -10.747  14.480  66.230  1.00  0.00    -0.309 C  
HETATM    6  C   UNL     1     -12.159  10.937  70.742  1.00  0.00    -0.469 A  
HETATM    7  C   UNL     1     -12.025  14.789  67.629  1.00  0.00    -0.244 C  
HETATM    8  C   UNL     1     -10.331  11.583  67.285  1.00  0.00    -0.236 C  
HETATM    9  C   UNL     1     -10.479  15.543  65.214  1.00  0.00    -0.437 C  
HETATM   10  C   UNL     1     -11.990  13.436  68.822  1.00  0.00    -0.359 C  
HETATM   11  C   UNL     1     -12.214   9.904  71.694  1.00  0.00    -0.482 A  
HETATM   12  C   UNL     1     -11.592   8.685  71.434  1.00  0.00    -0.293 A  
HETATM   13  C   UNL     1     -10.473  10.122  66.812  1.00  0.00    -0.270 C  
HETATM   14  C   UNL     1     -11.557  11.835  68.405  1.00  0.00    -0.380 C  
HETATM   15  C   UNL     1     -11.476  10.776  69.523  1.00  0.00    -0.365 A  
HETATM   16  C   UNL     1     -10.899   9.505  69.255  1.00  0.00    -0.211 A  
HETATM   17  C   UNL     1     -10.952   8.480  70.220  1.00  0.00    -0.245 A  
HETATM   18  C   UNL     1     -10.212   9.151  67.959  1.00  0.00    -0.258 C  
ENDROOT
BRANCH   4  19
HETATM   19  O   UNL     1      -9.767  15.460  67.761  1.00  0.00    -0.211 OA 
HETATM   20  O   UNL     1      -7.630  16.114  67.222  1.00  0.00    -0.149 OA 
HETATM   21  O   UNL     1      -7.115  16.321  69.484  1.00  0.00    -0.219 OA 
HETATM   22  O   UNL     1      -9.075  17.386  68.700  1.00  0.00    -0.270 OA 
HETATM   23  P   UNL     1      -8.367  15.914  68.670  1.00  0.00    -0.224 P  
ENDBRANCH   4  19
BRANCH  12  24
HETATM   24  O   UNL     1     -11.708   7.655  72.385  1.00  0.00    -0.311 OA 
BRANCH  24  25
HETATM   25  C   UNL     1     -10.529   7.296  73.044  1.00  0.00    -0.310 C  
HETATM   26  O   UNL     1      -9.712   8.080  73.511  1.00  0.00    -0.263 OA 
HETATM   27  N   UNL     1     -10.464   5.925  73.264  1.00  0.00    -0.220 N  
BRANCH  27  28
HETATM   28  C   UNL     1     -10.595   5.001  72.131  1.00  0.00    -0.193 C  
HETATM   29 CL   UNL     1      -9.907   4.179  69.631  1.00  0.00    -0.269 Cl 
HETATM   30  C   UNL     1      -9.692   5.353  70.953  1.00  0.00    -0.180 C  
ENDBRANCH  27  28
BRANCH  27  31
HETATM   31  C   UNL     1      -9.750   5.467  74.460  1.00  0.00    -0.194 C  
HETATM   32 CL   UNL     1      -7.349   5.841  73.162  1.00  0.00    -0.094 Cl 
HETATM   33  C   UNL     1      -8.396   4.798  74.168  1.00  0.00    -0.103 C  
ENDBRANCH  27  31
ENDBRANCH  24  25
ENDBRANCH  12  24
TORSDOF 5
ENDMDL
MODEL       10
REMARK 921   NORMALIZED FREE ENERGY PREDICTED BY IDOCK:   -6.94 KCAL/MOL
REMARK 922        TOTAL FREE ENERGY PREDICTED BY IDOCK:   -9.76 KCAL/MOL
REMARK 923 INTER-LIGAND FREE ENERGY PREDICTED BY IDOCK:   -9.36 KCAL/MOL
REMARK 924 INTRA-LIGAND FREE ENERGY PREDICTED BY IDOCK:   -0.40 KCAL/MOL
REMARK 927      BINDING AFFINITY PREDICTED BY RF-SCORE:    0.00 PKD
ROOT
HETATM    1  C   UNL     1      -9.557  18.044  66.000  1.00  0.00    -0.085 C  
HETATM    2  C   UNL     1     -10.777  18.677  65.634  1.00  0.00    -0.129 C  
HETATM    3  C   UNL     1     -10.611  18.669  67.128  1.00  0.00    -0.468 C  
HETATM    4  C   UNL     1      -8.763  18.091  67.823  1.00  0.00    -0.251 C  
HETATM    5  C   UNL     1      -9.169  19.302  67.349  1.00  0.00    -0.356 C  
HETATM    6  C   UNL     1     -11.536  14.440  69.729  1.00  0.00    -0.352 A  
HETATM    7  C   UNL     1      -9.977  19.097  69.078  1.00  0.00    -0.422 C  
HETATM    8  C   UNL     1     -10.040  16.403  66.628  1.00  0.00    -0.290 C  
HETATM    9  C   UNL     1      -8.554  20.608  66.960  1.00  0.00    -0.269 C  
HETATM   10  C   UNL     1     -10.441  17.377  69.355  1.00  0.00    -0.077 C  
HETATM   11  C   UNL     1     -11.958  13.127  70.003  1.00  0.00    -0.391 A  
HETATM   12  C   UNL     1     -12.016  12.187  68.976  1.00  0.00    -0.247 A  
HETATM   13  C   UNL     1     -10.906  15.653  65.596  1.00  0.00    -0.336 C  
HETATM   14  C   UNL     1     -10.863  16.308  68.089  1.00  0.00    -0.342 C  
HETATM   15  C   UNL     1     -11.158  14.833  68.432  1.00  0.00    -0.274 A  
HETATM   16  C   UNL     1     -11.281  13.874  67.391  1.00  0.00    -0.330 A  
HETATM   17  C   UNL     1     -11.695  12.558  67.678  1.00  0.00    -0.423 A  
HETATM   18  C   UNL     1     -10.998  14.170  65.938  1.00  0.00    -0.297 C  
ENDROOT
BRANCH   4  19
HETATM   19  O   UNL     1      -7.671  18.801  68.680  1.00  0.00    -0.311 OA 
HETATM   20  O   UNL     1      -5.476  18.346  68.169  1.00  0.00    -0.167 OA 
HETATM   21  O   UNL     1      -5.191  17.344  70.252  1.00  0.00    -0.195 OA 
HETATM   22  O   UNL     1      -6.156  19.502  70.192  1.00  0.00    -0.262 OA 
HETATM   23  P   UNL     1      -6.362  18.032  69.510  1.00  0.00    -0.103 P  
ENDBRANCH   4  19
BRANCH  12  24
HETATM   24  O   UNL     1     -12.489  10.895  69.274  1.00  0.00    -0.392 OA 
BRANCH  24  25
HETATM   25  C   UNL     1     -12.550  10.565  70.630  1.00  0.00    -0.369 C  
HETATM   26  O   UNL     1     -13.404  10.953  71.416  1.00  0.00    -0.295 OA 
HETATM   27  N   UNL     1     -11.612   9.594  70.961  1.00  0.00    -0.329 N  
BRANCH  27  28
HETATM   28  C   UNL     1     -10.193   9.822  70.660  1.00  0.00    -0.220 C  
HETATM   29 CL   UNL     1      -7.644   8.923  70.360  1.00  0.00    -0.076 Cl 
HETATM   30  C   UNL     1      -9.344   8.559  70.748  1.00  0.00    -0.172 C  
ENDBRANCH  27  28
BRANCH  27  31
HETATM   31  C   UNL     1     -11.957   8.664  72.041  1.00  0.00    -0.372 C  
HETATM   32 CL   UNL     1     -12.032   6.594  70.224  1.00  0.00    -0.397 Cl 
HETATM   33  C   UNL     1     -12.799   7.458  71.589  1.00  0.00    -0.367 C  
ENDBRANCH  27  31
ENDBRANCH  24  25
ENDBRANCH  12  24
TORSDOF 5
ENDMDL
MODEL       11
REMARK 921   NORMALIZED FREE ENERGY PREDICTED BY IDOCK:   -6.94 KCAL/MOL
REMARK 922        TOTAL FREE ENERGY PREDICTED BY IDOCK:   -9.76 KCAL/MOL
REMARK 923 INTER-LIGAND FREE ENERGY PREDICTED BY IDOCK:   -9.00 KCAL/MOL
REMARK 924 INTRA-LIGAND FREE ENERGY PREDICTED BY IDOCK:   -0.75 KCAL/MOL
REMARK 927      BINDING AFFINITY PREDICTED BY RF-SCORE:    0.00 PKD
ROOT
HETATM    1  C   UNL     1     -10.626  13.036  64.093  1.00  0.00    -0.421 C  
HETATM    2  C   UNL     1     -11.820  12.574  63.474  1.00  0.00    -0.616 C  
HETATM    3  C   UNL     1     -12.078  12.952  64.906  1.00  0.00    -0.479 C  
HETATM    4  C   UNL     1     -10.550  13.945  65.861  1.00  0.00    -0.293 C  
HETATM    5  C   UNL     1     -11.500  14.430  65.013  1.00  0.00    -0.372 C  
HETATM    6  C   UNL     1     -10.695   9.816  68.614  1.00  0.00    -0.247 A  
HETATM    7  C   UNL     1     -12.395  14.042  66.666  1.00  0.00    -0.408 C  
HETATM    8  C   UNL     1     -10.081  11.665  65.162  1.00  0.00    -0.304 C  
HETATM    9  C   UNL     1     -11.796  15.700  64.283  1.00  0.00    -0.151 C  
HETATM   10  C   UNL     1     -11.696  12.564  67.428  1.00  0.00    -0.432 C  
HETATM   11  C   UNL     1     -10.225   8.653  69.250  1.00  0.00    -0.215 A  
HETATM   12  C   UNL     1      -9.400   7.768  68.560  1.00  0.00    -0.147 A  
HETATM   13  C   UNL     1      -9.960  10.355  64.357  1.00  0.00    -0.388 C  
HETATM   14  C   UNL     1     -10.989  11.295  66.526  1.00  0.00    -0.303 C  
HETATM   15  C   UNL     1     -10.341  10.118  67.287  1.00  0.00    -0.291 A  
HETATM   16  C   UNL     1      -9.548   9.172  66.584  1.00  0.00    -0.263 A  
HETATM   17  C   UNL     1      -9.074   8.016  67.234  1.00  0.00    -0.153 A  
HETATM   18  C   UNL     1      -9.161   9.313  65.132  1.00  0.00    -0.264 C  
ENDROOT
BRANCH   4  19
HETATM   19  O   UNL     1     -10.438  15.351  66.526  1.00  0.00    -0.281 OA 
HETATM   20  O   UNL     1      -8.804  16.760  65.732  1.00  0.00    -0.505 OA 
HETATM   21  O   UNL     1      -7.724  16.682  67.795  1.00  0.00    -0.158 OA 
HETATM   22  O   UNL     1     -10.036  17.178  67.781  1.00  0.00    -0.283 OA 
HETATM   23  P   UNL     1      -9.006  16.054  67.196  1.00  0.00    -0.226 P  
ENDBRANCH   4  19
BRANCH  12  24
HETATM   24  O   UNL     1      -8.987   6.589  69.209  1.00  0.00    -0.131 OA 
BRANCH  24  25
HETATM   25  C   UNL     1      -9.961   5.940  69.972  1.00  0.00    -0.183 C  
HETATM   26  O   UNL     1     -11.111   5.718  69.614  1.00  0.00    -0.372 OA 
HETATM   27  N   UNL     1      -9.425   5.413  71.142  1.00  0.00    -0.153 N  
BRANCH  27  28
HETATM   28  C   UNL     1      -8.700   6.290  72.068  1.00  0.00    -0.134 C  
HETATM   29 CL   UNL     1      -8.648   8.041  74.149  1.00  0.00    -0.306 Cl 
HETATM   30  C   UNL     1      -9.608   7.009  73.060  1.00  0.00    -0.154 C  
ENDBRANCH  27  28
BRANCH  27  31
HETATM   31  C   UNL     1     -10.036   4.189  71.671  1.00  0.00    -0.170 C  
HETATM   32 CL   UNL     1      -7.717   2.805  71.123  1.00  0.00    -0.043 Cl 
HETATM   33  C   UNL     1      -9.501   2.893  71.036  1.00  0.00    -0.157 C  
ENDBRANCH  27  31
ENDBRANCH  24  25
ENDBRANCH  12  24
TORSDOF 5
ENDMDL
MODEL       12
REMARK 921   NORMALIZED FREE ENERGY PREDICTED BY IDOCK:   -6.93 KCAL/MOL
REMARK 922        TOTAL FREE ENERGY PREDICTED BY IDOCK:   -9.74 KCAL/MOL
REMARK 923 INTER-LIGAND FREE ENERGY PREDICTED BY IDOCK:   -8.94 KCAL/MOL
REMARK 924 INTRA-LIGAND FREE ENERGY PREDICTED BY IDOCK:   -0.80 KCAL/MOL
REMARK 927      BINDING AFFINITY PREDICTED BY RF-SCORE:    0.00 PKD
ROOT
HETATM    1  C   UNL     1     -10.284   9.169  66.598  1.00  0.00    -0.328 C  
HETATM    2  C   UNL     1      -9.317   8.738  65.648  1.00  0.00    -0.219 C  
HETATM    3  C   UNL     1      -8.648   9.353  66.845  1.00  0.00    -0.132 C  
HETATM    4  C   UNL     1      -9.865   9.734  68.458  1.00  0.00    -0.156 C  
HETATM    5  C   UNL     1      -9.279   8.566  68.074  1.00  0.00    -0.143 C  
HETATM    6  C   UNL     1      -8.512  14.377  67.336  1.00  0.00    -0.216 A  
HETATM    7  C   UNL     1      -7.874   9.676  68.764  1.00  0.00    -0.081 C  
HETATM    8  C   UNL     1     -10.345  10.982  66.429  1.00  0.00    -0.302 C  
HETATM    9  C   UNL     1      -9.336   7.117  68.441  1.00  0.00    -0.135 C  
HETATM   10  C   UNL     1      -8.171  11.403  68.337  1.00  0.00    -0.151 C  
HETATM   11  C   UNL     1      -8.658  15.737  67.011  1.00  0.00    -0.247 A  
HETATM   12  C   UNL     1      -9.585  16.127  66.048  1.00  0.00    -0.346 A  
HETATM   13  C   UNL     1     -10.610  11.389  64.965  1.00  0.00    -0.359 C  
HETATM   14  C   UNL     1      -9.023  11.885  66.935  1.00  0.00    -0.196 C  
HETATM   15  C   UNL     1      -9.295  13.387  66.714  1.00  0.00    -0.260 A  
HETATM   16  C   UNL     1     -10.191  13.802  65.693  1.00  0.00    -0.326 A  
HETATM   17  C   UNL     1     -10.336  15.168  65.382  1.00  0.00    -0.415 A  
HETATM   18  C   UNL     1     -11.032  12.851  64.875  1.00  0.00    -0.327 C  
ENDROOT
BRANCH   4  19
HETATM   19  O   UNL     1      -9.873   9.234  69.935  1.00  0.00    -0.178 OA 
HETATM   20  O   UNL     1     -11.632   7.901  70.582  1.00  0.00    -0.275 OA 
HETATM   21  O   UNL     1     -12.340   9.545  72.072  1.00  0.00    -0.368 OA 
HETATM   22  O   UNL     1     -10.069   8.891  72.153  1.00  0.00    -0.325 OA 
HETATM   23  P   UNL     1     -11.175   9.398  71.063  1.00  0.00    -0.402 P  
ENDBRANCH   4  19
BRANCH  12  24
HETATM   24  O   UNL     1      -9.671  17.491  65.710  1.00  0.00    -0.534 OA 
BRANCH  24  25
HETATM   25  C   UNL     1      -9.788  18.379  66.782  1.00  0.00    -0.342 C  
HETATM   26  O   UNL     1     -10.722  18.414  67.574  1.00  0.00    -0.424 OA 
HETATM   27  N   UNL     1      -8.628  19.124  66.957  1.00  0.00    -0.283 N  
BRANCH  27  28
HETATM   28  C   UNL     1      -8.092  19.906  65.836  1.00  0.00    -0.248 C  
HETATM   29 CL   UNL     1      -6.148  20.431  64.008  1.00  0.00    -0.316 Cl 
HETATM   30  C   UNL     1      -6.717  19.437  65.372  1.00  0.00    -0.269 C  
ENDBRANCH  27  28
BRANCH  27  31
HETATM   31  C   UNL     1      -8.292  19.539  68.323  1.00  0.00    -0.340 C  
HETATM   32 CL   UNL     1      -6.071  17.909  68.263  1.00  0.00    -0.174 Cl 
HETATM   33  C   UNL     1      -7.527  18.477  69.132  1.00  0.00    -0.123 C  
ENDBRANCH  27  31
ENDBRANCH  24  25
ENDBRANCH  12  24
TORSDOF 5
ENDMDL
MODEL       13
REMARK 921   NORMALIZED FREE ENERGY PREDICTED BY IDOCK:   -6.92 KCAL/MOL
REMARK 922        TOTAL FREE ENERGY PREDICTED BY IDOCK:   -9.72 KCAL/MOL
REMARK 923 INTER-LIGAND FREE ENERGY PREDICTED BY IDOCK:   -8.82 KCAL/MOL
REMARK 924 INTRA-LIGAND FREE ENERGY PREDICTED BY IDOCK:   -0.90 KCAL/MOL
REMARK 927      BINDING AFFINITY PREDICTED BY RF-SCORE:    0.00 PKD
ROOT
HETATM    1  C   UNL     1     -12.487  13.453  69.642  1.00  0.00    -0.063 C  
HETATM    2  C   UNL     1     -11.822  14.030  70.760  1.00  0.00    -0.289 C  
HETATM    3  C   UNL     1     -10.827  13.550  69.740  1.00  0.00     0.264 C  
HETATM    4  C   UNL     1     -11.606  12.987  67.921  1.00  0.00    -0.342 C  
HETATM    5  C   UNL     1     -11.314  14.233  68.390  1.00  0.00    -0.309 C  
HETATM    6  C   UNL     1      -9.759   8.625  69.408  1.00  0.00    -0.176 A  
HETATM    7  C   UNL     1      -9.632  13.382  68.028  1.00  0.00    -0.219 C  
HETATM    8  C   UNL     1     -12.279  11.654  69.838  1.00  0.00    -0.310 C  
HETATM    9  C   UNL     1     -11.535  15.655  67.984  1.00  0.00    -0.294 C  
HETATM   10  C   UNL     1      -9.718  11.625  68.427  1.00  0.00    -0.199 C  
HETATM   11  C   UNL     1      -9.740   7.256  69.728  1.00  0.00    -0.166 A  
HETATM   12  C   UNL     1     -10.767   6.706  70.491  1.00  0.00    -0.247 A  
HETATM   13  C   UNL     1     -12.768  11.192  71.226  1.00  0.00    -0.531 C  
HETATM   14  C   UNL     1     -10.749  10.991  69.636  1.00  0.00    -0.193 C  
HETATM   15  C   UNL     1     -10.806   9.462  69.833  1.00  0.00    -0.259 A  
HETATM   16  C   UNL     1     -11.812   8.892  70.658  1.00  0.00    -0.159 A  
HETATM   17  C   UNL     1     -11.788   7.517  70.965  1.00  0.00    -0.319 A  
HETATM   18  C   UNL     1     -12.949   9.679  71.263  1.00  0.00    -0.446 C  
ENDROOT
BRANCH   4  19
HETATM   19  O   UNL     1     -11.392  13.495  66.462  1.00  0.00    -0.304 OA 
HETATM   20  O   UNL     1     -13.274  14.013  65.246  1.00  0.00    -0.782 OA 
HETATM   21  O   UNL     1     -12.801  12.279  63.763  1.00  0.00    -0.735 OA 
HETATM   22  O   UNL     1     -11.067  13.810  64.256  1.00  0.00    -0.372 OA 
HETATM   23  P   UNL     1     -12.136  12.853  65.038  1.00  0.00    -0.483 P  
ENDBRANCH   4  19
BRANCH  12  24
HETATM   24  O   UNL     1     -10.692   5.343  70.836  1.00  0.00    -0.238 OA 
BRANCH  24  25
HETATM   25  C   UNL     1      -9.535   4.947  71.511  1.00  0.00    -0.154 C  
HETATM   26  O   UNL     1      -8.423   4.842  71.009  1.00  0.00    -0.106 OA 
HETATM   27  N   UNL     1      -9.753   4.844  72.880  1.00  0.00    -0.143 N  
BRANCH  27  28
HETATM   28  C   UNL     1     -10.832   3.984  73.381  1.00  0.00    -0.236 C  
HETATM   29 CL   UNL     1     -11.989   1.541  73.685  1.00  0.00    -0.308 Cl 
HETATM   30  C   UNL     1     -10.644   2.511  73.033  1.00  0.00    -0.153 C  
ENDBRANCH  27  28
BRANCH  27  31
HETATM   31  C   UNL     1      -8.621   5.134  73.767  1.00  0.00    -0.110 C  
HETATM   32 CL   UNL     1      -9.360   7.788  73.829  1.00  0.00    -0.337 Cl 
HETATM   33  C   UNL     1      -8.070   6.565  73.636  1.00  0.00    -0.103 C  
ENDBRANCH  27  31
ENDBRANCH  24  25
ENDBRANCH  12  24
TORSDOF 5
ENDMDL
MODEL       14
REMARK 921   NORMALIZED FREE ENERGY PREDICTED BY IDOCK:   -6.90 KCAL/MOL
REMARK 922        TOTAL FREE ENERGY PREDICTED BY IDOCK:   -9.71 KCAL/MOL
REMARK 923 INTER-LIGAND FREE ENERGY PREDICTED BY IDOCK:   -8.37 KCAL/MOL
REMARK 924 INTRA-LIGAND FREE ENERGY PREDICTED BY IDOCK:   -1.33 KCAL/MOL
REMARK 927      BINDING AFFINITY PREDICTED BY RF-SCORE:    0.00 PKD
ROOT
HETATM    1  C   UNL     1     -10.889  12.751  64.076  1.00  0.00    -0.458 C  
HETATM    2  C   UNL     1     -12.068  12.023  63.759  1.00  0.00    -0.599 C  
HETATM    3  C   UNL     1     -12.153  12.593  65.147  1.00  0.00    -0.508 C  
HETATM    4  C   UNL     1     -10.687  13.943  65.656  1.00  0.00    -0.290 C  
HETATM    5  C   UNL     1     -11.831  14.136  64.941  1.00  0.00    -0.407 C  
HETATM    6  C   UNL     1      -9.668  10.354  68.931  1.00  0.00    -0.203 A  
HETATM    7  C   UNL     1     -12.366  13.902  66.769  1.00  0.00    -0.370 C  
HETATM    8  C   UNL     1      -9.949  11.672  65.203  1.00  0.00    -0.297 C  
HETATM    9  C   UNL     1     -12.456  15.210  64.110  1.00  0.00     0.005 C  
HETATM   10  C   UNL     1     -11.308  12.690  67.584  1.00  0.00    -0.362 C  
HETATM   11  C   UNL     1      -8.908   9.394  69.623  1.00  0.00    -0.178 A  
HETATM   12  C   UNL     1      -8.064   8.537  68.920  1.00  0.00    -0.119 A  
HETATM   13  C   UNL     1      -9.734  10.279  64.579  1.00  0.00    -0.395 C  
HETATM   14  C   UNL     1     -10.546  11.405  66.750  1.00  0.00    -0.298 C  
HETATM   15  C   UNL     1      -9.591  10.479  67.532  1.00  0.00    -0.181 A  
HETATM   16  C   UNL     1      -8.770   9.556  66.831  1.00  0.00    -0.136 A  
HETATM   17  C   UNL     1      -8.005   8.605  67.535  1.00  0.00    -0.106 A  
HETATM   18  C   UNL     1      -8.653   9.508  65.327  1.00  0.00    -0.175 C  
ENDROOT
BRANCH   4  19
HETATM   19  O   UNL     1     -10.714  15.441  66.088  1.00  0.00    -0.304 OA 
HETATM   20  O   UNL     1      -8.792  16.661  65.765  1.00  0.00    -0.493 OA 
HETATM   21  O   UNL     1      -8.564  16.924  68.068  1.00  0.00    -0.204 OA 
HETATM   22  O   UNL     1     -10.657  17.452  67.102  1.00  0.00    -0.331 OA 
HETATM   23  P   UNL     1      -9.579  16.224  67.133  1.00  0.00    -0.245 P  
ENDBRANCH   4  19
BRANCH  12  24
HETATM   24  O   UNL     1      -7.355   7.556  69.637  1.00  0.00    -0.085 OA 
BRANCH  24  25
HETATM   25  C   UNL     1      -8.132   6.613  70.315  1.00  0.00    -0.121 C  
HETATM   26  O   UNL     1      -8.456   6.677  71.494  1.00  0.00    -0.120 OA 
HETATM   27  N   UNL     1      -8.648   5.659  69.446  1.00  0.00    -0.106 N  
BRANCH  27  28
HETATM   28  C   UNL     1      -7.740   4.894  68.583  1.00  0.00    -0.077 C  
HETATM   29 CL   UNL     1      -7.005   3.937  66.146  1.00  0.00    -0.061 Cl 
HETATM   30  C   UNL     1      -8.165   4.875  67.119  1.00  0.00    -0.106 C  
ENDBRANCH  27  28
BRANCH  27  31
HETATM   31  C   UNL     1      -9.950   5.072  69.784  1.00  0.00    -0.249 C  
HETATM   32 CL   UNL     1     -11.134   6.580  67.805  1.00  0.00    -0.395 Cl 
HETATM   33  C   UNL     1     -11.149   5.992  69.494  1.00  0.00    -0.398 C  
ENDBRANCH  27  31
ENDBRANCH  24  25
ENDBRANCH  12  24
TORSDOF 5
ENDMDL
MODEL       15
REMARK 921   NORMALIZED FREE ENERGY PREDICTED BY IDOCK:   -6.88 KCAL/MOL
REMARK 922        TOTAL FREE ENERGY PREDICTED BY IDOCK:   -9.68 KCAL/MOL
REMARK 923 INTER-LIGAND FREE ENERGY PREDICTED BY IDOCK:   -8.96 KCAL/MOL
REMARK 924 INTRA-LIGAND FREE ENERGY PREDICTED BY IDOCK:   -0.72 KCAL/MOL
REMARK 927      BINDING AFFINITY PREDICTED BY RF-SCORE:    0.00 PKD
ROOT
HETATM    1  C   UNL     1     -10.539  12.963  64.364  1.00  0.00    -0.418 C  
HETATM    2  C   UNL     1     -11.636  12.241  63.819  1.00  0.00    -0.555 C  
HETATM    3  C   UNL     1     -11.991  12.810  65.164  1.00  0.00    -0.466 C  
HETATM    4  C   UNL     1     -10.646  14.152  65.955  1.00  0.00    -0.298 C  
HETATM    5  C   UNL     1     -11.625  14.352  65.029  1.00  0.00    -0.374 C  
HETATM    6  C   UNL     1     -10.314  10.553  69.359  1.00  0.00    -0.258 A  
HETATM    7  C   UNL     1     -12.513  14.119  66.715  1.00  0.00    -0.200 C  
HETATM    8  C   UNL     1      -9.846  11.877  65.653  1.00  0.00    -0.266 C  
HETATM    9  C   UNL     1     -12.069  15.430  64.093  1.00  0.00    -0.104 C  
HETATM   10  C   UNL     1     -11.643  12.900  67.720  1.00  0.00    -0.391 C  
HETATM   11  C   UNL     1      -9.710   9.589  70.186  1.00  0.00    -0.289 A  
HETATM   12  C   UNL     1      -8.749   8.728  69.662  1.00  0.00    -0.136 A  
HETATM   13  C   UNL     1      -9.520  10.483  65.080  1.00  0.00    -0.296 C  
HETATM   14  C   UNL     1     -10.739  11.612  67.051  1.00  0.00    -0.292 C  
HETATM   15  C   UNL     1      -9.962  10.680  68.003  1.00  0.00    -0.180 A  
HETATM   16  C   UNL     1      -9.023   9.752  67.477  1.00  0.00    -0.138 A  
HETATM   17  C   UNL     1      -8.417   8.797  68.316  1.00  0.00    -0.130 A  
HETATM   18  C   UNL     1      -8.612   9.705  66.026  1.00  0.00    -0.144 C  
ENDROOT
BRANCH   4  19
HETATM   19  O   UNL     1     -10.750  15.649  66.376  1.00  0.00    -0.306 OA 
HETATM   20  O   UNL     1      -9.088  17.061  65.649  1.00  0.00    -0.500 OA 
HETATM   21  O   UNL     1      -8.413  17.413  67.850  1.00  0.00    -0.218 OA 
HETATM   22  O   UNL     1     -10.708  17.682  67.347  1.00  0.00    -0.340 OA 
HETATM   23  P   UNL     1      -9.516  16.580  67.154  1.00  0.00    -0.252 P  
ENDBRANCH   4  19
BRANCH  12  24
HETATM   24  O   UNL     1      -8.201   7.741  70.503  1.00  0.00    -0.115 OA 
BRANCH  24  25
HETATM   25  C   UNL     1      -8.635   7.761  71.831  1.00  0.00    -0.114 C  
HETATM   26  O   UNL     1      -8.356   8.623  72.655  1.00  0.00    -0.378 OA 
HETATM   27  N   UNL     1      -9.573   6.764  72.076  1.00  0.00    -0.148 N  
BRANCH  27  28
HETATM   28  C   UNL     1      -9.242   5.366  71.776  1.00  0.00    -0.142 C  
HETATM   29 CL   UNL     1      -9.503   3.126  70.256  1.00  0.00    -0.238 Cl 
HETATM   30  C   UNL     1      -9.969   4.819  70.552  1.00  0.00    -0.236 C  
ENDBRANCH  27  28
BRANCH  27  31
HETATM   31  C   UNL     1     -10.599   7.038  73.087  1.00  0.00    -0.318 C  
HETATM   32 CL   UNL     1     -12.452   7.434  71.086  1.00  0.00    -0.361 Cl 
HETATM   33  C   UNL     1     -11.709   7.993  72.613  1.00  0.00    -0.358 C  
ENDBRANCH  27  31
ENDBRANCH  24  25
ENDBRANCH  12  24
TORSDOF 5
ENDMDL
MODEL       16
REMARK 921   NORMALIZED FREE ENERGY PREDICTED BY IDOCK:   -6.88 KCAL/MOL
REMARK 922        TOTAL FREE ENERGY PREDICTED BY IDOCK:   -9.67 KCAL/MOL
REMARK 923 INTER-LIGAND FREE ENERGY PREDICTED BY IDOCK:   -8.37 KCAL/MOL
REMARK 924 INTRA-LIGAND FREE ENERGY PREDICTED BY IDOCK:   -1.31 KCAL/MOL
REMARK 927      BINDING AFFINITY PREDICTED BY RF-SCORE:    0.00 PKD
ROOT
HETATM    1  C   UNL     1     -10.561  13.039  64.143  1.00  0.00    -0.421 C  
HETATM    2  C   UNL     1     -11.750  12.647  63.469  1.00  0.00    -0.604 C  
HETATM    3  C   UNL     1     -12.042  12.993  64.902  1.00  0.00    -0.459 C  
HETATM    4  C   UNL     1     -10.510  13.890  65.940  1.00  0.00    -0.305 C  
HETATM    5  C   UNL     1     -11.408  14.440  65.076  1.00  0.00    -0.373 C  
HETATM    6  C   UNL     1     -10.924   9.691  68.556  1.00  0.00    -0.153 A  
HETATM    7  C   UNL     1     -12.377  14.042  66.684  1.00  0.00    -0.408 C  
HETATM    8  C   UNL     1     -10.111  11.614  65.187  1.00  0.00    -0.304 C  
HETATM    9  C   UNL     1     -11.624  15.744  64.376  1.00  0.00    -0.240 C  
HETATM   10  C   UNL     1     -11.766  12.514  67.423  1.00  0.00    -0.432 C  
HETATM   11  C   UNL     1     -10.526   8.490  69.171  1.00  0.00    -0.217 A  
HETATM   12  C   UNL     1      -9.714   7.592  68.482  1.00  0.00    -0.158 A  
HETATM   13  C   UNL     1     -10.016  10.325  64.346  1.00  0.00    -0.331 C  
HETATM   14  C   UNL     1     -11.081  11.242  66.507  1.00  0.00    -0.280 C  
HETATM   15  C   UNL     1     -10.511  10.017  67.251  1.00  0.00    -0.313 A  
HETATM   16  C   UNL     1      -9.733   9.060  66.547  1.00  0.00    -0.311 A  
HETATM   17  C   UNL     1      -9.332   7.865  67.176  1.00  0.00    -0.190 A  
HETATM   18  C   UNL     1      -9.290   9.227  65.114  1.00  0.00    -0.239 C  
ENDROOT
BRANCH   4  19
HETATM   19  O   UNL     1     -10.363  15.270  66.653  1.00  0.00    -0.268 OA 
HETATM   20  O   UNL     1      -8.622  16.615  65.984  1.00  0.00    -0.429 OA 
HETATM   21  O   UNL     1      -7.655  16.425  68.095  1.00  0.00    -0.148 OA 
HETATM   22  O   UNL     1      -9.936  17.038  67.981  1.00  0.00    -0.263 OA 
HETATM   23  P   UNL     1      -8.933  15.880  67.414  1.00  0.00    -0.202 P  
ENDBRANCH   4  19
BRANCH  12  24
HETATM   24  O   UNL     1      -9.375   6.377  69.107  1.00  0.00    -0.133 OA 
BRANCH  24  25
HETATM   25  C   UNL     1      -8.068   6.285  69.593  1.00  0.00    -0.120 C  
HETATM   26  O   UNL     1      -7.112   5.836  68.974  1.00  0.00    -0.065 OA 
HETATM   27  N   UNL     1      -7.934   6.924  70.821  1.00  0.00    -0.104 N  
BRANCH  27  28
HETATM   28  C   UNL     1      -8.811   6.547  71.935  1.00  0.00    -0.134 C  
HETATM   29 CL   UNL     1     -10.504   7.194  73.964  1.00  0.00    -0.316 Cl 
HETATM   30  C   UNL     1      -9.452   7.741  72.635  1.00  0.00    -0.193 C  
ENDBRANCH  27  28
BRANCH  27  31
HETATM   31  C   UNL     1      -6.633   7.527  71.128  1.00  0.00    -0.039 C  
HETATM   32 CL   UNL     1      -7.539   9.948  70.172  1.00  0.00    -0.176 Cl 
HETATM   33  C   UNL     1      -6.254   8.705  70.213  1.00  0.00    -0.037 C  
ENDBRANCH  27  31
ENDBRANCH  24  25
ENDBRANCH  12  24
TORSDOF 5
ENDMDL
MODEL       17
REMARK 921   NORMALIZED FREE ENERGY PREDICTED BY IDOCK:   -6.88 KCAL/MOL
REMARK 922        TOTAL FREE ENERGY PREDICTED BY IDOCK:   -9.67 KCAL/MOL
REMARK 923 INTER-LIGAND FREE ENERGY PREDICTED BY IDOCK:   -8.93 KCAL/MOL
REMARK 924 INTRA-LIGAND FREE ENERGY PREDICTED BY IDOCK:   -0.74 KCAL/MOL
REMARK 927      BINDING AFFINITY PREDICTED BY RF-SCORE:    0.00 PKD
ROOT
HETATM    1  C   UNL     1     -10.259  12.731  65.668  1.00  0.00    -0.292 C  
HETATM    2  C   UNL     1     -11.439  12.510  64.906  1.00  0.00    -0.367 C  
HETATM    3  C   UNL     1     -11.750  13.292  66.151  1.00  0.00    -0.416 C  
HETATM    4  C   UNL     1     -10.126  13.985  67.207  1.00  0.00    -0.249 C  
HETATM    5  C   UNL     1     -10.725  14.506  66.099  1.00  0.00    -0.310 C  
HETATM    6  C   UNL     1     -12.057  10.911  70.594  1.00  0.00    -0.468 A  
HETATM    7  C   UNL     1     -11.921  14.829  67.565  1.00  0.00    -0.239 C  
HETATM    8  C   UNL     1     -10.371  11.571  67.068  1.00  0.00    -0.254 C  
HETATM    9  C   UNL     1     -10.463  15.583  65.096  1.00  0.00    -0.431 C  
HETATM   10  C   UNL     1     -11.882  13.447  68.724  1.00  0.00    -0.386 C  
HETATM   11  C   UNL     1     -12.107   9.857  71.524  1.00  0.00    -0.496 A  
HETATM   12  C   UNL     1     -11.545   8.623  71.207  1.00  0.00    -0.284 A  
HETATM   13  C   UNL     1     -10.592  10.128  66.570  1.00  0.00    -0.179 C  
HETATM   14  C   UNL     1     -11.532  11.842  68.251  1.00  0.00    -0.370 C  
HETATM   15  C   UNL     1     -11.439  10.753  69.340  1.00  0.00    -0.366 A  
HETATM   16  C   UNL     1     -10.926   9.469  69.016  1.00  0.00    -0.127 A  
HETATM   17  C   UNL     1     -10.972   8.423  69.959  1.00  0.00    -0.194 A  
HETATM   18  C   UNL     1     -10.315   9.121  67.681  1.00  0.00    -0.314 C  
ENDROOT
BRANCH   4  19
HETATM   19  O   UNL     1      -9.636  15.411  67.603  1.00  0.00    -0.209 OA 
HETATM   20  O   UNL     1      -7.473  15.966  67.053  1.00  0.00    -0.201 OA 
HETATM   21  O   UNL     1      -6.931  16.123  69.313  1.00  0.00    -0.189 OA 
HETATM   22  O   UNL     1      -8.843  17.291  68.556  1.00  0.00    -0.257 OA 
HETATM   23  P   UNL     1      -8.208  15.786  68.505  1.00  0.00    -0.191 P  
ENDBRANCH   4  19
BRANCH  12  24
HETATM   24  O   UNL     1     -11.656   7.575  72.140  1.00  0.00    -0.276 OA 
BRANCH  24  25
HETATM   25  C   UNL     1     -10.473   7.201  72.781  1.00  0.00    -0.244 C  
HETATM   26  O   UNL     1      -9.865   7.880  73.600  1.00  0.00    -0.260 OA 
HETATM   27  N   UNL     1     -10.141   5.878  72.509  1.00  0.00    -0.177 N  
BRANCH  27  28
HETATM   28  C   UNL     1     -10.008   5.435  71.117  1.00  0.00    -0.196 C  
HETATM   29 CL   UNL     1      -9.271   3.587  69.262  1.00  0.00    -0.213 Cl 
HETATM   30  C   UNL     1      -9.386   4.049  70.978  1.00  0.00    -0.149 C  
ENDBRANCH  27  28
BRANCH  27  31
HETATM   31  C   UNL     1      -9.425   5.135  73.551  1.00  0.00    -0.133 C  
HETATM   32 CL   UNL     1     -11.505   3.331  73.681  1.00  0.00    -0.233 Cl 
HETATM   33  C   UNL     1     -10.344   4.389  74.536  1.00  0.00    -0.256 C  
ENDBRANCH  27  31
ENDBRANCH  24  25
ENDBRANCH  12  24
TORSDOF 5
ENDMDL
MODEL       18
REMARK 921   NORMALIZED FREE ENERGY PREDICTED BY IDOCK:   -6.84 KCAL/MOL
REMARK 922        TOTAL FREE ENERGY PREDICTED BY IDOCK:   -9.63 KCAL/MOL
REMARK 923 INTER-LIGAND FREE ENERGY PREDICTED BY IDOCK:   -9.03 KCAL/MOL
REMARK 924 INTRA-LIGAND FREE ENERGY PREDICTED BY IDOCK:   -0.60 KCAL/MOL
REMARK 927      BINDING AFFINITY PREDICTED BY RF-SCORE:    0.00 PKD
ROOT
HETATM    1  C   UNL     1     -10.772  12.913  64.156  1.00  0.00    -0.443 C  
HETATM    2  C   UNL     1     -11.945  12.331  63.600  1.00  0.00    -0.633 C  
HETATM    3  C   UNL     1     -12.244  12.956  64.934  1.00  0.00    -0.504 C  
HETATM    4  C   UNL     1     -10.752  14.125  65.733  1.00  0.00    -0.299 C  
HETATM    5  C   UNL     1     -11.683  14.437  64.789  1.00  0.00    -0.420 C  
HETATM    6  C   UNL     1     -10.932  10.554  69.179  1.00  0.00    -0.286 A  
HETATM    7  C   UNL     1     -12.619  14.339  66.462  1.00  0.00    -0.087 C  
HETATM    8  C   UNL     1     -10.243  11.764  65.467  1.00  0.00    -0.291 C  
HETATM    9  C   UNL     1     -11.972  15.552  63.835  1.00  0.00     0.204 C  
HETATM   10  C   UNL     1     -11.926  13.032  67.494  1.00  0.00    -0.360 C  
HETATM   11  C   UNL     1     -10.469   9.531  70.025  1.00  0.00    -0.283 A  
HETATM   12  C   UNL     1      -9.618   8.549  69.525  1.00  0.00    -0.170 A  
HETATM   13  C   UNL     1     -10.088  10.332  64.914  1.00  0.00    -0.346 C  
HETATM   14  C   UNL     1     -11.184  11.631  66.853  1.00  0.00    -0.376 C  
HETATM   15  C   UNL     1     -10.546  10.619  67.827  1.00  0.00    -0.275 A  
HETATM   16  C   UNL     1      -9.725   9.574  67.326  1.00  0.00    -0.215 A  
HETATM   17  C   UNL     1      -9.259   8.559  68.185  1.00  0.00    -0.142 A  
HETATM   18  C   UNL     1      -9.301   9.457  65.882  1.00  0.00    -0.290 C  
ENDROOT
BRANCH   4  19
HETATM   19  O   UNL     1     -10.671  15.629  66.138  1.00  0.00    -0.311 OA 
HETATM   20  O   UNL     1      -8.669  16.703  65.785  1.00  0.00    -0.482 OA 
HETATM   21  O   UNL     1      -8.410  16.991  68.082  1.00  0.00    -0.208 OA 
HETATM   22  O   UNL     1     -10.466  17.648  67.115  1.00  0.00    -0.339 OA 
HETATM   23  P   UNL     1      -9.477  16.348  67.164  1.00  0.00    -0.243 P  
ENDBRANCH   4  19
BRANCH  12  24
HETATM   24  O   UNL     1      -9.212   7.511  70.385  1.00  0.00    -0.156 OA 
BRANCH  24  25
HETATM   25  C   UNL     1     -10.077   6.417  70.473  1.00  0.00    -0.186 C  
HETATM   26  O   UNL     1     -10.260   5.586  69.593  1.00  0.00    -0.216 OA 
HETATM   27  N   UNL     1     -10.593   6.277  71.756  1.00  0.00    -0.219 N  
BRANCH  27  28
HETATM   28  C   UNL     1     -11.294   7.403  72.384  1.00  0.00    -0.297 C  
HETATM   29 CL   UNL     1     -13.445   9.055  72.596  1.00  0.00    -0.477 Cl 
HETATM   30  C   UNL     1     -12.662   7.684  71.771  1.00  0.00    -0.330 C  
ENDBRANCH  27  28
BRANCH  27  31
HETATM   31  C   UNL     1     -10.902   4.918  72.214  1.00  0.00    -0.102 C  
HETATM   32 CL   UNL     1      -9.167   5.245  74.330  1.00  0.00    -0.117 Cl 
HETATM   33  C   UNL     1      -9.753   4.234  72.976  1.00  0.00    -0.128 C  
ENDBRANCH  27  31
ENDBRANCH  24  25
ENDBRANCH  12  24
TORSDOF 5
ENDMDL
MODEL       19
REMARK 921   NORMALIZED FREE ENERGY PREDICTED BY IDOCK:   -6.81 KCAL/MOL
REMARK 922        TOTAL FREE ENERGY PREDICTED BY IDOCK:   -9.59 KCAL/MOL
REMARK 923 INTER-LIGAND FREE ENERGY PREDICTED BY IDOCK:   -9.09 KCAL/MOL
REMARK 924 INTRA-LIGAND FREE ENERGY PREDICTED BY IDOCK:   -0.50 KCAL/MOL
REMARK 927      BINDING AFFINITY PREDICTED BY RF-SCORE:    0.00 PKD
ROOT
HETATM    1  C   UNL     1      -9.366  18.430  65.971  1.00  0.00    -0.012 C  
HETATM    2  C   UNL     1     -10.578  19.091  65.631  1.00  0.00    -0.273 C  
HETATM    3  C   UNL     1     -10.424  18.998  67.124  1.00  0.00    -0.522 C  
HETATM    4  C   UNL     1      -8.586  18.368  67.800  1.00  0.00    -0.267 C  
HETATM    5  C   UNL     1      -8.980  19.607  67.392  1.00  0.00    -0.383 C  
HETATM    6  C   UNL     1     -11.400  14.636  69.475  1.00  0.00    -0.314 A  
HETATM    7  C   UNL     1      -9.804  19.312  69.100  1.00  0.00    -0.398 C  
HETATM    8  C   UNL     1      -9.864  16.760  66.502  1.00  0.00    -0.303 C  
HETATM    9  C   UNL     1      -8.353  20.929  67.082  1.00  0.00    -0.113 C  
HETATM   10  C   UNL     1     -10.282  17.582  69.276  1.00  0.00    -0.180 C  
HETATM   11  C   UNL     1     -11.832  13.313  69.671  1.00  0.00    -0.391 A  
HETATM   12  C   UNL     1     -11.888  12.433  68.593  1.00  0.00    -0.302 A  
HETATM   13  C   UNL     1     -10.727  16.075  65.422  1.00  0.00    -0.399 C  
HETATM   14  C   UNL     1     -10.700  16.589  67.948  1.00  0.00    -0.337 C  
HETATM   15  C   UNL     1     -11.008  15.099  68.206  1.00  0.00    -0.276 A  
HETATM   16  C   UNL     1     -11.129  14.201  67.111  1.00  0.00    -0.315 A  
HETATM   17  C   UNL     1     -11.554  12.874  67.321  1.00  0.00    -0.416 A  
HETATM   18  C   UNL     1     -10.832  14.576  65.680  1.00  0.00    -0.329 C  
ENDROOT
BRANCH   4  19
HETATM   19  O   UNL     1      -7.497  19.022  68.704  1.00  0.00    -0.301 OA 
HETATM   20  O   UNL     1      -5.319  18.372  68.358  1.00  0.00    -0.166 OA 
HETATM   21  O   UNL     1      -5.253  17.432  70.489  1.00  0.00    -0.232 OA 
HETATM   22  O   UNL     1      -6.029  19.657  70.290  1.00  0.00    -0.261 OA 
HETATM   23  P   UNL     1      -6.312  18.183  69.646  1.00  0.00    -0.034 P  
ENDBRANCH   4  19
BRANCH  12  24
HETATM   24  O   UNL     1     -12.372  11.130  68.814  1.00  0.00    -0.539 OA 
BRANCH  24  25
HETATM   25  C   UNL     1     -11.704  10.387  69.790  1.00  0.00    -0.237 C  
HETATM   26  O   UNL     1     -11.774  10.578  70.998  1.00  0.00    -0.338 OA 
HETATM   27  N   UNL     1     -11.067   9.279  69.242  1.00  0.00    -0.085 N  
BRANCH  27  28
HETATM   28  C   UNL     1     -10.112   9.461  68.142  1.00  0.00    -0.181 C  
HETATM   29 CL   UNL     1      -9.236   8.908  65.627  1.00  0.00    -0.278 Cl 
HETATM   30  C   UNL     1     -10.436   8.620  66.912  1.00  0.00    -0.258 C  
ENDBRANCH  27  28
BRANCH  27  31
HETATM   31  C   UNL     1     -10.943   8.087  70.086  1.00  0.00    -0.226 C  
HETATM   32 CL   UNL     1      -8.568   9.057  71.092  1.00  0.00    -0.260 Cl 
HETATM   33  C   UNL     1      -9.490   7.689  70.403  1.00  0.00    -0.164 C  
ENDBRANCH  27  31
ENDBRANCH  24  25
ENDBRANCH  12  24
TORSDOF 5
ENDMDL
MODEL       20
REMARK 921   NORMALIZED FREE ENERGY PREDICTED BY IDOCK:   -6.75 KCAL/MOL
REMARK 922        TOTAL FREE ENERGY PREDICTED BY IDOCK:   -9.50 KCAL/MOL
REMARK 923 INTER-LIGAND FREE ENERGY PREDICTED BY IDOCK:   -8.35 KCAL/MOL
REMARK 924 INTRA-LIGAND FREE ENERGY PREDICTED BY IDOCK:   -1.15 KCAL/MOL
REMARK 927      BINDING AFFINITY PREDICTED BY RF-SCORE:    0.00 PKD
ROOT
HETATM    1  C   UNL     1     -10.462  13.081  64.206  1.00  0.00    -0.424 C  
HETATM    2  C   UNL     1     -11.628  12.609  63.543  1.00  0.00    -0.584 C  
HETATM    3  C   UNL     1     -11.966  13.110  64.919  1.00  0.00    -0.431 C  
HETATM    4  C   UNL     1     -10.470  14.128  65.897  1.00  0.00    -0.306 C  
HETATM    5  C   UNL     1     -11.343  14.572  64.950  1.00  0.00    -0.394 C  
HETATM    6  C   UNL     1     -10.951  10.242  68.950  1.00  0.00    -0.279 A  
HETATM    7  C   UNL     1     -12.360  14.348  66.562  1.00  0.00    -0.272 C  
HETATM    8  C   UNL     1     -10.041  11.785  65.414  1.00  0.00    -0.291 C  
HETATM    9  C   UNL     1     -11.542  15.788  64.103  1.00  0.00    -0.079 C  
HETATM   10  C   UNL     1     -11.767  12.916  67.485  1.00  0.00    -0.422 C  
HETATM   11  C   UNL     1     -10.568   9.120  69.707  1.00  0.00    -0.240 A  
HETATM   12  C   UNL     1      -9.732   8.157  69.147  1.00  0.00    -0.163 A  
HETATM   13  C   UNL     1      -9.915  10.411  64.725  1.00  0.00    -0.409 C  
HETATM   14  C   UNL     1     -11.050  11.555  66.737  1.00  0.00    -0.361 C  
HETATM   15  C   UNL     1     -10.499  10.425  67.630  1.00  0.00    -0.277 A  
HETATM   16  C   UNL     1      -9.696   9.400  67.061  1.00  0.00    -0.233 A  
HETATM   17  C   UNL     1      -9.310   8.285  67.832  1.00  0.00    -0.150 A  
HETATM   18  C   UNL     1      -9.209   9.410  65.633  1.00  0.00    -0.285 C  
ENDROOT
BRANCH   4  19
HETATM   19  O   UNL     1     -10.350  15.579  66.456  1.00  0.00    -0.272 OA 
HETATM   20  O   UNL     1      -8.566  16.836  65.734  1.00  0.00    -0.485 OA 
HETATM   21  O   UNL     1      -7.714  16.885  67.902  1.00  0.00    -0.167 OA 
HETATM   22  O   UNL     1      -9.981  17.486  67.596  1.00  0.00    -0.288 OA 
HETATM   23  P   UNL     1      -8.959  16.268  67.219  1.00  0.00    -0.206 P  
ENDBRANCH   4  19
BRANCH  12  24
HETATM   24  O   UNL     1      -9.408   7.022  69.914  1.00  0.00    -0.151 OA 
BRANCH  24  25
HETATM   25  C   UNL     1     -10.039   5.832  69.541  1.00  0.00    -0.214 C  
HETATM   26  O   UNL     1     -11.238   5.605  69.639  1.00  0.00    -0.267 OA 
HETATM   27  N   UNL     1      -9.165   4.978  68.878  1.00  0.00    -0.109 N  
BRANCH  27  28
HETATM   28  C   UNL     1      -7.905   4.587  69.520  1.00  0.00    -0.058 C  
HETATM   29 CL   UNL     1      -5.194   4.695  69.717  1.00  0.00     0.000 Cl 
HETATM   30  C   UNL     1      -6.674   5.214  68.873  1.00  0.00    -0.050 C  
ENDBRANCH  27  28
BRANCH  27  31
HETATM   31  C   UNL     1      -9.734   4.092  67.857  1.00  0.00    -0.088 C  
HETATM   32 CL   UNL     1      -8.618   5.661  65.886  1.00  0.00    -0.139 Cl 
HETATM   33  C   UNL     1     -10.045   4.790  66.521  1.00  0.00    -0.257 C  
ENDBRANCH  27  31
ENDBRANCH  24  25
ENDBRANCH  12  24
TORSDOF 5
ENDMDL
MODEL       21
REMARK 921   NORMALIZED FREE ENERGY PREDICTED BY IDOCK:   -6.73 KCAL/MOL
REMARK 922        TOTAL FREE ENERGY PREDICTED BY IDOCK:   -9.48 KCAL/MOL
REMARK 923 INTER-LIGAND FREE ENERGY PREDICTED BY IDOCK:   -8.52 KCAL/MOL
REMARK 924 INTRA-LIGAND FREE ENERGY PREDICTED BY IDOCK:   -0.96 KCAL/MOL
REMARK 927      BINDING AFFINITY PREDICTED BY RF-SCORE:    0.00 PKD
ROOT
HETATM    1  C   UNL     1     -12.133   7.548  72.170  1.00  0.00    -0.305 C  
HETATM    2  C   UNL     1     -13.244   7.020  71.456  1.00  0.00    -0.382 C  
HETATM    3  C   UNL     1     -11.964   6.762  70.712  1.00  0.00    -0.433 C  
HETATM    4  C   UNL     1     -10.229   7.162  71.742  1.00  0.00    -0.195 C  
HETATM    5  C   UNL     1     -11.033   6.064  71.795  1.00  0.00    -0.323 C  
HETATM    6  C   UNL     1      -9.797  10.490  68.083  1.00  0.00    -0.169 A  
HETATM    7  C   UNL     1     -10.115   5.982  70.112  1.00  0.00    -0.249 C  
HETATM    8  C   UNL     1     -11.667   9.065  71.275  1.00  0.00    -0.382 C  
HETATM    9  C   UNL     1     -11.180   4.830  72.628  1.00  0.00    -0.146 C  
HETATM   10  C   UNL     1      -9.902   7.638  69.431  1.00  0.00    -0.171 C  
HETATM   11  C   UNL     1      -9.626  11.745  67.473  1.00  0.00    -0.179 A  
HETATM   12  C   UNL     1     -10.324  12.852  67.950  1.00  0.00    -0.231 A  
HETATM   13  C   UNL     1     -12.878  10.006  71.121  1.00  0.00    -0.480 C  
HETATM   14  C   UNL     1     -10.986   8.923  69.746  1.00  0.00    -0.164 C  
HETATM   15  C   UNL     1     -10.659  10.322  69.183  1.00  0.00    -0.254 A  
HETATM   16  C   UNL     1     -11.405  11.451  69.614  1.00  0.00    -0.347 A  
HETATM   17  C   UNL     1     -11.218  12.706  69.002  1.00  0.00    -0.322 A  
HETATM   18  C   UNL     1     -12.431  11.408  70.720  1.00  0.00    -0.460 C  
ENDROOT
BRANCH   4  19
HETATM   19  O   UNL     1      -9.016   6.284  72.177  1.00  0.00    -0.138 OA 
HETATM   20  O   UNL     1      -8.407   6.361  74.393  1.00  0.00    -0.122 OA 
HETATM   21  O   UNL     1      -6.365   7.317  73.807  1.00  0.00    -0.064 OA 
HETATM   22  O   UNL     1      -7.027   5.350  72.672  1.00  0.00    -0.077 OA 
HETATM   23  P   UNL     1      -7.617   6.829  73.038  1.00  0.00    -0.085 P  
ENDBRANCH   4  19
BRANCH  12  24
HETATM   24  O   UNL     1     -10.168  14.083  67.286  1.00  0.00    -0.255 OA 
BRANCH  24  25
HETATM   25  C   UNL     1      -9.390  15.038  67.945  1.00  0.00    -0.183 C  
HETATM   26  O   UNL     1      -8.202  14.921  68.215  1.00  0.00    -0.134 OA 
HETATM   27  N   UNL     1     -10.085  16.230  68.118  1.00  0.00    -0.238 N  
BRANCH  27  28
HETATM   28  C   UNL     1     -11.384  16.221  68.800  1.00  0.00    -0.329 C  
HETATM   29 CL   UNL     1     -12.906  15.896  71.032  1.00  0.00    -0.398 Cl 
HETATM   30  C   UNL     1     -11.290  15.875  70.283  1.00  0.00    -0.372 C  
ENDBRANCH  27  28
BRANCH  27  31
HETATM   31  C   UNL     1      -9.304  17.471  68.119  1.00  0.00    -0.276 C  
HETATM   32 CL   UNL     1     -10.631  18.297  65.849  1.00  0.00    -0.378 Cl 
HETATM   33  C   UNL     1      -9.085  18.077  66.721  1.00  0.00    -0.273 C  
ENDBRANCH  27  31
ENDBRANCH  24  25
ENDBRANCH  12  24
TORSDOF 5
ENDMDL
MODEL       22
REMARK 921   NORMALIZED FREE ENERGY PREDICTED BY IDOCK:   -6.61 KCAL/MOL
REMARK 922        TOTAL FREE ENERGY PREDICTED BY IDOCK:   -9.32 KCAL/MOL
REMARK 923 INTER-LIGAND FREE ENERGY PREDICTED BY IDOCK:   -8.52 KCAL/MOL
REMARK 924 INTRA-LIGAND FREE ENERGY PREDICTED BY IDOCK:   -0.80 KCAL/MOL
REMARK 927      BINDING AFFINITY PREDICTED BY RF-SCORE:    0.00 PKD
ROOT
HETATM    1  C   UNL     1     -10.239   7.362  67.619  1.00  0.00    -0.261 C  
HETATM    2  C   UNL     1      -9.025   6.848  67.087  1.00  0.00    -0.121 C  
HETATM    3  C   UNL     1      -8.766   7.621  68.350  1.00  0.00    -0.127 C  
HETATM    4  C   UNL     1     -10.431   8.160  69.431  1.00  0.00    -0.220 C  
HETATM    5  C   UNL     1      -9.766   6.971  69.401  1.00  0.00    -0.159 C  
HETATM    6  C   UNL     1      -8.735  12.670  68.233  1.00  0.00    -0.169 A  
HETATM    7  C   UNL     1      -8.643   8.197  70.360  1.00  0.00    -0.131 C  
HETATM    8  C   UNL     1     -10.222   9.139  67.216  1.00  0.00    -0.319 C  
HETATM    9  C   UNL     1      -9.955   5.577  69.907  1.00  0.00    -0.282 C  
HETATM   10  C   UNL     1      -8.767   9.850  69.651  1.00  0.00    -0.218 C  
HETATM   11  C   UNL     1      -8.753  13.976  67.713  1.00  0.00    -0.185 A  
HETATM   12  C   UNL     1      -9.319  14.220  66.464  1.00  0.00    -0.271 A  
HETATM   13  C   UNL     1     -10.000   9.358  65.706  1.00  0.00    -0.278 C  
HETATM   14  C   UNL     1      -9.120  10.134  68.002  1.00  0.00    -0.131 C  
HETATM   15  C   UNL     1      -9.289  11.590  67.521  1.00  0.00    -0.166 A  
HETATM   16  C   UNL     1      -9.807  11.853  66.224  1.00  0.00    -0.246 A  
HETATM   17  C   UNL     1      -9.829  13.167  65.717  1.00  0.00    -0.214 A  
HETATM   18  C   UNL     1     -10.353  10.787  65.306  1.00  0.00    -0.327 C  
ENDROOT
BRANCH   4  19
HETATM   19  O   UNL     1     -10.917   7.842  70.878  1.00  0.00    -0.235 OA 
HETATM   20  O   UNL     1     -13.153   7.387  71.157  1.00  0.00    -0.313 OA 
HETATM   21  O   UNL     1     -13.390   9.307  72.455  1.00  0.00    -0.457 OA 
HETATM   22  O   UNL     1     -11.644   7.811  73.010  1.00  0.00    -0.330 OA 
HETATM   23  P   UNL     1     -12.222   8.615  71.711  1.00  0.00    -0.395 P  
ENDBRANCH   4  19
BRANCH  12  24
HETATM   24  O   UNL     1      -9.276  15.530  65.950  1.00  0.00    -0.333 OA 
BRANCH  24  25
HETATM   25  C   UNL     1      -9.731  16.536  66.806  1.00  0.00    -0.258 C  
HETATM   26  O   UNL     1     -10.881  16.654  67.211  1.00  0.00    -0.273 OA 
HETATM   27  N   UNL     1      -8.682  17.308  67.290  1.00  0.00    -0.208 N  
BRANCH  27  28
HETATM   28  C   UNL     1      -7.764  17.959  66.348  1.00  0.00    -0.276 C  
HETATM   29 CL   UNL     1      -5.282  18.308  65.291  1.00  0.00    -0.203 Cl 
HETATM   30  C   UNL     1      -6.322  17.476  66.474  1.00  0.00    -0.226 C  
ENDBRANCH  27  28
BRANCH  27  31
HETATM   31  C   UNL     1      -8.830  17.883  68.631  1.00  0.00    -0.261 C  
HETATM   32 CL   UNL     1     -10.403  19.890  67.588  1.00  0.00    -0.560 Cl 
HETATM   33  C   UNL     1      -9.043  19.407  68.642  1.00  0.00    -0.372 C  
ENDBRANCH  27  31
ENDBRANCH  24  25
ENDBRANCH  12  24
TORSDOF 5
ENDMDL
MODEL       23
REMARK 921   NORMALIZED FREE ENERGY PREDICTED BY IDOCK:   -6.53 KCAL/MOL
REMARK 922        TOTAL FREE ENERGY PREDICTED BY IDOCK:   -9.22 KCAL/MOL
REMARK 923 INTER-LIGAND FREE ENERGY PREDICTED BY IDOCK:   -9.34 KCAL/MOL
REMARK 924 INTRA-LIGAND FREE ENERGY PREDICTED BY IDOCK:    0.12 KCAL/MOL
REMARK 927      BINDING AFFINITY PREDICTED BY RF-SCORE:    0.00 PKD
ROOT
HETATM    1  C   UNL     1     -10.207  13.814  66.105  1.00  0.00    -0.305 C  
HETATM    2  C   UNL     1     -11.360  13.815  65.274  1.00  0.00    -0.310 C  
HETATM    3  C   UNL     1     -11.580  14.675  66.487  1.00  0.00    -0.350 C  
HETATM    4  C   UNL     1      -9.914  15.054  67.633  1.00  0.00    -0.225 C  
HETATM    5  C   UNL     1     -10.329  15.656  66.483  1.00  0.00    -0.296 C  
HETATM    6  C   UNL     1     -12.621  12.518  70.933  1.00  0.00    -0.331 A  
HETATM    7  C   UNL     1     -11.520  16.250  67.867  1.00  0.00    -0.056 C  
HETATM    8  C   UNL     1     -10.632  12.736  67.511  1.00  0.00    -0.240 C  
HETATM    9  C   UNL     1      -9.797  16.633  65.484  1.00  0.00    -0.014 C  
HETATM   10  C   UNL     1     -11.828  14.919  69.044  1.00  0.00    -0.333 C  
HETATM   11  C   UNL     1     -12.936  11.520  71.872  1.00  0.00    -0.453 A  
HETATM   12  C   UNL     1     -12.618  10.190  71.607  1.00  0.00    -0.434 A  
HETATM   13  C   UNL     1     -11.111  11.354  67.019  1.00  0.00    -0.364 C  
HETATM   14  C   UNL     1     -11.782  13.264  68.615  1.00  0.00    -0.376 C  
HETATM   15  C   UNL     1     -11.975  12.208  69.723  1.00  0.00    -0.372 A  
HETATM   16  C   UNL     1     -11.713  10.838  69.448  1.00  0.00    -0.378 A  
HETATM   17  C   UNL     1     -12.025   9.848  70.400  1.00  0.00    -0.271 A  
HETATM   18  C   UNL     1     -11.108  10.341  68.158  1.00  0.00    -0.324 C  
ENDROOT
BRANCH   4  19
HETATM   19  O   UNL     1      -9.170  16.363  68.040  1.00  0.00    -0.201 OA 
HETATM   20  O   UNL     1      -6.996  16.597  67.328  1.00  0.00    -0.143 OA 
HETATM   21  O   UNL     1      -6.259  16.549  69.537  1.00  0.00    -0.184 OA 
HETATM   22  O   UNL     1      -8.011  18.042  68.993  1.00  0.00    -0.199 OA 
HETATM   23  P   UNL     1      -7.634  16.461  68.830  1.00  0.00    -0.230 P  
ENDBRANCH   4  19
BRANCH  12  24
HETATM   24  O   UNL     1     -12.992   9.210  72.545  1.00  0.00    -0.407 OA 
BRANCH  24  25
HETATM   25  C   UNL     1     -12.968   7.889  72.090  1.00  0.00    -0.177 C  
HETATM   26  O   UNL     1     -13.937   7.262  71.682  1.00  0.00    -0.395 OA 
HETATM   27  N   UNL     1     -11.667   7.407  71.994  1.00  0.00    -0.280 N  
BRANCH  27  28
HETATM   28  C   UNL     1     -10.788   7.450  73.169  1.00  0.00    -0.386 C  
HETATM   29 CL   UNL     1      -8.395   8.004  74.338  1.00  0.00    -0.286 Cl 
HETATM   30  C   UNL     1      -9.390   7.975  72.860  1.00  0.00    -0.271 C  
ENDBRANCH  27  28
BRANCH  27  31
HETATM   31  C   UNL     1     -11.392   6.413  70.951  1.00  0.00    -0.338 C  
HETATM   32 CL   UNL     1     -11.226   4.449  72.878  1.00  0.00    -0.204 Cl 
HETATM   33  C   UNL     1     -10.534   5.226  71.424  1.00  0.00    -0.203 C  
ENDBRANCH  27  31
ENDBRANCH  24  25
ENDBRANCH  12  24
TORSDOF 5
ENDMDL
MODEL       24
REMARK 921   NORMALIZED FREE ENERGY PREDICTED BY IDOCK:   -6.49 KCAL/MOL
REMARK 922        TOTAL FREE ENERGY PREDICTED BY IDOCK:   -9.17 KCAL/MOL
REMARK 923 INTER-LIGAND FREE ENERGY PREDICTED BY IDOCK:   -8.10 KCAL/MOL
REMARK 924 INTRA-LIGAND FREE ENERGY PREDICTED BY IDOCK:   -1.07 KCAL/MOL
REMARK 927      BINDING AFFINITY PREDICTED BY RF-SCORE:    0.00 PKD
ROOT
HETATM    1  C   UNL     1     -10.527  12.983  64.702  1.00  0.00    -0.400 C  
HETATM    2  C   UNL     1     -11.649  12.449  64.011  1.00  0.00    -0.488 C  
HETATM    3  C   UNL     1     -12.089  13.211  65.230  1.00  0.00    -0.471 C  
HETATM    4  C   UNL     1     -10.635  14.324  66.167  1.00  0.00    -0.293 C  
HETATM    5  C   UNL     1     -11.379  14.624  65.066  1.00  0.00    -0.390 C  
HETATM    6  C   UNL     1     -11.668  11.097  69.797  1.00  0.00    -0.419 A  
HETATM    7  C   UNL     1     -12.564  14.749  66.571  1.00  0.00     0.428 C  
HETATM    8  C   UNL     1     -10.312  11.915  66.163  1.00  0.00    -0.261 C  
HETATM    9  C   UNL     1     -11.414  15.670  63.998  1.00  0.00     0.119 C  
HETATM   10  C   UNL     1     -12.160  13.487  67.795  1.00  0.00    -0.316 C  
HETATM   11  C   UNL     1     -11.436  10.119  70.780  1.00  0.00    -0.442 A  
HETATM   12  C   UNL     1     -10.613   9.032  70.498  1.00  0.00    -0.227 A  
HETATM   13  C   UNL     1     -10.208  10.433  65.750  1.00  0.00    -0.305 C  
HETATM   14  C   UNL     1     -11.461  11.981  67.387  1.00  0.00    -0.406 C  
HETATM   15  C   UNL     1     -11.076  11.012  68.524  1.00  0.00    -0.297 A  
HETATM   16  C   UNL     1     -10.288   9.864  68.240  1.00  0.00    -0.232 A  
HETATM   17  C   UNL     1     -10.054   8.895  69.235  1.00  0.00    -0.205 A  
HETATM   18  C   UNL     1      -9.662   9.587  66.895  1.00  0.00    -0.237 C  
ENDROOT
BRANCH   4  19
HETATM   19  O   UNL     1     -10.478  15.846  66.466  1.00  0.00    -0.295 OA 
HETATM   20  O   UNL     1      -8.561  16.870  65.716  1.00  0.00    -0.505 OA 
HETATM   21  O   UNL     1      -7.911  17.280  67.915  1.00  0.00    -0.188 OA 
HETATM   22  O   UNL     1     -10.098  17.913  67.278  1.00  0.00    -0.316 OA 
HETATM   23  P   UNL     1      -9.123  16.603  67.231  1.00  0.00    -0.224 P  
ENDBRANCH   4  19
BRANCH  12  24
HETATM   24  O   UNL     1     -10.441   8.045  71.487  1.00  0.00    -0.209 OA 
BRANCH  24  25
HETATM   25  C   UNL     1     -10.969   6.786  71.192  1.00  0.00    -0.257 C  
HETATM   26  O   UNL     1     -12.131   6.561  70.875  1.00  0.00    -0.355 OA 
HETATM   27  N   UNL     1      -9.975   5.816  71.133  1.00  0.00    -0.186 N  
BRANCH  27  28
HETATM   28  C   UNL     1      -9.079   5.624  72.280  1.00  0.00    -0.139 C  
HETATM   29 CL   UNL     1      -6.746   6.107  73.592  1.00  0.00    -0.075 Cl 
HETATM   30  C   UNL     1      -7.765   6.389  72.159  1.00  0.00    -0.099 C  
ENDBRANCH  27  28
BRANCH  27  31
HETATM   31  C   UNL     1     -10.180   4.695  70.211  1.00  0.00    -0.135 C  
HETATM   32 CL   UNL     1      -8.289   5.756  68.511  1.00  0.00    -0.107 Cl 
HETATM   33  C   UNL     1      -9.910   5.036  68.735  1.00  0.00    -0.168 C  
ENDBRANCH  27  31
ENDBRANCH  24  25
ENDBRANCH  12  24
TORSDOF 5
ENDMDL
MODEL       25
REMARK 921   NORMALIZED FREE ENERGY PREDICTED BY IDOCK:   -6.48 KCAL/MOL
REMARK 922        TOTAL FREE ENERGY PREDICTED BY IDOCK:   -9.15 KCAL/MOL
REMARK 923 INTER-LIGAND FREE ENERGY PREDICTED BY IDOCK:   -8.49 KCAL/MOL
REMARK 924 INTRA-LIGAND FREE ENERGY PREDICTED BY IDOCK:   -0.66 KCAL/MOL
REMARK 927      BINDING AFFINITY PREDICTED BY RF-SCORE:    0.00 PKD
ROOT
HETATM    1  C   UNL     1     -12.028  13.384  69.065  1.00  0.00    -0.357 C  
HETATM    2  C   UNL     1     -11.242  14.017  70.067  1.00  0.00    -0.074 C  
HETATM    3  C   UNL     1     -10.364  13.316  69.068  1.00  0.00     0.014 C  
HETATM    4  C   UNL     1     -11.305  12.625  67.374  1.00  0.00    -0.313 C  
HETATM    5  C   UNL     1     -10.864  13.881  67.668  1.00  0.00    -0.264 C  
HETATM    6  C   UNL     1      -9.807   8.302  69.302  1.00  0.00    -0.186 A  
HETATM    7  C   UNL     1      -9.299  12.820  67.333  1.00  0.00    -0.193 C  
HETATM    8  C   UNL     1     -11.986  11.609  69.474  1.00  0.00    -0.383 C  
HETATM    9  C   UNL     1     -10.969  15.259  67.098  1.00  0.00    -0.331 C  
HETATM   10  C   UNL     1      -9.533  11.142  67.953  1.00  0.00    -0.178 C  
HETATM   11  C   UNL     1      -9.903   6.987  69.791  1.00  0.00    -0.171 A  
HETATM   12  C   UNL     1     -10.930   6.643  70.666  1.00  0.00    -0.280 A  
HETATM   13  C   UNL     1     -12.431  11.371  70.931  1.00  0.00    -0.478 C  
HETATM   14  C   UNL     1     -10.544  10.770  69.281  1.00  0.00    -0.261 C  
HETATM   15  C   UNL     1     -10.739   9.290  69.670  1.00  0.00    -0.244 A  
HETATM   16  C   UNL     1     -11.743   8.931  70.609  1.00  0.00    -0.212 A  
HETATM   17  C   UNL     1     -11.835   7.608  71.084  1.00  0.00    -0.314 A  
HETATM   18  C   UNL     1     -12.758   9.900  71.166  1.00  0.00    -0.462 C  
ENDROOT
BRANCH   4  19
HETATM   19  O   UNL     1     -11.133  12.930  65.854  1.00  0.00    -0.276 OA 
HETATM   20  O   UNL     1     -12.935  13.844  64.758  1.00  0.00    -0.686 OA 
HETATM   21  O   UNL     1     -13.117  11.930  63.443  1.00  0.00    -0.710 OA 
HETATM   22  O   UNL     1     -10.992  12.956  63.606  1.00  0.00    -0.401 OA 
HETATM   23  P   UNL     1     -12.180  12.402  64.582  1.00  0.00    -0.339 P  
ENDBRANCH   4  19
BRANCH  12  24
HETATM   24  O   UNL     1     -10.968   5.332  71.175  1.00  0.00    -0.131 OA 
BRANCH  24  25
HETATM   25  C   UNL     1     -11.359   5.206  72.510  1.00  0.00    -0.122 C  
HETATM   26  O   UNL     1     -12.515   5.225  72.915  1.00  0.00     0.016 OA 
HETATM   27  N   UNL     1     -10.283   4.884  73.329  1.00  0.00    -0.160 N  
BRANCH  27  28
HETATM   28  C   UNL     1      -9.091   5.740  73.332  1.00  0.00    -0.132 C  
HETATM   29 CL   UNL     1      -7.870   8.128  73.788  1.00  0.00    -0.234 Cl 
HETATM   30  C   UNL     1      -9.367   7.163  73.806  1.00  0.00    -0.232 C  
ENDBRANCH  27  28
BRANCH  27  31
HETATM   31  C   UNL     1     -10.559   4.065  74.514  1.00  0.00    -0.169 C  
HETATM   32 CL   UNL     1      -9.414   1.890  73.268  1.00  0.00    -0.087 Cl 
HETATM   33  C   UNL     1     -10.772   2.571  74.211  1.00  0.00    -0.139 C  
ENDBRANCH  27  31
ENDBRANCH  24  25
ENDBRANCH  12  24
TORSDOF 5
ENDMDL
MODEL       26
REMARK 921   NORMALIZED FREE ENERGY PREDICTED BY IDOCK:   -6.40 KCAL/MOL
REMARK 922        TOTAL FREE ENERGY PREDICTED BY IDOCK:   -9.05 KCAL/MOL
REMARK 923 INTER-LIGAND FREE ENERGY PREDICTED BY IDOCK:   -8.14 KCAL/MOL
REMARK 924 INTRA-LIGAND FREE ENERGY PREDICTED BY IDOCK:   -0.91 KCAL/MOL
REMARK 927      BINDING AFFINITY PREDICTED BY RF-SCORE:    0.00 PKD
ROOT
HETATM    1  C   UNL     1      -9.814  12.022  65.713  1.00  0.00    -0.263 C  
HETATM    2  C   UNL     1     -10.759  11.341  64.897  1.00  0.00    -0.337 C  
HETATM    3  C   UNL     1     -11.456  12.133  65.968  1.00  0.00    -0.427 C  
HETATM    4  C   UNL     1     -10.274  13.436  67.034  1.00  0.00    -0.249 C  
HETATM    5  C   UNL     1     -10.849  13.594  65.809  1.00  0.00    -0.274 C  
HETATM    6  C   UNL     1     -11.613  10.359  70.694  1.00  0.00    -0.440 A  
HETATM    7  C   UNL     1     -12.271  13.699  67.094  1.00  0.00    -0.340 C  
HETATM    8  C   UNL     1      -9.753  11.074  67.267  1.00  0.00    -0.188 C  
HETATM    9  C   UNL     1     -10.796  14.562  64.671  1.00  0.00    -0.351 C  
HETATM   10  C   UNL     1     -11.969  12.561  68.460  1.00  0.00    -0.266 C  
HETATM   11  C   UNL     1     -11.464   9.472  71.774  1.00  0.00    -0.349 A  
HETATM   12  C   UNL     1     -10.517   8.452  71.710  1.00  0.00    -0.283 A  
HETATM   13  C   UNL     1      -9.458   9.585  66.992  1.00  0.00    -0.197 C  
HETATM   14  C   UNL     1     -11.089  11.106  68.285  1.00  0.00    -0.310 C  
HETATM   15  C   UNL     1     -10.815  10.251  69.540  1.00  0.00    -0.292 A  
HETATM   16  C   UNL     1      -9.898   9.168  69.474  1.00  0.00    -0.182 A  
HETATM   17  C   UNL     1      -9.750   8.290  70.565  1.00  0.00    -0.185 A  
HETATM   18  C   UNL     1      -9.038   8.868  68.270  1.00  0.00    -0.140 C  
ENDROOT
BRANCH   4  19
HETATM   19  O   UNL     1     -10.297  14.982  67.235  1.00  0.00    -0.245 OA 
HETATM   20  O   UNL     1      -8.440  16.155  66.556  1.00  0.00    -0.251 OA 
HETATM   21  O   UNL     1      -8.012  16.770  68.762  1.00  0.00    -0.231 OA 
HETATM   22  O   UNL     1     -10.195  17.124  67.924  1.00  0.00    -0.299 OA 
HETATM   23  P   UNL     1      -9.091  15.926  68.041  1.00  0.00    -0.186 P  
ENDBRANCH   4  19
BRANCH  12  24
HETATM   24  O   UNL     1     -10.427   7.550  72.787  1.00  0.00    -0.238 OA 
BRANCH  24  25
HETATM   25  C   UNL     1     -10.869   6.250  72.533  1.00  0.00    -0.240 C  
HETATM   26  O   UNL     1     -12.032   5.923  72.331  1.00  0.00    -0.298 OA 
HETATM   27  N   UNL     1      -9.804   5.372  72.367  1.00  0.00    -0.161 N  
BRANCH  27  28
HETATM   28  C   UNL     1      -8.785   5.259  73.417  1.00  0.00    -0.115 C  
HETATM   29 CL   UNL     1      -6.222   5.512  74.293  1.00  0.00    -0.062 Cl 
HETATM   30  C   UNL     1      -7.391   5.671  72.957  1.00  0.00    -0.092 C  
ENDBRANCH  27  28
BRANCH  27  31
HETATM   31  C   UNL     1     -10.000   4.238  71.458  1.00  0.00    -0.173 C  
HETATM   32 CL   UNL     1     -11.121   2.792  73.519  1.00  0.00    -0.312 Cl 
HETATM   33  C   UNL     1      -9.971   2.864  72.151  1.00  0.00    -0.165 C  
ENDBRANCH  27  31
ENDBRANCH  24  25
ENDBRANCH  12  24
TORSDOF 5
ENDMDL
MODEL       27
REMARK 921   NORMALIZED FREE ENERGY PREDICTED BY IDOCK:   -6.32 KCAL/MOL
REMARK 922        TOTAL FREE ENERGY PREDICTED BY IDOCK:   -8.95 KCAL/MOL
REMARK 923 INTER-LIGAND FREE ENERGY PREDICTED BY IDOCK:   -7.68 KCAL/MOL
REMARK 924 INTRA-LIGAND FREE ENERGY PREDICTED BY IDOCK:   -1.27 KCAL/MOL
REMARK 927      BINDING AFFINITY PREDICTED BY RF-SCORE:    0.00 PKD
ROOT
HETATM    1  C   UNL     1      -9.020   9.308  63.746  1.00  0.00    -0.080 C  
HETATM    2  C   UNL     1      -7.861   9.903  63.176  1.00  0.00    -0.144 C  
HETATM    3  C   UNL     1      -7.654   9.633  64.640  1.00  0.00    -0.126 C  
HETATM    4  C   UNL     1      -9.094   8.484  65.555  1.00  0.00    -0.091 C  
HETATM    5  C   UNL     1      -8.030   8.097  64.797  1.00  0.00    -0.147 C  
HETATM    6  C   UNL     1      -9.706  12.721  68.070  1.00  0.00    -0.220 A  
HETATM    7  C   UNL     1      -7.313   8.686  66.477  1.00  0.00    -0.081 C  
HETATM    8  C   UNL     1      -9.820  10.639  64.699  1.00  0.00    -0.382 C  
HETATM    9  C   UNL     1      -7.513   6.846  64.160  1.00  0.00    -0.101 C  
HETATM   10  C   UNL     1      -8.259  10.085  67.108  1.00  0.00    -0.117 C  
HETATM   11  C   UNL     1     -10.373  13.836  68.608  1.00  0.00    -0.225 A  
HETATM   12  C   UNL     1     -11.261  14.562  67.818  1.00  0.00    -0.298 A  
HETATM   13  C   UNL     1     -10.063  11.879  63.814  1.00  0.00    -0.423 C  
HETATM   14  C   UNL     1      -9.069  11.199  66.093  1.00  0.00    -0.214 C  
HETATM   15  C   UNL     1      -9.921  12.308  66.742  1.00  0.00    -0.217 A  
HETATM   16  C   UNL     1     -10.786  13.099  65.939  1.00  0.00    -0.288 A  
HETATM   17  C   UNL     1     -11.457  14.208  66.491  1.00  0.00    -0.368 A  
HETATM   18  C   UNL     1     -11.048  12.836  64.476  1.00  0.00    -0.365 C  
ENDROOT
BRANCH   4  19
HETATM   19  O   UNL     1      -9.059   7.110  66.292  1.00  0.00    -0.162 OA 
HETATM   20  O   UNL     1     -10.946   5.803  66.163  1.00  0.00    -0.048 OA 
HETATM   21  O   UNL     1     -11.261   6.020  68.461  1.00  0.00    -0.299 OA 
HETATM   22  O   UNL     1      -9.123   5.355  67.702  1.00  0.00    -0.109 OA 
HETATM   23  P   UNL     1     -10.222   6.535  67.437  1.00  0.00    -0.246 P  
ENDBRANCH   4  19
BRANCH  12  24
HETATM   24  O   UNL     1     -11.874  15.702  68.372  1.00  0.00    -0.346 OA 
BRANCH  24  25
HETATM   25  C   UNL     1     -11.025  16.590  69.037  1.00  0.00    -0.306 C  
HETATM   26  O   UNL     1     -10.926  16.700  70.252  1.00  0.00    -0.300 OA 
HETATM   27  N   UNL     1     -10.166  17.233  68.153  1.00  0.00    -0.323 N  
BRANCH  27  28
HETATM   28  C   UNL     1     -10.719  17.973  67.012  1.00  0.00    -0.238 C  
HETATM   29 CL   UNL     1     -10.768  20.146  65.376  1.00  0.00    -0.303 Cl 
HETATM   30  C   UNL     1     -10.045  19.321  66.780  1.00  0.00    -0.389 C  
ENDBRANCH  27  28
BRANCH  27  31
HETATM   31  C   UNL     1      -8.841  17.609  68.655  1.00  0.00    -0.259 C  
HETATM   32 CL   UNL     1      -7.691  15.723  67.008  1.00  0.00    -0.257 Cl 
HETATM   33  C   UNL     1      -7.811  16.466  68.630  1.00  0.00    -0.211 C  
ENDBRANCH  27  31
ENDBRANCH  24  25
ENDBRANCH  12  24
TORSDOF 5
ENDMDL
MODEL       28
REMARK 921   NORMALIZED FREE ENERGY PREDICTED BY IDOCK:   -6.32 KCAL/MOL
REMARK 922        TOTAL FREE ENERGY PREDICTED BY IDOCK:   -8.95 KCAL/MOL
REMARK 923 INTER-LIGAND FREE ENERGY PREDICTED BY IDOCK:   -8.18 KCAL/MOL
REMARK 924 INTRA-LIGAND FREE ENERGY PREDICTED BY IDOCK:   -0.77 KCAL/MOL
REMARK 927      BINDING AFFINITY PREDICTED BY RF-SCORE:    0.00 PKD
ROOT
HETATM    1  C   UNL     1     -10.737  13.290  64.035  1.00  0.00    -0.254 C  
HETATM    2  C   UNL     1     -11.951  12.791  63.488  1.00  0.00    -0.633 C  
HETATM    3  C   UNL     1     -12.135  13.169  64.931  1.00  0.00    -0.448 C  
HETATM    4  C   UNL     1     -10.583  14.209  65.792  1.00  0.00    -0.300 C  
HETATM    5  C   UNL     1     -11.595  14.663  65.000  1.00  0.00    -0.385 C  
HETATM    6  C   UNL     1     -10.446  10.090  68.561  1.00  0.00    -0.229 A  
HETATM    7  C   UNL     1     -12.380  14.257  66.704  1.00  0.00    -0.320 C  
HETATM    8  C   UNL     1     -10.091  11.941  65.073  1.00  0.00    -0.297 C  
HETATM    9  C   UNL     1     -11.970  15.921  64.285  1.00  0.00     0.008 C  
HETATM   10  C   UNL     1     -11.594  12.804  67.428  1.00  0.00    -0.415 C  
HETATM   11  C   UNL     1      -9.907   8.944  69.171  1.00  0.00    -0.180 A  
HETATM   12  C   UNL     1      -9.099   8.080  68.436  1.00  0.00    -0.136 A  
HETATM   13  C   UNL     1      -9.979  10.631  64.266  1.00  0.00    -0.413 C  
HETATM   14  C   UNL     1     -10.905  11.551  66.490  1.00  0.00    -0.335 C  
HETATM   15  C   UNL     1     -10.181  10.397  67.214  1.00  0.00    -0.258 A  
HETATM   16  C   UNL     1      -9.403   9.471  66.469  1.00  0.00    -0.220 A  
HETATM   17  C   UNL     1      -8.859   8.331  67.093  1.00  0.00    -0.145 A  
HETATM   18  C   UNL     1      -9.107   9.615  64.996  1.00  0.00    -0.284 C  
ENDROOT
BRANCH   4  19
HETATM   19  O   UNL     1     -10.473  15.621  66.446  1.00  0.00    -0.290 OA 
HETATM   20  O   UNL     1      -8.663  16.911  65.856  1.00  0.00    -0.516 OA 
HETATM   21  O   UNL     1      -7.872  16.816  68.045  1.00  0.00    -0.169 OA 
HETATM   22  O   UNL     1     -10.127  17.449  67.715  1.00  0.00    -0.295 OA 
HETATM   23  P   UNL     1      -9.100  16.252  67.290  1.00  0.00    -0.212 P  
ENDBRANCH   4  19
BRANCH  12  24
HETATM   24  O   UNL     1      -8.615   6.916  69.063  1.00  0.00    -0.127 OA 
BRANCH  24  25
HETATM   25  C   UNL     1      -9.496   6.287  69.946  1.00  0.00    -0.149 C  
HETATM   26  O   UNL     1     -10.591   5.826  69.646  1.00  0.00    -0.266 OA 
HETATM   27  N   UNL     1      -8.914   6.088  71.193  1.00  0.00    -0.139 N  
BRANCH  27  28
HETATM   28  C   UNL     1      -8.352   7.230  71.923  1.00  0.00    -0.107 C  
HETATM   29 CL   UNL     1      -6.240   8.587  72.970  1.00  0.00    -0.101 Cl 
HETATM   30  C   UNL     1      -6.838   7.162  72.083  1.00  0.00    -0.056 C  
ENDBRANCH  27  28
BRANCH  27  31
HETATM   31  C   UNL     1      -9.344   4.912  71.957  1.00  0.00    -0.141 C  
HETATM   32 CL   UNL     1     -11.504   6.333  72.911  1.00  0.00    -0.189 Cl 
HETATM   33  C   UNL     1     -10.122   5.248  73.242  1.00  0.00    -0.175 C  
ENDBRANCH  27  31
ENDBRANCH  24  25
ENDBRANCH  12  24
TORSDOF 5
ENDMDL
MODEL       29
REMARK 921   NORMALIZED FREE ENERGY PREDICTED BY IDOCK:   -6.23 KCAL/MOL
REMARK 922        TOTAL FREE ENERGY PREDICTED BY IDOCK:   -8.84 KCAL/MOL
REMARK 923 INTER-LIGAND FREE ENERGY PREDICTED BY IDOCK:   -7.72 KCAL/MOL
REMARK 924 INTRA-LIGAND FREE ENERGY PREDICTED BY IDOCK:   -1.12 KCAL/MOL
REMARK 927      BINDING AFFINITY PREDICTED BY RF-SCORE:    0.00 PKD
ROOT
HETATM    1  C   UNL     1      -6.856   7.103  72.411  1.00  0.00    -0.064 C  
HETATM    2  C   UNL     1      -6.351   8.061  73.332  1.00  0.00    -0.094 C  
HETATM    3  C   UNL     1      -7.757   7.670  73.691  1.00  0.00    -0.164 C  
HETATM    4  C   UNL     1      -8.530   6.060  72.670  1.00  0.00    -0.118 C  
HETATM    5  C   UNL     1      -7.702   6.082  73.751  1.00  0.00    -0.095 C  
HETATM    6  C   UNL     1     -11.636   9.600  71.096  1.00  0.00    -0.456 A  
HETATM    7  C   UNL     1      -9.432   6.620  74.383  1.00  0.00    -0.279 C  
HETATM    8  C   UNL     1      -8.006   8.027  71.342  1.00  0.00    -0.109 C  
HETATM    9  C   UNL     1      -6.882   5.116  74.545  1.00  0.00    -0.077 C  
HETATM   10  C   UNL     1     -10.277   7.612  73.136  1.00  0.00    -0.401 C  
HETATM   11  C   UNL     1     -12.341  10.409  70.188  1.00  0.00    -0.281 A  
HETATM   12  C   UNL     1     -11.683  10.961  69.092  1.00  0.00    -0.326 A  
HETATM   13  C   UNL     1      -7.312   9.257  70.723  1.00  0.00    -0.134 C  
HETATM   14  C   UNL     1      -9.449   8.583  71.998  1.00  0.00    -0.364 C  
HETATM   15  C   UNL     1     -10.268   9.322  70.920  1.00  0.00    -0.371 A  
HETATM   16  C   UNL     1      -9.605   9.943  69.828  1.00  0.00    -0.261 A  
HETATM   17  C   UNL     1     -10.324  10.744  68.919  1.00  0.00    -0.220 A  
HETATM   18  C   UNL     1      -8.125   9.812  69.559  1.00  0.00    -0.141 C  
ENDROOT
BRANCH   4  19
HETATM   19  O   UNL     1      -9.063   4.665  73.116  1.00  0.00    -0.116 OA 
HETATM   20  O   UNL     1      -8.038   2.814  72.216  1.00  0.00    -0.054 OA 
HETATM   21  O   UNL     1     -10.019   2.233  71.136  1.00  0.00    -0.097 OA 
HETATM   22  O   UNL     1     -10.125   2.706  73.451  1.00  0.00    -0.101 OA 
HETATM   23  P   UNL     1      -9.567   3.381  72.071  1.00  0.00    -0.160 P  
ENDBRANCH   4  19
BRANCH  12  24
HETATM   24  O   UNL     1     -12.407  11.806  68.229  1.00  0.00    -0.379 OA 
BRANCH  24  25
HETATM   25  C   UNL     1     -11.938  13.119  68.125  1.00  0.00    -0.294 C  
HETATM   26  O   UNL     1     -11.866  13.920  69.048  1.00  0.00    -0.315 OA 
HETATM   27  N   UNL     1     -11.395  13.369  66.870  1.00  0.00    -0.311 N  
BRANCH  27  28
HETATM   28  C   UNL     1     -12.203  13.128  65.669  1.00  0.00    -0.466 C  
HETATM   29 CL   UNL     1     -12.646  11.853  63.307  1.00  0.00    -0.635 Cl 
HETATM   30  C   UNL     1     -11.600  12.089  64.730  1.00  0.00    -0.281 C  
ENDBRANCH  27  28
BRANCH  27  31
HETATM   31  C   UNL     1     -10.296  14.337  66.791  1.00  0.00    -0.274 C  
HETATM   32 CL   UNL     1      -8.503  12.265  66.495  1.00  0.00    -0.058 Cl 
HETATM   33  C   UNL     1      -8.947  13.799  67.300  1.00  0.00    -0.224 C  
ENDBRANCH  27  31
ENDBRANCH  24  25
ENDBRANCH  12  24
TORSDOF 5
ENDMDL
MODEL       30
REMARK 921   NORMALIZED FREE ENERGY PREDICTED BY IDOCK:   -6.23 KCAL/MOL
REMARK 922        TOTAL FREE ENERGY PREDICTED BY IDOCK:   -8.83 KCAL/MOL
REMARK 923 INTER-LIGAND FREE ENERGY PREDICTED BY IDOCK:   -7.65 KCAL/MOL
REMARK 924 INTRA-LIGAND FREE ENERGY PREDICTED BY IDOCK:   -1.18 KCAL/MOL
REMARK 927      BINDING AFFINITY PREDICTED BY RF-SCORE:    0.00 PKD
ROOT
HETATM    1  C   UNL     1      -8.530  12.023  67.538  1.00  0.00    -0.165 C  
HETATM    2  C   UNL     1      -8.529  11.131  66.431  1.00  0.00    -0.167 C  
HETATM    3  C   UNL     1      -9.934  11.402  66.892  1.00  0.00    -0.235 C  
HETATM    4  C   UNL     1     -10.151  12.918  68.266  1.00  0.00    -0.242 C  
HETATM    5  C   UNL     1     -10.023  12.989  66.912  1.00  0.00    -0.243 C  
HETATM    6  C   UNL     1     -11.708   9.088  71.016  1.00  0.00    -0.353 A  
HETATM    7  C   UNL     1     -11.786  12.312  67.254  1.00  0.00    -0.394 C  
HETATM    8  C   UNL     1      -8.874  10.982  68.992  1.00  0.00    -0.068 C  
HETATM    9  C   UNL     1      -9.815  14.039  65.867  1.00  0.00    -0.302 C  
HETATM   10  C   UNL     1     -11.773  11.226  68.695  1.00  0.00    -0.391 C  
HETATM   11  C   UNL     1     -11.770   8.203  72.107  1.00  0.00    -0.418 A  
HETATM   12  C   UNL     1     -10.596   7.692  72.654  1.00  0.00    -0.299 A  
HETATM   13  C   UNL     1      -7.879   9.807  69.075  1.00  0.00    -0.087 C  
HETATM   14  C   UNL     1     -10.405  10.311  69.162  1.00  0.00    -0.241 C  
HETATM   15  C   UNL     1     -10.477   9.484  70.462  1.00  0.00    -0.358 A  
HETATM   16  C   UNL     1      -9.297   8.904  70.999  1.00  0.00    -0.313 A  
HETATM   17  C   UNL     1      -9.369   8.026  72.098  1.00  0.00    -0.251 A  
HETATM   18  C   UNL     1      -7.912   9.161  70.455  1.00  0.00    -0.170 C  
ENDROOT
BRANCH   4  19
HETATM   19  O   UNL     1     -10.930  14.269  68.256  1.00  0.00    -0.236 OA 
HETATM   20  O   UNL     1      -9.950  16.052  69.326  1.00  0.00    -0.225 OA 
HETATM   21  O   UNL     1     -11.689  16.086  70.876  1.00  0.00    -0.388 OA 
HETATM   22  O   UNL     1     -12.261  16.057  68.581  1.00  0.00    -0.080 OA 
HETATM   23  P   UNL     1     -11.330  15.228  69.639  1.00  0.00    -0.345 P  
ENDBRANCH   4  19
BRANCH  12  24
HETATM   24  O   UNL     1     -10.694   6.770  73.714  1.00  0.00    -0.325 OA 
BRANCH  24  25
HETATM   25  C   UNL     1     -10.920   5.441  73.348  1.00  0.00    -0.297 C  
HETATM   26  O   UNL     1     -12.021   4.926  73.194  1.00  0.00    -0.223 OA 
HETATM   27  N   UNL     1      -9.736   4.797  73.007  1.00  0.00    -0.138 N  
BRANCH  27  28
HETATM   28  C   UNL     1      -8.622   4.773  73.962  1.00  0.00    -0.105 C  
HETATM   29 CL   UNL     1      -5.975   4.998  74.545  1.00  0.00    -0.045 Cl 
HETATM   30  C   UNL     1      -7.265   5.036  73.318  1.00  0.00    -0.086 C  
ENDBRANCH  27  28
BRANCH  27  31
HETATM   31  C   UNL     1      -9.811   3.740  71.993  1.00  0.00    -0.173 C  
HETATM   32 CL   UNL     1      -8.808   5.485  70.111  1.00  0.00    -0.138 Cl 
HETATM   33  C   UNL     1     -10.028   4.257  70.560  1.00  0.00    -0.149 C  
ENDBRANCH  27  31
ENDBRANCH  24  25
ENDBRANCH  12  24
TORSDOF 5
ENDMDL
MODEL       31
REMARK 921   NORMALIZED FREE ENERGY PREDICTED BY IDOCK:   -6.22 KCAL/MOL
REMARK 922        TOTAL FREE ENERGY PREDICTED BY IDOCK:   -8.82 KCAL/MOL
REMARK 923 INTER-LIGAND FREE ENERGY PREDICTED BY IDOCK:   -7.71 KCAL/MOL
REMARK 924 INTRA-LIGAND FREE ENERGY PREDICTED BY IDOCK:   -1.11 KCAL/MOL
REMARK 927      BINDING AFFINITY PREDICTED BY RF-SCORE:    0.00 PKD
ROOT
HETATM    1  C   UNL     1      -9.015  15.036  68.065  1.00  0.00    -0.173 C  
HETATM    2  C   UNL     1      -8.785  15.243  66.677  1.00  0.00    -0.327 C  
HETATM    3  C   UNL     1     -10.131  14.613  66.903  1.00  0.00    -0.255 C  
HETATM    4  C   UNL     1     -10.771  14.539  68.857  1.00  0.00    -0.254 C  
HETATM    5  C   UNL     1     -10.820  15.571  67.969  1.00  0.00    -0.300 C  
HETATM    6  C   UNL     1     -10.447   9.675  67.915  1.00  0.00    -0.296 A  
HETATM    7  C   UNL     1     -12.142  14.301  67.399  1.00  0.00    -0.371 C  
HETATM    8  C   UNL     1      -8.781  13.248  68.327  1.00  0.00    -0.168 C  
HETATM    9  C   UNL     1     -11.140  17.031  67.976  1.00  0.00    -0.149 C  
HETATM   10  C   UNL     1     -11.565  12.618  67.693  1.00  0.00    -0.414 C  
HETATM   11  C   UNL     1     -10.051   8.336  68.081  1.00  0.00    -0.238 A  
HETATM   12  C   UNL     1      -8.721   8.034  68.364  1.00  0.00    -0.130 A  
HETATM   13  C   UNL     1      -7.408  12.790  67.795  1.00  0.00    -0.130 C  
HETATM   14  C   UNL     1      -9.911  12.183  67.686  1.00  0.00    -0.199 C  
HETATM   15  C   UNL     1      -9.526  10.731  68.037  1.00  0.00    -0.166 A  
HETATM   16  C   UNL     1      -8.165  10.396  68.267  1.00  0.00    -0.114 A  
HETATM   17  C   UNL     1      -7.781   9.052  68.442  1.00  0.00    -0.098 A  
HETATM   18  C   UNL     1      -7.049  11.410  68.334  1.00  0.00    -0.079 C  
ENDROOT
BRANCH   4  19
HETATM   19  O   UNL     1     -12.006  15.132  69.602  1.00  0.00    -0.307 OA 
HETATM   20  O   UNL     1     -11.609  16.214  71.592  1.00  0.00    -0.453 OA 
HETATM   21  O   UNL     1     -12.827  14.586  72.728  1.00  0.00    -0.404 OA 
HETATM   22  O   UNL     1     -13.831  15.593  70.839  1.00  0.00    -0.516 OA 
HETATM   23  P   UNL     1     -12.439  14.844  71.252  1.00  0.00    -0.403 P  
ENDBRANCH   4  19
BRANCH  12  24
HETATM   24  O   UNL     1      -8.349   6.681  68.475  1.00  0.00    -0.121 OA 
BRANCH  24  25
HETATM   25  C   UNL     1      -8.219   6.188  69.776  1.00  0.00    -0.123 C  
HETATM   26  O   UNL     1      -7.291   6.433  70.537  1.00  0.00    -0.080 OA 
HETATM   27  N   UNL     1      -9.364   5.511  70.182  1.00  0.00    -0.143 N  
BRANCH  27  28
HETATM   28  C   UNL     1      -9.873   4.397  69.373  1.00  0.00    -0.168 C  
HETATM   29 CL   UNL     1      -9.612   1.910  68.305  1.00  0.00    -0.230 Cl 
HETATM   30  C   UNL     1      -8.912   3.216  69.294  1.00  0.00    -0.117 C  
ENDBRANCH  27  28
BRANCH  27  31
HETATM   31  C   UNL     1      -9.700   5.551  71.609  1.00  0.00    -0.161 C  
HETATM   32 CL   UNL     1     -12.018   6.918  71.016  1.00  0.00    -0.403 Cl 
HETATM   33  C   UNL     1     -10.547   6.767  72.022  1.00  0.00    -0.213 C  
ENDBRANCH  27  31
ENDBRANCH  24  25
ENDBRANCH  12  24
TORSDOF 5
ENDMDL
MODEL       32
REMARK 921   NORMALIZED FREE ENERGY PREDICTED BY IDOCK:   -6.21 KCAL/MOL
REMARK 922        TOTAL FREE ENERGY PREDICTED BY IDOCK:   -8.81 KCAL/MOL
REMARK 923 INTER-LIGAND FREE ENERGY PREDICTED BY IDOCK:   -7.82 KCAL/MOL
REMARK 924 INTRA-LIGAND FREE ENERGY PREDICTED BY IDOCK:   -0.99 KCAL/MOL
REMARK 927      BINDING AFFINITY PREDICTED BY RF-SCORE:    0.00 PKD
ROOT
HETATM    1  C   UNL     1      -8.930  14.733  68.040  1.00  0.00    -0.174 C  
HETATM    2  C   UNL     1      -8.672  14.992  66.666  1.00  0.00    -0.289 C  
HETATM    3  C   UNL     1     -10.085  14.517  66.860  1.00  0.00    -0.257 C  
HETATM    4  C   UNL     1     -10.736  14.407  68.809  1.00  0.00    -0.252 C  
HETATM    5  C   UNL     1     -10.656  15.488  67.983  1.00  0.00    -0.270 C  
HETATM    6  C   UNL     1     -11.003   9.604  67.582  1.00  0.00    -0.190 A  
HETATM    7  C   UNL     1     -12.121  14.424  67.345  1.00  0.00    -0.348 C  
HETATM    8  C   UNL     1      -8.916  12.918  68.196  1.00  0.00    -0.202 C  
HETATM    9  C   UNL     1     -10.796  16.974  68.077  1.00  0.00    -0.330 C  
HETATM   10  C   UNL     1     -11.754  12.669  67.538  1.00  0.00    -0.429 C  
HETATM   11  C   UNL     1     -10.774   8.219  67.668  1.00  0.00    -0.195 A  
HETATM   12  C   UNL     1      -9.491   7.741  67.927  1.00  0.00    -0.144 A  
HETATM   13  C   UNL     1      -7.607  12.328  67.632  1.00  0.00    -0.144 C  
HETATM   14  C   UNL     1     -10.165  12.038  67.498  1.00  0.00    -0.211 C  
HETATM   15  C   UNL     1      -9.961  10.532  67.762  1.00  0.00    -0.198 A  
HETATM   16  C   UNL     1      -8.651  10.020  67.966  1.00  0.00    -0.121 A  
HETATM   17  C   UNL     1      -8.435   8.631  68.060  1.00  0.00    -0.127 A  
HETATM   18  C   UNL     1      -7.420  10.885  68.088  1.00  0.00    -0.091 C  
ENDROOT
BRANCH   4  19
HETATM   19  O   UNL     1     -11.892  15.102  69.593  1.00  0.00    -0.297 OA 
HETATM   20  O   UNL     1     -11.412  15.870  71.706  1.00  0.00    -0.407 OA 
HETATM   21  O   UNL     1     -12.915  14.339  72.612  1.00  0.00    -0.420 OA 
HETATM   22  O   UNL     1     -13.671  15.704  70.835  1.00  0.00    -0.549 OA 
HETATM   23  P   UNL     1     -12.432  14.699  71.186  1.00  0.00    -0.390 P  
ENDBRANCH   4  19
BRANCH  12  24
HETATM   24  O   UNL     1      -9.286   6.349  67.957  1.00  0.00    -0.118 OA 
BRANCH  24  25
HETATM   25  C   UNL     1      -8.736   5.838  69.136  1.00  0.00    -0.113 C  
HETATM   26  O   UNL     1      -7.691   5.206  69.214  1.00  0.00    -0.074 OA 
HETATM   27  N   UNL     1      -9.433   6.278  70.256  1.00  0.00    -0.160 N  
BRANCH  27  28
HETATM   28  C   UNL     1     -10.880   6.048  70.348  1.00  0.00    -0.318 C  
HETATM   29 CL   UNL     1     -13.349   6.727  71.263  1.00  0.00    -0.210 Cl 
HETATM   30  C   UNL     1     -11.603   7.073  71.214  1.00  0.00    -0.303 C  
ENDBRANCH  27  28
BRANCH  27  31
HETATM   31  C   UNL     1      -8.672   6.451  71.497  1.00  0.00    -0.134 C  
HETATM   32 CL   UNL     1      -9.136   9.165  71.394  1.00  0.00    -0.258 Cl 
HETATM   33  C   UNL     1      -7.981   7.820  71.626  1.00  0.00    -0.097 C  
ENDBRANCH  27  31
ENDBRANCH  24  25
ENDBRANCH  12  24
TORSDOF 5
ENDMDL
MODEL       33
REMARK 921   NORMALIZED FREE ENERGY PREDICTED BY IDOCK:   -6.14 KCAL/MOL
REMARK 922        TOTAL FREE ENERGY PREDICTED BY IDOCK:   -8.72 KCAL/MOL
REMARK 923 INTER-LIGAND FREE ENERGY PREDICTED BY IDOCK:   -7.88 KCAL/MOL
REMARK 924 INTRA-LIGAND FREE ENERGY PREDICTED BY IDOCK:   -0.83 KCAL/MOL
REMARK 927      BINDING AFFINITY PREDICTED BY RF-SCORE:    0.00 PKD
ROOT
HETATM    1  C   UNL     1     -10.359   6.801  70.457  1.00  0.00    -0.226 C  
HETATM    2  C   UNL     1     -11.753   6.522  70.455  1.00  0.00    -0.439 C  
HETATM    3  C   UNL     1     -11.153   6.242  69.105  1.00  0.00    -0.457 C  
HETATM    4  C   UNL     1      -9.099   6.275  69.010  1.00  0.00    -0.129 C  
HETATM    5  C   UNL     1      -9.930   5.280  69.430  1.00  0.00    -0.288 C  
HETATM    6  C   UNL     1     -10.121  10.070  65.977  1.00  0.00    -0.318 A  
HETATM    7  C   UNL     1     -10.104   5.362  67.520  1.00  0.00    -0.220 C  
HETATM    8  C   UNL     1     -10.185   8.378  69.561  1.00  0.00    -0.207 C  
HETATM    9  C   UNL     1      -9.823   3.955  70.115  1.00  0.00    -0.163 C  
HETATM   10  C   UNL     1      -9.996   7.071  66.953  1.00  0.00    -0.283 C  
HETATM   11  C   UNL     1     -10.083  11.379  65.464  1.00  0.00    -0.293 A  
HETATM   12  C   UNL     1     -10.195  12.467  66.325  1.00  0.00    -0.248 A  
HETATM   13  C   UNL     1     -11.091   9.463  70.178  1.00  0.00    -0.277 C  
HETATM   14  C   UNL     1     -10.481   8.404  67.908  1.00  0.00    -0.255 C  
HETATM   15  C   UNL     1     -10.263   9.828  67.356  1.00  0.00    -0.284 A  
HETATM   16  C   UNL     1     -10.435  10.952  68.208  1.00  0.00    -0.205 A  
HETATM   17  C   UNL     1     -10.385  12.259  67.684  1.00  0.00    -0.214 A  
HETATM   18  C   UNL     1     -10.685  10.850  69.693  1.00  0.00    -0.232 C  
ENDROOT
BRANCH   4  19
HETATM   19  O   UNL     1      -8.028   5.208  68.629  1.00  0.00    -0.085 OA 
HETATM   20  O   UNL     1      -5.878   5.573  69.358  1.00  0.00    -0.015 OA 
HETATM   21  O   UNL     1      -5.158   5.786  67.153  1.00  0.00    -0.004 OA 
HETATM   22  O   UNL     1      -6.452   3.886  67.710  1.00  0.00    -0.036 OA 
HETATM   23  P   UNL     1      -6.513   5.513  67.850  1.00  0.00    -0.051 P  
ENDBRANCH   4  19
BRANCH  12  24
HETATM   24  O   UNL     1     -10.203  13.763  65.774  1.00  0.00    -0.294 OA 
BRANCH  24  25
HETATM   25  C   UNL     1     -11.159  14.641  66.290  1.00  0.00    -0.336 C  
HETATM   26  O   UNL     1     -12.365  14.430  66.332  1.00  0.00    -0.409 OA 
HETATM   27  N   UNL     1     -10.565  15.731  66.916  1.00  0.00    -0.317 N  
BRANCH  27  28
HETATM   28  C   UNL     1      -9.607  16.560  66.176  1.00  0.00    -0.315 C  
HETATM   29 CL   UNL     1      -7.127  17.628  65.852  1.00  0.00    -0.312 Cl 
HETATM   30  C   UNL     1      -8.225  16.610  66.817  1.00  0.00    -0.239 C  
ENDBRANCH  27  28
BRANCH  27  31
HETATM   31  C   UNL     1     -11.280  16.329  68.048  1.00  0.00    -0.260 C  
HETATM   32 CL   UNL     1      -9.423  15.255  69.778  1.00  0.00    -0.182 Cl 
HETATM   33  C   UNL     1     -11.138  15.547  69.366  1.00  0.00    -0.291 C  
ENDBRANCH  27  31
ENDBRANCH  24  25
ENDBRANCH  12  24
TORSDOF 5
ENDMDL
MODEL       34
REMARK 921   NORMALIZED FREE ENERGY PREDICTED BY IDOCK:   -6.12 KCAL/MOL
REMARK 922        TOTAL FREE ENERGY PREDICTED BY IDOCK:   -8.69 KCAL/MOL
REMARK 923 INTER-LIGAND FREE ENERGY PREDICTED BY IDOCK:   -8.43 KCAL/MOL
REMARK 924 INTRA-LIGAND FREE ENERGY PREDICTED BY IDOCK:   -0.26 KCAL/MOL
REMARK 927      BINDING AFFINITY PREDICTED BY RF-SCORE:    0.00 PKD
ROOT
HETATM    1  C   UNL     1     -10.653   8.883  66.912  1.00  0.00    -0.254 C  
HETATM    2  C   UNL     1      -9.639   8.718  65.929  1.00  0.00    -0.255 C  
HETATM    3  C   UNL     1      -9.039   9.105  67.252  1.00  0.00    -0.143 C  
HETATM    4  C   UNL     1     -10.317   9.068  68.863  1.00  0.00    -0.215 C  
HETATM    5  C   UNL     1      -9.648   8.042  68.266  1.00  0.00    -0.156 C  
HETATM    6  C   UNL     1      -9.240  13.914  68.783  1.00  0.00    -0.013 A  
HETATM    7  C   UNL     1      -8.334   9.063  69.225  1.00  0.00    -0.122 C  
HETATM    8  C   UNL     1     -10.828  10.684  67.122  1.00  0.00    -0.328 C  
HETATM    9  C   UNL     1      -9.620   6.548  68.322  1.00  0.00    -0.131 C  
HETATM   10  C   UNL     1      -8.732  10.821  69.156  1.00  0.00    -0.101 C  
HETATM   11  C   UNL     1      -9.465  15.301  68.743  1.00  0.00    -0.212 A  
HETATM   12  C   UNL     1     -10.392  15.830  67.848  1.00  0.00    -0.261 A  
HETATM   13  C   UNL     1     -11.083  11.373  65.766  1.00  0.00    -0.217 C  
HETATM   14  C   UNL     1      -9.579  11.536  67.853  1.00  0.00    -0.178 C  
HETATM   15  C   UNL     1      -9.942  13.033  67.940  1.00  0.00    -0.230 A  
HETATM   16  C   UNL     1     -10.838  13.600  66.995  1.00  0.00    -0.291 A  
HETATM   17  C   UNL     1     -11.063  14.990  66.970  1.00  0.00    -0.334 A  
HETATM   18  C   UNL     1     -11.595  12.795  65.967  1.00  0.00    -0.432 C  
ENDROOT
BRANCH   4  19
HETATM   19  O   UNL     1     -10.329   8.269  70.203  1.00  0.00    -0.203 OA 
HETATM   20  O   UNL     1     -12.261   7.142  70.735  1.00  0.00    -0.327 OA 
HETATM   21  O   UNL     1     -12.563   8.521  72.588  1.00  0.00    -0.355 OA 
HETATM   22  O   UNL     1     -10.451   7.494  72.314  1.00  0.00    -0.210 OA 
HETATM   23  P   UNL     1     -11.508   8.402  71.462  1.00  0.00    -0.321 P  
ENDBRANCH   4  19
BRANCH  12  24
HETATM   24  O   UNL     1     -10.557  17.227  67.798  1.00  0.00    -0.361 OA 
BRANCH  24  25
HETATM   25  C   UNL     1      -9.849  17.890  66.794  1.00  0.00    -0.333 C  
HETATM   26  O   UNL     1     -10.059  17.785  65.592  1.00  0.00    -0.570 OA 
HETATM   27  N   UNL     1      -8.972  18.830  67.323  1.00  0.00    -0.272 N  
BRANCH  27  28
HETATM   28  C   UNL     1      -7.976  18.414  68.317  1.00  0.00    -0.300 C  
HETATM   29 CL   UNL     1      -6.193  18.984  70.291  1.00  0.00    -0.142 Cl 
HETATM   30  C   UNL     1      -7.381  19.577  69.104  1.00  0.00    -0.329 C  
ENDBRANCH  27  28
BRANCH  27  31
HETATM   31  C   UNL     1      -8.701  20.027  66.520  1.00  0.00    -0.317 C  
HETATM   32 CL   UNL     1      -6.673  18.687  65.222  1.00  0.00    -0.236 Cl 
HETATM   33  C   UNL     1      -7.237  20.160  66.064  1.00  0.00    -0.286 C  
ENDBRANCH  27  31
ENDBRANCH  24  25
ENDBRANCH  12  24
TORSDOF 5
ENDMDL
MODEL       35
REMARK 921   NORMALIZED FREE ENERGY PREDICTED BY IDOCK:   -6.03 KCAL/MOL
REMARK 922        TOTAL FREE ENERGY PREDICTED BY IDOCK:   -8.58 KCAL/MOL
REMARK 923 INTER-LIGAND FREE ENERGY PREDICTED BY IDOCK:   -8.12 KCAL/MOL
REMARK 924 INTRA-LIGAND FREE ENERGY PREDICTED BY IDOCK:   -0.46 KCAL/MOL
REMARK 927      BINDING AFFINITY PREDICTED BY RF-SCORE:    0.00 PKD
ROOT
HETATM    1  C   UNL     1     -10.747   8.118  67.392  1.00  0.00    -0.247 C  
HETATM    2  C   UNL     1      -9.750   7.473  66.609  1.00  0.00    -0.273 C  
HETATM    3  C   UNL     1      -9.173   7.956  67.911  1.00  0.00    -0.139 C  
HETATM    4  C   UNL     1     -10.532   8.619  69.305  1.00  0.00    -0.217 C  
HETATM    5  C   UNL     1     -10.151   7.346  69.005  1.00  0.00    -0.193 C  
HETATM    6  C   UNL     1      -8.059  12.847  68.497  1.00  0.00    -0.080 A  
HETATM    7  C   UNL     1      -8.677   8.147  69.937  1.00  0.00    -0.138 C  
HETATM    8  C   UNL     1     -10.394   9.899  67.244  1.00  0.00    -0.303 C  
HETATM    9  C   UNL     1     -10.575   5.950  69.335  1.00  0.00    -0.379 C  
HETATM   10  C   UNL     1      -8.526   9.889  69.494  1.00  0.00    -0.184 C  
HETATM   11  C   UNL     1      -7.857  14.201  68.174  1.00  0.00    -0.142 A  
HETATM   12  C   UNL     1      -8.507  14.758  67.075  1.00  0.00    -0.222 A  
HETATM   13  C   UNL     1     -10.320  10.323  65.763  1.00  0.00    -0.236 C  
HETATM   14  C   UNL     1      -9.012  10.512  67.977  1.00  0.00    -0.135 C  
HETATM   15  C   UNL     1      -8.919  12.033  67.737  1.00  0.00    -0.176 A  
HETATM   16  C   UNL     1      -9.525  12.608  66.588  1.00  0.00    -0.244 A  
HETATM   17  C   UNL     1      -9.323  13.967  66.279  1.00  0.00    -0.199 A  
HETATM   18  C   UNL     1     -10.400  11.840  65.627  1.00  0.00    -0.293 C  
ENDROOT
BRANCH   4  19
HETATM   19  O   UNL     1     -10.891   8.162  70.752  1.00  0.00    -0.220 OA 
HETATM   20  O   UNL     1     -13.047   7.456  71.125  1.00  0.00    -0.313 OA 
HETATM   21  O   UNL     1     -13.396   9.255  72.564  1.00  0.00    -0.457 OA 
HETATM   22  O   UNL     1     -11.475   7.921  72.915  1.00  0.00    -0.403 OA 
HETATM   23  P   UNL     1     -12.213   8.739  71.708  1.00  0.00    -0.402 P  
ENDBRANCH   4  19
BRANCH  12  24
HETATM   24  O   UNL     1      -8.245  16.102  66.750  1.00  0.00    -0.213 OA 
BRANCH  24  25
HETATM   25  C   UNL     1      -6.985  16.584  67.114  1.00  0.00    -0.194 C  
HETATM   26  O   UNL     1      -5.931  15.973  66.994  1.00  0.00    -0.334 OA 
HETATM   27  N   UNL     1      -7.038  17.923  67.482  1.00  0.00    -0.192 N  
BRANCH  27  28
HETATM   28  C   UNL     1      -7.960  18.350  68.542  1.00  0.00    -0.314 C  
HETATM   29 CL   UNL     1     -10.149  19.723  69.389  1.00  0.00    -0.368 Cl 
HETATM   30  C   UNL     1      -9.075  19.263  68.045  1.00  0.00    -0.318 C  
ENDBRANCH  27  28
BRANCH  27  31
HETATM   31  C   UNL     1      -5.851  18.743  67.217  1.00  0.00    -0.159 C  
HETATM   32 CL   UNL     1      -7.210  20.046  65.205  1.00  0.00    -0.271 Cl 
HETATM   33  C   UNL     1      -5.726  19.215  65.758  1.00  0.00    -0.163 C  
ENDBRANCH  27  31
ENDBRANCH  24  25
ENDBRANCH  12  24
TORSDOF 5
ENDMDL
MODEL       36
REMARK 921   NORMALIZED FREE ENERGY PREDICTED BY IDOCK:   -6.02 KCAL/MOL
REMARK 922        TOTAL FREE ENERGY PREDICTED BY IDOCK:   -8.56 KCAL/MOL
REMARK 923 INTER-LIGAND FREE ENERGY PREDICTED BY IDOCK:   -7.96 KCAL/MOL
REMARK 924 INTRA-LIGAND FREE ENERGY PREDICTED BY IDOCK:   -0.60 KCAL/MOL
REMARK 927      BINDING AFFINITY PREDICTED BY RF-SCORE:    0.00 PKD
ROOT
HETATM    1  C   UNL     1      -8.331   8.422  63.679  1.00  0.00    -0.050 C  
HETATM    2  C   UNL     1      -7.081   8.870  63.170  1.00  0.00    -0.089 C  
HETATM    3  C   UNL     1      -7.066   8.852  64.673  1.00  0.00    -0.088 C  
HETATM    4  C   UNL     1      -8.666   7.926  65.576  1.00  0.00    -0.081 C  
HETATM    5  C   UNL     1      -7.541   7.378  65.036  1.00  0.00    -0.103 C  
HETATM    6  C   UNL     1      -9.346  12.551  67.247  1.00  0.00    -0.190 A  
HETATM    7  C   UNL     1      -7.001   8.225  66.671  1.00  0.00    -0.069 C  
HETATM    8  C   UNL     1      -9.166   9.923  64.285  1.00  0.00    -0.317 C  
HETATM    9  C   UNL     1      -7.020   6.021  64.689  1.00  0.00    -0.052 C  
HETATM   10  C   UNL     1      -7.939   9.743  66.933  1.00  0.00    -0.105 C  
HETATM   11  C   UNL     1     -10.012  13.763  67.501  1.00  0.00    -0.233 A  
HETATM   12  C   UNL     1     -10.758  14.371  66.494  1.00  0.00    -0.306 A  
HETATM   13  C   UNL     1      -9.234  10.998  63.181  1.00  0.00    -0.309 C  
HETATM   14  C   UNL     1      -8.559  10.690  65.650  1.00  0.00    -0.187 C  
HETATM   15  C   UNL     1      -9.423  11.922  65.991  1.00  0.00    -0.241 A  
HETATM   16  C   UNL     1     -10.141  12.590  64.963  1.00  0.00    -0.258 A  
HETATM   17  C   UNL     1     -10.812  13.799  65.231  1.00  0.00    -0.326 A  
HETATM   18  C   UNL     1     -10.238  12.086  63.543  1.00  0.00    -0.477 C  
ENDROOT
BRANCH   4  19
HETATM   19  O   UNL     1      -8.794   6.699  66.531  1.00  0.00    -0.128 OA 
HETATM   20  O   UNL     1     -10.781   5.543  66.492  1.00  0.00    -0.296 OA 
HETATM   21  O   UNL     1     -11.199   6.174  68.696  1.00  0.00    -0.356 OA 
HETATM   22  O   UNL     1      -9.091   5.221  68.204  1.00  0.00    -0.108 OA 
HETATM   23  P   UNL     1     -10.064   6.422  67.673  1.00  0.00    -0.199 P  
ENDBRANCH   4  19
BRANCH  12  24
HETATM   24  O   UNL     1     -11.371  15.608  66.766  1.00  0.00    -0.163 OA 
BRANCH  24  25
HETATM   25  C   UNL     1     -10.534  16.726  66.729  1.00  0.00    -0.258 C  
HETATM   26  O   UNL     1      -9.922  17.121  65.744  1.00  0.00    -0.530 OA 
HETATM   27  N   UNL     1     -10.601  17.453  67.912  1.00  0.00    -0.380 N  
BRANCH  27  28
HETATM   28  C   UNL     1     -10.334  16.785  69.191  1.00  0.00    -0.326 C  
HETATM   29 CL   UNL     1     -11.167  15.404  71.382  1.00  0.00    -0.427 Cl 
HETATM   30  C   UNL     1     -11.582  16.202  69.844  1.00  0.00    -0.239 C  
ENDBRANCH  27  28
BRANCH  27  31
HETATM   31  C   UNL     1     -10.398  18.903  67.825  1.00  0.00    -0.421 C  
HETATM   32 CL   UNL     1      -7.677  18.527  68.041  1.00  0.00    -0.271 Cl 
HETATM   33  C   UNL     1      -9.144  19.408  68.560  1.00  0.00    -0.375 C  
ENDBRANCH  27  31
ENDBRANCH  24  25
ENDBRANCH  12  24
TORSDOF 5
ENDMDL
MODEL       37
REMARK 921   NORMALIZED FREE ENERGY PREDICTED BY IDOCK:   -5.97 KCAL/MOL
REMARK 922        TOTAL FREE ENERGY PREDICTED BY IDOCK:   -8.50 KCAL/MOL
REMARK 923 INTER-LIGAND FREE ENERGY PREDICTED BY IDOCK:   -8.13 KCAL/MOL
REMARK 924 INTRA-LIGAND FREE ENERGY PREDICTED BY IDOCK:   -0.37 KCAL/MOL
REMARK 927      BINDING AFFINITY PREDICTED BY RF-SCORE:    0.00 PKD
ROOT
HETATM    1  C   UNL     1      -9.122   8.016  65.706  1.00  0.00    -0.109 C  
HETATM    2  C   UNL     1      -7.929   8.157  64.945  1.00  0.00    -0.145 C  
HETATM    3  C   UNL     1      -7.684   8.508  66.386  1.00  0.00    -0.098 C  
HETATM    4  C   UNL     1      -9.206   8.051  67.693  1.00  0.00    -0.133 C  
HETATM    5  C   UNL     1      -8.235   7.244  67.179  1.00  0.00    -0.118 C  
HETATM    6  C   UNL     1      -9.177  12.993  68.162  1.00  0.00    -0.212 A  
HETATM    7  C   UNL     1      -7.370   8.389  68.454  1.00  0.00    -0.094 C  
HETATM    8  C   UNL     1      -9.708   9.716  65.996  1.00  0.00    -0.331 C  
HETATM    9  C   UNL     1      -7.905   5.787  67.139  1.00  0.00    -0.102 C  
HETATM   10  C   UNL     1      -8.108  10.035  68.423  1.00  0.00    -0.101 C  
HETATM   11  C   UNL     1      -9.677  14.307  68.170  1.00  0.00    -0.226 A  
HETATM   12  C   UNL     1     -10.509  14.741  67.140  1.00  0.00    -0.265 A  
HETATM   13  C   UNL     1      -9.843  10.486  64.666  1.00  0.00    -0.404 C  
HETATM   14  C   UNL     1      -8.826  10.710  67.025  1.00  0.00    -0.141 C  
HETATM   15  C   UNL     1      -9.506  12.090  67.135  1.00  0.00    -0.187 A  
HETATM   16  C   UNL     1     -10.307  12.572  66.066  1.00  0.00    -0.277 A  
HETATM   17  C   UNL     1     -10.811  13.888  66.089  1.00  0.00    -0.290 A  
HETATM   18  C   UNL     1     -10.671  11.752  64.852  1.00  0.00    -0.347 C  
ENDROOT
BRANCH   4  19
HETATM   19  O   UNL     1      -9.300   7.125  68.945  1.00  0.00    -0.141 OA 
HETATM   20  O   UNL     1     -10.945   5.519  68.939  1.00  0.00    -0.165 OA 
HETATM   21  O   UNL     1     -11.986   6.566  70.740  1.00  0.00    -0.378 OA 
HETATM   22  O   UNL     1      -9.672   6.108  70.919  1.00  0.00    -0.174 OA 
HETATM   23  P   UNL     1     -10.718   6.830  69.892  1.00  0.00    -0.291 P  
ENDBRANCH   4  19
BRANCH  12  24
HETATM   24  O   UNL     1     -10.952  16.077  67.152  1.00  0.00    -0.289 OA 
BRANCH  24  25
HETATM   25  C   UNL     1     -10.377  16.919  66.197  1.00  0.00    -0.320 C  
HETATM   26  O   UNL     1     -10.811  17.111  65.068  1.00  0.00    -0.684 OA 
HETATM   27  N   UNL     1      -9.331  17.661  66.734  1.00  0.00    -0.270 N  
BRANCH  27  28
HETATM   28  C   UNL     1      -8.216  16.971  67.394  1.00  0.00    -0.183 C  
HETATM   29 CL   UNL     1      -6.399  16.755  69.406  1.00  0.00    -0.212 Cl 
HETATM   30  C   UNL     1      -7.744  17.661  68.669  1.00  0.00    -0.281 C  
ENDBRANCH  27  28
BRANCH  27  31
HETATM   31  C   UNL     1      -9.095  18.996  66.177  1.00  0.00    -0.191 C  
HETATM   32 CL   UNL     1     -10.330  20.121  68.369  1.00  0.00    -0.492 Cl 
HETATM   33  C   UNL     1     -10.142  20.045  66.593  1.00  0.00    -0.479 C  
ENDBRANCH  27  31
ENDBRANCH  24  25
ENDBRANCH  12  24
TORSDOF 5
ENDMDL
MODEL       38
REMARK 921   NORMALIZED FREE ENERGY PREDICTED BY IDOCK:   -5.96 KCAL/MOL
REMARK 922        TOTAL FREE ENERGY PREDICTED BY IDOCK:   -8.49 KCAL/MOL
REMARK 923 INTER-LIGAND FREE ENERGY PREDICTED BY IDOCK:   -8.16 KCAL/MOL
REMARK 924 INTRA-LIGAND FREE ENERGY PREDICTED BY IDOCK:   -0.33 KCAL/MOL
REMARK 927      BINDING AFFINITY PREDICTED BY RF-SCORE:    0.00 PKD
ROOT
HETATM    1  C   UNL     1     -10.446   7.461  67.441  1.00  0.00    -0.366 C  
HETATM    2  C   UNL     1      -9.349   6.865  66.762  1.00  0.00    -0.190 C  
HETATM    3  C   UNL     1      -8.911   7.429  68.085  1.00  0.00    -0.127 C  
HETATM    4  C   UNL     1     -10.419   8.038  69.345  1.00  0.00    -0.220 C  
HETATM    5  C   UNL     1      -9.929   6.786  69.123  1.00  0.00    -0.166 C  
HETATM    6  C   UNL     1      -8.185  12.404  68.569  1.00  0.00    -0.086 A  
HETATM    7  C   UNL     1      -8.591   7.721  70.135  1.00  0.00    -0.139 C  
HETATM    8  C   UNL     1     -10.206   9.257  67.254  1.00  0.00    -0.315 C  
HETATM    9  C   UNL     1     -10.280   5.375  69.472  1.00  0.00    -0.336 C  
HETATM   10  C   UNL     1      -8.526   9.454  69.639  1.00  0.00    -0.166 C  
HETATM   11  C   UNL     1      -8.052  13.757  68.211  1.00  0.00    -0.150 A  
HETATM   12  C   UNL     1      -8.650  14.230  67.046  1.00  0.00    -0.192 A  
HETATM   13  C   UNL     1     -10.044   9.638  65.768  1.00  0.00    -0.274 C  
HETATM   14  C   UNL     1      -8.932   9.991  68.067  1.00  0.00    -0.128 C  
HETATM   15  C   UNL     1      -8.925  11.506  67.777  1.00  0.00    -0.160 A  
HETATM   16  C   UNL     1      -9.476  11.998  66.564  1.00  0.00    -0.234 A  
HETATM   17  C   UNL     1      -9.345  13.358  66.221  1.00  0.00    -0.137 A  
HETATM   18  C   UNL     1     -10.218  11.139  65.569  1.00  0.00    -0.319 C  
ENDROOT
BRANCH   4  19
HETATM   19  O   UNL     1     -10.858   7.603  70.777  1.00  0.00    -0.230 OA 
HETATM   20  O   UNL     1     -13.094   7.179  71.104  1.00  0.00    -0.361 OA 
HETATM   21  O   UNL     1     -13.228   8.979  72.576  1.00  0.00    -0.445 OA 
HETATM   22  O   UNL     1     -11.505   7.398  72.925  1.00  0.00    -0.298 OA 
HETATM   23  P   UNL     1     -12.109   8.330  71.726  1.00  0.00    -0.363 P  
ENDBRANCH   4  19
BRANCH  12  24
HETATM   24  O   UNL     1      -8.456  15.579  66.691  1.00  0.00    -0.254 OA 
BRANCH  24  25
HETATM   25  C   UNL     1      -9.426  16.476  67.145  1.00  0.00    -0.239 C  
HETATM   26  O   UNL     1      -9.639  16.755  68.318  1.00  0.00    -0.231 OA 
HETATM   27  N   UNL     1     -10.023  17.157  66.091  1.00  0.00    -0.295 N  
BRANCH  27  28
HETATM   28  C   UNL     1     -10.647  16.402  64.998  1.00  0.00    -0.193 C  
HETATM   29 CL   UNL     1     -12.345  14.480  64.091  1.00  0.00    -0.441 Cl 
HETATM   30  C   UNL     1     -11.630  15.340  65.478  1.00  0.00    -0.067 C  
ENDBRANCH  27  28
BRANCH  27  31
HETATM   31  C   UNL     1     -10.487  18.525  66.349  1.00  0.00    -0.406 C  
HETATM   32 CL   UNL     1      -7.944  19.469  65.867  1.00  0.00    -0.299 Cl 
HETATM   33  C   UNL     1      -9.401  19.463  66.903  1.00  0.00    -0.329 C  
ENDBRANCH  27  31
ENDBRANCH  24  25
ENDBRANCH  12  24
TORSDOF 5
ENDMDL
MODEL       39
REMARK 921   NORMALIZED FREE ENERGY PREDICTED BY IDOCK:   -5.93 KCAL/MOL
REMARK 922        TOTAL FREE ENERGY PREDICTED BY IDOCK:   -8.45 KCAL/MOL
REMARK 923 INTER-LIGAND FREE ENERGY PREDICTED BY IDOCK:   -7.07 KCAL/MOL
REMARK 924 INTRA-LIGAND FREE ENERGY PREDICTED BY IDOCK:   -1.38 KCAL/MOL
REMARK 927      BINDING AFFINITY PREDICTED BY RF-SCORE:    0.00 PKD
ROOT
HETATM    1  C   UNL     1     -10.885  14.031  65.490  1.00  0.00    -0.311 C  
HETATM    2  C   UNL     1     -12.213  13.662  65.840  1.00  0.00    -0.502 C  
HETATM    3  C   UNL     1     -11.291  13.507  67.018  1.00  0.00    -0.348 C  
HETATM    4  C   UNL     1      -9.407  14.301  66.794  1.00  0.00    -0.276 C  
HETATM    5  C   UNL     1     -10.574  14.922  67.122  1.00  0.00    -0.285 C  
HETATM    6  C   UNL     1      -8.223   9.504  67.287  1.00  0.00    -0.114 A  
HETATM    7  C   UNL     1     -10.052  13.899  68.660  1.00  0.00    -0.203 C  
HETATM    8  C   UNL     1      -9.981  12.459  65.316  1.00  0.00    -0.234 C  
HETATM    9  C   UNL     1     -11.084  16.318  67.290  1.00  0.00    -0.055 C  
HETATM   10  C   UNL     1      -9.283  12.349  68.153  1.00  0.00    -0.205 C  
HETATM   11  C   UNL     1      -7.646   8.262  66.969  1.00  0.00    -0.092 A  
HETATM   12  C   UNL     1      -7.738   7.765  65.671  1.00  0.00    -0.101 A  
HETATM   13  C   UNL     1     -10.702  11.518  64.329  1.00  0.00    -0.416 C  
HETATM   14  C   UNL     1      -9.672  11.548  66.692  1.00  0.00    -0.221 C  
HETATM   15  C   UNL     1      -8.889  10.273  66.316  1.00  0.00    -0.161 A  
HETATM   16  C   UNL     1      -9.022   9.719  65.014  1.00  0.00    -0.247 A  
HETATM   17  C   UNL     1      -8.431   8.478  64.704  1.00  0.00    -0.127 A  
HETATM   18  C   UNL     1      -9.784  10.382  63.893  1.00  0.00    -0.367 C  
ENDROOT
BRANCH   4  19
HETATM   19  O   UNL     1      -8.614  15.407  67.555  1.00  0.00    -0.161 OA 
HETATM   20  O   UNL     1      -7.606  17.038  66.285  1.00  0.00    -0.285 OA 
HETATM   21  O   UNL     1      -5.511  16.302  66.989  1.00  0.00    -0.321 OA 
HETATM   22  O   UNL     1      -7.145  16.720  68.647  1.00  0.00    -0.173 OA 
HETATM   23  P   UNL     1      -6.976  15.879  67.256  1.00  0.00    -0.140 P  
ENDBRANCH   4  19
BRANCH  12  24
HETATM   24  O   UNL     1      -7.193   6.496  65.398  1.00  0.00    -0.069 OA 
BRANCH  24  25
HETATM   25  C   UNL     1      -7.626   5.455  66.223  1.00  0.00    -0.087 C  
HETATM   26  O   UNL     1      -7.052   5.067  67.233  1.00  0.00    -0.064 OA 
HETATM   27  N   UNL     1      -8.891   5.008  65.859  1.00  0.00    -0.130 N  
BRANCH  27  28
HETATM   28  C   UNL     1      -9.137   4.566  64.482  1.00  0.00    -0.148 C  
HETATM   29 CL   UNL     1     -10.691   3.355  62.606  1.00  0.00    -0.184 Cl 
HETATM   30  C   UNL     1     -10.470   3.848  64.304  1.00  0.00    -0.233 C  
ENDBRANCH  27  28
BRANCH  27  31
HETATM   31  C   UNL     1      -9.755   4.489  66.925  1.00  0.00    -0.205 C  
HETATM   32 CL   UNL     1     -11.111   6.887  66.983  1.00  0.00    -0.427 Cl 
HETATM   33  C   UNL     1     -10.297   5.570  67.877  1.00  0.00    -0.182 C  
ENDBRANCH  27  31
ENDBRANCH  24  25
ENDBRANCH  12  24
TORSDOF 5
ENDMDL
MODEL       40
REMARK 921   NORMALIZED FREE ENERGY PREDICTED BY IDOCK:   -5.87 KCAL/MOL
REMARK 922        TOTAL FREE ENERGY PREDICTED BY IDOCK:   -8.37 KCAL/MOL
REMARK 923 INTER-LIGAND FREE ENERGY PREDICTED BY IDOCK:   -7.65 KCAL/MOL
REMARK 924 INTRA-LIGAND FREE ENERGY PREDICTED BY IDOCK:   -0.72 KCAL/MOL
REMARK 927      BINDING AFFINITY PREDICTED BY RF-SCORE:    0.00 PKD
ROOT
HETATM    1  C   UNL     1      -8.885  14.900  68.089  1.00  0.00    -0.174 C  
HETATM    2  C   UNL     1      -8.579  15.214  66.736  1.00  0.00    -0.297 C  
HETATM    3  C   UNL     1      -9.979  14.679  66.854  1.00  0.00    -0.254 C  
HETATM    4  C   UNL     1     -10.707  14.479  68.768  1.00  0.00    -0.253 C  
HETATM    5  C   UNL     1     -10.636  15.589  67.981  1.00  0.00    -0.270 C  
HETATM    6  C   UNL     1     -10.727   9.712  67.378  1.00  0.00    -0.308 A  
HETATM    7  C   UNL     1     -12.028  14.491  67.246  1.00  0.00    -0.375 C  
HETATM    8  C   UNL     1      -8.804  13.082  68.187  1.00  0.00    -0.194 C  
HETATM    9  C   UNL     1     -10.839  17.064  68.116  1.00  0.00    -0.338 C  
HETATM   10  C   UNL     1     -11.599  12.746  67.399  1.00  0.00    -0.415 C  
HETATM   11  C   UNL     1     -10.447   8.336  67.430  1.00  0.00    -0.353 A  
HETATM   12  C   UNL     1      -9.158   7.900  67.729  1.00  0.00    -0.134 A  
HETATM   13  C   UNL     1      -7.450  12.563  67.663  1.00  0.00    -0.139 C  
HETATM   14  C   UNL     1      -9.986  12.178  67.408  1.00  0.00    -0.206 C  
HETATM   15  C   UNL     1      -9.732  10.673  67.633  1.00  0.00    -0.186 A  
HETATM   16  C   UNL     1      -8.413  10.206  67.878  1.00  0.00    -0.118 A  
HETATM   17  C   UNL     1      -8.145   8.825  67.937  1.00  0.00    -0.107 A  
HETATM   18  C   UNL     1      -7.224  11.114  68.080  1.00  0.00    -0.080 C  
ENDROOT
BRANCH   4  19
HETATM   19  O   UNL     1     -11.921  15.101  69.522  1.00  0.00    -0.312 OA 
HETATM   20  O   UNL     1     -11.501  16.076  71.562  1.00  0.00    -0.416 OA 
HETATM   21  O   UNL     1     -12.815  14.464  72.611  1.00  0.00    -0.388 OA 
HETATM   22  O   UNL     1     -13.740  15.599  70.754  1.00  0.00    -0.490 OA 
HETATM   23  P   UNL     1     -12.393  14.765  71.153  1.00  0.00    -0.393 P  
ENDBRANCH   4  19
BRANCH  12  24
HETATM   24  O   UNL     1      -8.899   6.516  67.724  1.00  0.00    -0.115 OA 
BRANCH  24  25
HETATM   25  C   UNL     1      -9.836   5.717  68.384  1.00  0.00    -0.139 C  
HETATM   26  O   UNL     1     -10.831   5.222  67.870  1.00  0.00    -0.034 OA 
HETATM   27  N   UNL     1      -9.420   5.401  69.672  1.00  0.00    -0.137 N  
BRANCH  27  28
HETATM   28  C   UNL     1      -9.072   6.476  70.607  1.00  0.00    -0.148 C  
HETATM   29 CL   UNL     1      -9.775   8.455  72.337  1.00  0.00    -0.366 Cl 
HETATM   30  C   UNL     1     -10.287   7.174  71.210  1.00  0.00    -0.198 C  
ENDBRANCH  27  28
BRANCH  27  31
HETATM   31  C   UNL     1      -9.847   4.109  70.220  1.00  0.00    -0.169 C  
HETATM   32 CL   UNL     1      -7.218   3.289  70.311  1.00  0.00    -0.040 Cl 
HETATM   33  C   UNL     1      -8.914   2.937  69.867  1.00  0.00    -0.106 C  
ENDBRANCH  27  31
ENDBRANCH  24  25
ENDBRANCH  12  24
TORSDOF 5
ENDMDL
MODEL       41
REMARK 921   NORMALIZED FREE ENERGY PREDICTED BY IDOCK:   -5.80 KCAL/MOL
REMARK 922        TOTAL FREE ENERGY PREDICTED BY IDOCK:   -8.28 KCAL/MOL
REMARK 923 INTER-LIGAND FREE ENERGY PREDICTED BY IDOCK:   -7.34 KCAL/MOL
REMARK 924 INTRA-LIGAND FREE ENERGY PREDICTED BY IDOCK:   -0.94 KCAL/MOL
REMARK 927      BINDING AFFINITY PREDICTED BY RF-SCORE:    0.00 PKD
ROOT
HETATM    1  C   UNL     1     -10.584  10.910  66.612  1.00  0.00    -0.305 C  
HETATM    2  C   UNL     1     -10.408  10.787  65.206  1.00  0.00    -0.327 C  
HETATM    3  C   UNL     1      -9.169  10.350  65.937  1.00  0.00    -0.205 C  
HETATM    4  C   UNL     1      -9.352  10.149  67.976  1.00  0.00    -0.141 C  
HETATM    5  C   UNL     1      -9.708   9.283  66.986  1.00  0.00    -0.241 C  
HETATM    6  C   UNL     1      -6.010  13.817  67.809  1.00  0.00    -0.124 A  
HETATM    7  C   UNL     1      -7.790   9.253  67.070  1.00  0.00    -0.098 C  
HETATM    8  C   UNL     1      -9.637  12.392  67.085  1.00  0.00    -0.206 C  
HETATM    9  C   UNL     1     -10.470   8.005  66.846  1.00  0.00    -0.387 C  
HETATM   10  C   UNL     1      -7.152  10.896  67.451  1.00  0.00    -0.093 C  
HETATM   11  C   UNL     1      -5.437  15.074  68.068  1.00  0.00    -0.140 A  
HETATM   12  C   UNL     1      -6.215  16.225  67.976  1.00  0.00    -0.123 A  
HETATM   13  C   UNL     1     -10.066  13.610  66.242  1.00  0.00    -0.301 C  
HETATM   14  C   UNL     1      -7.960  12.337  67.010  1.00  0.00    -0.123 C  
HETATM   15  C   UNL     1      -7.367  13.687  67.464  1.00  0.00    -0.178 A  
HETATM   16  C   UNL     1      -8.127  14.879  67.318  1.00  0.00    -0.234 A  
HETATM   17  C   UNL     1      -7.545  16.133  67.590  1.00  0.00    -0.165 A  
HETATM   18  C   UNL     1      -9.567  14.908  66.869  1.00  0.00    -0.256 C  
ENDROOT
BRANCH   4  19
HETATM   19  O   UNL     1      -9.177   8.947  68.953  1.00  0.00    -0.140 OA 
HETATM   20  O   UNL     1     -10.924   8.491  70.378  1.00  0.00    -0.237 OA 
HETATM   21  O   UNL     1      -9.581   9.021  72.206  1.00  0.00    -0.287 OA 
HETATM   22  O   UNL     1      -8.723   7.496  70.615  1.00  0.00    -0.139 OA 
HETATM   23  P   UNL     1      -9.391   8.986  70.670  1.00  0.00    -0.267 P  
ENDBRANCH   4  19
BRANCH  12  24
HETATM   24  O   UNL     1      -5.600  17.472  68.193  1.00  0.00    -0.141 OA 
BRANCH  24  25
HETATM   25  C   UNL     1      -5.959  18.493  67.310  1.00  0.00    -0.157 C  
HETATM   26  O   UNL     1      -5.948  18.410  66.088  1.00  0.00    -0.154 OA 
HETATM   27  N   UNL     1      -6.501  19.582  67.982  1.00  0.00    -0.226 N  
BRANCH  27  28
HETATM   28  C   UNL     1      -5.738  20.225  69.059  1.00  0.00    -0.288 C  
HETATM   29 CL   UNL     1      -5.280  20.715  71.695  1.00  0.00    -0.282 Cl 
HETATM   30  C   UNL     1      -6.267  19.905  70.452  1.00  0.00    -0.295 C  
ENDBRANCH  27  28
BRANCH  27  31
HETATM   31  C   UNL     1      -7.517  20.372  67.279  1.00  0.00    -0.321 C  
HETATM   32 CL   UNL     1      -9.486  19.161  68.779  1.00  0.00    -0.444 Cl 
HETATM   33  C   UNL     1      -8.890  19.683  67.176  1.00  0.00    -0.312 C  
ENDBRANCH  27  31
ENDBRANCH  24  25
ENDBRANCH  12  24
TORSDOF 5
ENDMDL
MODEL       42
REMARK 921   NORMALIZED FREE ENERGY PREDICTED BY IDOCK:   -5.76 KCAL/MOL
REMARK 922        TOTAL FREE ENERGY PREDICTED BY IDOCK:   -8.23 KCAL/MOL
REMARK 923 INTER-LIGAND FREE ENERGY PREDICTED BY IDOCK:   -7.52 KCAL/MOL
REMARK 924 INTRA-LIGAND FREE ENERGY PREDICTED BY IDOCK:   -0.71 KCAL/MOL
REMARK 927      BINDING AFFINITY PREDICTED BY RF-SCORE:    0.00 PKD
ROOT
HETATM    1  C   UNL     1     -11.975  13.766  68.468  1.00  0.00    -0.402 C  
HETATM    2  C   UNL     1     -11.334  14.697  69.331  1.00  0.00    -0.314 C  
HETATM    3  C   UNL     1     -10.322  13.966  68.493  1.00  0.00    -0.244 C  
HETATM    4  C   UNL     1     -11.082  12.821  66.962  1.00  0.00    -0.278 C  
HETATM    5  C   UNL     1     -10.851  14.163  67.007  1.00  0.00    -0.295 C  
HETATM    6  C   UNL     1      -9.005   9.244  69.709  1.00  0.00    -0.180 A  
HETATM    7  C   UNL     1      -9.130  13.321  66.896  1.00  0.00    -0.235 C  
HETATM    8  C   UNL     1     -11.674  12.133  69.217  1.00  0.00    -0.386 C  
HETATM    9  C   UNL     1     -11.147  15.372  66.178  1.00  0.00    -0.230 C  
HETATM   10  C   UNL     1      -9.124  11.778  67.830  1.00  0.00    -0.181 C  
HETATM   11  C   UNL     1      -8.913   8.050  70.444  1.00  0.00    -0.146 A  
HETATM   12  C   UNL     1      -9.907   7.722  71.364  1.00  0.00    -0.167 A  
HETATM   13  C   UNL     1     -12.130  12.112  70.690  1.00  0.00    -0.344 C  
HETATM   14  C   UNL     1     -10.113  11.513  69.200  1.00  0.00     0.006 C  
HETATM   15  C   UNL     1     -10.091  10.123  69.871  1.00  0.00    -0.268 A  
HETATM   16  C   UNL     1     -11.061   9.797  70.856  1.00  0.00    -0.428 A  
HETATM   17  C   UNL     1     -10.965   8.593  71.581  1.00  0.00    -0.378 A  
HETATM   18  C   UNL     1     -12.233  10.681  71.206  1.00  0.00    -0.447 C  
ENDROOT
BRANCH   4  19
HETATM   19  O   UNL     1     -10.904  12.851  65.413  1.00  0.00    -0.276 OA 
HETATM   20  O   UNL     1     -12.667  13.645  64.170  1.00  0.00    -0.657 OA 
HETATM   21  O   UNL     1     -12.943  11.543  63.205  1.00  0.00    -0.329 OA 
HETATM   22  O   UNL     1     -10.773  12.482  63.195  1.00  0.00    -0.305 OA 
HETATM   23  P   UNL     1     -11.981  12.160  64.248  1.00  0.00    -0.347 P  
ENDBRANCH   4  19
BRANCH  12  24
HETATM   24  O   UNL     1      -9.760   6.544  72.120  1.00  0.00    -0.153 OA 
BRANCH  24  25
HETATM   25  C   UNL     1     -10.252   5.376  71.533  1.00  0.00    -0.219 C  
HETATM   26  O   UNL     1     -11.427   5.160  71.262  1.00  0.00     0.356 OA 
HETATM   27  N   UNL     1      -9.222   4.535  71.127  1.00  0.00    -0.133 N  
BRANCH  27  28
HETATM   28  C   UNL     1      -8.209   4.106  72.100  1.00  0.00    -0.101 C  
HETATM   29 CL   UNL     1      -5.655   3.428  72.741  1.00  0.00     0.000 Cl 
HETATM   30  C   UNL     1      -6.820   3.938  71.494  1.00  0.00    -0.027 C  
ENDBRANCH  27  28
BRANCH  27  31
HETATM   31  C   UNL     1      -9.462   3.692  69.951  1.00  0.00    -0.192 C  
HETATM   32 CL   UNL     1      -7.767   5.285  68.474  1.00  0.00    -0.079 Cl 
HETATM   33  C   UNL     1      -9.334   4.435  68.609  1.00  0.00    -0.147 C  
ENDBRANCH  27  31
ENDBRANCH  24  25
ENDBRANCH  12  24
TORSDOF 5
ENDMDL
MODEL       43
REMARK 921   NORMALIZED FREE ENERGY PREDICTED BY IDOCK:   -5.74 KCAL/MOL
REMARK 922        TOTAL FREE ENERGY PREDICTED BY IDOCK:   -8.20 KCAL/MOL
REMARK 923 INTER-LIGAND FREE ENERGY PREDICTED BY IDOCK:   -7.39 KCAL/MOL
REMARK 924 INTRA-LIGAND FREE ENERGY PREDICTED BY IDOCK:   -0.81 KCAL/MOL
REMARK 927      BINDING AFFINITY PREDICTED BY RF-SCORE:    0.00 PKD
ROOT
HETATM    1  C   UNL     1     -10.766   7.925  68.594  1.00  0.00    -0.073 C  
HETATM    2  C   UNL     1     -10.675   7.313  67.314  1.00  0.00    -0.391 C  
HETATM    3  C   UNL     1      -9.310   7.480  67.922  1.00  0.00    -0.144 C  
HETATM    4  C   UNL     1      -9.270   8.045  69.899  1.00  0.00    -0.152 C  
HETATM    5  C   UNL     1      -9.453   6.809  69.356  1.00  0.00    -0.147 C  
HETATM    6  C   UNL     1      -7.079  12.010  67.866  1.00  0.00    -0.097 A  
HETATM    7  C   UNL     1      -7.599   7.242  69.107  1.00  0.00    -0.102 C  
HETATM    8  C   UNL     1     -10.225   9.646  68.340  1.00  0.00    -0.214 C  
HETATM    9  C   UNL     1      -9.846   5.440  69.812  1.00  0.00    -0.268 C  
HETATM   10  C   UNL     1      -7.405   9.002  68.767  1.00  0.00    -0.076 C  
HETATM   11  C   UNL     1      -6.852  13.363  67.561  1.00  0.00    -0.154 A  
HETATM   12  C   UNL     1      -7.920  14.185  67.207  1.00  0.00    -0.150 A  
HETATM   13  C   UNL     1     -11.036  10.317  67.212  1.00  0.00    -0.277 C  
HETATM   14  C   UNL     1      -8.608   9.942  67.995  1.00  0.00    -0.121 C  
HETATM   15  C   UNL     1      -8.372  11.458  67.833  1.00  0.00    -0.137 A  
HETATM   16  C   UNL     1      -9.437  12.300  67.413  1.00  0.00    -0.181 A  
HETATM   17  C   UNL     1      -9.200  13.657  67.119  1.00  0.00    -0.244 A  
HETATM   18  C   UNL     1     -10.861  11.831  67.243  1.00  0.00    -0.300 C  
ENDROOT
BRANCH   4  19
HETATM   19  O   UNL     1      -8.697   7.385  71.190  1.00  0.00    -0.135 OA 
HETATM   20  O   UNL     1      -9.753   7.872  73.174  1.00  0.00    -0.256 OA 
HETATM   21  O   UNL     1      -7.832   8.942  73.942  1.00  0.00    -0.377 OA 
HETATM   22  O   UNL     1      -7.597   6.763  73.055  1.00  0.00    -0.087 OA 
HETATM   23  P   UNL     1      -8.240   8.207  72.643  1.00  0.00    -0.148 P  
ENDBRANCH   4  19
BRANCH  12  24
HETATM   24  O   UNL     1      -7.652  15.522  66.859  1.00  0.00    -0.209 OA 
BRANCH  24  25
HETATM   25  C   UNL     1      -8.769  16.340  66.673  1.00  0.00    -0.259 C  
HETATM   26  O   UNL     1      -9.418  16.428  65.638  1.00  0.00    -0.486 OA 
HETATM   27  N   UNL     1      -9.174  16.930  67.865  1.00  0.00    -0.230 N  
BRANCH  27  28
HETATM   28  C   UNL     1      -8.216  17.721  68.646  1.00  0.00    -0.271 C  
HETATM   29 CL   UNL     1      -6.805  20.004  69.086  1.00  0.00    -0.327 Cl 
HETATM   30  C   UNL     1      -7.969  19.113  68.074  1.00  0.00    -0.296 C  
ENDBRANCH  27  28
BRANCH  27  31
HETATM   31  C   UNL     1     -10.606  17.205  68.029  1.00  0.00    -0.374 C  
HETATM   32 CL   UNL     1     -10.682  15.482  70.178  1.00  0.00    -0.325 Cl 
HETATM   33  C   UNL     1     -11.404  16.040  68.640  1.00  0.00    -0.383 C  
ENDBRANCH  27  31
ENDBRANCH  24  25
ENDBRANCH  12  24
TORSDOF 5
ENDMDL
MODEL       44
REMARK 921   NORMALIZED FREE ENERGY PREDICTED BY IDOCK:   -5.68 KCAL/MOL
REMARK 922        TOTAL FREE ENERGY PREDICTED BY IDOCK:   -8.13 KCAL/MOL
REMARK 923 INTER-LIGAND FREE ENERGY PREDICTED BY IDOCK:   -6.93 KCAL/MOL
REMARK 924 INTRA-LIGAND FREE ENERGY PREDICTED BY IDOCK:   -1.20 KCAL/MOL
REMARK 927      BINDING AFFINITY PREDICTED BY RF-SCORE:    0.00 PKD
ROOT
HETATM    1  C   UNL     1      -8.603  15.586  68.337  1.00  0.00    -0.168 C  
HETATM    2  C   UNL     1      -8.226  16.252  67.139  1.00  0.00    -0.219 C  
HETATM    3  C   UNL     1      -9.615  15.688  67.018  1.00  0.00    -0.233 C  
HETATM    4  C   UNL     1     -10.449  14.977  68.758  1.00  0.00    -0.238 C  
HETATM    5  C   UNL     1     -10.364  16.257  68.300  1.00  0.00    -0.272 C  
HETATM    6  C   UNL     1     -10.246  10.752  66.159  1.00  0.00    -0.308 A  
HETATM    7  C   UNL     1     -11.677  15.377  67.211  1.00  0.00     0.006 C  
HETATM    8  C   UNL     1      -8.475  13.809  67.956  1.00  0.00    -0.176 C  
HETATM    9  C   UNL     1     -10.619  17.640  68.807  1.00  0.00    -0.191 C  
HETATM   10  C   UNL     1     -11.207  13.659  66.924  1.00  0.00    -0.326 C  
HETATM   11  C   UNL     1      -9.929   9.414  65.863  1.00  0.00    -0.327 A  
HETATM   12  C   UNL     1      -8.648   8.931  66.120  1.00  0.00    -0.140 A  
HETATM   13  C   UNL     1      -7.077  13.465  67.403  1.00  0.00    -0.108 C  
HETATM   14  C   UNL     1      -9.581  13.130  66.889  1.00  0.00    -0.248 C  
HETATM   15  C   UNL     1      -9.297  11.623  66.724  1.00  0.00    -0.193 A  
HETATM   16  C   UNL     1      -7.981  11.124  66.923  1.00  0.00    -0.151 A  
HETATM   17  C   UNL     1      -7.677   9.780  66.632  1.00  0.00    -0.102 A  
HETATM   18  C   UNL     1      -6.835  11.960  67.436  1.00  0.00    -0.130 C  
ENDROOT
BRANCH   4  19
HETATM   19  O   UNL     1     -11.725  15.361  69.569  1.00  0.00    -0.304 OA 
HETATM   20  O   UNL     1     -11.442  15.854  71.797  1.00  0.00    -0.407 OA 
HETATM   21  O   UNL     1     -12.719  13.993  72.378  1.00  0.00    -0.309 OA 
HETATM   22  O   UNL     1     -13.618  15.491  70.783  1.00  0.00    -0.487 OA 
HETATM   23  P   UNL     1     -12.249  14.639  71.052  1.00  0.00    -0.381 P  
ENDBRANCH   4  19
BRANCH  12  24
HETATM   24  O   UNL     1      -8.348   7.601  65.767  1.00  0.00    -0.128 OA 
BRANCH  24  25
HETATM   25  C   UNL     1      -8.150   6.717  66.830  1.00  0.00    -0.113 C  
HETATM   26  O   UNL     1      -7.069   6.459  67.345  1.00  0.00    -0.072 OA 
HETATM   27  N   UNL     1      -9.358   6.277  67.359  1.00  0.00    -0.115 N  
BRANCH  27  28
HETATM   28  C   UNL     1     -10.348   5.643  66.481  1.00  0.00    -0.232 C  
HETATM   29 CL   UNL     1     -11.001   3.977  64.433  1.00  0.00    -0.210 Cl 
HETATM   30  C   UNL     1      -9.732   4.707  65.447  1.00  0.00    -0.162 C  
ENDBRANCH  27  28
BRANCH  27  31
HETATM   31  C   UNL     1      -9.391   5.963  68.791  1.00  0.00    -0.122 C  
HETATM   32 CL   UNL     1     -10.431   8.462  69.307  1.00  0.00    -0.227 Cl 
HETATM   33  C   UNL     1      -9.241   7.190  69.708  1.00  0.00    -0.143 C  
ENDBRANCH  27  31
ENDBRANCH  24  25
ENDBRANCH  12  24
TORSDOF 5
ENDMDL
MODEL       45
REMARK 921   NORMALIZED FREE ENERGY PREDICTED BY IDOCK:   -5.64 KCAL/MOL
REMARK 922        TOTAL FREE ENERGY PREDICTED BY IDOCK:   -8.07 KCAL/MOL
REMARK 923 INTER-LIGAND FREE ENERGY PREDICTED BY IDOCK:   -7.69 KCAL/MOL
REMARK 924 INTRA-LIGAND FREE ENERGY PREDICTED BY IDOCK:   -0.38 KCAL/MOL
REMARK 927      BINDING AFFINITY PREDICTED BY RF-SCORE:    0.00 PKD
ROOT
HETATM    1  C   UNL     1      -6.831   6.884  72.489  1.00  0.00    -0.062 C  
HETATM    2  C   UNL     1      -6.306   7.758  73.479  1.00  0.00    -0.075 C  
HETATM    3  C   UNL     1      -7.765   7.492  73.727  1.00  0.00    -0.151 C  
HETATM    4  C   UNL     1      -8.610   5.998  72.592  1.00  0.00    -0.118 C  
HETATM    5  C   UNL     1      -7.861   5.905  73.727  1.00  0.00    -0.099 C  
HETATM    6  C   UNL     1     -11.252   9.869  70.954  1.00  0.00    -0.433 A  
HETATM    7  C   UNL     1      -9.575   6.584  74.262  1.00  0.00    -0.280 C  
HETATM    8  C   UNL     1      -7.811   7.948  71.382  1.00  0.00    -0.092 C  
HETATM    9  C   UNL     1      -7.194   4.838  74.535  1.00  0.00    -0.077 C  
HETATM   10  C   UNL     1     -10.233   7.693  73.000  1.00  0.00    -0.379 C  
HETATM   11  C   UNL     1     -11.813  10.771  70.033  1.00  0.00    -0.424 A  
HETATM   12  C   UNL     1     -11.030  11.294  69.006  1.00  0.00    -0.236 A  
HETATM   13  C   UNL     1      -6.964   9.127  70.860  1.00  0.00    -0.101 C  
HETATM   14  C   UNL     1      -9.239   8.618  71.961  1.00  0.00    -0.338 C  
HETATM   15  C   UNL     1      -9.908   9.467  70.859  1.00  0.00    -0.338 A  
HETATM   16  C   UNL     1      -9.113  10.058  69.840  1.00  0.00    -0.188 A  
HETATM   17  C   UNL     1      -9.688  10.953  68.917  1.00  0.00    -0.198 A  
HETATM   18  C   UNL     1      -7.637   9.795  69.667  1.00  0.00    -0.120 C  
ENDROOT
BRANCH   4  19
HETATM   19  O   UNL     1      -9.300   4.645  72.946  1.00  0.00    -0.126 OA 
HETATM   20  O   UNL     1      -8.219   2.718  72.310  1.00  0.00    -0.054 OA 
HETATM   21  O   UNL     1      -9.967   2.208  70.858  1.00  0.00    -0.040 OA 
HETATM   22  O   UNL     1     -10.517   2.755  73.092  1.00  0.00    -0.140 OA 
HETATM   23  P   UNL     1      -9.652   3.359  71.844  1.00  0.00    -0.162 P  
ENDBRANCH   4  19
BRANCH  12  24
HETATM   24  O   UNL     1     -11.609  12.232  68.131  1.00  0.00    -0.297 OA 
BRANCH  24  25
HETATM   25  C   UNL     1     -11.617  11.883  66.779  1.00  0.00    -0.268 C  
HETATM   26  O   UNL     1     -11.423  10.757  66.337  1.00  0.00    -0.045 OA 
HETATM   27  N   UNL     1     -12.043  12.938  65.981  1.00  0.00    -0.439 N  
BRANCH  27  28
HETATM   28  C   UNL     1     -11.356  14.233  66.063  1.00  0.00    -0.335 C  
HETATM   29 CL   UNL     1      -9.086  15.726  66.189  1.00  0.00    -0.369 Cl 
HETATM   30  C   UNL     1      -9.837  14.113  66.099  1.00  0.00    -0.308 C  
ENDBRANCH  27  28
BRANCH  27  31
HETATM   31  C   UNL     1     -12.760  12.604  64.746  1.00  0.00    -0.379 C  
HETATM   32 CL   UNL     1     -10.356  12.086  63.501  1.00  0.00    -0.466 Cl 
HETATM   33  C   UNL     1     -11.959  12.878  63.461  1.00  0.00    -0.556 C  
ENDBRANCH  27  31
ENDBRANCH  24  25
ENDBRANCH  12  24
TORSDOF 5
ENDMDL
MODEL       46
REMARK 921   NORMALIZED FREE ENERGY PREDICTED BY IDOCK:   -5.63 KCAL/MOL
REMARK 922        TOTAL FREE ENERGY PREDICTED BY IDOCK:   -8.06 KCAL/MOL
REMARK 923 INTER-LIGAND FREE ENERGY PREDICTED BY IDOCK:   -7.19 KCAL/MOL
REMARK 924 INTRA-LIGAND FREE ENERGY PREDICTED BY IDOCK:   -0.87 KCAL/MOL
REMARK 927      BINDING AFFINITY PREDICTED BY RF-SCORE:    0.00 PKD
ROOT
HETATM    1  C   UNL     1     -10.147   6.590  67.487  1.00  0.00    -0.193 C  
HETATM    2  C   UNL     1      -9.208   6.056  66.563  1.00  0.00    -0.158 C  
HETATM    3  C   UNL     1      -8.518   6.503  67.822  1.00  0.00    -0.118 C  
HETATM    4  C   UNL     1      -9.750   6.997  69.394  1.00  0.00    -0.159 C  
HETATM    5  C   UNL     1      -9.331   5.770  68.975  1.00  0.00    -0.144 C  
HETATM    6  C   UNL     1      -7.634  11.416  68.587  1.00  0.00    -0.130 A  
HETATM    7  C   UNL     1      -7.812   6.613  69.791  1.00  0.00    -0.115 C  
HETATM    8  C   UNL     1      -9.918   8.396  67.413  1.00  0.00    -0.274 C  
HETATM    9  C   UNL     1      -9.632   4.334  69.262  1.00  0.00    -0.261 C  
HETATM   10  C   UNL     1      -7.813   8.383  69.443  1.00  0.00    -0.103 C  
HETATM   11  C   UNL     1      -7.549  12.795  68.329  1.00  0.00    -0.134 A  
HETATM   12  C   UNL     1      -8.350  13.369  67.344  1.00  0.00    -0.190 A  
HETATM   13  C   UNL     1     -10.034   8.906  65.962  1.00  0.00    -0.199 C  
HETATM   14  C   UNL     1      -8.501   9.056  68.029  1.00  0.00    -0.125 C  
HETATM   15  C   UNL     1      -8.525  10.591  67.876  1.00  0.00    -0.119 A  
HETATM   16  C   UNL     1      -9.288  11.188  66.837  1.00  0.00    -0.189 A  
HETATM   17  C   UNL     1      -9.202  12.572  66.593  1.00  0.00    -0.223 A  
HETATM   18  C   UNL     1     -10.218  10.419  65.931  1.00  0.00    -0.302 C  
ENDROOT
BRANCH   4  19
HETATM   19  O   UNL     1      -9.917   6.438  70.840  1.00  0.00    -0.183 OA 
HETATM   20  O   UNL     1     -12.061   6.249  71.649  1.00  0.00    -0.306 OA 
HETATM   21  O   UNL     1     -11.595   7.848  73.278  1.00  0.00    -0.252 OA 
HETATM   22  O   UNL     1     -10.090   6.038  73.050  1.00  0.00    -0.173 OA 
HETATM   23  P   UNL     1     -10.803   7.182  72.127  1.00  0.00    -0.245 P  
ENDBRANCH   4  19
BRANCH  12  24
HETATM   24  O   UNL     1      -8.204  14.744  67.077  1.00  0.00    -0.210 OA 
BRANCH  24  25
HETATM   25  C   UNL     1      -9.154  15.584  67.663  1.00  0.00    -0.182 C  
HETATM   26  O   UNL     1      -9.384  15.664  68.863  1.00  0.00    -0.194 OA 
HETATM   27  N   UNL     1      -9.705  16.458  66.733  1.00  0.00    -0.241 N  
BRANCH  27  28
HETATM   28  C   UNL     1     -10.328  15.925  65.515  1.00  0.00    -0.400 C  
HETATM   29 CL   UNL     1     -12.174  14.365  64.266  1.00  0.00    -0.496 Cl 
HETATM   30  C   UNL     1     -11.471  14.954  65.793  1.00  0.00    -0.281 C  
ENDBRANCH  27  28
BRANCH  27  31
HETATM   31  C   UNL     1     -10.129  17.776  67.215  1.00  0.00    -0.337 C  
HETATM   32 CL   UNL     1      -7.750  18.854  66.337  1.00  0.00    -0.278 Cl 
HETATM   33  C   UNL     1      -8.969  18.695  67.636  1.00  0.00    -0.275 C  
ENDBRANCH  27  31
ENDBRANCH  24  25
ENDBRANCH  12  24
TORSDOF 5
ENDMDL
MODEL       47
REMARK 921   NORMALIZED FREE ENERGY PREDICTED BY IDOCK:   -5.61 KCAL/MOL
REMARK 922        TOTAL FREE ENERGY PREDICTED BY IDOCK:   -8.04 KCAL/MOL
REMARK 923 INTER-LIGAND FREE ENERGY PREDICTED BY IDOCK:   -7.43 KCAL/MOL
REMARK 924 INTRA-LIGAND FREE ENERGY PREDICTED BY IDOCK:   -0.61 KCAL/MOL
REMARK 927      BINDING AFFINITY PREDICTED BY RF-SCORE:    0.00 PKD
ROOT
HETATM    1  C   UNL     1      -8.962  14.964  67.941  1.00  0.00    -0.177 C  
HETATM    2  C   UNL     1      -8.747  15.288  66.573  1.00  0.00    -0.314 C  
HETATM    3  C   UNL     1     -10.117  14.703  66.771  1.00  0.00    -0.266 C  
HETATM    4  C   UNL     1     -10.725  14.480  68.724  1.00  0.00    -0.253 C  
HETATM    5  C   UNL     1     -10.740  15.590  67.935  1.00  0.00    -0.294 C  
HETATM    6  C   UNL     1     -10.656   9.713  67.334  1.00  0.00    -0.333 A  
HETATM    7  C   UNL     1     -12.132  14.442  67.281  1.00  0.00    -0.358 C  
HETATM    8  C   UNL     1      -8.811  13.151  68.033  1.00  0.00    -0.191 C  
HETATM    9  C   UNL     1     -10.988  17.057  68.082  1.00  0.00    -0.263 C  
HETATM   10  C   UNL     1     -11.633  12.714  67.408  1.00  0.00    -0.421 C  
HETATM   11  C   UNL     1     -10.324   8.348  67.369  1.00  0.00    -0.355 A  
HETATM   12  C   UNL     1      -9.005   7.959  67.593  1.00  0.00    -0.131 A  
HETATM   13  C   UNL     1      -7.471  12.680  67.431  1.00  0.00    -0.146 C  
HETATM   14  C   UNL     1     -10.003  12.204  67.323  1.00  0.00    -0.211 C  
HETATM   15  C   UNL     1      -9.683  10.710  67.532  1.00  0.00    -0.189 A  
HETATM   16  C   UNL     1      -8.336  10.290  67.699  1.00  0.00    -0.114 A  
HETATM   17  C   UNL     1      -8.016   8.919  67.742  1.00  0.00    -0.102 A  
HETATM   18  C   UNL     1      -7.171  11.240  67.834  1.00  0.00    -0.086 C  
ENDROOT
BRANCH   4  19
HETATM   19  O   UNL     1     -11.916  15.059  69.547  1.00  0.00    -0.303 OA 
HETATM   20  O   UNL     1     -11.425  15.968  71.602  1.00  0.00    -0.417 OA 
HETATM   21  O   UNL     1     -12.676  14.303  72.645  1.00  0.00    -0.351 OA 
HETATM   22  O   UNL     1     -13.689  15.490  70.868  1.00  0.00    -0.524 OA 
HETATM   23  P   UNL     1     -12.317  14.660  71.183  1.00  0.00    -0.388 P  
ENDBRANCH   4  19
BRANCH  12  24
HETATM   24  O   UNL     1      -8.698   6.585  67.572  1.00  0.00    -0.115 OA 
BRANCH  24  25
HETATM   25  C   UNL     1      -8.577   5.967  68.819  1.00  0.00    -0.112 C  
HETATM   26  O   UNL     1      -7.882   6.369  69.744  1.00  0.00    -0.109 OA 
HETATM   27  N   UNL     1      -9.478   4.918  68.958  1.00  0.00    -0.132 N  
BRANCH  27  28
HETATM   28  C   UNL     1      -9.491   3.836  67.967  1.00  0.00    -0.164 C  
HETATM   29 CL   UNL     1      -8.209   2.136  66.273  1.00  0.00    -0.085 Cl 
HETATM   30  C   UNL     1      -8.102   3.459  67.461  1.00  0.00    -0.081 C  
ENDBRANCH  27  28
BRANCH  27  31
HETATM   31  C   UNL     1      -9.984   4.637  70.306  1.00  0.00    -0.239 C  
HETATM   32 CL   UNL     1      -7.655   3.284  70.889  1.00  0.00    -0.040 Cl 
HETATM   33  C   UNL     1      -9.442   3.336  70.923  1.00  0.00    -0.164 C  
ENDBRANCH  27  31
ENDBRANCH  24  25
ENDBRANCH  12  24
TORSDOF 5
ENDMDL
MODEL       48
REMARK 921   NORMALIZED FREE ENERGY PREDICTED BY IDOCK:   -5.58 KCAL/MOL
REMARK 922        TOTAL FREE ENERGY PREDICTED BY IDOCK:   -8.00 KCAL/MOL
REMARK 923 INTER-LIGAND FREE ENERGY PREDICTED BY IDOCK:   -6.94 KCAL/MOL
REMARK 924 INTRA-LIGAND FREE ENERGY PREDICTED BY IDOCK:   -1.06 KCAL/MOL
REMARK 927      BINDING AFFINITY PREDICTED BY RF-SCORE:    0.00 PKD
ROOT
HETATM    1  C   UNL     1     -10.284   5.370  68.487  1.00  0.00    -0.237 C  
HETATM    2  C   UNL     1      -9.537   4.784  67.429  1.00  0.00    -0.186 C  
HETATM    3  C   UNL     1      -8.620   5.310  68.498  1.00  0.00    -0.094 C  
HETATM    4  C   UNL     1      -9.527   5.896  70.249  1.00  0.00    -0.162 C  
HETATM    5  C   UNL     1      -9.178   4.647  69.831  1.00  0.00    -0.188 C  
HETATM    6  C   UNL     1      -7.683  10.265  68.777  1.00  0.00    -0.096 A  
HETATM    7  C   UNL     1      -7.542   5.545  70.278  1.00  0.00    -0.080 C  
HETATM    8  C   UNL     1     -10.103   7.169  68.261  1.00  0.00    -0.187 C  
HETATM    9  C   UNL     1      -9.394   3.230  70.257  1.00  0.00    -0.242 C  
HETATM   10  C   UNL     1      -7.641   7.290  69.832  1.00  0.00    -0.094 C  
HETATM   11  C   UNL     1      -7.672  11.626  68.425  1.00  0.00    -0.130 A  
HETATM   12  C   UNL     1      -8.660  12.134  67.585  1.00  0.00    -0.166 A  
HETATM   13  C   UNL     1     -10.512   7.587  66.833  1.00  0.00    -0.385 C  
HETATM   14  C   UNL     1      -8.604   7.871  68.544  1.00  0.00    -0.128 C  
HETATM   15  C   UNL     1      -8.682   9.394  68.307  1.00  0.00    -0.124 A  
HETATM   16  C   UNL     1      -9.645   9.921  67.405  1.00  0.00    -0.185 A  
HETATM   17  C   UNL     1      -9.631  11.289  67.067  1.00  0.00    -0.197 A  
HETATM   18  C   UNL     1     -10.723   9.094  66.748  1.00  0.00    -0.108 C  
ENDROOT
BRANCH   4  19
HETATM   19  O   UNL     1      -9.397   5.427  71.731  1.00  0.00    -0.144 OA 
HETATM   20  O   UNL     1     -11.342   5.217  72.938  1.00  0.00    -0.294 OA 
HETATM   21  O   UNL     1     -10.656   6.934  74.356  1.00  0.00    -0.174 OA 
HETATM   22  O   UNL     1      -9.138   5.166  73.953  1.00  0.00    -0.119 OA 
HETATM   23  P   UNL     1     -10.062   6.222  73.116  1.00  0.00    -0.220 P  
ENDBRANCH   4  19
BRANCH  12  24
HETATM   24  O   UNL     1      -8.593  13.490  67.212  1.00  0.00    -0.198 OA 
BRANCH  24  25
HETATM   25  C   UNL     1      -9.686  14.279  67.578  1.00  0.00    -0.223 C  
HETATM   26  O   UNL     1     -10.172  14.340  68.700  1.00  0.00    -0.238 OA 
HETATM   27  N   UNL     1     -10.067  15.131  66.548  1.00  0.00    -0.260 N  
BRANCH  27  28
HETATM   28  C   UNL     1     -10.387  14.577  65.227  1.00  0.00    -0.410 C  
HETATM   29 CL   UNL     1     -12.022  13.185  63.557  1.00  0.00    -0.589 Cl 
HETATM   30  C   UNL     1     -11.707  13.814  65.193  1.00  0.00    -0.343 C  
ENDBRANCH  27  28
BRANCH  27  31
HETATM   31  C   UNL     1     -10.648  16.425  66.923  1.00  0.00    -0.252 C  
HETATM   32 CL   UNL     1      -8.304  17.679  66.200  1.00  0.00    -0.230 Cl 
HETATM   33  C   UNL     1      -9.617  17.465  67.395  1.00  0.00    -0.257 C  
ENDBRANCH  27  31
ENDBRANCH  24  25
ENDBRANCH  12  24
TORSDOF 5
ENDMDL
MODEL       49
REMARK 921   NORMALIZED FREE ENERGY PREDICTED BY IDOCK:   -5.58 KCAL/MOL
REMARK 922        TOTAL FREE ENERGY PREDICTED BY IDOCK:   -7.99 KCAL/MOL
REMARK 923 INTER-LIGAND FREE ENERGY PREDICTED BY IDOCK:   -6.75 KCAL/MOL
REMARK 924 INTRA-LIGAND FREE ENERGY PREDICTED BY IDOCK:   -1.24 KCAL/MOL
REMARK 927      BINDING AFFINITY PREDICTED BY RF-SCORE:    0.00 PKD
ROOT
HETATM    1  C   UNL     1     -10.901  10.718  66.363  1.00  0.00    -0.172 C  
HETATM    2  C   UNL     1     -10.303  10.810  65.076  1.00  0.00    -0.357 C  
HETATM    3  C   UNL     1      -9.250  10.763  66.148  1.00  0.00    -0.202 C  
HETATM    4  C   UNL     1      -9.914  10.302  68.040  1.00  0.00    -0.153 C  
HETATM    5  C   UNL     1      -9.634   9.473  66.995  1.00  0.00    -0.214 C  
HETATM    6  C   UNL     1      -8.243  14.906  68.855  1.00  0.00    -0.171 A  
HETATM    7  C   UNL     1      -7.946  10.109  67.651  1.00  0.00    -0.102 C  
HETATM    8  C   UNL     1     -10.736  12.381  67.087  1.00  0.00    -0.264 C  
HETATM    9  C   UNL     1      -9.804   8.030  66.643  1.00  0.00    -0.322 C  
HETATM   10  C   UNL     1      -8.088  11.823  68.194  1.00  0.00    -0.150 C  
HETATM   11  C   UNL     1      -8.268  16.251  69.264  1.00  0.00    -0.148 A  
HETATM   12  C   UNL     1      -9.353  17.058  68.933  1.00  0.00    -0.224 A  
HETATM   13  C   UNL     1     -11.324  13.451  66.145  1.00  0.00    -0.324 C  
HETATM   14  C   UNL     1      -9.207  12.926  67.518  1.00  0.00    -0.192 C  
HETATM   15  C   UNL     1      -9.303  14.344  68.119  1.00  0.00    -0.203 A  
HETATM   16  C   UNL     1     -10.371  15.202  67.743  1.00  0.00    -0.243 A  
HETATM   17  C   UNL     1     -10.390  16.545  68.167  1.00  0.00    -0.296 A  
HETATM   18  C   UNL     1     -11.532  14.769  66.882  1.00  0.00    -0.354 C  
ENDROOT
BRANCH   4  19
HETATM   19  O   UNL     1      -9.595   9.144  69.034  1.00  0.00    -0.153 OA 
HETATM   20  O   UNL     1     -11.384   8.047  69.975  1.00  0.00    -0.161 OA 
HETATM   21  O   UNL     1     -10.766   8.829  72.080  1.00  0.00    -0.325 OA 
HETATM   22  O   UNL     1      -9.103   7.785  70.762  1.00  0.00    -0.147 OA 
HETATM   23  P   UNL     1     -10.213   8.978  70.642  1.00  0.00    -0.274 P  
ENDBRANCH   4  19
BRANCH  12  24
HETATM   24  O   UNL     1      -9.324  18.413  69.315  1.00  0.00    -0.056 OA 
BRANCH  24  25
HETATM   25  C   UNL     1      -8.133  19.095  69.055  1.00  0.00    -0.225 C  
HETATM   26  O   UNL     1      -7.231  19.279  69.864  1.00  0.00    -0.002 OA 
HETATM   27  N   UNL     1      -8.005  19.404  67.706  1.00  0.00    -0.278 N  
BRANCH  27  28
HETATM   28  C   UNL     1      -9.065  20.163  67.032  1.00  0.00    -0.367 C  
HETATM   29 CL   UNL     1     -11.158  20.317  65.302  1.00  0.00     0.076 Cl 
HETATM   30  C   UNL     1      -9.893  19.323  66.066  1.00  0.00    -0.281 C  
ENDBRANCH  27  28
BRANCH  27  31
HETATM   31  C   UNL     1      -6.649  19.453  67.151  1.00  0.00    -0.195 C  
HETATM   32 CL   UNL     1      -6.966  16.896  66.172  1.00  0.00    -0.129 Cl 
HETATM   33  C   UNL     1      -5.958  18.080  67.055  1.00  0.00    -0.139 C  
ENDBRANCH  27  31
ENDBRANCH  24  25
ENDBRANCH  12  24
TORSDOF 5
ENDMDL
MODEL       50
REMARK 921   NORMALIZED FREE ENERGY PREDICTED BY IDOCK:   -5.56 KCAL/MOL
REMARK 922        TOTAL FREE ENERGY PREDICTED BY IDOCK:   -7.97 KCAL/MOL
REMARK 923 INTER-LIGAND FREE ENERGY PREDICTED BY IDOCK:   -6.80 KCAL/MOL
REMARK 924 INTRA-LIGAND FREE ENERGY PREDICTED BY IDOCK:   -1.18 KCAL/MOL
REMARK 927      BINDING AFFINITY PREDICTED BY RF-SCORE:    0.00 PKD
ROOT
HETATM    1  C   UNL     1      -8.928  14.804  67.913  1.00  0.00    -0.172 C  
HETATM    2  C   UNL     1      -8.699  15.077  66.536  1.00  0.00    -0.244 C  
HETATM    3  C   UNL     1     -10.090  14.549  66.748  1.00  0.00    -0.264 C  
HETATM    4  C   UNL     1     -10.709  14.409  68.705  1.00  0.00    -0.253 C  
HETATM    5  C   UNL     1     -10.682  15.494  67.882  1.00  0.00    -0.294 C  
HETATM    6  C   UNL     1     -10.812   9.602  67.464  1.00  0.00    -0.265 A  
HETATM    7  C   UNL     1     -12.114  14.378  67.260  1.00  0.00    -0.358 C  
HETATM    8  C   UNL     1      -8.844  12.991  68.062  1.00  0.00    -0.191 C  
HETATM    9  C   UNL     1     -10.876  16.973  67.983  1.00  0.00    -0.330 C  
HETATM   10  C   UNL     1     -11.679  12.637  67.441  1.00  0.00    -0.432 C  
HETATM   11  C   UNL     1     -10.529   8.227  67.542  1.00  0.00    -0.325 A  
HETATM   12  C   UNL     1      -9.226   7.797  67.781  1.00  0.00    -0.136 A  
HETATM   13  C   UNL     1      -7.521  12.452  67.478  1.00  0.00    -0.150 C  
HETATM   14  C   UNL     1     -10.068  12.066  67.378  1.00  0.00    -0.206 C  
HETATM   15  C   UNL     1      -9.803  10.568  67.633  1.00  0.00    -0.192 A  
HETATM   16  C   UNL     1      -8.472  10.106  67.818  1.00  0.00    -0.114 A  
HETATM   17  C   UNL     1      -8.202   8.726  67.904  1.00  0.00    -0.111 A  
HETATM   18  C   UNL     1      -7.274  11.016  67.926  1.00  0.00    -0.086 C  
ENDROOT
BRANCH   4  19
HETATM   19  O   UNL     1     -11.879  15.057  69.507  1.00  0.00    -0.298 OA 
HETATM   20  O   UNL     1     -11.328  16.215  71.415  1.00  0.00    -0.380 OA 
HETATM   21  O   UNL     1     -12.489  14.660  72.703  1.00  0.00    -0.332 OA 
HETATM   22  O   UNL     1     -13.606  15.604  70.845  1.00  0.00    -0.568 OA 
HETATM   23  P   UNL     1     -12.201  14.847  71.194  1.00  0.00    -0.385 P  
ENDBRANCH   4  19
BRANCH  12  24
HETATM   24  O   UNL     1      -8.969   6.414  67.804  1.00  0.00    -0.116 OA 
BRANCH  24  25
HETATM   25  C   UNL     1      -8.664   5.829  66.572  1.00  0.00    -0.123 C  
HETATM   26  O   UNL     1      -9.485   5.444  65.749  1.00  0.00    -0.154 OA 
HETATM   27  N   UNL     1      -7.302   5.884  66.304  1.00  0.00    -0.080 N  
BRANCH  27  28
HETATM   28  C   UNL     1      -6.348   5.323  67.269  1.00  0.00    -0.036 C  
HETATM   29 CL   UNL     1      -5.160   3.204  68.492  1.00  0.00    -0.011 Cl 
HETATM   30  C   UNL     1      -6.349   3.799  67.306  1.00  0.00    -0.037 C  
ENDBRANCH  27  28
BRANCH  27  31
HETATM   31  C   UNL     1      -6.895   5.989  64.899  1.00  0.00    -0.047 C  
HETATM   32 CL   UNL     1      -6.011   8.559  65.355  1.00  0.00    -0.048 Cl 
HETATM   33  C   UNL     1      -6.940   7.421  64.336  1.00  0.00    -0.059 C  
ENDBRANCH  27  31
ENDBRANCH  24  25
ENDBRANCH  12  24
TORSDOF 5
ENDMDL
MODEL       51
REMARK 921   NORMALIZED FREE ENERGY PREDICTED BY IDOCK:   -5.55 KCAL/MOL
REMARK 922        TOTAL FREE ENERGY PREDICTED BY IDOCK:   -7.96 KCAL/MOL
REMARK 923 INTER-LIGAND FREE ENERGY PREDICTED BY IDOCK:   -6.68 KCAL/MOL
REMARK 924 INTRA-LIGAND FREE ENERGY PREDICTED BY IDOCK:   -1.28 KCAL/MOL
REMARK 927      BINDING AFFINITY PREDICTED BY RF-SCORE:    0.00 PKD
ROOT
HETATM    1  C   UNL     1      -7.641   4.907  68.890  1.00  0.00    -0.069 C  
HETATM    2  C   UNL     1      -6.363   5.420  68.534  1.00  0.00    -0.035 C  
HETATM    3  C   UNL     1      -6.764   5.898  69.901  1.00  0.00    -0.052 C  
HETATM    4  C   UNL     1      -8.426   5.000  70.715  1.00  0.00    -0.115 C  
HETATM    5  C   UNL     1      -7.138   4.559  70.673  1.00  0.00    -0.041 C  
HETATM    6  C   UNL     1     -10.102   9.660  70.361  1.00  0.00    -0.336 A  
HETATM    7  C   UNL     1      -7.180   5.990  71.953  1.00  0.00    -0.092 C  
HETATM    8  C   UNL     1      -8.788   6.309  68.701  1.00  0.00    -0.119 C  
HETATM    9  C   UNL     1      -6.379   3.307  70.976  1.00  0.00    -0.019 C  
HETATM   10  C   UNL     1      -8.332   7.272  71.423  1.00  0.00    -0.110 C  
HETATM   11  C   UNL     1     -10.955  10.717  69.997  1.00  0.00    -0.325 A  
HETATM   12  C   UNL     1     -11.461  10.787  68.701  1.00  0.00    -0.295 A  
HETATM   13  C   UNL     1      -8.677   6.923  67.290  1.00  0.00    -0.119 C  
HETATM   14  C   UNL     1      -8.682   7.592  69.780  1.00  0.00    -0.140 C  
HETATM   15  C   UNL     1      -9.750   8.654  69.444  1.00  0.00    -0.176 A  
HETATM   16  C   UNL     1     -10.230   8.778  68.112  1.00  0.00    -0.250 A  
HETATM   17  C   UNL     1     -11.092   9.836  67.761  1.00  0.00    -0.142 A  
HETATM   18  C   UNL     1      -9.868   7.829  66.996  1.00  0.00    -0.286 C  
ENDROOT
BRANCH   4  19
HETATM   19  O   UNL     1      -8.664   4.157  72.005  1.00  0.00    -0.103 OA 
HETATM   20  O   UNL     1     -10.226   2.474  71.885  1.00  0.00    -0.143 OA 
HETATM   21  O   UNL     1     -11.555   3.586  73.441  1.00  0.00    -0.140 OA 
HETATM   22  O   UNL     1      -9.276   3.256  73.977  1.00  0.00    -0.088 OA 
HETATM   23  P   UNL     1     -10.190   3.855  72.763  1.00  0.00    -0.149 P  
ENDBRANCH   4  19
BRANCH  12  24
HETATM   24  O   UNL     1     -12.272  11.885  68.355  1.00  0.00    -0.425 OA 
BRANCH  24  25
HETATM   25  C   UNL     1     -11.603  13.090  68.127  1.00  0.00    -0.341 C  
HETATM   26  O   UNL     1     -11.344  13.929  68.981  1.00  0.00    -0.253 OA 
HETATM   27  N   UNL     1     -11.106  13.161  66.831  1.00  0.00    -0.276 N  
BRANCH  27  28
HETATM   28  C   UNL     1     -12.015  12.977  65.693  1.00  0.00    -0.429 C  
HETATM   29 CL   UNL     1     -12.640  11.858  63.295  1.00  0.00    -0.635 Cl 
HETATM   30  C   UNL     1     -11.473  12.030  64.629  1.00  0.00    -0.308 C  
ENDBRANCH  27  28
BRANCH  27  31
HETATM   31  C   UNL     1      -9.871  13.924  66.623  1.00  0.00    -0.284 C  
HETATM   32 CL   UNL     1      -8.425  11.578  66.653  1.00  0.00    -0.171 Cl 
HETATM   33  C   UNL     1      -8.615  13.264  67.219  1.00  0.00    -0.210 C  
ENDBRANCH  27  31
ENDBRANCH  24  25
ENDBRANCH  12  24
TORSDOF 5
ENDMDL
MODEL       52
REMARK 921   NORMALIZED FREE ENERGY PREDICTED BY IDOCK:   -5.54 KCAL/MOL
REMARK 922        TOTAL FREE ENERGY PREDICTED BY IDOCK:   -7.94 KCAL/MOL
REMARK 923 INTER-LIGAND FREE ENERGY PREDICTED BY IDOCK:   -6.96 KCAL/MOL
REMARK 924 INTRA-LIGAND FREE ENERGY PREDICTED BY IDOCK:   -0.98 KCAL/MOL
REMARK 927      BINDING AFFINITY PREDICTED BY RF-SCORE:    0.00 PKD
ROOT
HETATM    1  C   UNL     1      -8.845  14.925  67.977  1.00  0.00    -0.167 C  
HETATM    2  C   UNL     1      -8.618  15.202  66.601  1.00  0.00    -0.279 C  
HETATM    3  C   UNL     1     -10.002  14.653  66.811  1.00  0.00    -0.265 C  
HETATM    4  C   UNL     1     -10.622  14.503  68.767  1.00  0.00    -0.248 C  
HETATM    5  C   UNL     1     -10.609  15.589  67.944  1.00  0.00    -0.274 C  
HETATM    6  C   UNL     1     -10.651   9.696  67.524  1.00  0.00    -0.339 A  
HETATM    7  C   UNL     1     -12.024  14.452  67.320  1.00  0.00    -0.409 C  
HETATM    8  C   UNL     1      -8.734  13.113  68.126  1.00  0.00    -0.193 C  
HETATM    9  C   UNL     1     -10.826  17.065  68.046  1.00  0.00    -0.330 C  
HETATM   10  C   UNL     1     -11.563  12.718  67.501  1.00  0.00    -0.412 C  
HETATM   11  C   UNL     1     -10.348   8.325  67.602  1.00  0.00    -0.313 A  
HETATM   12  C   UNL     1      -9.039   7.915  67.843  1.00  0.00    -0.131 A  
HETATM   13  C   UNL     1      -7.403  12.595  67.544  1.00  0.00    -0.151 C  
HETATM   14  C   UNL     1      -9.944  12.171  67.440  1.00  0.00    -0.206 C  
HETATM   15  C   UNL     1      -9.657  10.677  67.695  1.00  0.00    -0.178 A  
HETATM   16  C   UNL     1      -8.320  10.234  67.882  1.00  0.00    -0.114 A  
HETATM   17  C   UNL     1      -8.030   8.858  67.968  1.00  0.00    -0.102 A  
HETATM   18  C   UNL     1      -7.135  11.162  67.992  1.00  0.00    -0.073 C  
ENDROOT
BRANCH   4  19
HETATM   19  O   UNL     1     -11.802  15.133  69.567  1.00  0.00    -0.300 OA 
HETATM   20  O   UNL     1     -11.465  15.511  71.810  1.00  0.00    -0.390 OA 
HETATM   21  O   UNL     1     -13.118  13.953  72.328  1.00  0.00    -0.384 OA 
HETATM   22  O   UNL     1     -13.648  15.638  70.756  1.00  0.00    -0.524 OA 
HETATM   23  P   UNL     1     -12.496  14.510  71.025  1.00  0.00    -0.393 P  
ENDBRANCH   4  19
BRANCH  12  24
HETATM   24  O   UNL     1      -8.761   6.535  67.866  1.00  0.00    -0.117 OA 
BRANCH  24  25
HETATM   25  C   UNL     1      -7.664   6.146  68.638  1.00  0.00    -0.100 C  
HETATM   26  O   UNL     1      -6.572   5.810  68.199  1.00  0.00    -0.045 OA 
HETATM   27  N   UNL     1      -7.898   6.344  69.994  1.00  0.00    -0.108 N  
BRANCH  27  28
HETATM   28  C   UNL     1      -9.077   5.737  70.624  1.00  0.00    -0.151 C  
HETATM   29 CL   UNL     1     -10.410   3.581  71.611  1.00  0.00     0.006 Cl 
HETATM   30  C   UNL     1      -8.945   4.233  70.835  1.00  0.00    -0.109 C  
ENDBRANCH  27  28
BRANCH  27  31
HETATM   31  C   UNL     1      -6.743   6.667  70.838  1.00  0.00    -0.054 C  
HETATM   32 CL   UNL     1      -7.969   9.014  71.604  1.00  0.00    -0.070 Cl 
HETATM   33  C   UNL     1      -6.500   8.176  71.021  1.00  0.00    -0.038 C  
ENDBRANCH  27  31
ENDBRANCH  24  25
ENDBRANCH  12  24
TORSDOF 5
ENDMDL
MODEL       53
REMARK 921   NORMALIZED FREE ENERGY PREDICTED BY IDOCK:   -5.53 KCAL/MOL
REMARK 922        TOTAL FREE ENERGY PREDICTED BY IDOCK:   -7.93 KCAL/MOL
REMARK 923 INTER-LIGAND FREE ENERGY PREDICTED BY IDOCK:   -6.91 KCAL/MOL
REMARK 924 INTRA-LIGAND FREE ENERGY PREDICTED BY IDOCK:   -1.02 KCAL/MOL
REMARK 927      BINDING AFFINITY PREDICTED BY RF-SCORE:    0.00 PKD
ROOT
HETATM    1  C   UNL     1      -9.783   5.983  67.711  1.00  0.00    -0.119 C  
HETATM    2  C   UNL     1      -8.574   5.464  67.171  1.00  0.00    -0.108 C  
HETATM    3  C   UNL     1      -8.323   6.122  68.500  1.00  0.00    -0.114 C  
HETATM    4  C   UNL     1      -9.998   6.638  69.577  1.00  0.00    -0.163 C  
HETATM    5  C   UNL     1      -9.379   5.430  69.467  1.00  0.00    -0.166 C  
HETATM    6  C   UNL     1      -8.097  11.158  68.798  1.00  0.00    -0.140 A  
HETATM    7  C   UNL     1      -8.238   6.527  70.553  1.00  0.00    -0.118 C  
HETATM    8  C   UNL     1      -9.686   7.784  67.456  1.00  0.00    -0.201 C  
HETATM    9  C   UNL     1      -9.636   4.008  69.852  1.00  0.00    -0.281 C  
HETATM   10  C   UNL     1      -8.278   8.237  69.978  1.00  0.00    -0.119 C  
HETATM   11  C   UNL     1      -8.050  12.502  68.387  1.00  0.00    -0.136 A  
HETATM   12  C   UNL     1      -8.568  12.868  67.147  1.00  0.00    -0.198 A  
HETATM   13  C   UNL     1      -9.411   8.116  65.975  1.00  0.00    -0.158 C  
HETATM   14  C   UNL     1      -8.571   8.667  68.349  1.00  0.00    -0.135 C  
HETATM   15  C   UNL     1      -8.670  10.163  67.986  1.00  0.00    -0.122 A  
HETATM   16  C   UNL     1      -9.139  10.550  66.702  1.00  0.00    -0.172 A  
HETATM   17  C   UNL     1      -9.096  11.901  66.304  1.00  0.00    -0.188 A  
HETATM   18  C   UNL     1      -9.698   9.585  65.685  1.00  0.00    -0.361 C  
ENDROOT
BRANCH   4  19
HETATM   19  O   UNL     1     -10.539   6.225  70.980  1.00  0.00    -0.220 OA 
HETATM   20  O   UNL     1     -12.761   6.629  71.408  1.00  0.00    -0.304 OA 
HETATM   21  O   UNL     1     -12.171   8.150  73.071  1.00  0.00    -0.200 OA 
HETATM   22  O   UNL     1     -11.168   6.010  73.132  1.00  0.00    -0.234 OA 
HETATM   23  P   UNL     1     -11.400   7.241  72.083  1.00  0.00    -0.289 P  
ENDBRANCH   4  19
BRANCH  12  24
HETATM   24  O   UNL     1      -8.460  14.213  66.745  1.00  0.00    -0.146 OA 
BRANCH  24  25
HETATM   25  C   UNL     1      -9.626  14.796  66.243  1.00  0.00    -0.312 C  
HETATM   26  O   UNL     1      -9.804  15.137  65.080  1.00  0.00    -0.288 OA 
HETATM   27  N   UNL     1     -10.645  14.794  67.189  1.00  0.00    -0.280 N  
BRANCH  27  28
HETATM   28  C   UNL     1     -10.417  15.406  68.503  1.00  0.00    -0.234 C  
HETATM   29 CL   UNL     1     -11.320  16.297  70.909  1.00  0.00    -0.388 Cl 
HETATM   30  C   UNL     1     -11.689  15.558  69.331  1.00  0.00    -0.367 C  
ENDBRANCH  27  28
BRANCH  27  31
HETATM   31  C   UNL     1     -12.023  14.690  66.695  1.00  0.00    -0.275 C  
HETATM   32 CL   UNL     1     -12.150  12.098  67.621  1.00  0.00    -0.159 Cl 
HETATM   33  C   UNL     1     -12.442  13.264  66.297  1.00  0.00    -0.216 C  
ENDBRANCH  27  31
ENDBRANCH  24  25
ENDBRANCH  12  24
TORSDOF 5
ENDMDL
MODEL       54
REMARK 921   NORMALIZED FREE ENERGY PREDICTED BY IDOCK:   -5.52 KCAL/MOL
REMARK 922        TOTAL FREE ENERGY PREDICTED BY IDOCK:   -7.92 KCAL/MOL
REMARK 923 INTER-LIGAND FREE ENERGY PREDICTED BY IDOCK:   -6.55 KCAL/MOL
REMARK 924 INTRA-LIGAND FREE ENERGY PREDICTED BY IDOCK:   -1.37 KCAL/MOL
REMARK 927      BINDING AFFINITY PREDICTED BY RF-SCORE:    0.00 PKD
ROOT
HETATM    1  C   UNL     1      -8.392   6.521  69.695  1.00  0.00    -0.131 C  
HETATM    2  C   UNL     1      -9.257   6.614  70.819  1.00  0.00    -0.155 C  
HETATM    3  C   UNL     1     -10.047   6.612  69.540  1.00  0.00    -0.197 C  
HETATM    4  C   UNL     1      -8.993   6.156  67.834  1.00  0.00    -0.112 C  
HETATM    5  C   UNL     1      -9.519   5.323  68.775  1.00  0.00    -0.171 C  
HETATM    6  C   UNL     1     -10.320  10.817  66.757  1.00  0.00    -0.294 A  
HETATM    7  C   UNL     1     -11.003   6.017  67.774  1.00  0.00    -0.333 C  
HETATM    8  C   UNL     1      -8.348   8.197  68.984  1.00  0.00    -0.128 C  
HETATM    9  C   UNL     1      -9.470   3.871  69.129  1.00  0.00    -0.246 C  
HETATM   10  C   UNL     1     -10.699   7.733  67.309  1.00  0.00    -0.326 C  
HETATM   11  C   UNL     1     -10.170  12.166  66.388  1.00  0.00    -0.245 A  
HETATM   12  C   UNL     1      -9.164  12.936  66.966  1.00  0.00    -0.226 A  
HETATM   13  C   UNL     1      -7.955   9.237  70.053  1.00  0.00    -0.124 C  
HETATM   14  C   UNL     1      -9.729   8.793  68.235  1.00  0.00    -0.175 C  
HETATM   15  C   UNL     1      -9.465  10.215  67.697  1.00  0.00    -0.166 A  
HETATM   16  C   UNL     1      -8.484  11.036  68.317  1.00  0.00    -0.138 A  
HETATM   17  C   UNL     1      -8.336  12.383  67.933  1.00  0.00    -0.165 A  
HETATM   18  C   UNL     1      -7.554  10.558  69.405  1.00  0.00    -0.145 C  
ENDROOT
BRANCH   4  19
HETATM   19  O   UNL     1      -9.114   5.020  66.772  1.00  0.00    -0.116 OA 
HETATM   20  O   UNL     1      -7.219   3.798  66.324  1.00  0.00    -0.063 OA 
HETATM   21  O   UNL     1      -7.198   4.616  64.143  1.00  0.00    -0.049 OA 
HETATM   22  O   UNL     1      -9.220   3.695  64.954  1.00  0.00    -0.132 OA 
HETATM   23  P   UNL     1      -8.102   4.806  65.385  1.00  0.00    -0.119 P  
ENDBRANCH   4  19
BRANCH  12  24
HETATM   24  O   UNL     1      -9.072  14.296  66.613  1.00  0.00    -0.257 OA 
BRANCH  24  25
HETATM   25  C   UNL     1     -10.185  15.083  66.919  1.00  0.00    -0.258 C  
HETATM   26  O   UNL     1     -11.112  15.326  66.157  1.00  0.00    -0.336 OA 
HETATM   27  N   UNL     1     -10.208  15.432  68.265  1.00  0.00    -0.226 N  
BRANCH  27  28
HETATM   28  C   UNL     1      -9.051  16.112  68.859  1.00  0.00    -0.246 C  
HETATM   29 CL   UNL     1      -7.401  18.263  69.077  1.00  0.00    -0.257 Cl 
HETATM   30  C   UNL     1      -8.813  17.509  68.296  1.00  0.00    -0.274 C  
ENDBRANCH  27  28
BRANCH  27  31
HETATM   31  C   UNL     1     -11.522  15.608  68.893  1.00  0.00    -0.361 C  
HETATM   32 CL   UNL     1     -11.440  13.001  69.779  1.00  0.00    -0.267 Cl 
HETATM   33  C   UNL     1     -12.353  14.317  68.986  1.00  0.00    -0.112 C  
ENDBRANCH  27  31
ENDBRANCH  24  25
ENDBRANCH  12  24
TORSDOF 5
ENDMDL
MODEL       55
REMARK 921   NORMALIZED FREE ENERGY PREDICTED BY IDOCK:   -5.52 KCAL/MOL
REMARK 922        TOTAL FREE ENERGY PREDICTED BY IDOCK:   -7.92 KCAL/MOL
REMARK 923 INTER-LIGAND FREE ENERGY PREDICTED BY IDOCK:   -7.67 KCAL/MOL
REMARK 924 INTRA-LIGAND FREE ENERGY PREDICTED BY IDOCK:   -0.25 KCAL/MOL
REMARK 927      BINDING AFFINITY PREDICTED BY RF-SCORE:    0.00 PKD
ROOT
HETATM    1  C   UNL     1      -8.334  12.013  67.446  1.00  0.00    -0.171 C  
HETATM    2  C   UNL     1      -8.343  11.080  66.373  1.00  0.00    -0.165 C  
HETATM    3  C   UNL     1      -9.742  11.350  66.854  1.00  0.00    -0.213 C  
HETATM    4  C   UNL     1      -9.952  12.913  68.174  1.00  0.00    -0.234 C  
HETATM    5  C   UNL     1      -9.853  12.935  66.815  1.00  0.00    -0.241 C  
HETATM    6  C   UNL     1     -11.399   9.169  71.096  1.00  0.00    -0.392 A  
HETATM    7  C   UNL     1     -11.599  12.247  67.220  1.00  0.00    -0.427 C  
HETATM    8  C   UNL     1      -8.634  11.023  68.945  1.00  0.00    -0.122 C  
HETATM    9  C   UNL     1      -9.681  13.948  65.729  1.00  0.00    -0.190 C  
HETATM   10  C   UNL     1     -11.541  11.217  68.699  1.00  0.00    -0.384 C  
HETATM   11  C   UNL     1     -11.426   8.325  72.220  1.00  0.00    -0.452 A  
HETATM   12  C   UNL     1     -10.234   7.850  72.762  1.00  0.00    -0.314 A  
HETATM   13  C   UNL     1      -7.620   9.865  69.050  1.00  0.00    -0.086 C  
HETATM   14  C   UNL     1     -10.151  10.339  69.171  1.00  0.00    -0.232 C  
HETATM   15  C   UNL     1     -10.186   9.560  70.502  1.00  0.00    -0.349 A  
HETATM   16  C   UNL     1      -8.986   9.016  71.036  1.00  0.00    -0.304 A  
HETATM   17  C   UNL     1      -9.024   8.179  72.168  1.00  0.00    -0.246 A  
HETATM   18  C   UNL     1      -7.617   9.271  70.454  1.00  0.00    -0.132 C  
ENDROOT
BRANCH   4  19
HETATM   19  O   UNL     1     -10.750  14.252  68.129  1.00  0.00    -0.236 OA 
HETATM   20  O   UNL     1      -9.631  16.160  68.756  1.00  0.00    -0.215 OA 
HETATM   21  O   UNL     1     -11.057  16.406  70.582  1.00  0.00    -0.323 OA 
HETATM   22  O   UNL     1     -12.038  16.070  68.457  1.00  0.00    -0.162 OA 
HETATM   23  P   UNL     1     -10.912  15.389  69.424  1.00  0.00    -0.328 P  
ENDBRANCH   4  19
BRANCH  12  24
HETATM   24  O   UNL     1     -10.298   6.967  73.857  1.00  0.00    -0.363 OA 
BRANCH  24  25
HETATM   25  C   UNL     1      -9.278   6.016  73.935  1.00  0.00    -0.129 C  
HETATM   26  O   UNL     1      -8.233   6.147  74.559  1.00  0.00    -0.120 OA 
HETATM   27  N   UNL     1      -9.658   4.812  73.352  1.00  0.00    -0.125 N  
BRANCH  27  28
HETATM   28  C   UNL     1     -10.127   4.795  71.961  1.00  0.00    -0.195 C  
HETATM   29 CL   UNL     1      -9.884   4.000  69.371  1.00  0.00    -0.203 Cl 
HETATM   30  C   UNL     1      -9.239   3.975  71.031  1.00  0.00    -0.134 C  
ENDBRANCH  27  28
BRANCH  27  31
HETATM   31  C   UNL     1      -9.090   3.582  73.913  1.00  0.00    -0.089 C  
HETATM   32 CL   UNL     1     -11.396   2.226  73.253  1.00  0.00    -0.257 Cl 
HETATM   33  C   UNL     1     -10.138   2.601  74.467  1.00  0.00    -0.133 C  
ENDBRANCH  27  31
ENDBRANCH  24  25
ENDBRANCH  12  24
TORSDOF 5
ENDMDL
MODEL       56
REMARK 921   NORMALIZED FREE ENERGY PREDICTED BY IDOCK:   -5.49 KCAL/MOL
REMARK 922        TOTAL FREE ENERGY PREDICTED BY IDOCK:   -7.88 KCAL/MOL
REMARK 923 INTER-LIGAND FREE ENERGY PREDICTED BY IDOCK:   -6.65 KCAL/MOL
REMARK 924 INTRA-LIGAND FREE ENERGY PREDICTED BY IDOCK:   -1.23 KCAL/MOL
REMARK 927      BINDING AFFINITY PREDICTED BY RF-SCORE:    0.00 PKD
ROOT
HETATM    1  C   UNL     1      -8.664  15.600  68.498  1.00  0.00    -0.182 C  
HETATM    2  C   UNL     1      -8.368  15.861  67.132  1.00  0.00    -0.231 C  
HETATM    3  C   UNL     1      -9.690  15.159  67.263  1.00  0.00    -0.210 C  
HETATM    4  C   UNL     1     -10.434  14.994  69.174  1.00  0.00    -0.247 C  
HETATM    5  C   UNL     1     -10.486  16.049  68.313  1.00  0.00    -0.269 C  
HETATM    6  C   UNL     1      -9.813  10.183  68.118  1.00  0.00    -0.164 A  
HETATM    7  C   UNL     1     -11.708  14.734  67.634  1.00  0.00    -0.364 C  
HETATM    8  C   UNL     1      -8.355  13.819  68.723  1.00  0.00     0.014 C  
HETATM    9  C   UNL     1     -10.879  17.491  68.342  1.00  0.00    -0.190 C  
HETATM   10  C   UNL     1     -11.064  13.073  67.914  1.00  0.00    -0.282 C  
HETATM   11  C   UNL     1      -9.360   8.860  68.269  1.00  0.00    -0.149 A  
HETATM   12  C   UNL     1      -8.034   8.615  68.619  1.00  0.00    -0.115 A  
HETATM   13  C   UNL     1      -6.933  13.445  68.258  1.00  0.00    -0.108 C  
HETATM   14  C   UNL     1      -9.393  12.720  67.989  1.00  0.00    -0.213 C  
HETATM   15  C   UNL     1      -8.955  11.279  68.322  1.00  0.00    -0.172 A  
HETATM   16  C   UNL     1      -7.593  11.003  68.620  1.00  0.00    -0.124 A  
HETATM   17  C   UNL     1      -7.153   9.675  68.779  1.00  0.00    -0.067 A  
HETATM   18  C   UNL     1      -6.535  12.068  68.778  1.00  0.00    -0.077 C  
ENDROOT
BRANCH   4  19
HETATM   19  O   UNL     1     -11.737  15.504  69.863  1.00  0.00    -0.303 OA 
HETATM   20  O   UNL     1     -11.567  16.183  72.054  1.00  0.00    -0.455 OA 
HETATM   21  O   UNL     1     -12.965  14.438  72.710  1.00  0.00    -0.438 OA 
HETATM   22  O   UNL     1     -13.692  15.823  70.936  1.00  0.00    -0.496 OA 
HETATM   23  P   UNL     1     -12.385  14.941  71.366  1.00  0.00    -0.398 P  
ENDBRANCH   4  19
BRANCH  12  24
HETATM   24  O   UNL     1      -7.601   7.279  68.714  1.00  0.00    -0.099 OA 
BRANCH  24  25
HETATM   25  C   UNL     1      -7.304   6.824  70.001  1.00  0.00    -0.085 C  
HETATM   26  O   UNL     1      -6.216   6.919  70.554  1.00  0.00    -0.027 OA 
HETATM   27  N   UNL     1      -8.446   6.390  70.665  1.00  0.00    -0.133 N  
BRANCH  27  28
HETATM   28  C   UNL     1      -9.295   5.360  70.053  1.00  0.00    -0.148 C  
HETATM   29 CL   UNL     1      -9.642   2.890  68.969  1.00  0.00    -0.152 Cl 
HETATM   30  C   UNL     1      -8.539   4.086  69.694  1.00  0.00    -0.068 C  
ENDBRANCH  27  28
BRANCH  27  31
HETATM   31  C   UNL     1      -8.481   6.549  72.122  1.00  0.00    -0.113 C  
HETATM   32 CL   UNL     1     -10.150   8.723  71.838  1.00  0.00    -0.394 Cl 
HETATM   33  C   UNL     1      -8.700   7.998  72.592  1.00  0.00    -0.191 C  
ENDBRANCH  27  31
ENDBRANCH  24  25
ENDBRANCH  12  24
TORSDOF 5
ENDMDL
MODEL       57
REMARK 921   NORMALIZED FREE ENERGY PREDICTED BY IDOCK:   -5.49 KCAL/MOL
REMARK 922        TOTAL FREE ENERGY PREDICTED BY IDOCK:   -7.88 KCAL/MOL
REMARK 923 INTER-LIGAND FREE ENERGY PREDICTED BY IDOCK:   -7.12 KCAL/MOL
REMARK 924 INTRA-LIGAND FREE ENERGY PREDICTED BY IDOCK:   -0.76 KCAL/MOL
REMARK 927      BINDING AFFINITY PREDICTED BY RF-SCORE:    0.00 PKD
ROOT
HETATM    1  C   UNL     1      -8.845  14.800  68.251  1.00  0.00    -0.179 C  
HETATM    2  C   UNL     1      -8.532  15.126  66.903  1.00  0.00    -0.278 C  
HETATM    3  C   UNL     1      -9.939  14.607  67.011  1.00  0.00    -0.246 C  
HETATM    4  C   UNL     1     -10.674  14.393  68.920  1.00  0.00    -0.253 C  
HETATM    5  C   UNL     1     -10.588  15.511  68.146  1.00  0.00    -0.266 C  
HETATM    6  C   UNL     1     -10.748   9.644  67.476  1.00  0.00    -0.321 A  
HETATM    7  C   UNL     1     -11.991  14.439  67.394  1.00  0.00    -0.407 C  
HETATM    8  C   UNL     1      -8.787  12.981  68.329  1.00  0.00    -0.172 C  
HETATM    9  C   UNL     1     -10.774  16.987  68.297  1.00  0.00    -0.372 C  
HETATM   10  C   UNL     1     -11.583  12.687  67.529  1.00  0.00    -0.418 C  
HETATM   11  C   UNL     1     -10.483   8.263  67.513  1.00  0.00    -0.325 A  
HETATM   12  C   UNL     1      -9.201   7.808  67.811  1.00  0.00    -0.136 A  
HETATM   13  C   UNL     1      -7.437  12.452  67.803  1.00  0.00    -0.126 C  
HETATM   14  C   UNL     1      -9.977  12.100  67.536  1.00  0.00    -0.202 C  
HETATM   15  C   UNL     1      -9.742  10.590  67.744  1.00  0.00    -0.180 A  
HETATM   16  C   UNL     1      -8.429  10.104  67.988  1.00  0.00    -0.118 A  
HETATM   17  C   UNL     1      -8.177   8.719  68.032  1.00  0.00    -0.118 A  
HETATM   18  C   UNL     1      -7.230  10.995  68.204  1.00  0.00    -0.083 C  
ENDROOT
BRANCH   4  19
HETATM   19  O   UNL     1     -11.884  15.022  69.678  1.00  0.00    -0.290 OA 
HETATM   20  O   UNL     1     -11.501  15.787  71.812  1.00  0.00    -0.400 OA 
HETATM   21  O   UNL     1     -12.952  14.174  72.658  1.00  0.00    -0.420 OA 
HETATM   22  O   UNL     1     -13.724  15.522  70.875  1.00  0.00    -0.524 OA 
HETATM   23  P   UNL     1     -12.448  14.574  71.251  1.00  0.00    -0.392 P  
ENDBRANCH   4  19
BRANCH  12  24
HETATM   24  O   UNL     1      -8.958   6.422  67.791  1.00  0.00    -0.116 OA 
BRANCH  24  25
HETATM   25  C   UNL     1      -7.724   6.025  67.269  1.00  0.00    -0.097 C  
HETATM   26  O   UNL     1      -6.684   5.926  67.907  1.00  0.00    -0.054 OA 
HETATM   27  N   UNL     1      -7.843   5.586  65.955  1.00  0.00    -0.102 N  
BRANCH  27  28
HETATM   28  C   UNL     1      -8.449   6.465  64.948  1.00  0.00     0.008 C  
HETATM   29 CL   UNL     1      -8.341   8.608  63.276  1.00  0.00    -0.168 Cl 
HETATM   30  C   UNL     1      -7.533   7.600  64.503  1.00  0.00    -0.094 C  
ENDBRANCH  27  28
BRANCH  27  31
HETATM   31  C   UNL     1      -6.915   4.543  65.507  1.00  0.00    -0.062 C  
HETATM   32 CL   UNL     1      -9.027   2.796  65.223  1.00  0.00    -0.133 Cl 
HETATM   33  C   UNL     1      -7.374   3.110  65.829  1.00  0.00    -0.072 C  
ENDBRANCH  27  31
ENDBRANCH  24  25
ENDBRANCH  12  24
TORSDOF 5
ENDMDL
MODEL       58
REMARK 921   NORMALIZED FREE ENERGY PREDICTED BY IDOCK:   -5.48 KCAL/MOL
REMARK 922        TOTAL FREE ENERGY PREDICTED BY IDOCK:   -7.87 KCAL/MOL
REMARK 923 INTER-LIGAND FREE ENERGY PREDICTED BY IDOCK:   -6.42 KCAL/MOL
REMARK 924 INTRA-LIGAND FREE ENERGY PREDICTED BY IDOCK:   -1.44 KCAL/MOL
REMARK 927      BINDING AFFINITY PREDICTED BY RF-SCORE:    0.00 PKD
ROOT
HETATM    1  C   UNL     1     -11.021  15.265  67.194  1.00  0.00    -0.331 C  
HETATM    2  C   UNL     1     -11.901  14.889  68.247  1.00  0.00    -0.308 C  
HETATM    3  C   UNL     1     -10.480  14.941  68.735  1.00  0.00    -0.242 C  
HETATM    4  C   UNL     1      -9.116  15.780  67.444  1.00  0.00    -0.197 C  
HETATM    5  C   UNL     1      -9.986  16.388  68.298  1.00  0.00    -0.243 C  
HETATM    6  C   UNL     1      -7.315  11.158  67.653  1.00  0.00    -0.095 A  
HETATM    7  C   UNL     1      -8.607  15.615  69.387  1.00  0.00    -0.248 C  
HETATM    8  C   UNL     1     -10.181  13.726  66.701  1.00  0.00    -0.276 C  
HETATM    9  C   UNL     1     -10.481  17.769  68.587  1.00  0.00    -0.295 C  
HETATM   10  C   UNL     1      -8.061  14.045  68.688  1.00  0.00    -0.113 C  
HETATM   11  C   UNL     1      -6.863   9.910  67.188  1.00  0.00    -0.083 A  
HETATM   12  C   UNL     1      -7.580   9.233  66.205  1.00  0.00    -0.096 A  
HETATM   13  C   UNL     1     -11.206  12.624  66.362  1.00  0.00    -0.350 C  
HETATM   14  C   UNL     1      -9.079  13.031  67.761  1.00  0.00    -0.200 C  
HETATM   15  C   UNL     1      -8.482  11.752  67.138  1.00  0.00    -0.170 A  
HETATM   16  C   UNL     1      -9.229  11.016  66.180  1.00  0.00    -0.209 A  
HETATM   17  C   UNL     1      -8.761   9.771  65.714  1.00  0.00    -0.160 A  
HETATM   18  C   UNL     1     -10.544  11.480  65.602  1.00  0.00    -0.326 C  
ENDROOT
BRANCH   4  19
HETATM   19  O   UNL     1      -8.171  17.016  67.540  1.00  0.00    -0.177 OA 
HETATM   20  O   UNL     1      -8.161  18.470  65.758  1.00  0.00    -0.490 OA 
HETATM   21  O   UNL     1      -5.940  17.924  65.316  1.00  0.00    -0.103 OA 
HETATM   22  O   UNL     1      -6.504  18.531  67.531  1.00  0.00    -0.192 OA 
HETATM   23  P   UNL     1      -6.993  17.495  66.365  1.00  0.00    -0.306 P  
ENDBRANCH   4  19
BRANCH  12  24
HETATM   24  O   UNL     1      -7.128   7.964  65.798  1.00  0.00    -0.059 OA 
BRANCH  24  25
HETATM   25  C   UNL     1      -6.997   7.008  66.809  1.00  0.00    -0.073 C  
HETATM   26  O   UNL     1      -5.939   6.641  67.304  1.00  0.00    -0.016 OA 
HETATM   27  N   UNL     1      -8.235   6.633  67.319  1.00  0.00    -0.120 N  
BRANCH  27  28
HETATM   28  C   UNL     1      -9.271   6.127  66.411  1.00  0.00    -0.152 C  
HETATM   29 CL   UNL     1     -10.327   4.163  64.853  1.00  0.00    -0.244 Cl 
HETATM   30  C   UNL     1      -9.021   4.699  65.940  1.00  0.00    -0.127 C  
ENDBRANCH  27  28
BRANCH  27  31
HETATM   31  C   UNL     1      -8.292   6.243  68.731  1.00  0.00    -0.120 C  
HETATM   32 CL   UNL     1      -9.609   8.591  69.318  1.00  0.00    -0.168 Cl 
HETATM   33  C   UNL     1      -8.308   7.429  69.711  1.00  0.00    -0.134 C  
ENDBRANCH  27  31
ENDBRANCH  24  25
ENDBRANCH  12  24
TORSDOF 5
ENDMDL
MODEL       59
REMARK 921   NORMALIZED FREE ENERGY PREDICTED BY IDOCK:   -5.44 KCAL/MOL
REMARK 922        TOTAL FREE ENERGY PREDICTED BY IDOCK:   -7.82 KCAL/MOL
REMARK 923 INTER-LIGAND FREE ENERGY PREDICTED BY IDOCK:   -7.16 KCAL/MOL
REMARK 924 INTRA-LIGAND FREE ENERGY PREDICTED BY IDOCK:   -0.66 KCAL/MOL
REMARK 927      BINDING AFFINITY PREDICTED BY RF-SCORE:    0.00 PKD
ROOT
HETATM    1  C   UNL     1      -8.453   7.102  69.452  1.00  0.00    -0.134 C  
HETATM    2  C   UNL     1      -9.353   7.166  70.551  1.00  0.00    -0.158 C  
HETATM    3  C   UNL     1     -10.106   7.058  69.254  1.00  0.00    -0.178 C  
HETATM    4  C   UNL     1      -8.973   6.628  67.592  1.00  0.00    -0.111 C  
HETATM    5  C   UNL     1      -9.459   5.789  68.549  1.00  0.00    -0.141 C  
HETATM    6  C   UNL     1     -10.628  11.132  66.315  1.00  0.00    -0.309 A  
HETATM    7  C   UNL     1     -10.964   6.330  67.488  1.00  0.00    -0.444 C  
HETATM    8  C   UNL     1      -8.520   8.752  68.683  1.00  0.00    -0.129 C  
HETATM    9  C   UNL     1      -9.306   4.358  68.956  1.00  0.00    -0.219 C  
HETATM   10  C   UNL     1     -10.781   8.047  66.968  1.00  0.00    -0.263 C  
HETATM   11  C   UNL     1     -10.573  12.474  65.902  1.00  0.00    -0.292 A  
HETATM   12  C   UNL     1      -9.646  13.341  66.476  1.00  0.00    -0.264 A  
HETATM   13  C   UNL     1      -8.238   9.856  69.723  1.00  0.00    -0.191 C  
HETATM   14  C   UNL     1      -9.922   9.212  67.879  1.00  0.00    -0.228 C  
HETATM   15  C   UNL     1      -9.755  10.631  67.297  1.00  0.00    -0.195 A  
HETATM   16  C   UNL     1      -8.858  11.547  67.910  1.00  0.00    -0.152 A  
HETATM   17  C   UNL     1      -8.805  12.888  67.482  1.00  0.00    -0.192 A  
HETATM   18  C   UNL     1      -7.924  11.181  69.038  1.00  0.00    -0.087 C  
ENDROOT
BRANCH   4  19
HETATM   19  O   UNL     1      -8.977   5.451  66.569  1.00  0.00    -0.116 OA 
HETATM   20  O   UNL     1      -6.936   4.587  65.957  1.00  0.00    -0.063 OA 
HETATM   21  O   UNL     1      -7.276   5.313  63.770  1.00  0.00    -0.047 OA 
HETATM   22  O   UNL     1      -9.001   4.062  64.796  1.00  0.00    -0.124 OA 
HETATM   23  P   UNL     1      -8.079   5.378  65.092  1.00  0.00    -0.132 P  
ENDBRANCH   4  19
BRANCH  12  24
HETATM   24  O   UNL     1      -9.650  14.691  66.076  1.00  0.00    -0.304 OA 
BRANCH  24  25
HETATM   25  C   UNL     1      -8.886  15.561  66.856  1.00  0.00    -0.255 C  
HETATM   26  O   UNL     1      -7.664  15.551  66.939  1.00  0.00    -0.218 OA 
HETATM   27  N   UNL     1      -9.666  16.569  67.410  1.00  0.00    -0.243 N  
BRANCH  27  28
HETATM   28  C   UNL     1     -10.838  16.217  68.221  1.00  0.00    -0.340 C  
HETATM   29 CL   UNL     1     -11.956  15.213  70.489  1.00  0.00    -0.337 Cl 
HETATM   30  C   UNL     1     -10.480  15.600  69.569  1.00  0.00    -0.270 C  
ENDBRANCH  27  28
BRANCH  27  31
HETATM   31  C   UNL     1      -9.029  17.872  67.631  1.00  0.00    -0.250 C  
HETATM   32 CL   UNL     1     -10.728  19.006  65.781  1.00  0.00    -0.474 Cl 
HETATM   33  C   UNL     1      -9.065  18.804  66.407  1.00  0.00    -0.300 C  
ENDBRANCH  27  31
ENDBRANCH  24  25
ENDBRANCH  12  24
TORSDOF 5
ENDMDL
MODEL       60
REMARK 921   NORMALIZED FREE ENERGY PREDICTED BY IDOCK:   -5.44 KCAL/MOL
REMARK 922        TOTAL FREE ENERGY PREDICTED BY IDOCK:   -7.81 KCAL/MOL
REMARK 923 INTER-LIGAND FREE ENERGY PREDICTED BY IDOCK:   -6.99 KCAL/MOL
REMARK 924 INTRA-LIGAND FREE ENERGY PREDICTED BY IDOCK:   -0.82 KCAL/MOL
REMARK 927      BINDING AFFINITY PREDICTED BY RF-SCORE:    0.00 PKD
ROOT
HETATM    1  C   UNL     1     -10.356   7.857  68.829  1.00  0.00    -0.220 C  
HETATM    2  C   UNL     1     -10.450   7.315  67.518  1.00  0.00    -0.337 C  
HETATM    3  C   UNL     1      -9.027   7.675  67.842  1.00  0.00    -0.128 C  
HETATM    4  C   UNL     1      -8.650   8.166  69.804  1.00  0.00    -0.133 C  
HETATM    5  C   UNL     1      -8.759   6.938  69.225  1.00  0.00    -0.135 C  
HETATM    6  C   UNL     1      -7.558  12.503  67.647  1.00  0.00    -0.145 A  
HETATM    7  C   UNL     1      -7.087   7.670  68.632  1.00  0.00    -0.080 C  
HETATM    8  C   UNL     1     -10.143   9.650  68.591  1.00  0.00    -0.196 C  
HETATM    9  C   UNL     1      -8.838   5.508  69.655  1.00  0.00    -0.120 C  
HETATM   10  C   UNL     1      -7.234   9.450  68.383  1.00  0.00    -0.076 C  
HETATM   11  C   UNL     1      -7.605  13.886  67.397  1.00  0.00    -0.160 A  
HETATM   12  C   UNL     1      -8.834  14.538  67.329  1.00  0.00    -0.208 A  
HETATM   13  C   UNL     1     -11.267  10.224  67.703  1.00  0.00    -0.232 C  
HETATM   14  C   UNL     1      -8.700  10.214  67.942  1.00  0.00    -0.122 C  
HETATM   15  C   UNL     1      -8.732  11.753  67.842  1.00  0.00    -0.164 A  
HETATM   16  C   UNL     1      -9.975  12.428  67.709  1.00  0.00    -0.205 A  
HETATM   17  C   UNL     1     -10.010  13.816  67.469  1.00  0.00    -0.233 A  
HETATM   18  C   UNL     1     -11.317  11.744  67.803  1.00  0.00    -0.358 C  
ENDROOT
BRANCH   4  19
HETATM   19  O   UNL     1      -7.723   7.558  70.900  1.00  0.00    -0.087 OA 
HETATM   20  O   UNL     1      -8.681   7.073  72.933  1.00  0.00    -0.118 OA 
HETATM   21  O   UNL     1      -7.344   8.682  73.957  1.00  0.00    -0.356 OA 
HETATM   22  O   UNL     1      -6.282   7.090  72.567  1.00  0.00    -0.051 OA 
HETATM   23  P   UNL     1      -7.523   8.151  72.514  1.00  0.00    -0.095 P  
ENDBRANCH   4  19
BRANCH  12  24
HETATM   24  O   UNL     1      -8.849  15.913  67.028  1.00  0.00    -0.191 OA 
BRANCH  24  25
HETATM   25  C   UNL     1      -8.668  16.777  68.111  1.00  0.00    -0.219 C  
HETATM   26  O   UNL     1      -7.606  16.979  68.686  1.00  0.00    -0.216 OA 
HETATM   27  N   UNL     1      -9.812  17.525  68.364  1.00  0.00    -0.307 N  
BRANCH  27  28
HETATM   28  C   UNL     1     -11.090  16.840  68.597  1.00  0.00    -0.247 C  
HETATM   29 CL   UNL     1     -12.845  15.556  70.230  1.00  0.00    -0.336 Cl 
HETATM   30  C   UNL     1     -11.269  16.363  70.034  1.00  0.00    -0.258 C  
ENDBRANCH  27  28
BRANCH  27  31
HETATM   31  C   UNL     1      -9.630  18.871  68.915  1.00  0.00    -0.342 C  
HETATM   32 CL   UNL     1     -10.578  19.953  66.564  1.00  0.00    -0.572 Cl 
HETATM   33  C   UNL     1      -9.342  19.950  67.856  1.00  0.00    -0.344 C  
ENDBRANCH  27  31
ENDBRANCH  24  25
ENDBRANCH  12  24
TORSDOF 5
ENDMDL
MODEL       61
REMARK 921   NORMALIZED FREE ENERGY PREDICTED BY IDOCK:   -5.41 KCAL/MOL
REMARK 922        TOTAL FREE ENERGY PREDICTED BY IDOCK:   -7.77 KCAL/MOL
REMARK 923 INTER-LIGAND FREE ENERGY PREDICTED BY IDOCK:   -6.58 KCAL/MOL
REMARK 924 INTRA-LIGAND FREE ENERGY PREDICTED BY IDOCK:   -1.19 KCAL/MOL
REMARK 927      BINDING AFFINITY PREDICTED BY RF-SCORE:    0.00 PKD
ROOT
HETATM    1  C   UNL     1      -9.101  14.470  68.192  1.00  0.00    -0.191 C  
HETATM    2  C   UNL     1      -8.924  14.373  66.784  1.00  0.00    -0.256 C  
HETATM    3  C   UNL     1     -10.276  13.853  67.187  1.00  0.00    -0.258 C  
HETATM    4  C   UNL     1     -10.834  14.214  69.134  1.00  0.00    -0.229 C  
HETATM    5  C   UNL     1     -10.892  15.038  68.050  1.00  0.00    -0.270 C  
HETATM    6  C   UNL     1     -10.684   9.253  69.230  1.00  0.00    -0.211 A  
HETATM    7  C   UNL     1     -12.272  13.725  67.809  1.00  0.00    -0.208 C  
HETATM    8  C   UNL     1      -8.905  12.770  68.817  1.00  0.00     0.178 C  
HETATM    9  C   UNL     1     -11.171  16.478  67.760  1.00  0.00    -0.097 C  
HETATM   10  C   UNL     1     -11.730  12.122  68.432  1.00  0.00    -0.388 C  
HETATM   11  C   UNL     1     -10.319   7.965  69.661  1.00  0.00    -0.216 A  
HETATM   12  C   UNL     1      -8.987   7.681  69.953  1.00  0.00    -0.144 A  
HETATM   13  C   UNL     1      -7.569  12.162  68.345  1.00  0.00    -0.128 C  
HETATM   14  C   UNL     1     -10.090  11.636  68.457  1.00  0.00    -0.210 C  
HETATM   15  C   UNL     1      -9.730  10.277  69.093  1.00  0.00    -0.229 A  
HETATM   16  C   UNL     1      -8.370   9.949  69.339  1.00  0.00    -0.158 A  
HETATM   17  C   UNL     1      -8.017   8.658  69.780  1.00  0.00    -0.095 A  
HETATM   18  C   UNL     1      -7.225  10.913  69.150  1.00  0.00    -0.118 C  
ENDROOT
BRANCH   4  19
HETATM   19  O   UNL     1     -12.018  14.995  69.781  1.00  0.00    -0.296 OA 
HETATM   20  O   UNL     1     -11.566  16.192  71.691  1.00  0.00    -0.453 OA 
HETATM   21  O   UNL     1     -12.986  14.803  72.907  1.00  0.00    -0.419 OA 
HETATM   22  O   UNL     1     -13.819  15.748  70.905  1.00  0.00    -0.446 OA 
HETATM   23  P   UNL     1     -12.529  14.894  71.431  1.00  0.00    -0.407 P  
ENDBRANCH   4  19
BRANCH  12  24
HETATM   24  O   UNL     1      -8.648   6.370  70.335  1.00  0.00    -0.138 OA 
BRANCH  24  25
HETATM   25  C   UNL     1      -9.312   5.345  69.656  1.00  0.00    -0.135 C  
HETATM   26  O   UNL     1     -10.312   4.763  70.055  1.00  0.00    -0.249 OA 
HETATM   27  N   UNL     1      -8.801   5.167  68.375  1.00  0.00    -0.101 N  
BRANCH  27  28
HETATM   28  C   UNL     1      -7.366   4.913  68.194  1.00  0.00    -0.070 C  
HETATM   29 CL   UNL     1      -5.201   3.272  68.310  1.00  0.00    -0.011 Cl 
HETATM   30  C   UNL     1      -6.949   3.495  68.568  1.00  0.00    -0.050 C  
ENDBRANCH  27  28
BRANCH  27  31
HETATM   31  C   UNL     1      -9.729   4.706  67.337  1.00  0.00    -0.178 C  
HETATM   32 CL   UNL     1      -9.550   7.161  66.098  1.00  0.00    -0.087 Cl 
HETATM   33  C   UNL     1     -10.574   5.827  66.706  1.00  0.00    -0.306 C  
ENDBRANCH  27  31
ENDBRANCH  24  25
ENDBRANCH  12  24
TORSDOF 5
ENDMDL
MODEL       62
REMARK 921   NORMALIZED FREE ENERGY PREDICTED BY IDOCK:   -5.39 KCAL/MOL
REMARK 922        TOTAL FREE ENERGY PREDICTED BY IDOCK:   -7.75 KCAL/MOL
REMARK 923 INTER-LIGAND FREE ENERGY PREDICTED BY IDOCK:   -7.16 KCAL/MOL
REMARK 924 INTRA-LIGAND FREE ENERGY PREDICTED BY IDOCK:   -0.59 KCAL/MOL
REMARK 927      BINDING AFFINITY PREDICTED BY RF-SCORE:    0.00 PKD
ROOT
HETATM    1  C   UNL     1     -11.912  13.536  68.318  1.00  0.00    -0.377 C  
HETATM    2  C   UNL     1     -11.379  14.390  69.323  1.00  0.00    -0.319 C  
HETATM    3  C   UNL     1     -10.275  13.688  68.582  1.00  0.00    -0.199 C  
HETATM    4  C   UNL     1     -10.837  12.669  66.886  1.00  0.00    -0.254 C  
HETATM    5  C   UNL     1     -10.591  13.998  67.055  1.00  0.00    -0.279 C  
HETATM    6  C   UNL     1      -9.221   8.863  69.635  1.00  0.00    -0.152 A  
HETATM    7  C   UNL     1      -8.886  13.119  67.121  1.00  0.00    -0.222 C  
HETATM    8  C   UNL     1     -11.745  11.849  68.986  1.00  0.00    -0.391 C  
HETATM    9  C   UNL     1     -10.749  15.266  66.279  1.00  0.00    -0.315 C  
HETATM   10  C   UNL     1      -9.036  11.518  67.938  1.00  0.00    -0.167 C  
HETATM   11  C   UNL     1      -9.253   7.620  70.292  1.00  0.00    -0.157 A  
HETATM   12  C   UNL     1     -10.369   7.259  71.043  1.00  0.00    -0.199 A  
HETATM   13  C   UNL     1     -12.400  11.743  70.378  1.00  0.00    -0.362 C  
HETATM   14  C   UNL     1     -10.209  11.189  69.139  1.00  0.00    -0.163 C  
HETATM   15  C   UNL     1     -10.304   9.758  69.708  1.00  0.00    -0.274 A  
HETATM   16  C   UNL     1     -11.406   9.394  70.528  1.00  0.00    -0.328 A  
HETATM   17  C   UNL     1     -11.431   8.142  71.173  1.00  0.00    -0.304 A  
HETATM   18  C   UNL     1     -12.599  10.284  70.776  1.00  0.00    -0.442 C  
ENDROOT
BRANCH   4  19
HETATM   19  O   UNL     1     -10.447  12.796  65.382  1.00  0.00    -0.276 OA 
HETATM   20  O   UNL     1     -11.620  11.506  63.882  1.00  0.00    -0.356 OA 
HETATM   21  O   UNL     1      -9.678  10.328  63.366  1.00  0.00    -0.301 OA 
HETATM   22  O   UNL     1      -9.581  12.690  63.305  1.00  0.00     0.032 OA 
HETATM   23  P   UNL     1     -10.041  11.493  64.318  1.00  0.00    -0.334 P  
ENDBRANCH   4  19
BRANCH  12  24
HETATM   24  O   UNL     1     -10.348   6.030  71.729  1.00  0.00    -0.204 OA 
BRANCH  24  25
HETATM   25  C   UNL     1      -9.455   5.942  72.799  1.00  0.00    -0.148 C  
HETATM   26  O   UNL     1      -9.389   6.731  73.733  1.00  0.00    -0.150 OA 
HETATM   27  N   UNL     1      -8.745   4.747  72.774  1.00  0.00    -0.114 N  
BRANCH  27  28
HETATM   28  C   UNL     1      -7.983   4.379  71.575  1.00  0.00    -0.083 C  
HETATM   29 CL   UNL     1      -7.374   2.639  69.576  1.00  0.00    -0.044 Cl 
HETATM   30  C   UNL     1      -8.336   3.000  71.031  1.00  0.00    -0.061 C  
ENDBRANCH  27  28
BRANCH  27  31
HETATM   31  C   UNL     1      -8.338   4.179  74.064  1.00  0.00    -0.095 C  
HETATM   32 CL   UNL     1      -6.128   5.825  74.083  1.00  0.00    -0.061 Cl 
HETATM   33  C   UNL     1      -6.818   4.190  74.304  1.00  0.00    -0.060 C  
ENDBRANCH  27  31
ENDBRANCH  24  25
ENDBRANCH  12  24
TORSDOF 5
ENDMDL
MODEL       63
REMARK 921   NORMALIZED FREE ENERGY PREDICTED BY IDOCK:   -5.35 KCAL/MOL
REMARK 922        TOTAL FREE ENERGY PREDICTED BY IDOCK:   -7.70 KCAL/MOL
REMARK 923 INTER-LIGAND FREE ENERGY PREDICTED BY IDOCK:   -6.29 KCAL/MOL
REMARK 924 INTRA-LIGAND FREE ENERGY PREDICTED BY IDOCK:   -1.41 KCAL/MOL
REMARK 927      BINDING AFFINITY PREDICTED BY RF-SCORE:    0.00 PKD
ROOT
HETATM    1  C   UNL     1      -7.996   8.245  69.316  1.00  0.00    -0.114 C  
HETATM    2  C   UNL     1      -8.778   8.387  70.495  1.00  0.00    -0.152 C  
HETATM    3  C   UNL     1      -9.656   8.371  69.275  1.00  0.00    -0.164 C  
HETATM    4  C   UNL     1      -8.734   7.848  67.512  1.00  0.00    -0.125 C  
HETATM    5  C   UNL     1      -9.210   7.051  68.509  1.00  0.00    -0.137 C  
HETATM    6  C   UNL     1     -10.032  12.510  66.406  1.00  0.00    -0.262 A  
HETATM    7  C   UNL     1     -10.745   7.754  67.595  1.00  0.00    -0.227 C  
HETATM    8  C   UNL     1      -7.966   9.902  68.560  1.00  0.00    -0.086 C  
HETATM    9  C   UNL     1      -9.168   5.608  68.897  1.00  0.00    -0.136 C  
HETATM   10  C   UNL     1     -10.438   9.450  67.065  1.00  0.00    -0.302 C  
HETATM   11  C   UNL     1      -9.879  13.845  65.992  1.00  0.00    -0.306 A  
HETATM   12  C   UNL     1      -8.819  14.607  66.478  1.00  0.00    -0.155 A  
HETATM   13  C   UNL     1      -7.477  10.959  69.571  1.00  0.00    -0.081 C  
HETATM   14  C   UNL     1      -9.383  10.511  67.893  1.00  0.00    -0.150 C  
HETATM   15  C   UNL     1      -9.127  11.912  67.301  1.00  0.00    -0.178 A  
HETATM   16  C   UNL     1      -8.088  12.725  67.828  1.00  0.00    -0.168 A  
HETATM   17  C   UNL     1      -7.938  14.059  67.400  1.00  0.00    -0.191 A  
HETATM   18  C   UNL     1      -7.094  12.253  68.862  1.00  0.00    -0.088 C  
ENDROOT
BRANCH   4  19
HETATM   19  O   UNL     1      -8.953   6.689  66.492  1.00  0.00    -0.135 OA 
HETATM   20  O   UNL     1      -7.154   5.328  66.047  1.00  0.00    -0.065 OA 
HETATM   21  O   UNL     1      -7.127   6.072  63.840  1.00  0.00    -0.048 OA 
HETATM   22  O   UNL     1      -9.187   5.316  64.722  1.00  0.00    -0.031 OA 
HETATM   23  P   UNL     1      -7.989   6.363  65.092  1.00  0.00    -0.115 P  
ENDBRANCH   4  19
BRANCH  12  24
HETATM   24  O   UNL     1      -8.723  15.954  66.083  1.00  0.00    -0.327 OA 
BRANCH  24  25
HETATM   25  C   UNL     1      -9.765  16.788  66.498  1.00  0.00    -0.283 C  
HETATM   26  O   UNL     1     -10.656  17.219  65.778  1.00  0.00    -0.438 OA 
HETATM   27  N   UNL     1      -9.774  16.944  67.879  1.00  0.00    -0.249 N  
BRANCH  27  28
HETATM   28  C   UNL     1      -8.569  17.426  68.564  1.00  0.00    -0.270 C  
HETATM   29 CL   UNL     1      -6.859  19.422  69.263  1.00  0.00    -0.367 Cl 
HETATM   30  C   UNL     1      -8.332  18.922  68.395  1.00  0.00    -0.347 C  
ENDBRANCH  27  28
BRANCH  27  31
HETATM   31  C   UNL     1     -11.075  17.149  68.526  1.00  0.00    -0.092 C  
HETATM   32 CL   UNL     1     -10.973  14.583  69.524  1.00  0.00    -0.268 Cl 
HETATM   33  C   UNL     1     -11.904  15.863  68.692  1.00  0.00    -0.234 C  
ENDBRANCH  27  31
ENDBRANCH  24  25
ENDBRANCH  12  24
TORSDOF 5
ENDMDL
MODEL       64
REMARK 921   NORMALIZED FREE ENERGY PREDICTED BY IDOCK:   -5.32 KCAL/MOL
REMARK 922        TOTAL FREE ENERGY PREDICTED BY IDOCK:   -7.67 KCAL/MOL
REMARK 923 INTER-LIGAND FREE ENERGY PREDICTED BY IDOCK:   -6.72 KCAL/MOL
REMARK 924 INTRA-LIGAND FREE ENERGY PREDICTED BY IDOCK:   -0.94 KCAL/MOL
REMARK 927      BINDING AFFINITY PREDICTED BY RF-SCORE:    0.00 PKD
ROOT
HETATM    1  C   UNL     1      -9.019   5.364  69.716  1.00  0.00    -0.146 C  
HETATM    2  C   UNL     1     -10.270   5.212  70.375  1.00  0.00    -0.334 C  
HETATM    3  C   UNL     1     -10.467   5.378  68.894  1.00  0.00    -0.238 C  
HETATM    4  C   UNL     1      -8.763   5.285  67.745  1.00  0.00    -0.103 C  
HETATM    5  C   UNL     1      -9.515   4.273  68.262  1.00  0.00    -0.212 C  
HETATM    6  C   UNL     1     -10.121   9.970  66.821  1.00  0.00    -0.286 A  
HETATM    7  C   UNL     1     -10.541   5.034  66.829  1.00  0.00    -0.220 C  
HETATM    8  C   UNL     1      -8.905   7.137  69.312  1.00  0.00    -0.136 C  
HETATM    9  C   UNL     1      -9.429   2.788  68.413  1.00  0.00    -0.209 C  
HETATM   10  C   UNL     1     -10.296   6.819  66.760  1.00  0.00    -0.286 C  
HETATM   11  C   UNL     1     -10.007  11.369  66.727  1.00  0.00    -0.238 A  
HETATM   12  C   UNL     1      -9.429  12.091  67.768  1.00  0.00    -0.190 A  
HETATM   13  C   UNL     1      -9.114   8.002  70.571  1.00  0.00    -0.153 C  
HETATM   14  C   UNL     1      -9.927   7.765  68.137  1.00  0.00    -0.207 C  
HETATM   15  C   UNL     1      -9.651   9.271  67.948  1.00  0.00    -0.163 A  
HETATM   16  C   UNL     1      -9.119  10.034  69.022  1.00  0.00    -0.172 A  
HETATM   17  C   UNL     1      -9.001  11.433  68.913  1.00  0.00    -0.016 A  
HETATM   18  C   UNL     1      -8.657   9.436  70.328  1.00  0.00    -0.249 C  
ENDROOT
BRANCH   4  19
HETATM   19  O   UNL     1      -8.298   4.341  66.594  1.00  0.00    -0.102 OA 
HETATM   20  O   UNL     1      -6.251   3.323  66.835  1.00  0.00    -0.027 OA 
HETATM   21  O   UNL     1      -5.441   4.500  64.995  1.00  0.00    -0.013 OA 
HETATM   22  O   UNL     1      -7.487   3.340  64.747  1.00  0.00    -0.073 OA 
HETATM   23  P   UNL     1      -6.790   4.425  65.750  1.00  0.00    -0.060 P  
ENDBRANCH   4  19
BRANCH  12  24
HETATM   24  O   UNL     1      -9.375  13.493  67.664  1.00  0.00    -0.201 OA 
BRANCH  24  25
HETATM   25  C   UNL     1     -10.482  14.185  68.163  1.00  0.00    -0.244 C  
HETATM   26  O   UNL     1     -11.026  13.970  69.239  1.00  0.00    -0.250 OA 
HETATM   27  N   UNL     1     -10.803  15.277  67.365  1.00  0.00    -0.298 N  
BRANCH  27  28
HETATM   28  C   UNL     1     -11.057  15.080  65.933  1.00  0.00    -0.334 C  
HETATM   29 CL   UNL     1     -12.453  13.948  63.891  1.00  0.00    -0.336 Cl 
HETATM   30  C   UNL     1     -12.209  14.122  65.647  1.00  0.00    -0.435 C  
ENDBRANCH  27  28
BRANCH  27  31
HETATM   31  C   UNL     1     -11.396  16.444  68.026  1.00  0.00    -0.157 C  
HETATM   32 CL   UNL     1      -9.366  18.024  67.038  1.00  0.00    -0.259 Cl 
HETATM   33  C   UNL     1     -10.377  17.526  68.426  1.00  0.00    -0.378 C  
ENDBRANCH  27  31
ENDBRANCH  24  25
ENDBRANCH  12  24
TORSDOF 5
ENDMDL
MODEL       65
REMARK 921   NORMALIZED FREE ENERGY PREDICTED BY IDOCK:   -5.27 KCAL/MOL
REMARK 922        TOTAL FREE ENERGY PREDICTED BY IDOCK:   -7.59 KCAL/MOL
REMARK 923 INTER-LIGAND FREE ENERGY PREDICTED BY IDOCK:   -6.99 KCAL/MOL
REMARK 924 INTRA-LIGAND FREE ENERGY PREDICTED BY IDOCK:   -0.59 KCAL/MOL
REMARK 927      BINDING AFFINITY PREDICTED BY RF-SCORE:    0.00 PKD
ROOT
HETATM    1  C   UNL     1     -10.251  17.589  66.970  1.00  0.00    -0.327 C  
HETATM    2  C   UNL     1     -11.086  17.658  68.119  1.00  0.00     0.075 C  
HETATM    3  C   UNL     1      -9.649  17.474  68.518  1.00  0.00    -0.305 C  
HETATM    4  C   UNL     1      -8.265  17.679  67.010  1.00  0.00    -0.220 C  
HETATM    5  C   UNL     1      -8.892  18.639  67.746  1.00  0.00    -0.294 C  
HETATM    6  C   UNL     1      -7.516  12.909  68.167  1.00  0.00    -0.126 A  
HETATM    7  C   UNL     1      -7.619  17.806  68.915  1.00  0.00    -0.223 C  
HETATM    8  C   UNL     1      -9.823  15.827  66.796  1.00  0.00    -0.256 C  
HETATM    9  C   UNL     1      -9.039  20.127  67.739  1.00  0.00    -0.403 C  
HETATM   10  C   UNL     1      -7.503  16.041  68.562  1.00  0.00    -0.156 C  
HETATM   11  C   UNL     1      -7.397  11.522  67.974  1.00  0.00    -0.091 A  
HETATM   12  C   UNL     1      -8.338  10.844  67.202  1.00  0.00    -0.125 A  
HETATM   13  C   UNL     1     -11.093  14.953  66.761  1.00  0.00    -0.335 C  
HETATM   14  C   UNL     1      -8.805  15.127  67.934  1.00  0.00    -0.166 C  
HETATM   15  C   UNL     1      -8.567  13.643  67.587  1.00  0.00    -0.185 A  
HETATM   16  C   UNL     1      -9.547  12.921  66.853  1.00  0.00    -0.240 A  
HETATM   17  C   UNL     1      -9.413  11.533  66.657  1.00  0.00    -0.208 A  
HETATM   18  C   UNL     1     -10.777  13.553  66.247  1.00  0.00    -0.288 C  
ENDROOT
BRANCH   4  19
HETATM   19  O   UNL     1      -7.065  18.649  66.783  1.00  0.00    -0.205 OA 
HETATM   20  O   UNL     1      -7.075  19.896  64.852  1.00  0.00    -0.325 OA 
HETATM   21  O   UNL     1      -5.164  18.786  64.115  1.00  0.00    -0.204 OA 
HETATM   22  O   UNL     1      -5.134  19.702  66.296  1.00  0.00    -0.161 OA 
HETATM   23  P   UNL     1      -6.062  18.722  65.375  1.00  0.00    -0.282 P  
ENDBRANCH   4  19
BRANCH  12  24
HETATM   24  O   UNL     1      -8.218   9.448  67.069  1.00  0.00    -0.114 OA 
BRANCH  24  25
HETATM   25  C   UNL     1      -9.323   8.789  66.523  1.00  0.00    -0.203 C  
HETATM   26  O   UNL     1      -9.600   8.739  65.332  1.00  0.00    -0.071 OA 
HETATM   27  N   UNL     1      -9.995   8.041  67.482  1.00  0.00    -0.178 N  
BRANCH  27  28
HETATM   28  C   UNL     1     -10.473   8.692  68.708  1.00  0.00    -0.185 C  
HETATM   29 CL   UNL     1     -10.352   9.104  71.394  1.00  0.00    -0.395 Cl 
HETATM   30  C   UNL     1      -9.716   8.261  69.959  1.00  0.00    -0.176 C  
ENDBRANCH  27  28
BRANCH  27  31
HETATM   31  C   UNL     1     -10.667   6.817  67.033  1.00  0.00    -0.365 C  
HETATM   32 CL   UNL     1      -8.523   5.327  67.914  1.00  0.00    -0.101 Cl 
HETATM   33  C   UNL     1      -9.707   5.687  66.623  1.00  0.00    -0.158 C  
ENDBRANCH  27  31
ENDBRANCH  24  25
ENDBRANCH  12  24
TORSDOF 5
ENDMDL
MODEL       66
REMARK 921   NORMALIZED FREE ENERGY PREDICTED BY IDOCK:   -5.26 KCAL/MOL
REMARK 922        TOTAL FREE ENERGY PREDICTED BY IDOCK:   -7.58 KCAL/MOL
REMARK 923 INTER-LIGAND FREE ENERGY PREDICTED BY IDOCK:   -7.34 KCAL/MOL
REMARK 924 INTRA-LIGAND FREE ENERGY PREDICTED BY IDOCK:   -0.25 KCAL/MOL
REMARK 927      BINDING AFFINITY PREDICTED BY RF-SCORE:    0.00 PKD
ROOT
HETATM    1  C   UNL     1      -6.996   8.545  69.861  1.00  0.00    -0.043 C  
HETATM    2  C   UNL     1      -6.962   8.935  71.228  1.00  0.00    -0.094 C  
HETATM    3  C   UNL     1      -8.345   8.497  70.835  1.00  0.00    -0.166 C  
HETATM    4  C   UNL     1      -8.512   7.592  68.995  1.00  0.00    -0.132 C  
HETATM    5  C   UNL     1      -8.115   7.064  70.186  1.00  0.00    -0.130 C  
HETATM    6  C   UNL     1     -11.305  11.616  68.187  1.00  0.00    -0.358 A  
HETATM    7  C   UNL     1     -10.010   7.335  70.318  1.00  0.00    -0.188 C  
HETATM    8  C   UNL     1      -7.814   9.920  68.991  1.00  0.00    -0.095 C  
HETATM    9  C   UNL     1      -7.504   5.797  70.694  1.00  0.00    -0.086 C  
HETATM   10  C   UNL     1     -10.492   8.837  69.443  1.00  0.00    -0.228 C  
HETATM   11  C   UNL     1     -11.751  12.791  67.556  1.00  0.00    -0.422 A  
HETATM   12  C   UNL     1     -10.831  13.755  67.150  1.00  0.00    -0.283 A  
HETATM   13  C   UNL     1      -7.110  11.259  69.293  1.00  0.00    -0.112 C  
HETATM   14  C   UNL     1      -9.452  10.182  69.255  1.00  0.00    -0.231 C  
HETATM   15  C   UNL     1      -9.937  11.380  68.412  1.00  0.00    -0.206 A  
HETATM   16  C   UNL     1      -9.022  12.403  68.043  1.00  0.00    -0.194 A  
HETATM   17  C   UNL     1      -9.479  13.571  67.403  1.00  0.00    -0.225 A  
HETATM   18  C   UNL     1      -7.537  12.334  68.301  1.00  0.00    -0.133 C  
ENDROOT
BRANCH   4  19
HETATM   19  O   UNL     1      -8.985   6.179  68.535  1.00  0.00    -0.117 OA 
HETATM   20  O   UNL     1      -7.665   5.075  67.011  1.00  0.00    -0.091 OA 
HETATM   21  O   UNL     1      -9.379   5.182  65.437  1.00  0.00    -0.150 OA 
HETATM   22  O   UNL     1      -9.910   4.357  67.589  1.00  0.00    -0.169 OA 
HETATM   23  P   UNL     1      -9.193   5.653  66.900  1.00  0.00    -0.130 P  
ENDBRANCH   4  19
BRANCH  12  24
HETATM   24  O   UNL     1     -11.314  14.942  66.567  1.00  0.00    -0.348 OA 
BRANCH  24  25
HETATM   25  C   UNL     1     -10.431  16.024  66.565  1.00  0.00    -0.302 C  
HETATM   26  O   UNL     1      -9.721  16.356  65.624  1.00  0.00    -0.492 OA 
HETATM   27  N   UNL     1     -10.571  16.800  67.710  1.00  0.00    -0.338 N  
BRANCH  27  28
HETATM   28  C   UNL     1     -10.444  16.173  69.031  1.00  0.00    -0.261 C  
HETATM   29 CL   UNL     1     -11.529  15.248  71.347  1.00  0.00    -0.419 Cl 
HETATM   30  C   UNL     1     -11.774  16.023  69.762  1.00  0.00    -0.265 C  
ENDBRANCH  27  28
BRANCH  27  31
HETATM   31  C   UNL     1     -10.302  18.236  67.588  1.00  0.00    -0.396 C  
HETATM   32 CL   UNL     1      -7.609  17.751  67.919  1.00  0.00    -0.208 Cl 
HETATM   33  C   UNL     1      -9.054  18.709  68.355  1.00  0.00    -0.324 C  
ENDBRANCH  27  31
ENDBRANCH  24  25
ENDBRANCH  12  24
TORSDOF 5
ENDMDL
MODEL       67
REMARK 921   NORMALIZED FREE ENERGY PREDICTED BY IDOCK:   -5.24 KCAL/MOL
REMARK 922        TOTAL FREE ENERGY PREDICTED BY IDOCK:   -7.56 KCAL/MOL
REMARK 923 INTER-LIGAND FREE ENERGY PREDICTED BY IDOCK:   -6.42 KCAL/MOL
REMARK 924 INTRA-LIGAND FREE ENERGY PREDICTED BY IDOCK:   -1.14 KCAL/MOL
REMARK 927      BINDING AFFINITY PREDICTED BY RF-SCORE:    0.00 PKD
ROOT
HETATM    1  C   UNL     1     -10.594   7.973  67.848  1.00  0.00    -0.210 C  
HETATM    2  C   UNL     1     -10.052   7.619  66.582  1.00  0.00    -0.278 C  
HETATM    3  C   UNL     1      -9.009   7.501  67.658  1.00  0.00    -0.127 C  
HETATM    4  C   UNL     1      -9.691   7.658  69.592  1.00  0.00    -0.171 C  
HETATM    5  C   UNL     1      -9.702   6.583  68.755  1.00  0.00    -0.131 C  
HETATM    6  C   UNL     1      -6.758  11.660  69.430  1.00  0.00    -0.110 A  
HETATM    7  C   UNL     1      -7.876   6.836  69.289  1.00  0.00    -0.110 C  
HETATM    8  C   UNL     1      -9.936   9.635  68.201  1.00  0.00    -0.185 C  
HETATM    9  C   UNL     1     -10.287   5.207  68.718  1.00  0.00    -0.162 C  
HETATM   10  C   UNL     1      -7.506   8.594  69.449  1.00  0.00    -0.080 C  
HETATM   11  C   UNL     1      -6.386  13.012  69.541  1.00  0.00    -0.103 A  
HETATM   12  C   UNL     1      -7.214  14.006  69.025  1.00  0.00    -0.092 A  
HETATM   13  C   UNL     1     -10.241  10.605  67.041  1.00  0.00    -0.267 C  
HETATM   14  C   UNL     1      -8.298   9.801  68.533  1.00  0.00    -0.110 C  
HETATM   15  C   UNL     1      -7.965  11.281  68.813  1.00  0.00    -0.137 A  
HETATM   16  C   UNL     1      -8.764  12.308  68.243  1.00  0.00    -0.178 A  
HETATM   17  C   UNL     1      -8.386  13.659  68.368  1.00  0.00    -0.147 A  
HETATM   18  C   UNL     1     -10.037  12.052  67.474  1.00  0.00    -0.205 C  
ENDROOT
BRANCH   4  19
HETATM   19  O   UNL     1      -9.668   6.693  70.817  1.00  0.00    -0.178 OA 
HETATM   20  O   UNL     1     -11.688   6.186  71.792  1.00  0.00    -0.300 OA 
HETATM   21  O   UNL     1     -11.020   7.255  73.750  1.00  0.00    -0.255 OA 
HETATM   22  O   UNL     1      -9.550   5.656  72.813  1.00  0.00    -0.152 OA 
HETATM   23  P   UNL     1     -10.382   6.990  72.365  1.00  0.00    -0.222 P  
ENDBRANCH   4  19
BRANCH  12  24
HETATM   24  O   UNL     1      -6.787  15.345  69.108  1.00  0.00    -0.123 OA 
BRANCH  24  25
HETATM   25  C   UNL     1      -6.637  16.015  67.891  1.00  0.00    -0.144 C  
HETATM   26  O   UNL     1      -5.938  15.640  66.958  1.00  0.00    -0.295 OA 
HETATM   27  N   UNL     1      -7.515  17.088  67.787  1.00  0.00    -0.163 N  
BRANCH  27  28
HETATM   28  C   UNL     1      -7.520  18.125  68.826  1.00  0.00    -0.274 C  
HETATM   29 CL   UNL     1      -6.283  20.095  70.236  1.00  0.00    -0.407 Cl 
HETATM   30  C   UNL     1      -6.186  18.851  68.965  1.00  0.00    -0.247 C  
ENDBRANCH  27  28
BRANCH  27  31
HETATM   31  C   UNL     1      -7.996  17.438  66.447  1.00  0.00    -0.290 C  
HETATM   32 CL   UNL     1     -10.519  16.569  67.135  1.00  0.00    -0.310 Cl 
HETATM   33  C   UNL     1      -9.174  16.577  65.957  1.00  0.00    -0.260 C  
ENDBRANCH  27  31
ENDBRANCH  24  25
ENDBRANCH  12  24
TORSDOF 5
ENDMDL
MODEL       68
REMARK 921   NORMALIZED FREE ENERGY PREDICTED BY IDOCK:   -5.18 KCAL/MOL
REMARK 922        TOTAL FREE ENERGY PREDICTED BY IDOCK:   -7.48 KCAL/MOL
REMARK 923 INTER-LIGAND FREE ENERGY PREDICTED BY IDOCK:   -7.05 KCAL/MOL
REMARK 924 INTRA-LIGAND FREE ENERGY PREDICTED BY IDOCK:   -0.43 KCAL/MOL
REMARK 927      BINDING AFFINITY PREDICTED BY RF-SCORE:    0.00 PKD
ROOT
HETATM    1  C   UNL     1     -12.166  13.107  68.202  1.00  0.00    -0.070 C  
HETATM    2  C   UNL     1     -11.976  14.188  69.107  1.00  0.00    -0.388 C  
HETATM    3  C   UNL     1     -10.686  13.839  68.419  1.00  0.00    -0.266 C  
HETATM    4  C   UNL     1     -10.835  12.523  66.845  1.00  0.00    -0.248 C  
HETATM    5  C   UNL     1     -11.064  13.866  66.875  1.00  0.00    -0.309 C  
HETATM    6  C   UNL     1      -8.055   9.801  69.930  1.00  0.00    -0.192 A  
HETATM    7  C   UNL     1      -9.162  13.637  66.996  1.00  0.00    -0.254 C  
HETATM    8  C   UNL     1     -11.441  11.657  69.033  1.00  0.00    -0.356 C  
HETATM    9  C   UNL     1     -11.635  14.918  65.979  1.00  0.00    -0.226 C  
HETATM   10  C   UNL     1      -8.766  12.173  67.972  1.00  0.00    -0.180 C  
HETATM   11  C   UNL     1      -7.669   8.696  70.708  1.00  0.00    -0.091 A  
HETATM   12  C   UNL     1      -8.605   8.051  71.512  1.00  0.00    -0.128 A  
HETATM   13  C   UNL     1     -12.043  11.472  70.441  1.00  0.00    -0.471 C  
HETATM   14  C   UNL     1      -9.774  11.584  69.222  1.00  0.00     0.258 C  
HETATM   15  C   UNL     1      -9.381  10.273  69.933  1.00  0.00    -0.040 A  
HETATM   16  C   UNL     1     -10.304   9.636  70.805  1.00  0.00    -0.356 A  
HETATM   17  C   UNL     1      -9.909   8.523  71.573  1.00  0.00    -0.309 A  
HETATM   18  C   UNL     1     -11.734  10.082  70.986  1.00  0.00    -0.479 C  
ENDROOT
BRANCH   4  19
HETATM   19  O   UNL     1     -10.487  12.625  65.328  1.00  0.00    -0.278 OA 
HETATM   20  O   UNL     1     -11.625  11.232  63.896  1.00  0.00    -0.196 OA 
HETATM   21  O   UNL     1      -9.637  10.140  63.366  1.00  0.00    -0.296 OA 
HETATM   22  O   UNL     1      -9.665  12.502  63.235  1.00  0.00    -0.215 OA 
HETATM   23  P   UNL     1     -10.038  11.313  64.292  1.00  0.00    -0.371 P  
ENDBRANCH   4  19
BRANCH  12  24
HETATM   24  O   UNL     1      -8.175   6.979  72.317  1.00  0.00    -0.099 OA 
BRANCH  24  25
HETATM   25  C   UNL     1      -9.126   6.454  73.195  1.00  0.00    -0.128 C  
HETATM   26  O   UNL     1      -9.348   6.864  74.327  1.00  0.00    -0.207 OA 
HETATM   27  N   UNL     1      -9.925   5.502  72.572  1.00  0.00    -0.167 N  
BRANCH  27  28
HETATM   28  C   UNL     1      -9.301   4.350  71.911  1.00  0.00    -0.137 C  
HETATM   29 CL   UNL     1      -8.634   2.957  69.672  1.00  0.00    -0.103 Cl 
HETATM   30  C   UNL     1      -9.424   4.382  70.391  1.00  0.00    -0.175 C  
ENDBRANCH  27  28
BRANCH  27  31
HETATM   31  C   UNL     1     -11.310   5.375  73.038  1.00  0.00    -0.293 C  
HETATM   32 CL   UNL     1     -12.193   6.556  70.710  1.00  0.00    -0.316 Cl 
HETATM   33  C   UNL     1     -12.259   6.458  72.494  1.00  0.00     0.037 C  
ENDBRANCH  27  31
ENDBRANCH  24  25
ENDBRANCH  12  24
TORSDOF 5
ENDMDL
MODEL       69
REMARK 921   NORMALIZED FREE ENERGY PREDICTED BY IDOCK:   -5.13 KCAL/MOL
REMARK 922        TOTAL FREE ENERGY PREDICTED BY IDOCK:   -7.41 KCAL/MOL
REMARK 923 INTER-LIGAND FREE ENERGY PREDICTED BY IDOCK:   -6.42 KCAL/MOL
REMARK 924 INTRA-LIGAND FREE ENERGY PREDICTED BY IDOCK:   -0.99 KCAL/MOL
REMARK 927      BINDING AFFINITY PREDICTED BY RF-SCORE:    0.00 PKD
ROOT
HETATM    1  C   UNL     1     -10.400   7.907  67.676  1.00  0.00    -0.307 C  
HETATM    2  C   UNL     1      -9.788   7.555  66.441  1.00  0.00    -0.152 C  
HETATM    3  C   UNL     1      -8.787   7.511  67.561  1.00  0.00    -0.127 C  
HETATM    4  C   UNL     1      -9.557   7.671  69.462  1.00  0.00    -0.163 C  
HETATM    5  C   UNL     1      -9.480   6.580  68.649  1.00  0.00    -0.123 C  
HETATM    6  C   UNL     1      -6.819  11.811  69.335  1.00  0.00    -0.067 A  
HETATM    7  C   UNL     1      -7.692   6.935  69.252  1.00  0.00    -0.105 C  
HETATM    8  C   UNL     1      -9.839   9.606  68.020  1.00  0.00    -0.175 C  
HETATM    9  C   UNL     1      -9.994   5.177  68.617  1.00  0.00    -0.227 C  
HETATM   10  C   UNL     1      -7.416   8.712  69.389  1.00  0.00    -0.080 C  
HETATM   11  C   UNL     1      -6.518  13.181  69.432  1.00  0.00    -0.095 A  
HETATM   12  C   UNL     1      -7.371  14.122  68.861  1.00  0.00    -0.122 A  
HETATM   13  C   UNL     1     -10.142  10.537  66.828  1.00  0.00    -0.270 C  
HETATM   14  C   UNL     1      -8.227   9.860  68.415  1.00  0.00    -0.106 C  
HETATM   15  C   UNL     1      -7.978  11.360  68.677  1.00  0.00    -0.141 A  
HETATM   16  C   UNL     1      -8.802  12.334  68.052  1.00  0.00    -0.182 A  
HETATM   17  C   UNL     1      -8.496  13.705  68.164  1.00  0.00    -0.175 A  
HETATM   18  C   UNL     1     -10.028  12.000  67.238  1.00  0.00    -0.205 C  
ENDROOT
BRANCH   4  19
HETATM   19  O   UNL     1      -9.537   6.732  70.708  1.00  0.00    -0.168 OA 
HETATM   20  O   UNL     1     -11.569   6.149  71.612  1.00  0.00    -0.295 OA 
HETATM   21  O   UNL     1     -11.031   7.287  73.573  1.00  0.00    -0.345 OA 
HETATM   22  O   UNL     1      -9.453   5.742  72.729  1.00  0.00    -0.146 OA 
HETATM   23  P   UNL     1     -10.326   7.025  72.220  1.00  0.00    -0.204 P  
ENDBRANCH   4  19
BRANCH  12  24
HETATM   24  O   UNL     1      -7.015  15.482  68.933  1.00  0.00    -0.117 OA 
BRANCH  24  25
HETATM   25  C   UNL     1      -7.005  16.176  67.720  1.00  0.00    -0.141 C  
HETATM   26  O   UNL     1      -6.150  16.068  66.849  1.00  0.00    -0.318 OA 
HETATM   27  N   UNL     1      -8.181  16.891  67.532  1.00  0.00    -0.176 N  
BRANCH  27  28
HETATM   28  C   UNL     1      -8.615  17.856  68.549  1.00  0.00    -0.293 C  
HETATM   29 CL   UNL     1     -10.281  19.825  69.414  1.00  0.00    -0.316 Cl 
HETATM   30  C   UNL     1      -9.817  18.691  68.121  1.00  0.00    -0.354 C  
ENDBRANCH  27  28
BRANCH  27  31
HETATM   31  C   UNL     1      -8.647  17.073  66.153  1.00  0.00    -0.217 C  
HETATM   32 CL   UNL     1     -10.922  15.633  66.740  1.00  0.00    -0.279 Cl 
HETATM   33  C   UNL     1      -9.547  15.936  65.638  1.00  0.00    -0.231 C  
ENDBRANCH  27  31
ENDBRANCH  24  25
ENDBRANCH  12  24
TORSDOF 5
ENDMDL
MODEL       70
REMARK 921   NORMALIZED FREE ENERGY PREDICTED BY IDOCK:   -5.07 KCAL/MOL
REMARK 922        TOTAL FREE ENERGY PREDICTED BY IDOCK:   -7.33 KCAL/MOL
REMARK 923 INTER-LIGAND FREE ENERGY PREDICTED BY IDOCK:   -5.95 KCAL/MOL
REMARK 924 INTRA-LIGAND FREE ENERGY PREDICTED BY IDOCK:   -1.38 KCAL/MOL
REMARK 927      BINDING AFFINITY PREDICTED BY RF-SCORE:    0.00 PKD
ROOT
HETATM    1  C   UNL     1      -7.666   8.050  63.848  1.00  0.00    -0.138 C  
HETATM    2  C   UNL     1      -6.613   8.907  63.426  1.00  0.00    -0.089 C  
HETATM    3  C   UNL     1      -6.495   8.603  64.894  1.00  0.00    -0.065 C  
HETATM    4  C   UNL     1      -7.734   7.125  65.608  1.00  0.00    -0.102 C  
HETATM    5  C   UNL     1      -6.544   7.015  64.954  1.00  0.00    -0.043 C  
HETATM    6  C   UNL     1      -9.484  10.985  68.194  1.00  0.00    -0.172 A  
HETATM    7  C   UNL     1      -6.136   7.644  66.721  1.00  0.00    -0.048 C  
HETATM    8  C   UNL     1      -8.822   9.125  64.757  1.00  0.00    -0.200 C  
HETATM    9  C   UNL     1      -5.711   5.941  64.331  1.00  0.00    -0.021 C  
HETATM   10  C   UNL     1      -7.418   8.774  67.297  1.00  0.00    -0.089 C  
HETATM   11  C   UNL     1     -10.424  11.901  68.698  1.00  0.00    -0.231 A  
HETATM   12  C   UNL     1     -11.368  12.468  67.845  1.00  0.00    -0.291 A  
HETATM   13  C   UNL     1      -9.241  10.334  63.897  1.00  0.00    -0.312 C  
HETATM   14  C   UNL     1      -8.347   9.748  66.243  1.00  0.00    -0.117 C  
HETATM   15  C   UNL     1      -9.477  10.613  66.837  1.00  0.00    -0.189 A  
HETATM   16  C   UNL     1     -10.411  11.249  65.976  1.00  0.00    -0.302 A  
HETATM   17  C   UNL     1     -11.355  12.158  66.493  1.00  0.00    -0.405 A  
HETATM   18  C   UNL     1     -10.468  11.022  64.485  1.00  0.00    -0.411 C  
ENDROOT
BRANCH   4  19
HETATM   19  O   UNL     1      -7.475   5.749  66.294  1.00  0.00    -0.080 OA 
HETATM   20  O   UNL     1      -8.578   3.924  65.434  1.00  0.00    -0.111 OA 
HETATM   21  O   UNL     1      -9.759   3.690  67.428  1.00  0.00    -0.194 OA 
HETATM   22  O   UNL     1      -7.406   3.887  67.560  1.00  0.00    -0.066 OA 
HETATM   23  P   UNL     1      -8.681   4.662  66.892  1.00  0.00    -0.109 P  
ENDBRANCH   4  19
BRANCH  12  24
HETATM   24  O   UNL     1     -12.263  13.419  68.371  1.00  0.00    -0.293 OA 
BRANCH  24  25
HETATM   25  C   UNL     1     -11.682  14.520  69.005  1.00  0.00    -0.311 C  
HETATM   26  O   UNL     1     -11.703  14.736  70.210  1.00  0.00    -0.268 OA 
HETATM   27  N   UNL     1     -10.918  15.273  68.121  1.00  0.00    -0.280 N  
BRANCH  27  28
HETATM   28  C   UNL     1     -11.529  15.787  66.889  1.00  0.00     0.165 C  
HETATM   29 CL   UNL     1     -11.405  16.408  64.244  1.00  0.00    -0.185 Cl 
HETATM   30  C   UNL     1     -10.583  15.779  65.693  1.00  0.00    -0.377 C  
ENDBRANCH  27  28
BRANCH  27  31
HETATM   31  C   UNL     1      -9.749  15.971  68.666  1.00  0.00    -0.217 C  
HETATM   32 CL   UNL     1      -8.092  14.221  67.329  1.00  0.00    -0.210 Cl 
HETATM   33  C   UNL     1      -8.509  15.076  68.843  1.00  0.00    -0.192 C  
ENDBRANCH  27  31
ENDBRANCH  24  25
ENDBRANCH  12  24
TORSDOF 5
ENDMDL
MODEL       71
REMARK 921   NORMALIZED FREE ENERGY PREDICTED BY IDOCK:   -5.04 KCAL/MOL
REMARK 922        TOTAL FREE ENERGY PREDICTED BY IDOCK:   -7.30 KCAL/MOL
REMARK 923 INTER-LIGAND FREE ENERGY PREDICTED BY IDOCK:   -6.32 KCAL/MOL
REMARK 924 INTRA-LIGAND FREE ENERGY PREDICTED BY IDOCK:   -0.98 KCAL/MOL
REMARK 927      BINDING AFFINITY PREDICTED BY RF-SCORE:    0.00 PKD
ROOT
HETATM    1  C   UNL     1      -9.753   4.204  69.745  1.00  0.00    -0.278 C  
HETATM    2  C   UNL     1      -9.077   3.297  68.884  1.00  0.00    -0.207 C  
HETATM    3  C   UNL     1      -8.107   4.267  69.499  1.00  0.00    -0.062 C  
HETATM    4  C   UNL     1      -8.851   5.440  71.016  1.00  0.00    -0.139 C  
HETATM    5  C   UNL     1      -8.401   4.155  71.058  1.00  0.00    -0.092 C  
HETATM    6  C   UNL     1      -7.787   8.973  67.693  1.00  0.00    -0.101 A  
HETATM    7  C   UNL     1      -6.851   5.266  70.845  1.00  0.00    -0.048 C  
HETATM    8  C   UNL     1      -9.835   5.771  68.819  1.00  0.00    -0.181 C  
HETATM    9  C   UNL     1      -8.377   3.015  72.025  1.00  0.00    -0.065 C  
HETATM   10  C   UNL     1      -7.229   6.677  69.786  1.00  0.00    -0.077 C  
HETATM   11  C   UNL     1      -7.997  10.077  66.849  1.00  0.00    -0.113 A  
HETATM   12  C   UNL     1      -9.141  10.139  66.057  1.00  0.00    -0.154 A  
HETATM   13  C   UNL     1     -10.472   5.556  67.431  1.00  0.00    -0.284 C  
HETATM   14  C   UNL     1      -8.415   6.628  68.555  1.00  0.00    -0.122 C  
HETATM   15  C   UNL     1      -8.718   7.920  67.768  1.00  0.00    -0.127 A  
HETATM   16  C   UNL     1      -9.847   7.977  66.908  1.00  0.00    -0.318 A  
HETATM   17  C   UNL     1     -10.052   9.093  66.073  1.00  0.00    -0.204 A  
HETATM   18  C   UNL     1     -10.885   6.886  66.810  1.00  0.00    -0.270 C  
ENDROOT
BRANCH   4  19
HETATM   19  O   UNL     1      -8.475   5.612  72.520  1.00  0.00    -0.117 OA 
HETATM   20  O   UNL     1      -9.884   6.886  73.815  1.00  0.00    -0.219 OA 
HETATM   21  O   UNL     1      -8.189   8.452  74.132  1.00  0.00    -0.286 OA 
HETATM   22  O   UNL     1      -7.681   6.181  74.550  1.00  0.00    -0.099 OA 
HETATM   23  P   UNL     1      -8.324   7.111  73.371  1.00  0.00    -0.134 P  
ENDBRANCH   4  19
BRANCH  12  24
HETATM   24  O   UNL     1      -9.296  11.235  65.186  1.00  0.00    -0.219 OA 
BRANCH  24  25
HETATM   25  C   UNL     1     -10.455  11.995  65.362  1.00  0.00    -0.275 C  
HETATM   26  O   UNL     1     -11.500  11.849  64.741  1.00  0.00    -0.313 OA 
HETATM   27  N   UNL     1     -10.346  12.845  66.457  1.00  0.00    -0.260 N  
BRANCH  27  28
HETATM   28  C   UNL     1      -9.223  13.787  66.536  1.00  0.00    -0.192 C  
HETATM   29 CL   UNL     1      -8.214  16.310  66.420  1.00  0.00    -0.347 Cl 
HETATM   30  C   UNL     1      -9.630  15.237  66.296  1.00  0.00    -0.303 C  
ENDBRANCH  27  28
BRANCH  27  31
HETATM   31  C   UNL     1     -11.576  13.159  67.191  1.00  0.00    -0.361 C  
HETATM   32 CL   UNL     1     -10.711  11.598  69.291  1.00  0.00    -0.193 Cl 
HETATM   33  C   UNL     1     -12.024  12.057  68.168  1.00  0.00    -0.163 C  
ENDBRANCH  27  31
ENDBRANCH  24  25
ENDBRANCH  12  24
TORSDOF 5
ENDMDL
MODEL       72
REMARK 921   NORMALIZED FREE ENERGY PREDICTED BY IDOCK:   -5.03 KCAL/MOL
REMARK 922        TOTAL FREE ENERGY PREDICTED BY IDOCK:   -7.29 KCAL/MOL
REMARK 923 INTER-LIGAND FREE ENERGY PREDICTED BY IDOCK:   -6.59 KCAL/MOL
REMARK 924 INTRA-LIGAND FREE ENERGY PREDICTED BY IDOCK:   -0.70 KCAL/MOL
REMARK 927      BINDING AFFINITY PREDICTED BY RF-SCORE:    0.00 PKD
ROOT
HETATM    1  C   UNL     1      -9.911  15.859  65.395  1.00  0.00    -0.163 C  
HETATM    2  C   UNL     1     -11.178  16.204  64.850  1.00  0.00    -0.292 C  
HETATM    3  C   UNL     1     -11.152  16.453  66.333  1.00  0.00     0.181 C  
HETATM    4  C   UNL     1      -9.308  16.321  67.234  1.00  0.00    -0.224 C  
HETATM    5  C   UNL     1      -9.861  17.356  66.540  1.00  0.00    -0.310 C  
HETATM    6  C   UNL     1     -11.613  12.572  69.531  1.00  0.00    -0.348 A  
HETATM    7  C   UNL     1     -10.782  17.277  68.223  1.00  0.00    -0.349 C  
HETATM    8  C   UNL     1     -10.175  14.274  66.253  1.00  0.00    -0.307 C  
HETATM    9  C   UNL     1      -9.434  18.676  65.982  1.00  0.00    -0.051 C  
HETATM   10  C   UNL     1     -10.982  15.564  68.750  1.00  0.00    -0.270 C  
HETATM   11  C   UNL     1     -11.837  11.262  69.990  1.00  0.00    -0.448 A  
HETATM   12  C   UNL     1     -11.645  10.182  69.132  1.00  0.00    -0.030 A  
HETATM   13  C   UNL     1     -10.807  13.235  65.305  1.00  0.00    -0.314 C  
HETATM   14  C   UNL     1     -11.104  14.258  67.652  1.00  0.00    -0.305 C  
HETATM   15  C   UNL     1     -11.184  12.824  68.215  1.00  0.00    -0.308 A  
HETATM   16  C   UNL     1     -11.052  11.711  67.341  1.00  0.00    -0.337 A  
HETATM   17  C   UNL     1     -11.270  10.402  67.814  1.00  0.00    -0.309 A  
HETATM   18  C   UNL     1     -10.687  11.828  65.881  1.00  0.00    -0.328 C  
ENDROOT
BRANCH   4  19
HETATM   19  O   UNL     1      -8.431  17.335  68.031  1.00  0.00    -0.217 OA 
HETATM   20  O   UNL     1      -6.197  17.437  67.496  1.00  0.00    -0.141 OA 
HETATM   21  O   UNL     1      -5.645  16.655  69.619  1.00  0.00    -0.157 OA 
HETATM   22  O   UNL     1      -7.138  18.483  69.474  1.00  0.00    -0.130 OA 
HETATM   23  P   UNL     1      -6.960  16.976  68.869  1.00  0.00    -0.221 P  
ENDBRANCH   4  19
BRANCH  12  24
HETATM   24  O   UNL     1     -11.926   8.887  69.608  1.00  0.00     0.550 OA 
BRANCH  24  25
HETATM   25  C   UNL     1     -11.453   8.591  70.888  1.00  0.00    -0.267 C  
HETATM   26  O   UNL     1     -12.051   8.812  71.934  1.00  0.00    -0.315 OA 
HETATM   27  N   UNL     1     -10.277   7.851  70.839  1.00  0.00    -0.198 N  
BRANCH  27  28
HETATM   28  C   UNL     1      -9.126   8.366  70.087  1.00  0.00    -0.150 C  
HETATM   29 CL   UNL     1      -7.086  10.136  69.765  1.00  0.00    -0.109 Cl 
HETATM   30  C   UNL     1      -8.475   9.584  70.734  1.00  0.00    -0.028 C  
ENDBRANCH  27  28
BRANCH  27  31
HETATM   31  C   UNL     1     -10.032   6.901  71.929  1.00  0.00    -0.171 C  
HETATM   32 CL   UNL     1      -9.899   4.847  70.097  1.00  0.00    -0.288 Cl 
HETATM   33  C   UNL     1     -10.536   5.475  71.645  1.00  0.00    -0.231 C  
ENDBRANCH  27  31
ENDBRANCH  24  25
ENDBRANCH  12  24
TORSDOF 5
ENDMDL
MODEL       73
REMARK 921   NORMALIZED FREE ENERGY PREDICTED BY IDOCK:   -4.96 KCAL/MOL
REMARK 922        TOTAL FREE ENERGY PREDICTED BY IDOCK:   -7.20 KCAL/MOL
REMARK 923 INTER-LIGAND FREE ENERGY PREDICTED BY IDOCK:   -7.09 KCAL/MOL
REMARK 924 INTRA-LIGAND FREE ENERGY PREDICTED BY IDOCK:   -0.11 KCAL/MOL
REMARK 927      BINDING AFFINITY PREDICTED BY RF-SCORE:    0.00 PKD
ROOT
HETATM    1  C   UNL     1     -11.611   7.908  71.683  1.00  0.00    -0.311 C  
HETATM    2  C   UNL     1     -12.580   7.272  70.859  1.00  0.00    -0.237 C  
HETATM    3  C   UNL     1     -11.192   7.015  70.341  1.00  0.00    -0.339 C  
HETATM    4  C   UNL     1      -9.652   7.578  71.582  1.00  0.00    -0.150 C  
HETATM    5  C   UNL     1     -10.416   6.451  71.609  1.00  0.00    -0.251 C  
HETATM    6  C   UNL     1      -8.776  10.616  67.753  1.00  0.00    -0.129 A  
HETATM    7  C   UNL     1      -9.247   6.277  70.097  1.00  0.00    -0.162 C  
HETATM    8  C   UNL     1     -11.064   9.367  70.739  1.00  0.00    -0.365 C  
HETATM    9  C   UNL     1     -10.647   5.284  72.515  1.00  0.00    -0.276 C  
HETATM   10  C   UNL     1      -8.989   7.881  69.314  1.00  0.00    -0.145 C  
HETATM   11  C   UNL     1      -8.556  11.824  67.069  1.00  0.00    -0.173 A  
HETATM   12  C   UNL     1      -9.357  12.931  67.337  1.00  0.00    -0.194 A  
HETATM   13  C   UNL     1     -12.269  10.235  70.323  1.00  0.00    -0.298 C  
HETATM   14  C   UNL     1     -10.152   9.134  69.348  1.00  0.00    -0.198 C  
HETATM   15  C   UNL     1      -9.790  10.497  68.721  1.00  0.00    -0.191 A  
HETATM   16  C   UNL     1     -10.632  11.621  68.935  1.00  0.00    -0.224 A  
HETATM   17  C   UNL     1     -10.396  12.829  68.251  1.00  0.00    -0.248 A  
HETATM   18  C   UNL     1     -11.814  11.619  69.874  1.00  0.00    -0.434 C  
ENDROOT
BRANCH   4  19
HETATM   19  O   UNL     1      -8.490   6.797  72.270  1.00  0.00    -0.107 OA 
HETATM   20  O   UNL     1      -8.320   6.970  74.556  1.00  0.00    -0.154 OA 
HETATM   21  O   UNL     1      -6.268   8.049  74.330  1.00  0.00    -0.093 OA 
HETATM   22  O   UNL     1      -6.577   6.014  73.164  1.00  0.00    -0.070 OA 
HETATM   23  P   UNL     1      -7.318   7.458  73.357  1.00  0.00    -0.089 P  
ENDBRANCH   4  19
BRANCH  12  24
HETATM   24  O   UNL     1      -9.142  14.111  66.599  1.00  0.00    -0.257 OA 
BRANCH  24  25
HETATM   25  C   UNL     1      -9.812  14.196  65.376  1.00  0.00    -0.200 C  
HETATM   26  O   UNL     1      -9.604  13.481  64.403  1.00  0.00     0.135 OA 
HETATM   27  N   UNL     1     -10.876  15.088  65.438  1.00  0.00    -0.340 N  
BRANCH  27  28
HETATM   28  C   UNL     1     -10.641  16.470  65.871  1.00  0.00    -0.270 C  
HETATM   29 CL   UNL     1     -10.355  18.343  67.822  1.00  0.00    -0.405 Cl 
HETATM   30  C   UNL     1     -10.657  16.643  67.386  1.00  0.00    -0.295 C  
ENDBRANCH  27  28
BRANCH  27  31
HETATM   31  C   UNL     1     -12.039  14.810  64.589  1.00  0.00    -0.427 C  
HETATM   32 CL   UNL     1     -12.652  12.628  66.158  1.00  0.00     0.127 Cl 
HETATM   33  C   UNL     1     -12.430  13.322  64.525  1.00  0.00    -0.319 C  
ENDBRANCH  27  31
ENDBRANCH  24  25
ENDBRANCH  12  24
TORSDOF 5
ENDMDL
MODEL       74
REMARK 921   NORMALIZED FREE ENERGY PREDICTED BY IDOCK:   -4.95 KCAL/MOL
REMARK 922        TOTAL FREE ENERGY PREDICTED BY IDOCK:   -7.18 KCAL/MOL
REMARK 923 INTER-LIGAND FREE ENERGY PREDICTED BY IDOCK:   -6.92 KCAL/MOL
REMARK 924 INTRA-LIGAND FREE ENERGY PREDICTED BY IDOCK:   -0.27 KCAL/MOL
REMARK 927      BINDING AFFINITY PREDICTED BY RF-SCORE:    0.00 PKD
ROOT
HETATM    1  C   UNL     1     -11.714  11.018  68.805  1.00  0.00    -0.383 C  
HETATM    2  C   UNL     1     -10.822  11.258  69.885  1.00  0.00     0.004 C  
HETATM    3  C   UNL     1     -10.273  11.828  68.607  1.00  0.00    -0.211 C  
HETATM    4  C   UNL     1     -11.570  11.864  67.010  1.00  0.00    -0.291 C  
HETATM    5  C   UNL     1     -11.462  12.729  68.057  1.00  0.00    -0.364 C  
HETATM    6  C   UNL     1      -8.137   8.762  65.210  1.00  0.00    -0.129 A  
HETATM    7  C   UNL     1      -9.938  13.043  66.934  1.00  0.00    -0.243 C  
HETATM    8  C   UNL     1     -10.954   9.667  67.848  1.00  0.00    -0.205 C  
HETATM    9  C   UNL     1     -12.220  13.884  68.629  1.00  0.00    -0.213 C  
HETATM   10  C   UNL     1      -9.355  11.494  66.219  1.00  0.00    -0.227 C  
HETATM   11  C   UNL     1      -7.604   7.591  64.644  1.00  0.00    -0.111 A  
HETATM   12  C   UNL     1      -8.006   6.344  65.116  1.00  0.00    -0.116 A  
HETATM   13  C   UNL     1     -10.648   8.456  68.753  1.00  0.00    -0.154 C  
HETATM   14  C   UNL     1      -9.543   9.979  66.991  1.00  0.00    -0.212 C  
HETATM   15  C   UNL     1      -9.085   8.707  66.248  1.00  0.00    -0.233 A  
HETATM   16  C   UNL     1      -9.436   7.427  66.753  1.00  0.00    -0.226 A  
HETATM   17  C   UNL     1      -8.903   6.260  66.172  1.00  0.00    -0.160 A  
HETATM   18  C   UNL     1     -10.369   7.211  67.919  1.00  0.00    -0.248 C  
ENDROOT
BRANCH   4  19
HETATM   19  O   UNL     1     -12.156  13.011  66.132  1.00  0.00    -0.412 OA 
HETATM   20  O   UNL     1     -13.618  12.412  64.462  1.00  0.00    -0.450 OA 
HETATM   21  O   UNL     1     -12.105  13.162  62.858  1.00  0.00    -0.266 OA 
HETATM   22  O   UNL     1     -12.639  14.625  64.637  1.00  0.00    -0.573 OA 
HETATM   23  P   UNL     1     -12.129  13.091  64.404  1.00  0.00    -0.437 P  
ENDBRANCH   4  19
BRANCH  12  24
HETATM   24  O   UNL     1      -7.416   5.192  64.562  1.00  0.00    -0.068 OA 
BRANCH  24  25
HETATM   25  C   UNL     1      -8.168   4.529  63.590  1.00  0.00    -0.103 C  
HETATM   26  O   UNL     1      -8.394   4.946  62.461  1.00  0.00    -0.085 OA 
HETATM   27  N   UNL     1      -8.500   3.240  63.993  1.00  0.00    -0.090 N  
BRANCH  27  28
HETATM   28  C   UNL     1      -9.206   3.037  65.264  1.00  0.00    -0.146 C  
HETATM   29 CL   UNL     1      -9.236   2.316  67.887  1.00  0.00    -0.227 Cl 
HETATM   30  C   UNL     1      -8.305   2.526  66.383  1.00  0.00    -0.093 C  
ENDBRANCH  27  28
BRANCH  27  31
HETATM   31  C   UNL     1      -8.633   2.220  62.949  1.00  0.00    -0.077 C  
HETATM   32 CL   UNL     1     -11.272   2.934  62.598  1.00  0.00    -0.069 Cl 
HETATM   33  C   UNL     1     -10.053   1.643  62.810  1.00  0.00    -0.099 C  
ENDBRANCH  27  31
ENDBRANCH  24  25
ENDBRANCH  12  24
TORSDOF 5
ENDMDL
MODEL       75
REMARK 921   NORMALIZED FREE ENERGY PREDICTED BY IDOCK:   -4.92 KCAL/MOL
REMARK 922        TOTAL FREE ENERGY PREDICTED BY IDOCK:   -7.14 KCAL/MOL
REMARK 923 INTER-LIGAND FREE ENERGY PREDICTED BY IDOCK:   -6.45 KCAL/MOL
REMARK 924 INTRA-LIGAND FREE ENERGY PREDICTED BY IDOCK:   -0.69 KCAL/MOL
REMARK 927      BINDING AFFINITY PREDICTED BY RF-SCORE:    0.00 PKD
ROOT
HETATM    1  C   UNL     1      -9.447  11.564  65.249  1.00  0.00    -0.206 C  
HETATM    2  C   UNL     1     -10.326  10.672  64.576  1.00  0.00    -0.352 C  
HETATM    3  C   UNL     1     -11.033  11.358  65.712  1.00  0.00    -0.256 C  
HETATM    4  C   UNL     1     -10.019  12.918  66.589  1.00  0.00    -0.251 C  
HETATM    5  C   UNL     1     -10.760  12.902  65.446  1.00  0.00    -0.307 C  
HETATM    6  C   UNL     1     -10.248   9.809  70.454  1.00  0.00    -0.343 A  
HETATM    7  C   UNL     1     -12.005  12.782  66.901  1.00  0.00    -0.380 C  
HETATM    8  C   UNL     1      -9.005  10.720  66.802  1.00  0.00    -0.157 C  
HETATM    9  C   UNL     1     -11.044  13.808  64.291  1.00  0.00    -0.300 C  
HETATM   10  C   UNL     1     -11.314  11.791  68.240  1.00  0.00    -0.343 C  
HETATM   11  C   UNL     1      -9.791   9.020  71.524  1.00  0.00    -0.381 A  
HETATM   12  C   UNL     1      -8.671   8.207  71.360  1.00  0.00    -0.145 A  
HETATM   13  C   UNL     1      -8.449   9.308  66.521  1.00  0.00    -0.131 C  
HETATM   14  C   UNL     1     -10.184  10.533  67.983  1.00  0.00    -0.195 C  
HETATM   15  C   UNL     1      -9.592   9.808  69.210  1.00  0.00    -0.204 A  
HETATM   16  C   UNL     1      -8.489   8.927  69.048  1.00  0.00    -0.133 A  
HETATM   17  C   UNL     1      -8.033   8.148  70.129  1.00  0.00    -0.107 A  
HETATM   18  C   UNL     1      -7.740   8.749  67.749  1.00  0.00    -0.102 C  
ENDROOT
BRANCH   4  19
HETATM   19  O   UNL     1     -10.330  14.436  66.760  1.00  0.00    -0.268 OA 
HETATM   20  O   UNL     1      -8.695  15.920  66.120  1.00  0.00    -0.327 OA 
HETATM   21  O   UNL     1      -8.466  16.631  68.326  1.00  0.00    -0.189 OA 
HETATM   22  O   UNL     1     -10.645  16.570  67.410  1.00  0.00    -0.316 OA 
HETATM   23  P   UNL     1      -9.346  15.595  67.587  1.00  0.00    -0.207 P  
ENDBRANCH   4  19
BRANCH  12  24
HETATM   24  O   UNL     1      -8.270   7.392  72.435  1.00  0.00    -0.098 OA 
BRANCH  24  25
HETATM   25  C   UNL     1      -7.908   6.083  72.107  1.00  0.00    -0.102 C  
HETATM   26  O   UNL     1      -6.823   5.740  71.654  1.00  0.00    -0.063 OA 
HETATM   27  N   UNL     1      -8.875   5.170  72.513  1.00  0.00    -0.126 N  
BRANCH  27  28
HETATM   28  C   UNL     1     -10.263   5.334  72.065  1.00  0.00    -0.203 C  
HETATM   29 CL   UNL     1     -12.876   5.905  72.557  1.00  0.00     0.203 Cl 
HETATM   30  C   UNL     1     -11.221   5.718  73.187  1.00  0.00    -0.207 C  
ENDBRANCH  27  28
BRANCH  27  31
HETATM   31  C   UNL     1      -8.417   3.830  72.896  1.00  0.00    -0.094 C  
HETATM   32 CL   UNL     1      -8.453   3.069  70.248  1.00  0.00    -0.088 Cl 
HETATM   33  C   UNL     1      -8.882   2.712  71.947  1.00  0.00    -0.074 C  
ENDBRANCH  27  31
ENDBRANCH  24  25
ENDBRANCH  12  24
TORSDOF 5
ENDMDL
MODEL       76
REMARK 921   NORMALIZED FREE ENERGY PREDICTED BY IDOCK:   -4.86 KCAL/MOL
REMARK 922        TOTAL FREE ENERGY PREDICTED BY IDOCK:   -7.07 KCAL/MOL
REMARK 923 INTER-LIGAND FREE ENERGY PREDICTED BY IDOCK:   -6.33 KCAL/MOL
REMARK 924 INTRA-LIGAND FREE ENERGY PREDICTED BY IDOCK:   -0.74 KCAL/MOL
REMARK 927      BINDING AFFINITY PREDICTED BY RF-SCORE:    0.00 PKD
ROOT
HETATM    1  C   UNL     1     -11.395  16.248  69.357  1.00  0.00    -0.284 C  
HETATM    2  C   UNL     1     -11.032  15.937  70.696  1.00  0.00    -0.312 C  
HETATM    3  C   UNL     1      -9.810  16.056  69.829  1.00  0.00    -0.126 C  
HETATM    4  C   UNL     1     -10.118  16.818  67.943  1.00  0.00    -0.284 C  
HETATM    5  C   UNL     1      -9.981  17.474  69.130  1.00  0.00    -0.197 C  
HETATM    6  C   UNL     1      -8.551  12.262  66.742  1.00  0.00    -0.149 A  
HETATM    7  C   UNL     1      -8.238  16.815  68.671  1.00  0.00    -0.252 C  
HETATM    8  C   UNL     1     -11.188  14.692  68.433  1.00  0.00    -0.290 C  
HETATM    9  C   UNL     1     -10.141  18.863  69.658  1.00  0.00     0.352 C  
HETATM   10  C   UNL     1      -8.366  15.206  67.866  1.00  0.00    -0.153 C  
HETATM   11  C   UNL     1      -8.569  10.992  66.140  1.00  0.00    -0.175 A  
HETATM   12  C   UNL     1      -9.732  10.226  66.168  1.00  0.00    -0.211 A  
HETATM   13  C   UNL     1     -11.979  13.547  69.098  1.00  0.00    -0.378 C  
HETATM   14  C   UNL     1      -9.635  14.103  68.180  1.00  0.00    -0.218 C  
HETATM   15  C   UNL     1      -9.693  12.792  67.370  1.00  0.00    -0.197 A  
HETATM   16  C   UNL     1     -10.849  11.969  67.437  1.00  0.00    -0.285 A  
HETATM   17  C   UNL     1     -10.859  10.701  66.822  1.00  0.00    -0.233 A  
HETATM   18  C   UNL     1     -12.120  12.361  68.151  1.00  0.00    -0.100 C  
ENDROOT
BRANCH   4  19
HETATM   19  O   UNL     1      -9.579  18.076  67.196  1.00  0.00    -0.268 OA 
HETATM   20  O   UNL     1     -11.031  19.839  66.928  1.00  0.00    -0.433 OA 
HETATM   21  O   UNL     1     -10.976  19.543  64.618  1.00  0.00     0.098 OA 
HETATM   22  O   UNL     1      -8.909  19.677  65.760  1.00  0.00    -0.393 OA 
HETATM   23  P   UNL     1     -10.316  18.850  65.835  1.00  0.00    -0.067 P  
ENDBRANCH   4  19
BRANCH  12  24
HETATM   24  O   UNL     1      -9.701   8.938  65.600  1.00  0.00    -0.210 OA 
BRANCH  24  25
HETATM   25  C   UNL     1      -8.779   8.047  66.156  1.00  0.00    -0.154 C  
HETATM   26  O   UNL     1      -7.851   7.522  65.555  1.00  0.00    -0.099 OA 
HETATM   27  N   UNL     1      -8.933   7.948  67.534  1.00  0.00    -0.127 N  
BRANCH  27  28
HETATM   28  C   UNL     1     -10.240   7.584  68.095  1.00  0.00    -0.189 C  
HETATM   29 CL   UNL     1     -11.781   6.591  70.104  1.00  0.00    -0.473 Cl 
HETATM   30  C   UNL     1     -10.155   6.993  69.498  1.00  0.00    -0.173 C  
ENDBRANCH  27  28
BRANCH  27  31
HETATM   31  C   UNL     1      -7.731   7.674  68.328  1.00  0.00    -0.120 C  
HETATM   32 CL   UNL     1      -8.089  10.051  69.675  1.00  0.00    -0.163 Cl 
HETATM   33  C   UNL     1      -6.992   8.936  68.807  1.00  0.00    -0.063 C  
ENDBRANCH  27  31
ENDBRANCH  24  25
ENDBRANCH  12  24
TORSDOF 5
ENDMDL
MODEL       77
REMARK 921   NORMALIZED FREE ENERGY PREDICTED BY IDOCK:   -4.85 KCAL/MOL
REMARK 922        TOTAL FREE ENERGY PREDICTED BY IDOCK:   -7.05 KCAL/MOL
REMARK 923 INTER-LIGAND FREE ENERGY PREDICTED BY IDOCK:   -6.77 KCAL/MOL
REMARK 924 INTRA-LIGAND FREE ENERGY PREDICTED BY IDOCK:   -0.28 KCAL/MOL
REMARK 927      BINDING AFFINITY PREDICTED BY RF-SCORE:    0.00 PKD
ROOT
HETATM    1  C   UNL     1      -7.978   5.189  69.184  1.00  0.00    -0.081 C  
HETATM    2  C   UNL     1      -6.661   5.531  68.771  1.00  0.00    -0.048 C  
HETATM    3  C   UNL     1      -7.036   6.278  70.021  1.00  0.00    -0.072 C  
HETATM    4  C   UNL     1      -8.771   5.670  70.944  1.00  0.00    -0.133 C  
HETATM    5  C   UNL     1      -7.521   5.133  71.012  1.00  0.00    -0.078 C  
HETATM    6  C   UNL     1     -10.072  10.302  69.718  1.00  0.00    -0.244 A  
HETATM    7  C   UNL     1      -7.463   6.770  72.012  1.00  0.00    -0.093 C  
HETATM    8  C   UNL     1      -9.010   6.616  68.718  1.00  0.00    -0.125 C  
HETATM    9  C   UNL     1      -6.866   3.902  71.553  1.00  0.00    -0.027 C  
HETATM   10  C   UNL     1      -8.505   8.019  71.233  1.00  0.00    -0.138 C  
HETATM   11  C   UNL     1     -10.836  11.337  69.150  1.00  0.00    -0.269 A  
HETATM   12  C   UNL     1     -11.322  11.210  67.851  1.00  0.00    -0.309 A  
HETATM   13  C   UNL     1      -8.838   6.955  67.223  1.00  0.00    -0.118 C  
HETATM   14  C   UNL     1      -8.814   8.061  69.551  1.00  0.00    -0.144 C  
HETATM   15  C   UNL     1      -9.791   9.122  69.005  1.00  0.00    -0.176 A  
HETATM   16  C   UNL     1     -10.248   9.040  67.662  1.00  0.00    -0.300 A  
HETATM   17  C   UNL     1     -11.020  10.079  67.106  1.00  0.00    -0.177 A  
HETATM   18  C   UNL     1      -9.950   7.880  66.743  1.00  0.00    -0.333 C  
ENDROOT
BRANCH   4  19
HETATM   19  O   UNL     1      -9.086   5.095  72.358  1.00  0.00    -0.133 OA 
HETATM   20  O   UNL     1     -10.297   3.142  72.450  1.00  0.00    -0.151 OA 
HETATM   21  O   UNL     1     -12.048   4.267  73.496  1.00  0.00     0.010 OA 
HETATM   22  O   UNL     1      -9.875   4.535  74.392  1.00  0.00    -0.140 OA 
HETATM   23  P   UNL     1     -10.649   4.658  72.959  1.00  0.00    -0.240 P  
ENDBRANCH   4  19
BRANCH  12  24
HETATM   24  O   UNL     1     -12.040  12.285  67.294  1.00  0.00    -0.548 OA 
BRANCH  24  25
HETATM   25  C   UNL     1     -11.838  12.514  65.931  1.00  0.00    -0.430 C  
HETATM   26  O   UNL     1     -12.611  12.196  65.036  1.00  0.00    -0.514 OA 
HETATM   27  N   UNL     1     -10.718  13.307  65.708  1.00  0.00    -0.274 N  
BRANCH  27  28
HETATM   28  C   UNL     1      -9.417  12.895  66.250  1.00  0.00    -0.200 C  
HETATM   29 CL   UNL     1      -7.261  13.314  67.855  1.00  0.00    -0.119 Cl 
HETATM   30  C   UNL     1      -8.829  13.894  67.241  1.00  0.00    -0.221 C  
ENDBRANCH  27  28
BRANCH  27  31
HETATM   31  C   UNL     1     -10.739  14.191  64.538  1.00  0.00    -0.303 C  
HETATM   32 CL   UNL     1     -10.652  16.384  66.204  1.00  0.00    -0.292 Cl 
HETATM   33  C   UNL     1     -11.389  15.561  64.797  1.00  0.00    -0.357 C  
ENDBRANCH  27  31
ENDBRANCH  24  25
ENDBRANCH  12  24
TORSDOF 5
ENDMDL
MODEL       78
REMARK 921   NORMALIZED FREE ENERGY PREDICTED BY IDOCK:   -4.80 KCAL/MOL
REMARK 922        TOTAL FREE ENERGY PREDICTED BY IDOCK:   -6.99 KCAL/MOL
REMARK 923 INTER-LIGAND FREE ENERGY PREDICTED BY IDOCK:   -6.01 KCAL/MOL
REMARK 924 INTRA-LIGAND FREE ENERGY PREDICTED BY IDOCK:   -0.98 KCAL/MOL
REMARK 927      BINDING AFFINITY PREDICTED BY RF-SCORE:    0.00 PKD
ROOT
HETATM    1  C   UNL     1      -8.169   6.361  68.018  1.00  0.00    -0.116 C  
HETATM    2  C   UNL     1      -6.985   6.153  67.259  1.00  0.00    -0.069 C  
HETATM    3  C   UNL     1      -6.734   7.123  68.380  1.00  0.00    -0.057 C  
HETATM    4  C   UNL     1      -8.237   7.295  69.774  1.00  0.00    -0.130 C  
HETATM    5  C   UNL     1      -7.258   6.353  69.668  1.00  0.00    -0.078 C  
HETATM    6  C   UNL     1      -8.282  11.910  67.945  1.00  0.00    -0.150 A  
HETATM    7  C   UNL     1      -6.401   7.961  70.271  1.00  0.00    -0.037 C  
HETATM    8  C   UNL     1      -8.779   8.002  67.513  1.00  0.00    -0.125 C  
HETATM    9  C   UNL     1      -6.905   5.040  70.290  1.00  0.00    -0.044 C  
HETATM   10  C   UNL     1      -7.165   9.405  69.506  1.00  0.00    -0.067 C  
HETATM   11  C   UNL     1      -8.803  13.079  67.362  1.00  0.00    -0.203 A  
HETATM   12  C   UNL     1      -9.650  12.988  66.260  1.00  0.00    -0.238 A  
HETATM   13  C   UNL     1      -8.937   8.081  65.980  1.00  0.00    -0.205 C  
HETATM   14  C   UNL     1      -7.905   9.363  67.965  1.00  0.00    -0.091 C  
HETATM   15  C   UNL     1      -8.605  10.636  67.445  1.00  0.00    -0.122 A  
HETATM   16  C   UNL     1      -9.423  10.571  66.285  1.00  0.00    -0.217 A  
HETATM   17  C   UNL     1      -9.948  11.747  65.715  1.00  0.00    -0.269 A  
HETATM   18  C   UNL     1      -9.784   9.284  65.582  1.00  0.00    -0.302 C  
ENDROOT
BRANCH   4  19
HETATM   19  O   UNL     1      -8.307   7.038  71.310  1.00  0.00    -0.113 OA 
HETATM   20  O   UNL     1      -9.845   5.497  72.047  1.00  0.00    -0.161 OA 
HETATM   21  O   UNL     1     -10.999   7.177  73.176  1.00  0.00    -0.310 OA 
HETATM   22  O   UNL     1      -8.667   7.012  73.534  1.00  0.00    -0.127 OA 
HETATM   23  P   UNL     1      -9.728   7.111  72.295  1.00  0.00    -0.155 P  
ENDBRANCH   4  19
BRANCH  12  24
HETATM   24  O   UNL     1     -10.114  14.179  65.670  1.00  0.00    -0.312 OA 
BRANCH  24  25
HETATM   25  C   UNL     1     -11.229  14.766  66.274  1.00  0.00    -0.343 C  
HETATM   26  O   UNL     1     -12.375  14.339  66.211  1.00  0.00    -0.443 OA 
HETATM   27  N   UNL     1     -10.864  15.815  67.109  1.00  0.00    -0.315 N  
BRANCH  27  28
HETATM   28  C   UNL     1     -10.060  16.921  66.576  1.00  0.00    -0.315 C  
HETATM   29 CL   UNL     1      -7.994  18.680  66.772  1.00  0.00    -0.254 Cl 
HETATM   30  C   UNL     1      -8.921  17.344  67.498  1.00  0.00    -0.231 C  
ENDBRANCH  27  28
BRANCH  27  31
HETATM   31  C   UNL     1     -11.704  16.065  68.285  1.00  0.00    -0.135 C  
HETATM   32 CL   UNL     1      -9.790  14.901  69.889  1.00  0.00     0.029 Cl 
HETATM   33  C   UNL     1     -11.510  15.048  69.424  1.00  0.00    -0.300 C  
ENDBRANCH  27  31
ENDBRANCH  24  25
ENDBRANCH  12  24
TORSDOF 5
ENDMDL
MODEL       79
REMARK 921   NORMALIZED FREE ENERGY PREDICTED BY IDOCK:   -4.77 KCAL/MOL
REMARK 922        TOTAL FREE ENERGY PREDICTED BY IDOCK:   -6.95 KCAL/MOL
REMARK 923 INTER-LIGAND FREE ENERGY PREDICTED BY IDOCK:   -6.14 KCAL/MOL
REMARK 924 INTRA-LIGAND FREE ENERGY PREDICTED BY IDOCK:   -0.81 KCAL/MOL
REMARK 927      BINDING AFFINITY PREDICTED BY RF-SCORE:    0.00 PKD
ROOT
HETATM    1  C   UNL     1      -8.791   5.597  69.498  1.00  0.00    -0.116 C  
HETATM    2  C   UNL     1      -9.820   5.272  70.423  1.00  0.00    -0.281 C  
HETATM    3  C   UNL     1     -10.383   5.434  69.039  1.00  0.00    -0.282 C  
HETATM    4  C   UNL     1      -9.003   5.582  67.520  1.00  0.00    -0.107 C  
HETATM    5  C   UNL     1      -9.480   4.473  68.151  1.00  0.00    -0.201 C  
HETATM    6  C   UNL     1     -11.109  10.064  67.155  1.00  0.00    -0.065 A  
HETATM    7  C   UNL     1     -10.903   5.115  67.035  1.00  0.00     0.053 C  
HETATM    8  C   UNL     1      -8.995   7.375  69.160  1.00  0.00    -0.135 C  
HETATM    9  C   UNL     1      -9.178   3.009  68.210  1.00  0.00    -0.244 C  
HETATM   10  C   UNL     1     -10.903   6.918  66.992  1.00  0.00    -0.436 C  
HETATM   11  C   UNL     1     -11.194  11.466  67.101  1.00  0.00    -0.363 A  
HETATM   12  C   UNL     1     -10.477  12.241  68.010  1.00  0.00    -0.218 A  
HETATM   13  C   UNL     1      -9.003   8.187  70.471  1.00  0.00    -0.145 C  
HETATM   14  C   UNL     1     -10.337   7.883  68.286  1.00  0.00    -0.239 C  
HETATM   15  C   UNL     1     -10.302   9.414  68.107  1.00  0.00    -0.255 A  
HETATM   16  C   UNL     1      -9.627  10.223  69.060  1.00  0.00    -0.210 A  
HETATM   17  C   UNL     1      -9.712  11.628  68.991  1.00  0.00     0.067 A  
HETATM   18  C   UNL     1      -8.797   9.672  70.194  1.00  0.00    -0.266 C  
ENDROOT
BRANCH   4  19
HETATM   19  O   UNL     1      -8.713   4.725  66.250  1.00  0.00    -0.113 OA 
HETATM   20  O   UNL     1      -6.670   5.012  65.235  1.00  0.00    -0.046 OA 
HETATM   21  O   UNL     1      -7.724   5.854  63.336  1.00  0.00    -0.078 OA 
HETATM   22  O   UNL     1      -8.504   3.799  64.207  1.00  0.00    -0.090 OA 
HETATM   23  P   UNL     1      -8.191   5.321  64.712  1.00  0.00    -0.134 P  
ENDBRANCH   4  19
BRANCH  12  24
HETATM   24  O   UNL     1     -10.623  13.641  67.961  1.00  0.00    -0.239 OA 
BRANCH  24  25
HETATM   25  C   UNL     1      -9.744  14.317  67.111  1.00  0.00    -0.254 C  
HETATM   26  O   UNL     1      -9.632  14.123  65.908  1.00  0.00    -0.264 OA 
HETATM   27  N   UNL     1      -9.115  15.372  67.763  1.00  0.00    -0.177 N  
BRANCH  27  28
HETATM   28  C   UNL     1      -8.371  15.120  69.002  1.00  0.00    -0.209 C  
HETATM   29 CL   UNL     1      -6.249  14.067  70.339  1.00  0.00    -0.156 Cl 
HETATM   30  C   UNL     1      -7.092  14.318  68.790  1.00  0.00    -0.105 C  
ENDBRANCH  27  28
BRANCH  27  31
HETATM   31  C   UNL     1      -8.755  16.543  66.957  1.00  0.00    -0.197 C  
HETATM   32 CL   UNL     1     -10.454  18.097  68.471  1.00  0.00    -0.327 Cl 
HETATM   33  C   UNL     1      -9.866  17.603  66.856  1.00  0.00    -0.306 C  
ENDBRANCH  27  31
ENDBRANCH  24  25
ENDBRANCH  12  24
TORSDOF 5
ENDMDL
MODEL       80
REMARK 921   NORMALIZED FREE ENERGY PREDICTED BY IDOCK:   -4.76 KCAL/MOL
REMARK 922        TOTAL FREE ENERGY PREDICTED BY IDOCK:   -6.93 KCAL/MOL
REMARK 923 INTER-LIGAND FREE ENERGY PREDICTED BY IDOCK:   -6.94 KCAL/MOL
REMARK 924 INTRA-LIGAND FREE ENERGY PREDICTED BY IDOCK:    0.01 KCAL/MOL
REMARK 927      BINDING AFFINITY PREDICTED BY RF-SCORE:    0.00 PKD
ROOT
HETATM    1  C   UNL     1     -10.605   6.940  67.622  1.00  0.00    -0.328 C  
HETATM    2  C   UNL     1      -9.952   6.390  66.486  1.00  0.00    -0.162 C  
HETATM    3  C   UNL     1      -8.959   6.696  67.572  1.00  0.00    -0.114 C  
HETATM    4  C   UNL     1      -9.755   7.190  69.403  1.00  0.00    -0.160 C  
HETATM    5  C   UNL     1      -9.560   5.962  68.848  1.00  0.00    -0.158 C  
HETATM    6  C   UNL     1      -7.459  11.459  68.327  1.00  0.00    -0.101 A  
HETATM    7  C   UNL     1      -7.823   6.621  69.331  1.00  0.00    -0.113 C  
HETATM    8  C   UNL     1     -10.226   8.721  67.576  1.00  0.00    -0.309 C  
HETATM    9  C   UNL     1      -9.926   4.540  69.133  1.00  0.00    -0.169 C  
HETATM   10  C   UNL     1      -7.733   8.403  69.069  1.00  0.00    -0.097 C  
HETATM   11  C   UNL     1      -7.302  12.840  68.116  1.00  0.00    -0.118 A  
HETATM   12  C   UNL     1      -8.244  13.540  67.366  1.00  0.00    -0.181 A  
HETATM   13  C   UNL     1     -10.615   9.331  66.213  1.00  0.00     0.078 C  
HETATM   14  C   UNL     1      -8.651   9.220  67.880  1.00  0.00    -0.120 C  
HETATM   15  C   UNL     1      -8.561  10.758  67.803  1.00  0.00    -0.127 A  
HETATM   16  C   UNL     1      -9.477  11.482  66.992  1.00  0.00    -0.193 A  
HETATM   17  C   UNL     1      -9.315  12.867  66.796  1.00  0.00    -0.243 A  
HETATM   18  C   UNL     1     -10.655  10.853  66.290  1.00  0.00    -0.276 C  
ENDROOT
BRANCH   4  19
HETATM   19  O   UNL     1      -9.648   6.556  70.824  1.00  0.00    -0.177 OA 
HETATM   20  O   UNL     1     -11.617   6.054  71.900  1.00  0.00    -0.295 OA 
HETATM   21  O   UNL     1     -11.131   7.633  73.542  1.00  0.00    -0.315 OA 
HETATM   22  O   UNL     1      -9.459   6.047  73.010  1.00  0.00    -0.144 OA 
HETATM   23  P   UNL     1     -10.431   7.124  72.259  1.00  0.00    -0.229 P  
ENDBRANCH   4  19
BRANCH  12  24
HETATM   24  O   UNL     1      -8.031  14.912  67.132  1.00  0.00    -0.200 OA 
BRANCH  24  25
HETATM   25  C   UNL     1      -9.175  15.675  66.886  1.00  0.00    -0.236 C  
HETATM   26  O   UNL     1     -10.136  15.314  66.218  1.00  0.00    -0.254 OA 
HETATM   27  N   UNL     1      -9.178  16.846  67.634  1.00  0.00    -0.227 N  
BRANCH  27  28
HETATM   28  C   UNL     1      -8.043  17.772  67.538  1.00  0.00    -0.223 C  
HETATM   29 CL   UNL     1      -5.813  18.929  68.580  1.00  0.00    -0.211 Cl 
HETATM   30  C   UNL     1      -7.167  17.790  68.786  1.00  0.00    -0.271 C  
ENDBRANCH  27  28
BRANCH  27  31
HETATM   31  C   UNL     1     -10.480  17.378  68.049  1.00  0.00    -0.383 C  
HETATM   32 CL   UNL     1     -10.577  18.908  65.760  1.00  0.00    -0.473 Cl 
HETATM   33  C   UNL     1     -10.774  18.798  67.534  1.00  0.00    -0.411 C  
ENDBRANCH  27  31
ENDBRANCH  24  25
ENDBRANCH  12  24
TORSDOF 5
ENDMDL
MODEL       81
REMARK 921   NORMALIZED FREE ENERGY PREDICTED BY IDOCK:   -4.76 KCAL/MOL
REMARK 922        TOTAL FREE ENERGY PREDICTED BY IDOCK:   -6.93 KCAL/MOL
REMARK 923 INTER-LIGAND FREE ENERGY PREDICTED BY IDOCK:   -6.86 KCAL/MOL
REMARK 924 INTRA-LIGAND FREE ENERGY PREDICTED BY IDOCK:   -0.07 KCAL/MOL
REMARK 927      BINDING AFFINITY PREDICTED BY RF-SCORE:    0.00 PKD
ROOT
HETATM    1  C   UNL     1     -11.080   7.111  72.634  1.00  0.00    -0.330 C  
HETATM    2  C   UNL     1     -12.414   6.646  72.469  1.00  0.00     0.175 C  
HETATM    3  C   UNL     1     -11.520   6.087  71.397  1.00  0.00    -0.265 C  
HETATM    4  C   UNL     1      -9.502   6.386  71.664  1.00  0.00    -0.153 C  
HETATM    5  C   UNL     1     -10.316   5.440  72.211  1.00  0.00    -0.260 C  
HETATM    6  C   UNL     1     -10.174   8.989  67.490  1.00  0.00    -0.302 A  
HETATM    7  C   UNL     1     -10.087   4.957  70.368  1.00  0.00    -0.316 C  
HETATM    8  C   UNL     1     -10.854   8.380  71.347  1.00  0.00    -0.304 C  
HETATM    9  C   UNL     1     -10.246   4.391  73.274  1.00  0.00    -0.219 C  
HETATM   10  C   UNL     1     -10.006   6.435  69.337  1.00  0.00    -0.184 C  
HETATM   11  C   UNL     1     -10.138  10.092  66.619  1.00  0.00    -0.283 A  
HETATM   12  C   UNL     1     -10.523  11.351  67.074  1.00  0.00    -0.236 A  
HETATM   13  C   UNL     1     -11.958   9.454  71.434  1.00  0.00    -0.446 C  
HETATM   14  C   UNL     1     -10.793   7.899  69.739  1.00  0.00    -0.202 C  
HETATM   15  C   UNL     1     -10.584   9.127  68.829  1.00  0.00    -0.208 A  
HETATM   16  C   UNL     1     -11.027  10.408  69.254  1.00  0.00    -0.287 A  
HETATM   17  C   UNL     1     -10.978  11.508  68.376  1.00  0.00    -0.267 A  
HETATM   18  C   UNL     1     -11.578  10.692  70.631  1.00  0.00    -0.432 C  
ENDROOT
BRANCH   4  19
HETATM   19  O   UNL     1      -8.288   5.420  71.822  1.00  0.00    -0.116 OA 
HETATM   20  O   UNL     1      -6.919   5.745  73.641  1.00  0.00    -0.079 OA 
HETATM   21  O   UNL     1      -5.155   6.298  72.223  1.00  0.00    -0.024 OA 
HETATM   22  O   UNL     1      -6.336   4.297  71.782  1.00  0.00    -0.017 OA 
HETATM   23  P   UNL     1      -6.635   5.883  72.034  1.00  0.00    -0.065 P  
ENDBRANCH   4  19
BRANCH  12  24
HETATM   24  O   UNL     1     -10.522  12.424  66.163  1.00  0.00    -0.240 OA 
BRANCH  24  25
HETATM   25  C   UNL     1     -11.768  12.784  65.643  1.00  0.00    -0.399 C  
HETATM   26  O   UNL     1     -12.784  12.969  66.301  1.00  0.00    -0.281 OA 
HETATM   27  N   UNL     1     -11.688  13.079  64.287  1.00  0.00    -0.365 N  
BRANCH  27  28
HETATM   28  C   UNL     1     -11.130  12.088  63.359  1.00  0.00    -0.398 C  
HETATM   29 CL   UNL     1      -9.044  10.636  62.391  1.00  0.00    -0.303 Cl 
HETATM   30  C   UNL     1      -9.634  11.856  63.546  1.00  0.00    -0.173 C  
ENDBRANCH  27  28
BRANCH  27  31
HETATM   31  C   UNL     1     -12.617  14.084  63.760  1.00  0.00     0.144 C  
HETATM   32 CL   UNL     1     -10.814  16.070  64.390  1.00  0.00    -0.067 Cl 
HETATM   33  C   UNL     1     -12.496  15.465  64.429  1.00  0.00     0.044 C  
ENDBRANCH  27  31
ENDBRANCH  24  25
ENDBRANCH  12  24
TORSDOF 5
ENDMDL
MODEL       82
REMARK 921   NORMALIZED FREE ENERGY PREDICTED BY IDOCK:   -4.72 KCAL/MOL
REMARK 922        TOTAL FREE ENERGY PREDICTED BY IDOCK:   -6.88 KCAL/MOL
REMARK 923 INTER-LIGAND FREE ENERGY PREDICTED BY IDOCK:   -5.78 KCAL/MOL
REMARK 924 INTRA-LIGAND FREE ENERGY PREDICTED BY IDOCK:   -1.10 KCAL/MOL
REMARK 927      BINDING AFFINITY PREDICTED BY RF-SCORE:    0.00 PKD
ROOT
HETATM    1  C   UNL     1      -5.606   6.469  67.081  1.00  0.00    -0.013 C  
HETATM    2  C   UNL     1      -5.196   7.024  68.324  1.00  0.00    -0.019 C  
HETATM    3  C   UNL     1      -6.628   6.574  68.392  1.00  0.00    -0.059 C  
HETATM    4  C   UNL     1      -7.293   5.453  66.800  1.00  0.00    -0.086 C  
HETATM    5  C   UNL     1      -6.572   5.066  67.889  1.00  0.00    -0.050 C  
HETATM    6  C   UNL     1     -10.249   9.413  66.309  1.00  0.00    -0.284 A  
HETATM    7  C   UNL     1      -8.358   5.397  68.510  1.00  0.00    -0.097 C  
HETATM    8  C   UNL     1      -6.652   7.746  66.310  1.00  0.00    -0.050 C  
HETATM    9  C   UNL     1      -5.829   3.857  68.359  1.00  0.00    -0.026 C  
HETATM   10  C   UNL     1      -9.083   6.791  67.625  1.00  0.00    -0.117 C  
HETATM   11  C   UNL     1     -10.868  10.511  65.687  1.00  0.00     0.054 A  
HETATM   12  C   UNL     1     -10.110  11.395  64.922  1.00  0.00    -0.274 A  
HETATM   13  C   UNL     1      -5.908   9.094  66.233  1.00  0.00    -0.058 C  
HETATM   14  C   UNL     1      -8.154   8.077  66.986  1.00  0.00    -0.116 C  
HETATM   15  C   UNL     1      -8.869   9.173  66.170  1.00  0.00    -0.187 A  
HETATM   16  C   UNL     1      -8.107  10.121  65.435  1.00  0.00    -0.149 A  
HETATM   17  C   UNL     1      -8.739  11.212  64.808  1.00  0.00     0.114 A  
HETATM   18  C   UNL     1      -6.608  10.049  65.273  1.00  0.00    -0.116 C  
ENDROOT
BRANCH   4  19
HETATM   19  O   UNL     1      -7.860   4.006  66.671  1.00  0.00    -0.091 OA 
HETATM   20  O   UNL     1      -7.651   2.976  64.627  1.00  0.00    -0.074 OA 
HETATM   21  O   UNL     1      -9.969   2.948  64.395  1.00  0.00    -0.142 OA 
HETATM   22  O   UNL     1      -9.054   2.114  66.410  1.00  0.00    -0.122 OA 
HETATM   23  P   UNL     1      -8.973   3.448  65.469  1.00  0.00    -0.149 P  
ENDBRANCH   4  19
BRANCH  12  24
HETATM   24  O   UNL     1     -10.751  12.512  64.354  1.00  0.00    -0.306 OA 
BRANCH  24  25
HETATM   25  C   UNL     1     -11.736  13.116  65.140  1.00  0.00    -0.336 C  
HETATM   26  O   UNL     1     -12.929  12.842  65.114  1.00  0.00    -0.768 OA 
HETATM   27  N   UNL     1     -11.181  13.962  66.093  1.00  0.00    -0.299 N  
BRANCH  27  28
HETATM   28  C   UNL     1     -10.279  15.040  65.670  1.00  0.00    -0.360 C  
HETATM   29 CL   UNL     1      -8.143  16.668  66.095  1.00  0.00    -0.349 Cl 
HETATM   30  C   UNL     1      -9.194  15.360  66.692  1.00  0.00    -0.275 C  
ENDBRANCH  27  28
BRANCH  27  31
HETATM   31  C   UNL     1     -11.898  14.109  67.363  1.00  0.00    -0.413 C  
HETATM   32 CL   UNL     1     -10.072  12.441  68.578  1.00  0.00    -0.214 Cl 
HETATM   33  C   UNL     1     -11.779  12.891  68.297  1.00  0.00    -0.350 C  
ENDBRANCH  27  31
ENDBRANCH  24  25
ENDBRANCH  12  24
TORSDOF 5
ENDMDL
MODEL       83
REMARK 921   NORMALIZED FREE ENERGY PREDICTED BY IDOCK:   -4.71 KCAL/MOL
REMARK 922        TOTAL FREE ENERGY PREDICTED BY IDOCK:   -6.88 KCAL/MOL
REMARK 923 INTER-LIGAND FREE ENERGY PREDICTED BY IDOCK:   -6.30 KCAL/MOL
REMARK 924 INTRA-LIGAND FREE ENERGY PREDICTED BY IDOCK:   -0.58 KCAL/MOL
REMARK 927      BINDING AFFINITY PREDICTED BY RF-SCORE:    0.00 PKD
ROOT
HETATM    1  C   UNL     1      -7.672   9.579  68.227  1.00  0.00    -0.086 C  
HETATM    2  C   UNL     1      -8.535   9.487  69.354  1.00  0.00    -0.146 C  
HETATM    3  C   UNL     1      -9.330   9.538  68.079  1.00  0.00    -0.143 C  
HETATM    4  C   UNL     1      -8.251   9.343  66.338  1.00  0.00    -0.111 C  
HETATM    5  C   UNL     1      -8.695   8.380  67.194  1.00  0.00    -0.131 C  
HETATM    6  C   UNL     1      -9.994  13.949  65.712  1.00  0.00    -0.304 A  
HETATM    7  C   UNL     1     -10.241   9.032  66.262  1.00  0.00    -0.237 C  
HETATM    8  C   UNL     1      -7.782  11.314  67.680  1.00  0.00    -0.115 C  
HETATM    9  C   UNL     1      -8.514   6.911  67.407  1.00  0.00    -0.121 C  
HETATM   10  C   UNL     1     -10.094  10.804  65.964  1.00  0.00    -0.305 C  
HETATM   11  C   UNL     1      -9.967  15.335  65.475  1.00  0.00    -0.383 A  
HETATM   12  C   UNL     1      -9.029  16.133  66.127  1.00  0.00    -0.337 A  
HETATM   13  C   UNL     1      -7.476  12.277  68.845  1.00  0.00    -0.012 C  
HETATM   14  C   UNL     1      -9.215  11.853  66.990  1.00  0.00    -0.191 C  
HETATM   15  C   UNL     1      -9.083  13.338  66.592  1.00  0.00    -0.181 A  
HETATM   16  C   UNL     1      -8.175  14.180  67.289  1.00  0.00    -0.200 A  
HETATM   17  C   UNL     1      -8.150  15.565  67.037  1.00  0.00    -0.272 A  
HETATM   18  C   UNL     1      -7.198  13.684  68.328  1.00  0.00    -0.111 C  
ENDROOT
BRANCH   4  19
HETATM   19  O   UNL     1      -8.278   8.308  65.172  1.00  0.00    -0.139 OA 
HETATM   20  O   UNL     1      -6.252   7.536  64.408  1.00  0.00    -0.043 OA 
HETATM   21  O   UNL     1      -6.641   8.537  62.341  1.00  0.00    -0.095 OA 
HETATM   22  O   UNL     1      -8.343   7.160  63.235  1.00  0.00     0.022 OA 
HETATM   23  P   UNL     1      -7.414   8.429  63.678  1.00  0.00    -0.131 P  
ENDBRANCH   4  19
BRANCH  12  24
HETATM   24  O   UNL     1      -9.061  17.523  65.905  1.00  0.00    -0.512 OA 
BRANCH  24  25
HETATM   25  C   UNL     1      -7.832  18.182  65.982  1.00  0.00    -0.139 C  
HETATM   26  O   UNL     1      -6.779  17.776  65.505  1.00  0.00    -0.313 OA 
HETATM   27  N   UNL     1      -7.967  19.454  66.525  1.00  0.00    -0.282 N  
BRANCH  27  28
HETATM   28  C   UNL     1      -8.600  19.619  67.839  1.00  0.00    -0.317 C  
HETATM   29 CL   UNL     1     -10.661  20.453  69.406  1.00  0.00     0.117 Cl 
HETATM   30  C   UNL     1      -9.962  20.302  67.775  1.00  0.00    -0.388 C  
ENDBRANCH  27  28
BRANCH  27  31
HETATM   31  C   UNL     1      -7.034  20.487  66.064  1.00  0.00    -0.189 C  
HETATM   32 CL   UNL     1      -5.295  19.809  68.092  1.00  0.00    -0.201 Cl 
HETATM   33  C   UNL     1      -6.155  21.083  67.178  1.00  0.00    -0.303 C  
ENDBRANCH  27  31
ENDBRANCH  24  25
ENDBRANCH  12  24
TORSDOF 5
ENDMDL
MODEL       84
REMARK 921   NORMALIZED FREE ENERGY PREDICTED BY IDOCK:   -4.70 KCAL/MOL
REMARK 922        TOTAL FREE ENERGY PREDICTED BY IDOCK:   -6.86 KCAL/MOL
REMARK 923 INTER-LIGAND FREE ENERGY PREDICTED BY IDOCK:   -7.20 KCAL/MOL
REMARK 924 INTRA-LIGAND FREE ENERGY PREDICTED BY IDOCK:    0.34 KCAL/MOL
REMARK 927      BINDING AFFINITY PREDICTED BY RF-SCORE:    0.00 PKD
ROOT
HETATM    1  C   UNL     1      -6.415  16.985  69.080  1.00  0.00    -0.221 C  
HETATM    2  C   UNL     1      -5.141  16.741  68.499  1.00  0.00    -0.114 C  
HETATM    3  C   UNL     1      -6.144  17.109  67.442  1.00  0.00    -0.172 C  
HETATM    4  C   UNL     1      -7.952  17.813  68.126  1.00  0.00    -0.263 C  
HETATM    5  C   UNL     1      -6.768  18.471  67.975  1.00  0.00    -0.222 C  
HETATM    6  C   UNL     1      -9.488  13.674  65.855  1.00  0.00    -0.057 A  
HETATM    7  C   UNL     1      -7.455  18.178  66.207  1.00  0.00    -0.301 C  
HETATM    8  C   UNL     1      -7.411  15.511  68.687  1.00  0.00    -0.125 C  
HETATM    9  C   UNL     1      -6.177  19.795  68.338  1.00  0.00    -0.292 C  
HETATM   10  C   UNL     1      -8.294  16.584  66.114  1.00  0.00    -0.305 C  
HETATM   11  C   UNL     1     -10.127  12.431  65.697  1.00  0.00    -0.277 A  
HETATM   12  C   UNL     1      -9.986  11.448  66.674  1.00  0.00    -0.208 A  
HETATM   13  C   UNL     1      -6.695  14.225  69.148  1.00  0.00    -0.118 C  
HETATM   14  C   UNL     1      -7.868  15.247  67.092  1.00  0.00    -0.249 C  
HETATM   15  C   UNL     1      -8.710  13.958  66.992  1.00  0.00    -0.215 A  
HETATM   16  C   UNL     1      -8.533  12.921  67.946  1.00  0.00    -0.181 A  
HETATM   17  C   UNL     1      -9.185  11.683  67.782  1.00  0.00    -0.178 A  
HETATM   18  C   UNL     1      -7.658  13.044  69.169  1.00  0.00     0.254 C  
ENDROOT
BRANCH   4  19
HETATM   19  O   UNL     1      -8.715  19.161  67.942  1.00  0.00    -0.290 OA 
HETATM   20  O   UNL     1     -11.009  19.059  67.825  1.00  0.00    -0.355 OA 
HETATM   21  O   UNL     1     -10.938  19.827  65.627  1.00  0.00    -0.382 OA 
HETATM   22  O   UNL     1      -9.737  21.048  67.259  1.00  0.00    -0.412 OA 
HETATM   23  P   UNL     1      -9.888  19.512  66.720  1.00  0.00    -0.461 P  
ENDBRANCH   4  19
BRANCH  12  24
HETATM   24  O   UNL     1     -10.597  10.198  66.461  1.00  0.00    -0.189 OA 
BRANCH  24  25
HETATM   25  C   UNL     1      -9.803   9.226  65.848  1.00  0.00    -0.265 C  
HETATM   26  O   UNL     1      -9.333   9.304  64.720  1.00  0.00    -0.183 OA 
HETATM   27  N   UNL     1      -9.458   8.214  66.736  1.00  0.00    -0.183 N  
BRANCH  27  28
HETATM   28  C   UNL     1     -10.512   7.486  67.453  1.00  0.00    -0.297 C  
HETATM   29 CL   UNL     1     -11.469   6.253  69.680  1.00  0.00    -0.498 Cl 
HETATM   30  C   UNL     1     -10.134   7.122  68.884  1.00  0.00    -0.177 C  
ENDBRANCH  27  28
BRANCH  27  31
HETATM   31  C   UNL     1      -8.164   7.553  66.536  1.00  0.00    -0.123 C  
HETATM   32 CL   UNL     1      -7.133   8.938  68.684  1.00  0.00    -0.070 Cl 
HETATM   33  C   UNL     1      -6.954   8.387  66.992  1.00  0.00    -0.074 C  
ENDBRANCH  27  31
ENDBRANCH  24  25
ENDBRANCH  12  24
TORSDOF 5
ENDMDL
MODEL       85
REMARK 921   NORMALIZED FREE ENERGY PREDICTED BY IDOCK:   -4.69 KCAL/MOL
REMARK 922        TOTAL FREE ENERGY PREDICTED BY IDOCK:   -6.85 KCAL/MOL
REMARK 923 INTER-LIGAND FREE ENERGY PREDICTED BY IDOCK:   -6.55 KCAL/MOL
REMARK 924 INTRA-LIGAND FREE ENERGY PREDICTED BY IDOCK:   -0.30 KCAL/MOL
REMARK 927      BINDING AFFINITY PREDICTED BY RF-SCORE:    0.00 PKD
ROOT
HETATM    1  C   UNL     1      -9.874   8.406  66.581  1.00  0.00    -0.343 C  
HETATM    2  C   UNL     1      -8.788   8.602  65.684  1.00  0.00    -0.227 C  
HETATM    3  C   UNL     1      -8.368   8.892  67.099  1.00  0.00    -0.103 C  
HETATM    4  C   UNL     1      -9.708   8.350  68.562  1.00  0.00    -0.160 C  
HETATM    5  C   UNL     1      -8.799   7.585  67.894  1.00  0.00    -0.126 C  
HETATM    6  C   UNL     1      -9.681  13.266  69.255  1.00  0.00     0.630 A  
HETATM    7  C   UNL     1      -7.795   8.687  69.103  1.00  0.00    -0.099 C  
HETATM    8  C   UNL     1     -10.440  10.080  67.022  1.00  0.00    -0.302 C  
HETATM    9  C   UNL     1      -8.459   6.137  67.744  1.00  0.00    -0.115 C  
HETATM   10  C   UNL     1      -8.552  10.318  69.241  1.00  0.00    -0.175 C  
HETATM   11  C   UNL     1     -10.192  14.569  69.387  1.00  0.00    -0.051 A  
HETATM   12  C   UNL     1     -11.153  15.033  68.491  1.00  0.00    -0.272 A  
HETATM   13  C   UNL     1     -10.750  10.906  65.757  1.00  0.00    -0.179 C  
HETATM   14  C   UNL     1      -9.448  11.042  67.978  1.00  0.00    -0.169 C  
HETATM   15  C   UNL     1     -10.125  12.404  68.236  1.00  0.00    -0.227 A  
HETATM   16  C   UNL     1     -11.061  12.919  67.300  1.00  0.00    -0.309 A  
HETATM   17  C   UNL     1     -11.574  14.223  67.447  1.00  0.00    -0.394 A  
HETATM   18  C   UNL     1     -11.564  12.148  66.104  1.00  0.00    -0.418 C  
ENDROOT
BRANCH   4  19
HETATM   19  O   UNL     1      -9.633   7.367  69.771  1.00  0.00    -0.163 OA 
HETATM   20  O   UNL     1     -11.255   5.744  69.905  1.00  0.00    -0.346 OA 
HETATM   21  O   UNL     1     -12.057   6.697  71.874  1.00  0.00    -0.326 OA 
HETATM   22  O   UNL     1      -9.738   6.257  71.728  1.00  0.00    -0.155 OA 
HETATM   23  P   UNL     1     -10.912   7.013  70.881  1.00  0.00    -0.277 P  
ENDBRANCH   4  19
BRANCH  12  24
HETATM   24  O   UNL     1     -11.607  16.359  68.621  1.00  0.00    -0.311 OA 
BRANCH  24  25
HETATM   25  C   UNL     1     -10.635  17.353  68.493  1.00  0.00    -0.340 C  
HETATM   26  O   UNL     1     -10.272  18.109  69.386  1.00  0.00    -0.207 OA 
HETATM   27  N   UNL     1      -9.990  17.282  67.264  1.00  0.00    -0.274 N  
BRANCH  27  28
HETATM   28  C   UNL     1     -10.779  17.321  66.027  1.00  0.00    -0.110 C  
HETATM   29 CL   UNL     1     -11.655  16.181  63.718  1.00  0.00     0.459 Cl 
HETATM   30  C   UNL     1     -10.662  16.051  65.191  1.00  0.00    -0.409 C  
ENDBRANCH  27  28
BRANCH  27  31
HETATM   31  C   UNL     1      -8.587  17.706  67.212  1.00  0.00    -0.231 C  
HETATM   32 CL   UNL     1      -9.395  20.339  67.119  1.00  0.00    -0.515 Cl 
HETATM   33  C   UNL     1      -8.358  19.034  66.470  1.00  0.00    -0.305 C  
ENDBRANCH  27  31
ENDBRANCH  24  25
ENDBRANCH  12  24
TORSDOF 5
ENDMDL
MODEL       86
REMARK 921   NORMALIZED FREE ENERGY PREDICTED BY IDOCK:   -4.69 KCAL/MOL
REMARK 922        TOTAL FREE ENERGY PREDICTED BY IDOCK:   -6.84 KCAL/MOL
REMARK 923 INTER-LIGAND FREE ENERGY PREDICTED BY IDOCK:   -5.49 KCAL/MOL
REMARK 924 INTRA-LIGAND FREE ENERGY PREDICTED BY IDOCK:   -1.35 KCAL/MOL
REMARK 927      BINDING AFFINITY PREDICTED BY RF-SCORE:    0.00 PKD
ROOT
HETATM    1  C   UNL     1     -10.941   9.484  71.086  1.00  0.00    -0.438 C  
HETATM    2  C   UNL     1     -12.315   9.135  70.982  1.00  0.00    -0.273 C  
HETATM    3  C   UNL     1     -11.441   7.954  70.664  1.00  0.00    -0.247 C  
HETATM    4  C   UNL     1      -9.439   8.180  71.079  1.00  0.00    -0.156 C  
HETATM    5  C   UNL     1     -10.466   7.860  71.916  1.00  0.00    -0.284 C  
HETATM    6  C   UNL     1      -9.200   7.639  66.149  1.00  0.00    -0.168 A  
HETATM    7  C   UNL     1     -10.151   6.311  70.826  1.00  0.00    -0.229 C  
HETATM    8  C   UNL     1     -10.356   9.642  69.368  1.00  0.00    -0.226 C  
HETATM    9  C   UNL     1     -10.697   7.707  73.385  1.00  0.00    -0.330 C  
HETATM   10  C   UNL     1      -9.695   6.803  69.152  1.00  0.00    -0.147 C  
HETATM   11  C   UNL     1      -8.873   7.944  64.816  1.00  0.00     0.310 A  
HETATM   12  C   UNL     1      -9.058   9.238  64.334  1.00  0.00    -0.056 A  
HETATM   13  C   UNL     1     -11.243  10.622  68.573  1.00  0.00    -0.342 C  
HETATM   14  C   UNL     1     -10.230   8.257  68.428  1.00  0.00    -0.242 C  
HETATM   15  C   UNL     1      -9.706   8.619  67.022  1.00  0.00    -0.262 A  
HETATM   16  C   UNL     1      -9.941   9.916  66.492  1.00  0.00    -0.291 A  
HETATM   17  C   UNL     1      -9.601  10.213  65.158  1.00  0.00    -0.354 A  
HETATM   18  C   UNL     1     -10.561  11.046  67.278  1.00  0.00    -0.287 C  
ENDROOT
BRANCH   4  19
HETATM   19  O   UNL     1      -8.449   7.427  72.019  1.00  0.00    -0.105 OA 
HETATM   20  O   UNL     1      -7.474   8.645  73.708  1.00  0.00    -0.365 OA 
HETATM   21  O   UNL     1      -5.382   8.339  72.730  1.00  0.00    -0.037 OA 
HETATM   22  O   UNL     1      -6.728   6.425  73.071  1.00  0.00    -0.071 OA 
HETATM   23  P   UNL     1      -6.830   7.908  72.394  1.00  0.00    -0.084 P  
ENDBRANCH   4  19
BRANCH  12  24
HETATM   24  O   UNL     1      -8.767   9.498  62.981  1.00  0.00    -0.205 OA 
BRANCH  24  25
HETATM   25  C   UNL     1      -7.646  10.296  62.740  1.00  0.00    -0.143 C  
HETATM   26  O   UNL     1      -7.672  11.486  62.452  1.00  0.00     0.009 OA 
HETATM   27  N   UNL     1      -6.467   9.621  63.032  1.00  0.00    -0.103 N  
BRANCH  27  28
HETATM   28  C   UNL     1      -6.192   8.329  62.392  1.00  0.00    -0.087 C  
HETATM   29 CL   UNL     1      -5.395   5.731  62.507  1.00  0.00    -0.013 Cl 
HETATM   30  C   UNL     1      -5.693   7.264  63.363  1.00  0.00    -0.041 C  
ENDBRANCH  27  28
BRANCH  27  31
HETATM   31  C   UNL     1      -5.333  10.419  63.509  1.00  0.00    -0.154 C  
HETATM   32 CL   UNL     1      -5.836   9.579  66.085  1.00  0.00    -0.056 Cl 
HETATM   33  C   UNL     1      -5.481  10.920  64.956  1.00  0.00    -0.012 C  
ENDBRANCH  27  31
ENDBRANCH  24  25
ENDBRANCH  12  24
TORSDOF 5
ENDMDL
MODEL       87
REMARK 921   NORMALIZED FREE ENERGY PREDICTED BY IDOCK:   -4.67 KCAL/MOL
REMARK 922        TOTAL FREE ENERGY PREDICTED BY IDOCK:   -6.82 KCAL/MOL
REMARK 923 INTER-LIGAND FREE ENERGY PREDICTED BY IDOCK:   -5.94 KCAL/MOL
REMARK 924 INTRA-LIGAND FREE ENERGY PREDICTED BY IDOCK:   -0.88 KCAL/MOL
REMARK 927      BINDING AFFINITY PREDICTED BY RF-SCORE:    0.00 PKD
ROOT
HETATM    1  C   UNL     1     -10.121   7.431  69.334  1.00  0.00    -0.185 C  
HETATM    2  C   UNL     1     -10.433   7.012  68.011  1.00  0.00    -0.255 C  
HETATM    3  C   UNL     1      -9.044   7.584  68.073  1.00  0.00    -0.131 C  
HETATM    4  C   UNL     1      -8.302   7.940  69.958  1.00  0.00    -0.121 C  
HETATM    5  C   UNL     1      -8.356   6.774  69.255  1.00  0.00    -0.125 C  
HETATM    6  C   UNL     1      -8.401  12.591  68.224  1.00  0.00    -0.167 A  
HETATM    7  C   UNL     1      -6.996   7.844  68.426  1.00  0.00    -0.075 C  
HETATM    8  C   UNL     1     -10.241   9.249  69.300  1.00  0.00    -0.211 C  
HETATM    9  C   UNL     1      -8.119   5.317  69.495  1.00  0.00    -0.094 C  
HETATM   10  C   UNL     1      -7.462   9.586  68.456  1.00  0.00    -0.080 C  
HETATM   11  C   UNL     1      -8.712  13.961  68.179  1.00  0.00    -0.182 A  
HETATM   12  C   UNL     1     -10.007  14.390  68.461  1.00  0.00    -0.237 A  
HETATM   13  C   UNL     1     -11.612   9.699  68.756  1.00  0.00     0.356 C  
HETATM   14  C   UNL     1      -9.087  10.118  68.443  1.00  0.00    -0.133 C  
HETATM   15  C   UNL     1      -9.372  11.630  68.561  1.00  0.00    -0.169 A  
HETATM   16  C   UNL     1     -10.699  12.085  68.786  1.00  0.00    -0.252 A  
HETATM   17  C   UNL     1     -10.997  13.462  68.748  1.00  0.00    -0.290 A  
HETATM   18  C   UNL     1     -11.865  11.170  69.069  1.00  0.00    -0.418 C  
ENDROOT
BRANCH   4  19
HETATM   19  O   UNL     1      -7.066   7.400  70.742  1.00  0.00    -0.061 OA 
HETATM   20  O   UNL     1      -7.437   6.609  72.869  1.00  0.00    -0.088 OA 
HETATM   21  O   UNL     1      -6.123   8.322  73.743  1.00  0.00    -0.096 OA 
HETATM   22  O   UNL     1      -5.219   7.034  71.978  1.00  0.00    -0.034 OA 
HETATM   23  P   UNL     1      -6.569   7.887  72.326  1.00  0.00    -0.075 P  
ENDBRANCH   4  19
BRANCH  12  24
HETATM   24  O   UNL     1     -10.297  15.764  68.358  1.00  0.00    -0.225 OA 
BRANCH  24  25
HETATM   25  C   UNL     1     -10.364  16.279  67.061  1.00  0.00    -0.292 C  
HETATM   26  O   UNL     1     -11.080  15.851  66.165  1.00  0.00    -0.188 OA 
HETATM   27  N   UNL     1      -9.637  17.458  66.942  1.00  0.00    -0.267 N  
BRANCH  27  28
HETATM   28  C   UNL     1      -8.218  17.478  67.316  1.00  0.00    -0.208 C  
HETATM   29 CL   UNL     1      -5.579  17.511  66.659  1.00  0.00    -0.199 Cl 
HETATM   30  C   UNL     1      -7.275  17.477  66.117  1.00  0.00    -0.308 C  
ENDBRANCH  27  28
BRANCH  27  31
HETATM   31  C   UNL     1     -10.121  18.453  65.979  1.00  0.00    -0.279 C  
HETATM   32 CL   UNL     1      -9.865  20.418  67.894  1.00  0.00    -0.490 Cl 
HETATM   33  C   UNL     1     -10.853  19.645  66.621  1.00  0.00    -0.362 C  
ENDBRANCH  27  31
ENDBRANCH  24  25
ENDBRANCH  12  24
TORSDOF 5
ENDMDL
MODEL       88
REMARK 921   NORMALIZED FREE ENERGY PREDICTED BY IDOCK:   -4.66 KCAL/MOL
REMARK 922        TOTAL FREE ENERGY PREDICTED BY IDOCK:   -6.80 KCAL/MOL
REMARK 923 INTER-LIGAND FREE ENERGY PREDICTED BY IDOCK:   -6.50 KCAL/MOL
REMARK 924 INTRA-LIGAND FREE ENERGY PREDICTED BY IDOCK:   -0.30 KCAL/MOL
REMARK 927      BINDING AFFINITY PREDICTED BY RF-SCORE:    0.00 PKD
ROOT
HETATM    1  C   UNL     1      -9.674  13.189  68.135  1.00  0.00    -0.228 C  
HETATM    2  C   UNL     1      -8.259  13.273  68.253  1.00  0.00    -0.156 C  
HETATM    3  C   UNL     1      -8.646  12.641  66.946  1.00  0.00    -0.151 C  
HETATM    4  C   UNL     1     -10.642  12.733  66.459  1.00  0.00    -0.254 C  
HETATM    5  C   UNL     1      -9.672  13.678  66.315  1.00  0.00    -0.295 C  
HETATM    6  C   UNL     1     -10.116   7.810  66.837  1.00  0.00    -0.356 A  
HETATM    7  C   UNL     1      -9.324  12.337  64.987  1.00  0.00     0.259 C  
HETATM    8  C   UNL     1     -10.075  11.438  68.435  1.00  0.00    -0.207 C  
HETATM    9  C   UNL     1      -9.574  15.127  65.958  1.00  0.00    -0.365 C  
HETATM   10  C   UNL     1      -9.721  10.699  65.629  1.00  0.00    -0.283 C  
HETATM   11  C   UNL     1     -10.370   6.500  67.279  1.00  0.00    -0.283 A  
HETATM   12  C   UNL     1     -10.573   6.250  68.635  1.00  0.00    -0.264 A  
HETATM   13  C   UNL     1      -9.480  10.959  69.775  1.00  0.00     0.481 C  
HETATM   14  C   UNL     1      -9.622  10.297  67.288  1.00  0.00    -0.186 C  
HETATM   15  C   UNL     1     -10.071   8.891  67.737  1.00  0.00    -0.263 A  
HETATM   16  C   UNL     1     -10.222   8.604  69.120  1.00  0.00    -0.215 A  
HETATM   17  C   UNL     1     -10.486   7.289  69.551  1.00  0.00    -0.238 A  
HETATM   18  C   UNL     1     -10.110   9.641  70.211  1.00  0.00    -0.331 C  
ENDROOT
BRANCH   4  19
HETATM   19  O   UNL     1     -11.426  13.368  65.270  1.00  0.00    -0.294 OA 
HETATM   20  O   UNL     1     -13.641  12.791  65.046  1.00  0.00    -0.259 OA 
HETATM   21  O   UNL     1     -13.172  11.749  63.016  1.00  0.00    -0.474 OA 
HETATM   22  O   UNL     1     -12.394  13.961  63.324  1.00  0.00    -0.749 OA 
HETATM   23  P   UNL     1     -12.348  12.513  64.081  1.00  0.00    -0.421 P  
ENDBRANCH   4  19
BRANCH  12  24
HETATM   24  O   UNL     1     -10.776   4.921  69.050  1.00  0.00     0.081 OA 
BRANCH  24  25
HETATM   25  C   UNL     1      -9.623   4.198  69.368  1.00  0.00    -0.194 C  
HETATM   26  O   UNL     1      -8.886   3.649  68.560  1.00  0.00    -0.097 OA 
HETATM   27  N   UNL     1      -9.305   4.313  70.716  1.00  0.00    -0.138 N  
BRANCH  27  28
HETATM   28  C   UNL     1     -10.303   3.955  71.731  1.00  0.00     0.043 C  
HETATM   29 CL   UNL     1     -11.138   2.432  73.824  1.00  0.00    -0.289 Cl 
HETATM   30  C   UNL     1      -9.876   2.792  72.619  1.00  0.00    -0.140 C  
ENDBRANCH  27  28
BRANCH  27  31
HETATM   31  C   UNL     1      -7.886   4.255  71.082  1.00  0.00    -0.071 C  
HETATM   32 CL   UNL     1      -7.927   6.955  71.632  1.00  0.00    -0.100 Cl 
HETATM   33  C   UNL     1      -7.121   5.569  70.841  1.00  0.00    -0.069 C  
ENDBRANCH  27  31
ENDBRANCH  24  25
ENDBRANCH  12  24
TORSDOF 5
ENDMDL
MODEL       89
REMARK 921   NORMALIZED FREE ENERGY PREDICTED BY IDOCK:   -4.65 KCAL/MOL
REMARK 922        TOTAL FREE ENERGY PREDICTED BY IDOCK:   -6.79 KCAL/MOL
REMARK 923 INTER-LIGAND FREE ENERGY PREDICTED BY IDOCK:   -6.01 KCAL/MOL
REMARK 924 INTRA-LIGAND FREE ENERGY PREDICTED BY IDOCK:   -0.78 KCAL/MOL
REMARK 927      BINDING AFFINITY PREDICTED BY RF-SCORE:    0.00 PKD
ROOT
HETATM    1  C   UNL     1     -12.200  11.799  69.197  1.00  0.00    -0.169 C  
HETATM    2  C   UNL     1     -11.930  12.422  70.447  1.00  0.00    -0.342 C  
HETATM    3  C   UNL     1     -10.772  12.598  69.504  1.00  0.00     0.264 C  
HETATM    4  C   UNL     1     -11.112  12.050  67.551  1.00  0.00    -0.275 C  
HETATM    5  C   UNL     1     -11.441  13.204  68.196  1.00  0.00    -0.349 C  
HETATM    6  C   UNL     1      -7.574   8.769  68.720  1.00  0.00    -0.095 A  
HETATM    7  C   UNL     1      -9.539  13.250  67.940  1.00  0.00    -0.217 C  
HETATM    8  C   UNL     1     -11.211  10.269  69.201  1.00  0.00    -0.268 C  
HETATM    9  C   UNL     1     -12.260  14.429  67.938  1.00  0.00    -0.178 C  
HETATM   10  C   UNL     1      -8.843  11.595  68.114  1.00  0.00    -0.164 C  
HETATM   11  C   UNL     1      -6.954   7.517  68.876  1.00  0.00    -0.077 A  
HETATM   12  C   UNL     1      -7.661   6.457  69.439  1.00  0.00    -0.101 A  
HETATM   13  C   UNL     1     -11.512   9.424  70.456  1.00  0.00    -0.317 C  
HETATM   14  C   UNL     1      -9.538  10.389  69.107  1.00  0.00    -0.226 C  
HETATM   15  C   UNL     1      -8.908   8.981  69.113  1.00  0.00    -0.142 A  
HETATM   16  C   UNL     1      -9.590   7.902  69.738  1.00  0.00    -0.167 A  
HETATM   17  C   UNL     1      -8.962   6.649  69.880  1.00  0.00    -0.144 A  
HETATM   18  C   UNL     1     -10.990   8.001  70.291  1.00  0.00    -0.242 C  
ENDROOT
BRANCH   4  19
HETATM   19  O   UNL     1     -11.073  12.826  66.199  1.00  0.00    -0.277 OA 
HETATM   20  O   UNL     1     -12.913  12.644  64.832  1.00  0.00    -0.830 OA 
HETATM   21  O   UNL     1     -11.621  11.562  63.224  1.00  0.00    -0.298 OA 
HETATM   22  O   UNL     1     -10.806  13.601  64.101  1.00  0.00    -0.340 OA 
HETATM   23  P   UNL     1     -11.363  12.159  64.629  1.00  0.00    -0.315 P  
ENDBRANCH   4  19
BRANCH  12  24
HETATM   24  O   UNL     1      -6.996   5.230  69.626  1.00  0.00    -0.054 OA 
BRANCH  24  25
HETATM   25  C   UNL     1      -6.962   4.748  70.937  1.00  0.00    -0.037 C  
HETATM   26  O   UNL     1      -6.181   5.114  71.807  1.00  0.00    -0.027 OA 
HETATM   27  N   UNL     1      -8.041   3.912  71.201  1.00  0.00    -0.063 N  
BRANCH  27  28
HETATM   28  C   UNL     1      -8.281   2.745  70.344  1.00  0.00    -0.045 C  
HETATM   29 CL   UNL     1      -9.632   1.494  68.342  1.00  0.00    -0.241 Cl 
HETATM   30  C   UNL     1      -9.415   2.950  69.344  1.00  0.00    -0.088 C  
ENDBRANCH  27  28
BRANCH  27  31
HETATM   31  C   UNL     1      -8.556   3.889  72.574  1.00  0.00    -0.098 C  
HETATM   32 CL   UNL     1      -6.687   1.974  73.235  1.00  0.00    -0.018 Cl 
HETATM   33  C   UNL     1      -8.384   2.536  73.288  1.00  0.00    -0.067 C  
ENDBRANCH  27  31
ENDBRANCH  24  25
ENDBRANCH  12  24
TORSDOF 5
ENDMDL
MODEL       90
REMARK 921   NORMALIZED FREE ENERGY PREDICTED BY IDOCK:   -4.60 KCAL/MOL
REMARK 922        TOTAL FREE ENERGY PREDICTED BY IDOCK:   -6.73 KCAL/MOL
REMARK 923 INTER-LIGAND FREE ENERGY PREDICTED BY IDOCK:   -6.54 KCAL/MOL
REMARK 924 INTRA-LIGAND FREE ENERGY PREDICTED BY IDOCK:   -0.19 KCAL/MOL
REMARK 927      BINDING AFFINITY PREDICTED BY RF-SCORE:    0.00 PKD
ROOT
HETATM    1  C   UNL     1      -7.346   7.298  62.374  1.00  0.00    -0.090 C  
HETATM    2  C   UNL     1      -6.102   7.985  62.427  1.00  0.00    -0.082 C  
HETATM    3  C   UNL     1      -6.414   7.348  63.753  1.00  0.00    -0.052 C  
HETATM    4  C   UNL     1      -8.006   6.045  63.771  1.00  0.00    -0.112 C  
HETATM    5  C   UNL     1      -6.718   5.832  63.379  1.00  0.00    -0.036 C  
HETATM    6  C   UNL     1      -9.756   9.521  66.854  1.00  0.00    -0.237 A  
HETATM    7  C   UNL     1      -6.689   5.956  65.295  1.00  0.00    -0.044 C  
HETATM    8  C   UNL     1      -8.521   8.366  63.269  1.00  0.00    -0.008 C  
HETATM    9  C   UNL     1      -5.926   4.770  62.686  1.00  0.00    -0.017 C  
HETATM   10  C   UNL     1      -7.889   7.176  65.864  1.00  0.00    -0.106 C  
HETATM   11  C   UNL     1     -10.643  10.481  67.370  1.00  0.00    -0.313 A  
HETATM   12  C   UNL     1     -11.238  11.408  66.518  1.00  0.00    -0.209 A  
HETATM   13  C   UNL     1      -8.514   9.796  62.690  1.00  0.00    -0.177 C  
HETATM   14  C   UNL     1      -8.355   8.532  64.932  1.00  0.00    -0.171 C  
HETATM   15  C   UNL     1      -9.455   9.464  65.481  1.00  0.00    -0.328 A  
HETATM   16  C   UNL     1     -10.027  10.456  64.640  1.00  0.00    -0.408 A  
HETATM   17  C   UNL     1     -10.923  11.408  65.166  1.00  0.00    -0.259 A  
HETATM   18  C   UNL     1      -9.732  10.580  63.165  1.00  0.00    -0.351 C  
ENDROOT
BRANCH   4  19
HETATM   19  O   UNL     1      -8.144   4.528  64.108  1.00  0.00    -0.092 OA 
HETATM   20  O   UNL     1      -8.746   3.123  62.390  1.00  0.00    -0.074 OA 
HETATM   21  O   UNL     1     -10.746   2.635  63.480  1.00  0.00    -0.212 OA 
HETATM   22  O   UNL     1      -8.742   2.445  64.721  1.00  0.00    -0.098 OA 
HETATM   23  P   UNL     1      -9.518   3.529  63.776  1.00  0.00    -0.153 P  
ENDBRANCH   4  19
BRANCH  12  24
HETATM   24  O   UNL     1     -12.083  12.387  67.074  1.00  0.00    -0.549 OA 
BRANCH  24  25
HETATM   25  C   UNL     1     -11.837  13.704  66.676  1.00  0.00    -0.409 C  
HETATM   26  O   UNL     1     -12.500  14.332  65.860  1.00  0.00    -0.437 OA 
HETATM   27  N   UNL     1     -10.839  14.291  67.443  1.00  0.00    -0.282 N  
BRANCH  27  28
HETATM   28  C   UNL     1      -9.525  13.644  67.545  1.00  0.00    -0.222 C  
HETATM   29 CL   UNL     1      -6.961  13.578  68.451  1.00  0.00    -0.094 Cl 
HETATM   30  C   UNL     1      -8.520  14.437  68.373  1.00  0.00    -0.165 C  
ENDBRANCH  27  28
BRANCH  27  31
HETATM   31  C   UNL     1     -10.925  15.738  67.669  1.00  0.00    -0.302 C  
HETATM   32 CL   UNL     1     -11.416  15.283  70.342  1.00  0.00    -0.298 Cl 
HETATM   33  C   UNL     1     -11.848  16.139  68.833  1.00  0.00    -0.156 C  
ENDBRANCH  27  31
ENDBRANCH  24  25
ENDBRANCH  12  24
TORSDOF 5
ENDMDL
MODEL       91
REMARK 921   NORMALIZED FREE ENERGY PREDICTED BY IDOCK:   -4.58 KCAL/MOL
REMARK 922        TOTAL FREE ENERGY PREDICTED BY IDOCK:   -6.70 KCAL/MOL
REMARK 923 INTER-LIGAND FREE ENERGY PREDICTED BY IDOCK:   -6.03 KCAL/MOL
REMARK 924 INTRA-LIGAND FREE ENERGY PREDICTED BY IDOCK:   -0.67 KCAL/MOL
REMARK 927      BINDING AFFINITY PREDICTED BY RF-SCORE:    0.00 PKD
ROOT
HETATM    1  C   UNL     1      -8.473  16.095  68.018  1.00  0.00    -0.168 C  
HETATM    2  C   UNL     1      -8.188  16.552  66.702  1.00  0.00    -0.306 C  
HETATM    3  C   UNL     1      -9.455  15.743  66.721  1.00  0.00    -0.259 C  
HETATM    4  C   UNL     1     -10.197  15.277  68.582  1.00  0.00    -0.223 C  
HETATM    5  C   UNL     1     -10.322  16.428  67.864  1.00  0.00    -0.286 C  
HETATM    6  C   UNL     1      -9.208  10.703  66.923  1.00  0.00    -0.172 A  
HETATM    7  C   UNL     1     -11.438  15.127  67.001  1.00  0.00    -0.230 C  
HETATM    8  C   UNL     1      -8.033  14.327  68.016  1.00  0.00    -0.142 C  
HETATM    9  C   UNL     1     -10.823  17.822  68.074  1.00  0.00    -0.217 C  
HETATM   10  C   UNL     1     -10.672  13.495  67.075  1.00  0.00    -0.278 C  
HETATM   11  C   UNL     1      -8.658   9.409  66.909  1.00  0.00    -0.132 A  
HETATM   12  C   UNL     1      -7.320   9.219  67.245  1.00  0.00    -0.091 A  
HETATM   13  C   UNL     1      -6.583  14.123  67.530  1.00  0.00    -0.098 C  
HETATM   14  C   UNL     1      -8.979  13.260  67.130  1.00  0.00    -0.229 C  
HETATM   15  C   UNL     1      -8.437  11.824  67.280  1.00  0.00    -0.160 A  
HETATM   16  C   UNL     1      -7.060  11.613  67.562  1.00  0.00    -0.111 A  
HETATM   17  C   UNL     1      -6.522  10.311  67.555  1.00  0.00    -0.066 A  
HETATM   18  C   UNL     1      -6.086  12.723  67.874  1.00  0.00    -0.116 C  
ENDROOT
BRANCH   4  19
HETATM   19  O   UNL     1     -11.538  15.595  69.311  1.00  0.00    -0.319 OA 
HETATM   20  O   UNL     1     -11.400  16.374  71.470  1.00  0.00    -0.308 OA 
HETATM   21  O   UNL     1     -12.469  14.452  72.239  1.00  0.00    -0.307 OA 
HETATM   22  O   UNL     1     -13.477  15.634  70.456  1.00  0.00    -0.398 OA 
HETATM   23  P   UNL     1     -12.029  14.992  70.857  1.00  0.00    -0.389 P  
ENDBRANCH   4  19
BRANCH  12  24
HETATM   24  O   UNL     1      -6.788   7.918  67.174  1.00  0.00    -0.069 OA 
BRANCH  24  25
HETATM   25  C   UNL     1      -6.653   7.383  65.891  1.00  0.00    -0.045 C  
HETATM   26  O   UNL     1      -5.897   7.802  65.024  1.00  0.00    -0.037 OA 
HETATM   27  N   UNL     1      -7.363   6.195  65.756  1.00  0.00    -0.078 N  
BRANCH  27  28
HETATM   28  C   UNL     1      -8.799   6.169  66.060  1.00  0.00    -0.153 C  
HETATM   29 CL   UNL     1     -10.867   5.754  67.777  1.00  0.00    -0.308 Cl 
HETATM   30  C   UNL     1      -9.108   5.750  67.493  1.00  0.00    -0.106 C  
ENDBRANCH  27  28
BRANCH  27  31
HETATM   31  C   UNL     1      -6.825   5.189  64.835  1.00  0.00    -0.049 C  
HETATM   32 CL   UNL     1      -8.022   6.493  62.723  1.00  0.00    -0.103 Cl 
HETATM   33  C   UNL     1      -7.686   4.960  63.580  1.00  0.00    -0.072 C  
ENDBRANCH  27  31
ENDBRANCH  24  25
ENDBRANCH  12  24
TORSDOF 5
ENDMDL
MODEL       92
REMARK 921   NORMALIZED FREE ENERGY PREDICTED BY IDOCK:   -4.56 KCAL/MOL
REMARK 922        TOTAL FREE ENERGY PREDICTED BY IDOCK:   -6.67 KCAL/MOL
REMARK 923 INTER-LIGAND FREE ENERGY PREDICTED BY IDOCK:   -6.18 KCAL/MOL
REMARK 924 INTRA-LIGAND FREE ENERGY PREDICTED BY IDOCK:   -0.49 KCAL/MOL
REMARK 927      BINDING AFFINITY PREDICTED BY RF-SCORE:    0.00 PKD
ROOT
HETATM    1  C   UNL     1     -10.023  17.960  67.172  1.00  0.00    -0.327 C  
HETATM    2  C   UNL     1     -10.897  18.134  68.281  1.00  0.00    -0.042 C  
HETATM    3  C   UNL     1      -9.472  18.397  68.681  1.00  0.00    -0.356 C  
HETATM    4  C   UNL     1      -8.113  18.512  67.141  1.00  0.00    -0.243 C  
HETATM    5  C   UNL     1      -8.971  19.461  67.611  1.00  0.00    -0.357 C  
HETATM    6  C   UNL     1      -6.343  14.518  69.500  1.00  0.00    -0.128 A  
HETATM    7  C   UNL     1      -7.588  19.279  68.930  1.00  0.00    -0.384 C  
HETATM    8  C   UNL     1      -9.198  16.362  67.460  1.00  0.00    -0.199 C  
HETATM    9  C   UNL     1      -9.453  20.820  67.215  1.00  0.00    -0.467 C  
HETATM   10  C   UNL     1      -7.059  17.559  69.053  1.00  0.00    -0.234 C  
HETATM   11  C   UNL     1      -5.904  13.194  69.678  1.00  0.00    -0.109 A  
HETATM   12  C   UNL     1      -6.634  12.140  69.134  1.00  0.00    -0.106 A  
HETATM   13  C   UNL     1     -10.234  15.241  67.685  1.00  0.00    -0.242 C  
HETATM   14  C   UNL     1      -8.093  16.239  68.719  1.00  0.00    -0.227 C  
HETATM   15  C   UNL     1      -7.510  14.811  68.771  1.00  0.00    -0.133 A  
HETATM   16  C   UNL     1      -8.270  13.717  68.276  1.00  0.00    -0.156 A  
HETATM   17  C   UNL     1      -7.815  12.396  68.452  1.00  0.00    -0.142 A  
HETATM   18  C   UNL     1      -9.586  13.867  67.553  1.00  0.00    -0.229 C  
ENDROOT
BRANCH   4  19
HETATM   19  O   UNL     1      -7.157  19.638  66.638  1.00  0.00    -0.207 OA 
HETATM   20  O   UNL     1      -7.303  20.224  64.420  1.00  0.00     0.052 OA 
HETATM   21  O   UNL     1      -5.134  19.454  64.065  1.00  0.00    -0.157 OA 
HETATM   22  O   UNL     1      -5.492  20.944  65.867  1.00  0.00    -0.192 OA 
HETATM   23  P   UNL     1      -6.089  19.541  65.280  1.00  0.00    -0.277 P  
ENDBRANCH   4  19
BRANCH  12  24
HETATM   24  O   UNL     1      -6.194  10.825  69.372  1.00  0.00    -0.047 OA 
BRANCH  24  25
HETATM   25  C   UNL     1      -6.597   9.867  68.438  1.00  0.00    -0.055 C  
HETATM   26  O   UNL     1      -6.221   9.812  67.273  1.00  0.00    -0.065 OA 
HETATM   27  N   UNL     1      -7.357   8.865  69.029  1.00  0.00    -0.072 N  
BRANCH  27  28
HETATM   28  C   UNL     1      -8.559   9.220  69.793  1.00  0.00    -0.159 C  
HETATM   29 CL   UNL     1     -10.250   8.846  71.890  1.00  0.00    -0.413 Cl 
HETATM   30  C   UNL     1      -8.780   8.341  71.019  1.00  0.00    -0.146 C  
ENDBRANCH  27  28
BRANCH  27  31
HETATM   31  C   UNL     1      -7.269   7.521  68.449  1.00  0.00    -0.093 C  
HETATM   32 CL   UNL     1      -8.664   8.392  66.238  1.00  0.00    -0.148 Cl 
HETATM   33  C   UNL     1      -8.437   7.161  67.515  1.00  0.00    -0.123 C  
ENDBRANCH  27  31
ENDBRANCH  24  25
ENDBRANCH  12  24
TORSDOF 5
ENDMDL
MODEL       93
REMARK 921   NORMALIZED FREE ENERGY PREDICTED BY IDOCK:   -4.53 KCAL/MOL
REMARK 922        TOTAL FREE ENERGY PREDICTED BY IDOCK:   -6.64 KCAL/MOL
REMARK 923 INTER-LIGAND FREE ENERGY PREDICTED BY IDOCK:   -5.70 KCAL/MOL
REMARK 924 INTRA-LIGAND FREE ENERGY PREDICTED BY IDOCK:   -0.94 KCAL/MOL
REMARK 927      BINDING AFFINITY PREDICTED BY RF-SCORE:    0.00 PKD
ROOT
HETATM    1  C   UNL     1      -9.929  17.353  67.389  1.00  0.00    -0.305 C  
HETATM    2  C   UNL     1     -10.675  17.373  68.600  1.00  0.00    -0.249 C  
HETATM    3  C   UNL     1      -9.202  17.472  68.882  1.00  0.00    -0.153 C  
HETATM    4  C   UNL     1      -7.993  17.787  67.247  1.00  0.00    -0.209 C  
HETATM    5  C   UNL     1      -8.725  18.682  67.968  1.00  0.00    -0.325 C  
HETATM    6  C   UNL     1      -6.323  13.328  68.656  1.00  0.00    -0.087 A  
HETATM    7  C   UNL     1      -7.239  18.179  69.075  1.00  0.00    -0.226 C  
HETATM    8  C   UNL     1      -9.208  15.683  67.298  1.00  0.00    -0.214 C  
HETATM    9  C   UNL     1      -9.134  20.117  67.874  1.00  0.00    -0.352 C  
HETATM   10  C   UNL     1      -6.838  16.437  68.834  1.00  0.00    -0.180 C  
HETATM   11  C   UNL     1      -5.974  11.971  68.547  1.00  0.00    -0.050 A  
HETATM   12  C   UNL     1      -6.834  11.080  67.910  1.00  0.00    -0.068 A  
HETATM   13  C   UNL     1     -10.302  14.604  67.434  1.00  0.00    -0.241 C  
HETATM   14  C   UNL     1      -7.999  15.265  68.387  1.00  0.00    -0.131 C  
HETATM   15  C   UNL     1      -7.528  13.820  68.122  1.00  0.00    -0.124 A  
HETATM   16  C   UNL     1      -8.416  12.883  67.528  1.00  0.00    -0.186 A  
HETATM   17  C   UNL     1      -8.052  11.527  67.416  1.00  0.00    -0.146 A  
HETATM   18  C   UNL     1      -9.781  13.242  66.992  1.00  0.00    -0.238 C  
ENDROOT
BRANCH   4  19
HETATM   19  O   UNL     1      -7.005  18.926  66.850  1.00  0.00    -0.198 OA 
HETATM   20  O   UNL     1      -7.364  19.968  64.832  1.00  0.00    -0.252 OA 
HETATM   21  O   UNL     1      -5.334  19.146  64.038  1.00  0.00    -0.217 OA 
HETATM   22  O   UNL     1      -5.332  20.251  66.129  1.00  0.00    -0.164 OA 
HETATM   23  P   UNL     1      -6.123  19.042  65.366  1.00  0.00    -0.286 P  
ENDBRANCH   4  19
BRANCH  12  24
HETATM   24  O   UNL     1      -6.478   9.719  67.862  1.00  0.00    -0.059 OA 
BRANCH  24  25
HETATM   25  C   UNL     1      -6.398   9.153  66.587  1.00  0.00    -0.066 C  
HETATM   26  O   UNL     1      -5.640   9.517  65.697  1.00  0.00    -0.047 OA 
HETATM   27  N   UNL     1      -7.170   8.001  66.491  1.00  0.00    -0.079 N  
BRANCH  27  28
HETATM   28  C   UNL     1      -8.598   8.054  66.824  1.00  0.00    -0.130 C  
HETATM   29 CL   UNL     1     -11.032   6.869  67.089  1.00  0.00    -0.445 Cl 
HETATM   30  C   UNL     1      -9.311   6.717  66.656  1.00  0.00    -0.165 C  
ENDBRANCH  27  28
BRANCH  27  31
HETATM   31  C   UNL     1      -6.703   6.951  65.580  1.00  0.00    -0.051 C  
HETATM   32 CL   UNL     1      -6.258   5.291  67.734  1.00  0.00    -0.036 Cl 
HETATM   33  C   UNL     1      -5.669   5.995  66.200  1.00  0.00    -0.017 C  
ENDBRANCH  27  31
ENDBRANCH  24  25
ENDBRANCH  12  24
TORSDOF 5
ENDMDL
MODEL       94
REMARK 921   NORMALIZED FREE ENERGY PREDICTED BY IDOCK:   -4.52 KCAL/MOL
REMARK 922        TOTAL FREE ENERGY PREDICTED BY IDOCK:   -6.62 KCAL/MOL
REMARK 923 INTER-LIGAND FREE ENERGY PREDICTED BY IDOCK:   -6.42 KCAL/MOL
REMARK 924 INTRA-LIGAND FREE ENERGY PREDICTED BY IDOCK:   -0.21 KCAL/MOL
REMARK 927      BINDING AFFINITY PREDICTED BY RF-SCORE:    0.00 PKD
ROOT
HETATM    1  C   UNL     1      -8.595   6.872  69.261  1.00  0.00    -0.132 C  
HETATM    2  C   UNL     1      -9.599   6.915  70.267  1.00  0.00    -0.170 C  
HETATM    3  C   UNL     1     -10.204   7.108  68.904  1.00  0.00    -0.188 C  
HETATM    4  C   UNL     1      -8.955   6.751  67.309  1.00  0.00    -0.117 C  
HETATM    5  C   UNL     1      -9.658   5.868  68.072  1.00  0.00    -0.122 C  
HETATM    6  C   UNL     1      -9.823  11.589  66.605  1.00  0.00    -0.228 A  
HETATM    7  C   UNL     1     -10.942   6.776  66.972  1.00  0.00    -0.439 C  
HETATM    8  C   UNL     1      -8.347   8.605  68.758  1.00  0.00    -0.121 C  
HETATM    9  C   UNL     1      -9.750   4.388  68.262  1.00  0.00    -0.171 C  
HETATM   10  C   UNL     1     -10.469   8.502  66.749  1.00  0.00    -0.308 C  
HETATM   11  C   UNL     1      -9.538  12.952  66.416  1.00  0.00    -0.252 A  
HETATM   12  C   UNL     1      -8.575  13.578  67.204  1.00  0.00    -0.195 A  
HETATM   13  C   UNL     1      -8.040   9.494  69.980  1.00  0.00    -0.176 C  
HETATM   14  C   UNL     1      -9.571   9.382  67.908  1.00  0.00    -0.155 C  
HETATM   15  C   UNL     1      -9.146  10.827  67.575  1.00  0.00    -0.143 A  
HETATM   16  C   UNL     1      -8.210  11.499  68.406  1.00  0.00    -0.152 A  
HETATM   17  C   UNL     1      -7.926  12.864  68.200  1.00  0.00    -0.153 A  
HETATM   18  C   UNL     1      -7.471  10.840  69.544  1.00  0.00    -0.113 C  
ENDROOT
BRANCH   4  19
HETATM   19  O   UNL     1      -9.000   5.745  66.118  1.00  0.00    -0.142 OA 
HETATM   20  O   UNL     1      -7.150   4.418  65.796  1.00  0.00    -0.067 OA 
HETATM   21  O   UNL     1      -6.757   5.451  63.745  1.00  0.00    -0.039 OA 
HETATM   22  O   UNL     1      -8.934   4.628  64.163  1.00  0.00    -0.148 OA 
HETATM   23  P   UNL     1      -7.816   5.590  64.866  1.00  0.00    -0.117 P  
ENDBRANCH   4  19
BRANCH  12  24
HETATM   24  O   UNL     1      -8.349  14.955  67.022  1.00  0.00    -0.207 OA 
BRANCH  24  25
HETATM   25  C   UNL     1      -8.379  15.737  68.180  1.00  0.00    -0.160 C  
HETATM   26  O   UNL     1      -8.238  15.317  69.321  1.00  0.00    -0.216 OA 
HETATM   27  N   UNL     1      -8.421  17.093  67.879  1.00  0.00    -0.208 N  
BRANCH  27  28
HETATM   28  C   UNL     1      -9.483  17.612  67.009  1.00  0.00    -0.266 C  
HETATM   29 CL   UNL     1     -10.631  19.626  65.586  1.00  0.00    -0.557 Cl 
HETATM   30  C   UNL     1      -9.307  19.083  66.647  1.00  0.00    -0.332 C  
ENDBRANCH  27  28
BRANCH  27  31
HETATM   31  C   UNL     1      -7.778  18.013  68.823  1.00  0.00    -0.264 C  
HETATM   32 CL   UNL     1      -5.556  18.118  67.197  1.00  0.00    -0.145 Cl 
HETATM   33  C   UNL     1      -6.242  17.928  68.838  1.00  0.00    -0.214 C  
ENDBRANCH  27  31
ENDBRANCH  24  25
ENDBRANCH  12  24
TORSDOF 5
ENDMDL
MODEL       95
REMARK 921   NORMALIZED FREE ENERGY PREDICTED BY IDOCK:   -4.52 KCAL/MOL
REMARK 922        TOTAL FREE ENERGY PREDICTED BY IDOCK:   -6.62 KCAL/MOL
REMARK 923 INTER-LIGAND FREE ENERGY PREDICTED BY IDOCK:   -6.02 KCAL/MOL
REMARK 924 INTRA-LIGAND FREE ENERGY PREDICTED BY IDOCK:   -0.61 KCAL/MOL
REMARK 927      BINDING AFFINITY PREDICTED BY RF-SCORE:    0.00 PKD
ROOT
HETATM    1  C   UNL     1      -8.573   7.125  65.461  1.00  0.00    -0.093 C  
HETATM    2  C   UNL     1      -7.990   7.228  64.168  1.00  0.00    -0.084 C  
HETATM    3  C   UNL     1      -6.961   7.475  65.236  1.00  0.00    -0.059 C  
HETATM    4  C   UNL     1      -7.545   7.048  67.161  1.00  0.00    -0.107 C  
HETATM    5  C   UNL     1      -7.096   6.208  66.187  1.00  0.00    -0.067 C  
HETATM    6  C   UNL     1      -6.814  11.940  67.591  1.00  0.00    -0.112 A  
HETATM    7  C   UNL     1      -5.572   7.213  66.782  1.00  0.00    -0.023 C  
HETATM    8  C   UNL     1      -8.745   8.842  66.046  1.00  0.00    -0.185 C  
HETATM    9  C   UNL     1      -6.976   4.736  65.954  1.00  0.00    -0.063 C  
HETATM   10  C   UNL     1      -6.052   8.904  67.183  1.00  0.00    -0.058 C  
HETATM   11  C   UNL     1      -7.106  13.283  67.889  1.00  0.00    -0.133 A  
HETATM   12  C   UNL     1      -8.324  13.833  67.498  1.00  0.00    -0.192 A  
HETATM   13  C   UNL     1      -9.520   9.697  65.022  1.00  0.00    -0.312 C  
HETATM   14  C   UNL     1      -7.357   9.709  66.425  1.00  0.00    -0.094 C  
HETATM   15  C   UNL     1      -7.735  11.124  66.908  1.00  0.00    -0.148 A  
HETATM   16  C   UNL     1      -8.945  11.724  66.468  1.00  0.00    -0.196 A  
HETATM   17  C   UNL     1      -9.231  13.067  66.781  1.00  0.00    -0.229 A  
HETATM   18  C   UNL     1      -9.990  11.004  65.650  1.00  0.00    -0.299 C  
ENDROOT
BRANCH   4  19
HETATM   19  O   UNL     1      -7.017   6.058  68.245  1.00  0.00    -0.071 OA 
HETATM   20  O   UNL     1      -8.563   4.685  69.252  1.00  0.00    -0.081 OA 
HETATM   21  O   UNL     1      -8.173   5.733  71.296  1.00  0.00    -0.118 OA 
HETATM   22  O   UNL     1      -6.298   4.964  70.078  1.00  0.00    -0.028 OA 
HETATM   23  P   UNL     1      -7.628   5.887  69.855  1.00  0.00    -0.083 P  
ENDBRANCH   4  19
BRANCH  12  24
HETATM   24  O   UNL     1      -8.564  15.194  67.768  1.00  0.00    -0.146 OA 
BRANCH  24  25
HETATM   25  C   UNL     1      -9.035  15.955  66.696  1.00  0.00    -0.268 C  
HETATM   26  O   UNL     1      -8.336  16.477  65.836  1.00  0.00    -0.388 OA 
HETATM   27  N   UNL     1     -10.422  15.918  66.614  1.00  0.00    -0.303 N  
BRANCH  27  28
HETATM   28  C   UNL     1     -11.229  16.308  67.777  1.00  0.00    -0.163 C  
HETATM   29 CL   UNL     1     -12.487  15.716  70.114  1.00  0.00    -0.379 Cl 
HETATM   30  C   UNL     1     -11.514  15.154  68.732  1.00  0.00    -0.319 C  
ENDBRANCH  27  28
BRANCH  27  31
HETATM   31  C   UNL     1     -11.022  16.023  65.280  1.00  0.00    -0.299 C  
HETATM   32 CL   UNL     1     -12.554  13.793  65.802  1.00  0.00    -0.530 Cl 
HETATM   33  C   UNL     1     -11.473  14.678  64.685  1.00  0.00    -0.388 C  
ENDBRANCH  27  31
ENDBRANCH  24  25
ENDBRANCH  12  24
TORSDOF 5
ENDMDL
MODEL       96
REMARK 921   NORMALIZED FREE ENERGY PREDICTED BY IDOCK:   -4.50 KCAL/MOL
REMARK 922        TOTAL FREE ENERGY PREDICTED BY IDOCK:   -6.60 KCAL/MOL
REMARK 923 INTER-LIGAND FREE ENERGY PREDICTED BY IDOCK:   -6.62 KCAL/MOL
REMARK 924 INTRA-LIGAND FREE ENERGY PREDICTED BY IDOCK:    0.02 KCAL/MOL
REMARK 927      BINDING AFFINITY PREDICTED BY RF-SCORE:    0.00 PKD
ROOT
HETATM    1  C   UNL     1     -11.368  15.777  69.399  1.00  0.00    -0.348 C  
HETATM    2  C   UNL     1     -11.052  15.506  70.759  1.00  0.00    -0.383 C  
HETATM    3  C   UNL     1      -9.799  15.620  69.935  1.00  0.00    -0.199 C  
HETATM    4  C   UNL     1     -10.045  16.330  68.020  1.00  0.00    -0.245 C  
HETATM    5  C   UNL     1      -9.963  17.017  69.193  1.00  0.00    -0.229 C  
HETATM    6  C   UNL     1      -8.374  11.768  66.996  1.00  0.00    -0.172 A  
HETATM    7  C   UNL     1      -8.195  16.372  68.818  1.00  0.00    -0.234 C  
HETATM    8  C   UNL     1     -11.105  14.201  68.523  1.00  0.00    -0.276 C  
HETATM    9  C   UNL     1     -10.161  18.417  69.680  1.00  0.00     0.417 C  
HETATM   10  C   UNL     1      -8.270  14.741  68.050  1.00  0.00    -0.142 C  
HETATM   11  C   UNL     1      -8.352  10.482  66.428  1.00  0.00    -0.145 A  
HETATM   12  C   UNL     1      -9.505   9.701  66.431  1.00  0.00    -0.189 A  
HETATM   13  C   UNL     1     -11.905  13.063  69.188  1.00  0.00    -0.360 C  
HETATM   14  C   UNL     1      -9.536  13.629  68.345  1.00  0.00    -0.190 C  
HETATM   15  C   UNL     1      -9.546  12.297  67.567  1.00  0.00    -0.184 A  
HETATM   16  C   UNL     1     -10.693  11.459  67.611  1.00  0.00    -0.261 A  
HETATM   17  C   UNL     1     -10.662  10.177  67.030  1.00  0.00    -0.264 A  
HETATM   18  C   UNL     1     -11.994  11.851  68.267  1.00  0.00    -0.235 C  
ENDROOT
BRANCH   4  19
HETATM   19  O   UNL     1      -9.495  17.576  67.261  1.00  0.00    -0.246 OA 
HETATM   20  O   UNL     1     -10.878  19.406  67.110  1.00  0.00    -0.484 OA 
HETATM   21  O   UNL     1     -10.975  19.151  64.796  1.00  0.00    -0.153 OA 
HETATM   22  O   UNL     1      -8.840  19.172  65.813  1.00  0.00    -0.388 OA 
HETATM   23  P   UNL     1     -10.277  18.408  65.960  1.00  0.00    -0.125 P  
ENDBRANCH   4  19
BRANCH  12  24
HETATM   24  O   UNL     1      -9.436   8.399  65.898  1.00  0.00    -0.188 OA 
BRANCH  24  25
HETATM   25  C   UNL     1      -9.903   7.375  66.726  1.00  0.00    -0.220 C  
HETATM   26  O   UNL     1     -11.073   7.028  66.831  1.00  0.00    -0.359 OA 
HETATM   27  N   UNL     1      -8.855   6.668  67.304  1.00  0.00    -0.116 N  
BRANCH  27  28
HETATM   28  C   UNL     1      -7.836   7.384  68.079  1.00  0.00    -0.118 C  
HETATM   29 CL   UNL     1      -5.285   8.260  68.430  1.00  0.00    -0.032 Cl 
HETATM   30  C   UNL     1      -6.455   7.362  67.432  1.00  0.00    -0.060 C  
ENDBRANCH  27  28
BRANCH  27  31
HETATM   31  C   UNL     1      -9.077   5.246  67.586  1.00  0.00    -0.109 C  
HETATM   32 CL   UNL     1     -10.357   5.919  69.931  1.00  0.00    -0.280 Cl 
HETATM   33  C   UNL     1      -9.151   4.906  69.085  1.00  0.00    -0.103 C  
ENDBRANCH  27  31
ENDBRANCH  24  25
ENDBRANCH  12  24
TORSDOF 5
ENDMDL
MODEL       97
REMARK 921   NORMALIZED FREE ENERGY PREDICTED BY IDOCK:   -4.50 KCAL/MOL
REMARK 922        TOTAL FREE ENERGY PREDICTED BY IDOCK:   -6.60 KCAL/MOL
REMARK 923 INTER-LIGAND FREE ENERGY PREDICTED BY IDOCK:   -6.26 KCAL/MOL
REMARK 924 INTRA-LIGAND FREE ENERGY PREDICTED BY IDOCK:   -0.34 KCAL/MOL
REMARK 927      BINDING AFFINITY PREDICTED BY RF-SCORE:    0.00 PKD
ROOT
HETATM    1  C   UNL     1     -11.984  12.131  68.625  1.00  0.00    -0.290 C  
HETATM    2  C   UNL     1     -11.646  12.924  69.756  1.00  0.00    -0.288 C  
HETATM    3  C   UNL     1     -10.578  13.019  68.702  1.00  0.00    -0.257 C  
HETATM    4  C   UNL     1     -11.046  12.204  66.872  1.00  0.00    -0.297 C  
HETATM    5  C   UNL     1     -11.380  13.419  67.389  1.00  0.00    -0.338 C  
HETATM    6  C   UNL     1      -7.265   9.248  68.145  1.00  0.00    -0.078 A  
HETATM    7  C   UNL     1      -9.509  13.505  66.967  1.00  0.00    -0.251 C  
HETATM    8  C   UNL     1     -10.922  10.655  68.741  1.00  0.00    -0.292 C  
HETATM    9  C   UNL     1     -12.277  14.566  67.047  1.00  0.00    -0.197 C  
HETATM   10  C   UNL     1      -8.719  11.917  67.292  1.00  0.00    -0.171 C  
HETATM   11  C   UNL     1      -6.573   8.053  68.407  1.00  0.00    -0.059 A  
HETATM   12  C   UNL     1      -7.178   7.050  69.160  1.00  0.00    -0.090 A  
HETATM   13  C   UNL     1     -11.079   9.972  70.115  1.00  0.00    -0.371 C  
HETATM   14  C   UNL     1      -9.271  10.826  68.488  1.00  0.00    -0.174 C  
HETATM   15  C   UNL     1      -8.572   9.457  68.621  1.00  0.00    -0.123 A  
HETATM   16  C   UNL     1      -9.146   8.445  69.436  1.00  0.00    -0.154 A  
HETATM   17  C   UNL     1      -8.448   7.247  69.684  1.00  0.00    -0.133 A  
HETATM   18  C   UNL     1     -10.501   8.562  70.090  1.00  0.00    -0.226 C  
ENDROOT
BRANCH   4  19
HETATM   19  O   UNL     1     -11.155  12.794  65.433  1.00  0.00    -0.277 OA 
HETATM   20  O   UNL     1     -13.267  13.228  64.635  1.00  0.00    -0.535 OA 
HETATM   21  O   UNL     1     -12.985  11.607  62.986  1.00  0.00    -0.423 OA 
HETATM   22  O   UNL     1     -11.289  13.237  63.229  1.00  0.00    -0.104 OA 
HETATM   23  P   UNL     1     -12.121  12.168  64.142  1.00  0.00    -0.381 P  
ENDBRANCH   4  19
BRANCH  12  24
HETATM   24  O   UNL     1      -6.439   5.886  69.447  1.00  0.00    -0.039 OA 
BRANCH  24  25
HETATM   25  C   UNL     1      -6.872   4.717  68.815  1.00  0.00    -0.051 C  
HETATM   26  O   UNL     1      -6.853   4.515  67.608  1.00  0.00    -0.053 OA 
HETATM   27  N   UNL     1      -7.179   3.723  69.737  1.00  0.00    -0.042 N  
BRANCH  27  28
HETATM   28  C   UNL     1      -8.151   3.995  70.803  1.00  0.00    -0.062 C  
HETATM   29 CL   UNL     1      -8.772   4.397  73.420  1.00  0.00    -0.100 Cl 
HETATM   30  C   UNL     1      -7.527   4.054  72.193  1.00  0.00    -0.066 C  
ENDBRANCH  27  28
BRANCH  27  31
HETATM   31  C   UNL     1      -6.965   2.332  69.325  1.00  0.00    -0.033 C  
HETATM   32 CL   UNL     1      -9.463   2.301  68.162  1.00  0.00    -0.260 Cl 
HETATM   33  C   UNL     1      -8.256   1.503  69.214  1.00  0.00    -0.044 C  
ENDBRANCH  27  31
ENDBRANCH  24  25
ENDBRANCH  12  24
TORSDOF 5
ENDMDL
MODEL       98
REMARK 921   NORMALIZED FREE ENERGY PREDICTED BY IDOCK:   -4.48 KCAL/MOL
REMARK 922        TOTAL FREE ENERGY PREDICTED BY IDOCK:   -6.57 KCAL/MOL
REMARK 923 INTER-LIGAND FREE ENERGY PREDICTED BY IDOCK:   -6.42 KCAL/MOL
REMARK 924 INTRA-LIGAND FREE ENERGY PREDICTED BY IDOCK:   -0.15 KCAL/MOL
REMARK 927      BINDING AFFINITY PREDICTED BY RF-SCORE:    0.00 PKD
ROOT
HETATM    1  C   UNL     1      -6.523  18.755  69.184  1.00  0.00    -0.297 C  
HETATM    2  C   UNL     1      -5.149  19.006  68.915  1.00  0.00    -0.191 C  
HETATM    3  C   UNL     1      -5.848  18.502  67.683  1.00  0.00    -0.165 C  
HETATM    4  C   UNL     1      -7.899  18.396  67.793  1.00  0.00    -0.241 C  
HETATM    5  C   UNL     1      -7.101  19.471  67.539  1.00  0.00    -0.245 C  
HETATM    6  C   UNL     1      -6.857  13.577  67.212  1.00  0.00     0.098 A  
HETATM    7  C   UNL     1      -7.044  18.369  65.968  1.00  0.00    -0.307 C  
HETATM    8  C   UNL     1      -6.663  16.942  69.297  1.00  0.00    -0.238 C  
HETATM    9  C   UNL     1      -7.239  20.954  67.407  1.00  0.00    -0.396 C  
HETATM   10  C   UNL     1      -7.090  16.624  66.423  1.00  0.00    -0.117 C  
HETATM   11  C   UNL     1      -6.854  12.198  67.490  1.00  0.00    -0.127 A  
HETATM   12  C   UNL     1      -6.626  11.752  68.789  1.00  0.00    -0.074 A  
HETATM   13  C   UNL     1      -5.660  16.376  70.323  1.00  0.00    -0.176 C  
HETATM   14  C   UNL     1      -6.471  16.028  67.901  1.00  0.00    -0.160 C  
HETATM   15  C   UNL     1      -6.643  14.529  68.225  1.00  0.00    -0.119 A  
HETATM   16  C   UNL     1      -6.354  14.049  69.530  1.00  0.00    -0.121 A  
HETATM   17  C   UNL     1      -6.363  12.666  69.800  1.00  0.00    -0.070 A  
HETATM   18  C   UNL     1      -6.016  14.942  70.699  1.00  0.00    -0.106 C  
ENDROOT
BRANCH   4  19
HETATM   19  O   UNL     1      -9.051  19.072  66.988  1.00  0.00    -0.281 OA 
HETATM   20  O   UNL     1     -11.171  18.236  67.289  1.00  0.00    -0.057 OA 
HETATM   21  O   UNL     1     -11.223  17.546  65.065  1.00  0.00    -0.564 OA 
HETATM   22  O   UNL     1     -10.595  19.782  65.509  1.00  0.00    -0.468 OA 
HETATM   23  P   UNL     1     -10.198  18.266  65.973  1.00  0.00    -0.113 P  
ENDBRANCH   4  19
BRANCH  12  24
HETATM   24  O   UNL     1      -6.580  10.365  69.024  1.00  0.00    -0.054 OA 
BRANCH  24  25
HETATM   25  C   UNL     1      -7.569   9.856  69.869  1.00  0.00    -0.163 C  
HETATM   26  O   UNL     1      -7.463   9.715  71.081  1.00  0.00    -0.328 OA 
HETATM   27  N   UNL     1      -8.773   9.678  69.196  1.00  0.00    -0.142 N  
BRANCH  27  28
HETATM   28  C   UNL     1      -8.810   8.855  67.981  1.00  0.00    -0.133 C  
HETATM   29 CL   UNL     1      -9.882   6.847  66.492  1.00  0.00    -0.206 Cl 
HETATM   30  C   UNL     1      -9.901   7.790  68.003  1.00  0.00    -0.163 C  
ENDBRANCH  27  28
BRANCH  27  31
HETATM   31  C   UNL     1     -10.008   9.840  69.969  1.00  0.00    -0.254 C  
HETATM   32 CL   UNL     1     -11.120  11.252  67.880  1.00  0.00    -0.300 Cl 
HETATM   33  C   UNL     1     -10.797  11.118  69.634  1.00  0.00    -0.142 C  
ENDBRANCH  27  31
ENDBRANCH  24  25
ENDBRANCH  12  24
TORSDOF 5
ENDMDL
MODEL       99
REMARK 921   NORMALIZED FREE ENERGY PREDICTED BY IDOCK:   -4.45 KCAL/MOL
REMARK 922        TOTAL FREE ENERGY PREDICTED BY IDOCK:   -6.53 KCAL/MOL
REMARK 923 INTER-LIGAND FREE ENERGY PREDICTED BY IDOCK:   -5.73 KCAL/MOL
REMARK 924 INTRA-LIGAND FREE ENERGY PREDICTED BY IDOCK:   -0.80 KCAL/MOL
REMARK 927      BINDING AFFINITY PREDICTED BY RF-SCORE:    0.00 PKD
ROOT
HETATM    1  C   UNL     1      -7.463   4.309  69.280  1.00  0.00    -0.055 C  
HETATM    2  C   UNL     1      -6.132   4.619  68.886  1.00  0.00    -0.030 C  
HETATM    3  C   UNL     1      -6.468   5.285  70.192  1.00  0.00    -0.034 C  
HETATM    4  C   UNL     1      -8.227   4.691  71.077  1.00  0.00    -0.091 C  
HETATM    5  C   UNL     1      -7.004   4.092  71.095  1.00  0.00    -0.032 C  
HETATM    6  C   UNL     1      -9.309   9.460  70.217  1.00  0.00    -0.294 A  
HETATM    7  C   UNL     1      -6.865   5.643  72.217  1.00  0.00    -0.073 C  
HETATM    8  C   UNL     1      -8.427   5.815  68.932  1.00  0.00    -0.104 C  
HETATM    9  C   UNL     1      -6.407   2.794  71.537  1.00  0.00    -0.018 C  
HETATM   10  C   UNL     1      -7.848   6.996  71.543  1.00  0.00    -0.098 C  
HETATM   11  C   UNL     1     -10.024  10.570  69.734  1.00  0.00    -0.090 A  
HETATM   12  C   UNL     1     -10.520  10.566  68.432  1.00  0.00    -0.186 A  
HETATM   13  C   UNL     1      -8.243   6.258  67.466  1.00  0.00    -0.113 C  
HETATM   14  C   UNL     1      -8.160   7.181  69.871  1.00  0.00    -0.125 C  
HETATM   15  C   UNL     1      -9.087   8.326  69.414  1.00  0.00    -0.154 A  
HETATM   16  C   UNL     1      -9.551   8.368  68.071  1.00  0.00    -0.168 A  
HETATM   17  C   UNL     1     -10.274   9.482  67.602  1.00  0.00    -0.273 A  
HETATM   18  C   UNL     1      -9.312   7.269  67.065  1.00  0.00    -0.181 C  
ENDROOT
BRANCH   4  19
HETATM   19  O   UNL     1      -8.565   4.024  72.445  1.00  0.00    -0.100 OA 
HETATM   20  O   UNL     1     -10.022   2.246  72.414  1.00  0.00    -0.128 OA 
HETATM   21  O   UNL     1     -11.568   3.480  73.644  1.00  0.00    -0.157 OA 
HETATM   22  O   UNL     1      -9.349   3.374  74.455  1.00  0.00    -0.091 OA 
HETATM   23  P   UNL     1     -10.150   3.737  73.078  1.00  0.00    -0.165 P  
ENDBRANCH   4  19
BRANCH  12  24
HETATM   24  O   UNL     1     -11.188  11.713  67.964  1.00  0.00    -0.224 OA 
BRANCH  24  25
HETATM   25  C   UNL     1     -10.378  12.810  67.662  1.00  0.00    -0.221 C  
HETATM   26  O   UNL     1      -9.163  12.774  67.510  1.00  0.00    -0.177 OA 
HETATM   27  N   UNL     1     -11.135  13.942  67.381  1.00  0.00    -0.291 N  
BRANCH  27  28
HETATM   28  C   UNL     1     -12.119  14.418  68.361  1.00  0.00    -0.243 C  
HETATM   29 CL   UNL     1     -12.799  15.179  70.883  1.00  0.00    -0.441 Cl 
HETATM   30  C   UNL     1     -11.544  14.590  69.763  1.00  0.00    -0.295 C  
ENDBRANCH  27  28
BRANCH  27  31
HETATM   31  C   UNL     1     -10.582  14.903  66.422  1.00  0.00    -0.307 C  
HETATM   32 CL   UNL     1     -12.628  14.320  64.670  1.00  0.00    -0.350 Cl 
HETATM   33  C   UNL     1     -10.879  14.565  64.950  1.00  0.00    -0.421 C  
ENDBRANCH  27  31
ENDBRANCH  24  25
ENDBRANCH  12  24
TORSDOF 5
ENDMDL
MODEL      100
REMARK 921   NORMALIZED FREE ENERGY PREDICTED BY IDOCK:   -4.44 KCAL/MOL
REMARK 922        TOTAL FREE ENERGY PREDICTED BY IDOCK:   -6.52 KCAL/MOL
REMARK 923 INTER-LIGAND FREE ENERGY PREDICTED BY IDOCK:   -5.17 KCAL/MOL
REMARK 924 INTRA-LIGAND FREE ENERGY PREDICTED BY IDOCK:   -1.36 KCAL/MOL
REMARK 927      BINDING AFFINITY PREDICTED BY RF-SCORE:    0.00 PKD
ROOT
HETATM    1  C   UNL     1      -6.703  15.711  69.545  1.00  0.00    -0.185 C  
HETATM    2  C   UNL     1      -5.678  15.949  68.589  1.00  0.00    -0.101 C  
HETATM    3  C   UNL     1      -6.859  15.280  67.944  1.00  0.00    -0.167 C  
HETATM    4  C   UNL     1      -8.559  15.153  69.096  1.00  0.00    -0.218 C  
HETATM    5  C   UNL     1      -8.087  16.200  68.362  1.00  0.00    -0.171 C  
HETATM    6  C   UNL     1      -7.570  10.318  68.559  1.00  0.00    -0.089 A  
HETATM    7  C   UNL     1      -8.742  14.906  67.104  1.00  0.00    -0.240 C  
HETATM    8  C   UNL     1      -6.621  13.926  69.898  1.00  0.00    -0.028 C  
HETATM    9  C   UNL     1      -8.391  17.651  68.170  1.00  0.00    -0.259 C  
HETATM   10  C   UNL     1      -8.412  13.234  67.694  1.00  0.00    -0.191 C  
HETATM   11  C   UNL     1      -7.317   8.987  68.935  1.00  0.00    -0.074 A  
HETATM   12  C   UNL     1      -6.430   8.715  69.974  1.00  0.00    -0.038 A  
HETATM   13  C   UNL     1      -5.196  13.514  70.320  1.00  0.00    -0.103 C  
HETATM   14  C   UNL     1      -7.087  12.843  68.702  1.00  0.00    -0.103 C  
HETATM   15  C   UNL     1      -6.952  11.396  69.218  1.00  0.00    -0.115 A  
HETATM   16  C   UNL     1      -6.006  11.092  70.234  1.00  0.00    -0.139 A  
HETATM   17  C   UNL     1      -5.768   9.755  70.610  1.00  0.00    -0.066 A  
HETATM   18  C   UNL     1      -5.198  12.134  70.969  1.00  0.00    -0.141 C  
ENDROOT
BRANCH   4  19
HETATM   19  O   UNL     1     -10.010  15.701  68.928  1.00  0.00    -0.196 OA 
HETATM   20  O   UNL     1     -11.090  16.411  70.830  1.00  0.00    -0.296 OA 
HETATM   21  O   UNL     1     -12.658  14.706  70.584  1.00  0.00    -0.323 OA 
HETATM   22  O   UNL     1     -12.219  16.077  68.707  1.00  0.00    -0.136 OA 
HETATM   23  P   UNL     1     -11.408  15.176  69.802  1.00  0.00    -0.333 P  
ENDBRANCH   4  19
BRANCH  12  24
HETATM   24  O   UNL     1      -6.160   7.370  70.293  1.00  0.00    -0.027 OA 
BRANCH  24  25
HETATM   25  C   UNL     1      -6.684   6.914  71.505  1.00  0.00    -0.060 C  
HETATM   26  O   UNL     1      -6.083   6.889  72.572  1.00  0.00    -0.042 OA 
HETATM   27  N   UNL     1      -8.043   6.639  71.402  1.00  0.00    -0.111 N  
BRANCH  27  28
HETATM   28  C   UNL     1      -8.520   5.706  70.375  1.00  0.00    -0.127 C  
HETATM   29 CL   UNL     1     -10.158   5.080  68.296  1.00  0.00    -0.197 Cl 
HETATM   30  C   UNL     1      -9.648   6.270  69.519  1.00  0.00    -0.147 C  
ENDBRANCH  27  28
BRANCH  27  31
HETATM   31  C   UNL     1      -8.863   6.836  72.602  1.00  0.00    -0.122 C  
HETATM   32 CL   UNL     1      -9.886   9.151  71.512  1.00  0.00    -0.368 Cl 
HETATM   33  C   UNL     1      -9.170   8.311  72.919  1.00  0.00    -0.259 C  
ENDBRANCH  27  31
ENDBRANCH  24  25
ENDBRANCH  12  24
TORSDOF 5
ENDMDL
MODEL      101
REMARK 921   NORMALIZED FREE ENERGY PREDICTED BY IDOCK:   -4.43 KCAL/MOL
REMARK 922        TOTAL FREE ENERGY PREDICTED BY IDOCK:   -6.51 KCAL/MOL
REMARK 923 INTER-LIGAND FREE ENERGY PREDICTED BY IDOCK:   -5.74 KCAL/MOL
REMARK 924 INTRA-LIGAND FREE ENERGY PREDICTED BY IDOCK:   -0.77 KCAL/MOL
REMARK 927      BINDING AFFINITY PREDICTED BY RF-SCORE:    0.00 PKD
ROOT
HETATM    1  C   UNL     1      -6.703   4.642  68.418  1.00  0.00    -0.050 C  
HETATM    2  C   UNL     1      -6.986   4.591  69.811  1.00  0.00    -0.049 C  
HETATM    3  C   UNL     1      -8.259   4.606  69.011  1.00  0.00    -0.081 C  
HETATM    4  C   UNL     1      -8.047   4.349  66.981  1.00  0.00    -0.101 C  
HETATM    5  C   UNL     1      -8.065   3.417  67.974  1.00  0.00    -0.083 C  
HETATM    6  C   UNL     1      -9.925   8.945  67.035  1.00  0.00    -0.300 A  
HETATM    7  C   UNL     1      -9.868   4.049  67.791  1.00  0.00    -0.088 C  
HETATM    8  C   UNL     1      -7.055   6.358  67.921  1.00  0.00    -0.085 C  
HETATM    9  C   UNL     1      -7.798   1.954  68.133  1.00  0.00    -0.058 C  
HETATM   10  C   UNL     1      -9.879   5.810  67.404  1.00  0.00    -0.154 C  
HETATM   11  C   UNL     1     -10.014  10.322  66.766  1.00  0.00    -0.261 A  
HETATM   12  C   UNL     1      -8.893  11.134  66.917  1.00  0.00    -0.157 A  
HETATM   13  C   UNL     1      -6.278   7.357  68.804  1.00  0.00    -0.031 C  
HETATM   14  C   UNL     1      -8.649   6.886  67.909  1.00  0.00    -0.122 C  
HETATM   15  C   UNL     1      -8.715   8.356  67.447  1.00  0.00    -0.136 A  
HETATM   16  C   UNL     1      -7.601   9.213  67.650  1.00  0.00    -0.085 A  
HETATM   17  C   UNL     1      -7.699  10.590  67.369  1.00  0.00    -0.102 A  
HETATM   18  C   UNL     1      -6.265   8.745  68.174  1.00  0.00    -0.051 C  
ENDROOT
BRANCH   4  19
HETATM   19  O   UNL     1      -8.572   3.278  65.977  1.00  0.00    -0.111 OA 
HETATM   20  O   UNL     1      -7.364   2.969  64.046  1.00  0.00    -0.062 OA 
HETATM   21  O   UNL     1      -9.165   3.741  62.786  1.00  0.00    -0.097 OA 
HETATM   22  O   UNL     1      -9.584   2.048  64.384  1.00  0.00    -0.135 OA 
HETATM   23  P   UNL     1      -8.885   3.522  64.293  1.00  0.00    -0.113 P  
ENDBRANCH   4  19
BRANCH  12  24
HETATM   24  O   UNL     1      -9.029  12.517  66.689  1.00  0.00    -0.216 OA 
BRANCH  24  25
HETATM   25  C   UNL     1     -10.163  13.118  67.239  1.00  0.00    -0.243 C  
HETATM   26  O   UNL     1     -10.523  13.018  68.406  1.00  0.00    -0.242 OA 
HETATM   27  N   UNL     1     -10.762  13.995  66.343  1.00  0.00    -0.277 N  
BRANCH  27  28
HETATM   28  C   UNL     1     -11.159  13.517  65.013  1.00  0.00    -0.328 C  
HETATM   29 CL   UNL     1     -12.740  12.006  63.395  1.00  0.00    -0.651 Cl 
HETATM   30  C   UNL     1     -12.318  12.527  65.046  1.00  0.00    -0.453 C  
ENDBRANCH  27  28
BRANCH  27  31
HETATM   31  C   UNL     1     -11.453  15.162  66.901  1.00  0.00    -0.214 C  
HETATM   32 CL   UNL     1      -9.359  16.770  66.112  1.00  0.00    -0.303 Cl 
HETATM   33  C   UNL     1     -10.512  16.278  67.388  1.00  0.00    -0.304 C  
ENDBRANCH  27  31
ENDBRANCH  24  25
ENDBRANCH  12  24
TORSDOF 5
ENDMDL
MODEL      102
REMARK 921   NORMALIZED FREE ENERGY PREDICTED BY IDOCK:   -4.40 KCAL/MOL
REMARK 922        TOTAL FREE ENERGY PREDICTED BY IDOCK:   -6.48 KCAL/MOL
REMARK 923 INTER-LIGAND FREE ENERGY PREDICTED BY IDOCK:   -6.81 KCAL/MOL
REMARK 924 INTRA-LIGAND FREE ENERGY PREDICTED BY IDOCK:    0.34 KCAL/MOL
REMARK 927      BINDING AFFINITY PREDICTED BY RF-SCORE:    0.00 PKD
ROOT
HETATM    1  C   UNL     1     -12.041  12.195  68.781  1.00  0.00    -0.166 C  
HETATM    2  C   UNL     1     -11.678  13.024  69.878  1.00  0.00    -0.326 C  
HETATM    3  C   UNL     1     -10.561  12.952  68.875  1.00  0.00    -0.154 C  
HETATM    4  C   UNL     1     -11.024  12.068  67.076  1.00  0.00    -0.274 C  
HETATM    5  C   UNL     1     -11.262  13.340  67.502  1.00  0.00    -0.309 C  
HETATM    6  C   UNL     1      -7.603   8.862  68.710  1.00  0.00    -0.091 A  
HETATM    7  C   UNL     1      -9.375  13.224  67.169  1.00  0.00    -0.240 C  
HETATM    8  C   UNL     1     -11.131  10.638  69.038  1.00  0.00    -0.307 C  
HETATM    9  C   UNL     1     -12.029  14.540  67.047  1.00  0.00    -0.371 C  
HETATM   10  C   UNL     1      -8.755  11.593  67.627  1.00  0.00    -0.156 C  
HETATM   11  C   UNL     1      -7.041   7.626  69.078  1.00  0.00    -0.078 A  
HETATM   12  C   UNL     1      -7.772   6.734  69.858  1.00  0.00    -0.109 A  
HETATM   13  C   UNL     1     -11.413  10.062  70.441  1.00  0.00    -0.389 C  
HETATM   14  C   UNL     1      -9.461  10.638  68.858  1.00  0.00    -0.199 C  
HETATM   15  C   UNL     1      -8.904   9.221  69.107  1.00  0.00    -0.141 A  
HETATM   16  C   UNL     1      -9.608   8.321  69.951  1.00  0.00    -0.171 A  
HETATM   17  C   UNL     1      -9.039   7.082  70.305  1.00  0.00    -0.156 A  
HETATM   18  C   UNL     1     -10.973   8.605  70.529  1.00  0.00    -0.266 C  
ENDROOT
BRANCH   4  19
HETATM   19  O   UNL     1     -11.012  12.572  65.601  1.00  0.00    -0.274 OA 
HETATM   20  O   UNL     1     -12.999  13.349  64.742  1.00  0.00    -0.696 OA 
HETATM   21  O   UNL     1     -13.027  11.599  63.205  1.00  0.00    -0.489 OA 
HETATM   22  O   UNL     1     -11.051  12.886  63.370  1.00  0.00    -0.350 OA 
HETATM   23  P   UNL     1     -12.076  12.058  64.336  1.00  0.00    -0.180 P  
ENDBRANCH   4  19
BRANCH  12  24
HETATM   24  O   UNL     1      -7.161   5.528  70.250  1.00  0.00    -0.063 OA 
BRANCH  24  25
HETATM   25  C   UNL     1      -7.953   4.661  71.008  1.00  0.00    -0.082 C  
HETATM   26  O   UNL     1      -8.789   3.888  70.557  1.00  0.00    -0.073 OA 
HETATM   27  N   UNL     1      -7.564   4.650  72.342  1.00  0.00    -0.083 N  
BRANCH  27  28
HETATM   28  C   UNL     1      -7.506   5.910  73.093  1.00  0.00    -0.095 C  
HETATM   29 CL   UNL     1      -6.143   7.761  74.546  1.00  0.00    -0.088 Cl 
HETATM   30  C   UNL     1      -6.125   6.215  73.662  1.00  0.00    -0.063 C  
ENDBRANCH  27  28
BRANCH  27  31
HETATM   31  C   UNL     1      -7.747   3.400  73.088  1.00  0.00    -0.061 C  
HETATM   32 CL   UNL     1     -10.417   3.997  73.416  1.00  0.00    -0.229 Cl 
HETATM   33  C   UNL     1      -8.874   3.452  74.135  1.00  0.00    -0.087 C  
ENDBRANCH  27  31
ENDBRANCH  24  25
ENDBRANCH  12  24
TORSDOF 5
ENDMDL
MODEL      103
REMARK 921   NORMALIZED FREE ENERGY PREDICTED BY IDOCK:   -4.39 KCAL/MOL
REMARK 922        TOTAL FREE ENERGY PREDICTED BY IDOCK:   -6.46 KCAL/MOL
REMARK 923 INTER-LIGAND FREE ENERGY PREDICTED BY IDOCK:   -5.74 KCAL/MOL
REMARK 924 INTRA-LIGAND FREE ENERGY PREDICTED BY IDOCK:   -0.72 KCAL/MOL
REMARK 927      BINDING AFFINITY PREDICTED BY RF-SCORE:    0.00 PKD
ROOT
HETATM    1  C   UNL     1      -8.486   2.949  68.760  1.00  0.00    -0.097 C  
HETATM    2  C   UNL     1      -7.294   2.914  67.984  1.00  0.00    -0.053 C  
HETATM    3  C   UNL     1      -7.119   3.798  69.187  1.00  0.00    -0.046 C  
HETATM    4  C   UNL     1      -8.619   3.713  70.592  1.00  0.00    -0.071 C  
HETATM    5  C   UNL     1      -7.563   2.874  70.402  1.00  0.00    -0.043 C  
HETATM    6  C   UNL     1      -9.081   8.452  69.183  1.00  0.00    -0.147 A  
HETATM    7  C   UNL     1      -6.844   4.490  71.145  1.00  0.00    -0.035 C  
HETATM    8  C   UNL     1      -9.240   4.568  68.403  1.00  0.00    -0.178 C  
HETATM    9  C   UNL     1      -7.092   1.546  70.903  1.00  0.00    -0.032 C  
HETATM   10  C   UNL     1      -7.737   5.924  70.513  1.00  0.00    -0.100 C  
HETATM   11  C   UNL     1      -9.707   9.618  68.708  1.00  0.00    -0.167 A  
HETATM   12  C   UNL     1     -10.552   9.552  67.603  1.00  0.00    -0.269 A  
HETATM   13  C   UNL     1      -9.418   4.770  66.885  1.00  0.00    -0.165 C  
HETATM   14  C   UNL     1      -8.484   5.955  68.975  1.00  0.00    -0.105 C  
HETATM   15  C   UNL     1      -9.297   7.203  68.572  1.00  0.00    -0.136 A  
HETATM   16  C   UNL     1     -10.116   7.170  67.412  1.00  0.00    -0.260 A  
HETATM   17  C   UNL     1     -10.746   8.343  66.950  1.00  0.00    -0.163 A  
HETATM   18  C   UNL     1     -10.369   5.926  66.597  1.00  0.00    -0.283 C  
ENDROOT
BRANCH   4  19
HETATM   19  O   UNL     1      -8.653   3.316  72.099  1.00  0.00    -0.080 OA 
HETATM   20  O   UNL     1     -10.569   2.309  72.875  1.00  0.00    -0.149 OA 
HETATM   21  O   UNL     1     -10.974   4.134  74.265  1.00  0.00    -0.191 OA 
HETATM   22  O   UNL     1      -8.825   3.150  74.339  1.00  0.00    -0.079 OA 
HETATM   23  P   UNL     1      -9.879   3.747  73.242  1.00  0.00    -0.132 P  
ENDBRANCH   4  19
BRANCH  12  24
HETATM   24  O   UNL     1     -11.123  10.745  67.122  1.00  0.00    -0.291 OA 
BRANCH  24  25
HETATM   25  C   UNL     1     -10.538  11.283  65.973  1.00  0.00    -0.258 C  
HETATM   26  O   UNL     1     -10.271  10.657  64.955  1.00  0.00    -0.317 OA 
HETATM   27  N   UNL     1     -10.440  12.667  66.050  1.00  0.00    -0.263 N  
BRANCH  27  28
HETATM   28  C   UNL     1      -9.748  13.285  67.188  1.00  0.00    -0.236 C  
HETATM   29 CL   UNL     1      -7.553  13.591  68.765  1.00  0.00    -0.103 Cl 
HETATM   30  C   UNL     1      -8.319  12.786  67.373  1.00  0.00    -0.189 C  
ENDBRANCH  27  28
BRANCH  27  31
HETATM   31  C   UNL     1     -10.532  13.421  64.795  1.00  0.00    -0.403 C  
HETATM   32 CL   UNL     1     -13.163  14.019  65.355  1.00  0.00    -0.252 Cl 
HETATM   33  C   UNL     1     -11.942  13.449  64.180  1.00  0.00    -0.450 C  
ENDBRANCH  27  31
ENDBRANCH  24  25
ENDBRANCH  12  24
TORSDOF 5
ENDMDL
MODEL      104
REMARK 921   NORMALIZED FREE ENERGY PREDICTED BY IDOCK:   -4.36 KCAL/MOL
REMARK 922        TOTAL FREE ENERGY PREDICTED BY IDOCK:   -6.42 KCAL/MOL
REMARK 923 INTER-LIGAND FREE ENERGY PREDICTED BY IDOCK:   -5.53 KCAL/MOL
REMARK 924 INTRA-LIGAND FREE ENERGY PREDICTED BY IDOCK:   -0.88 KCAL/MOL
REMARK 927      BINDING AFFINITY PREDICTED BY RF-SCORE:    0.00 PKD
ROOT
HETATM    1  C   UNL     1      -7.205   5.735  67.698  1.00  0.00    -0.076 C  
HETATM    2  C   UNL     1      -7.293   5.800  69.116  1.00  0.00    -0.083 C  
HETATM    3  C   UNL     1      -8.664   5.755  68.500  1.00  0.00    -0.111 C  
HETATM    4  C   UNL     1      -8.732   5.331  66.488  1.00  0.00    -0.115 C  
HETATM    5  C   UNL     1      -8.606   4.483  67.547  1.00  0.00    -0.105 C  
HETATM    6  C   UNL     1     -10.619   9.923  66.424  1.00  0.00    -0.126 A  
HETATM    7  C   UNL     1     -10.422   5.105  67.563  1.00  0.00    -0.148 C  
HETATM    8  C   UNL     1      -7.635   7.407  67.115  1.00  0.00    -0.107 C  
HETATM    9  C   UNL     1      -8.309   3.038  67.786  1.00  0.00    -0.093 C  
HETATM   10  C   UNL     1     -10.500   6.829  67.038  1.00  0.00    -0.369 C  
HETATM   11  C   UNL     1     -10.755  11.274  66.059  1.00  0.00    -0.301 A  
HETATM   12  C   UNL     1      -9.630  12.091  65.987  1.00  0.00    -0.234 A  
HETATM   13  C   UNL     1      -6.752   8.471  67.798  1.00  0.00    -0.066 C  
HETATM   14  C   UNL     1      -9.220   7.937  67.280  1.00  0.00    -0.167 C  
HETATM   15  C   UNL     1      -9.360   9.365  66.712  1.00  0.00    -0.202 A  
HETATM   16  C   UNL     1      -8.235  10.232  66.690  1.00  0.00    -0.125 A  
HETATM   17  C   UNL     1      -8.381  11.581  66.313  1.00  0.00    -0.076 A  
HETATM   18  C   UNL     1      -6.836   9.803  67.060  1.00  0.00    -0.083 C  
ENDROOT
BRANCH   4  19
HETATM   19  O   UNL     1      -9.382   4.183  65.657  1.00  0.00    -0.141 OA 
HETATM   20  O   UNL     1      -8.008   3.009  64.236  1.00  0.00    -0.080 OA 
HETATM   21  O   UNL     1      -9.206   3.808  62.405  1.00  0.00    -0.090 OA 
HETATM   22  O   UNL     1     -10.429   2.840  64.183  1.00  0.00    -0.084 OA 
HETATM   23  P   UNL     1      -9.289   3.985  63.940  1.00  0.00    -0.144 P  
ENDBRANCH   4  19
BRANCH  12  24
HETATM   24  O   UNL     1      -9.807  13.451  65.667  1.00  0.00    -0.248 OA 
BRANCH  24  25
HETATM   25  C   UNL     1     -10.486  14.218  66.617  1.00  0.00    -0.278 C  
HETATM   26  O   UNL     1     -11.686  14.460  66.605  1.00  0.00    -0.371 OA 
HETATM   27  N   UNL     1      -9.665  14.547  67.689  1.00  0.00    -0.213 N  
BRANCH  27  28
HETATM   28  C   UNL     1      -8.392  15.234  67.445  1.00  0.00    -0.181 C  
HETATM   29 CL   UNL     1      -5.688  15.404  67.686  1.00  0.00    -0.134 Cl 
HETATM   30  C   UNL     1      -7.187  14.509  68.036  1.00  0.00    -0.142 C  
ENDBRANCH  27  28
BRANCH  27  31
HETATM   31  C   UNL     1     -10.300  14.697  69.003  1.00  0.00    -0.235 C  
HETATM   32 CL   UNL     1     -10.581  17.400  68.550  1.00  0.00    -0.362 Cl 
HETATM   33  C   UNL     1     -10.091  16.078  69.649  1.00  0.00    -0.244 C  
ENDBRANCH  27  31
ENDBRANCH  24  25
ENDBRANCH  12  24
TORSDOF 5
ENDMDL
MODEL      105
REMARK 921   NORMALIZED FREE ENERGY PREDICTED BY IDOCK:   -4.33 KCAL/MOL
REMARK 922        TOTAL FREE ENERGY PREDICTED BY IDOCK:   -6.38 KCAL/MOL
REMARK 923 INTER-LIGAND FREE ENERGY PREDICTED BY IDOCK:   -5.69 KCAL/MOL
REMARK 924 INTRA-LIGAND FREE ENERGY PREDICTED BY IDOCK:   -0.69 KCAL/MOL
REMARK 927      BINDING AFFINITY PREDICTED BY RF-SCORE:    0.00 PKD
ROOT
HETATM    1  C   UNL     1      -7.959   7.396  63.334  1.00  0.00    -0.078 C  
HETATM    2  C   UNL     1      -6.917   7.996  62.576  1.00  0.00    -0.086 C  
HETATM    3  C   UNL     1      -6.458   7.717  63.980  1.00  0.00    -0.053 C  
HETATM    4  C   UNL     1      -7.717   6.559  65.122  1.00  0.00    -0.097 C  
HETATM    5  C   UNL     1      -6.801   6.179  64.188  1.00  0.00    -0.042 C  
HETATM    6  C   UNL     1      -7.882  10.777  67.736  1.00  0.00    -0.109 A  
HETATM    7  C   UNL     1      -5.803   6.756  65.722  1.00  0.00    -0.034 C  
HETATM    8  C   UNL     1      -8.581   8.719  64.421  1.00  0.00    -0.110 C  
HETATM    9  C   UNL     1      -6.403   4.933  63.462  1.00  0.00    -0.026 C  
HETATM   10  C   UNL     1      -6.625   8.150  66.518  1.00  0.00    -0.055 C  
HETATM   11  C   UNL     1      -8.446  11.887  68.390  1.00  0.00    -0.155 A  
HETATM   12  C   UNL     1      -9.458  12.617  67.773  1.00  0.00    -0.198 A  
HETATM   13  C   UNL     1      -8.975   9.965  63.601  1.00  0.00    -0.278 C  
HETATM   14  C   UNL     1      -7.599   9.270  65.668  1.00  0.00    -0.094 C  
HETATM   15  C   UNL     1      -8.326  10.373  66.464  1.00  0.00    -0.130 A  
HETATM   16  C   UNL     1      -9.317  11.168  65.829  1.00  0.00    -0.238 A  
HETATM   17  C   UNL     1      -9.882  12.272  66.497  1.00  0.00    -0.240 A  
HETATM   18  C   UNL     1      -9.830  10.915  64.432  1.00  0.00    -0.365 C  
ENDROOT
BRANCH   4  19
HETATM   19  O   UNL     1      -7.554   5.180  65.832  1.00  0.00    -0.081 OA 
HETATM   20  O   UNL     1      -9.326   3.720  65.706  1.00  0.00    -0.149 OA 
HETATM   21  O   UNL     1      -9.621   3.868  68.012  1.00  0.00    -0.174 OA 
HETATM   22  O   UNL     1      -7.447   3.400  67.208  1.00  0.00    -0.065 OA 
HETATM   23  P   UNL     1      -8.645   4.487  66.982  1.00  0.00    -0.105 P  
ENDBRANCH   4  19
BRANCH  12  24
HETATM   24  O   UNL     1      -9.966  13.752  68.433  1.00  0.00    -0.224 OA 
BRANCH  24  25
HETATM   25  C   UNL     1     -11.340  13.749  68.684  1.00  0.00    -0.287 C  
HETATM   26  O   UNL     1     -12.049  12.751  68.734  1.00  0.00    -0.276 OA 
HETATM   27  N   UNL     1     -11.797  15.012  69.043  1.00  0.00    -0.310 N  
BRANCH  27  28
HETATM   28  C   UNL     1     -11.548  16.153  68.155  1.00  0.00    -0.133 C  
HETATM   29 CL   UNL     1     -10.387  18.556  67.627  1.00  0.00    -0.412 Cl 
HETATM   30  C   UNL     1     -10.643  17.215  68.771  1.00  0.00    -0.336 C  
ENDBRANCH  27  28
BRANCH  27  31
HETATM   31  C   UNL     1     -12.933  15.080  69.968  1.00  0.00     0.013 C  
HETATM   32 CL   UNL     1     -11.191  15.497  72.063  1.00  0.00    -0.426 Cl 
HETATM   33  C   UNL     1     -12.605  14.625  71.401  1.00  0.00    -0.335 C  
ENDBRANCH  27  31
ENDBRANCH  24  25
ENDBRANCH  12  24
TORSDOF 5
ENDMDL
MODEL      106
REMARK 921   NORMALIZED FREE ENERGY PREDICTED BY IDOCK:   -4.33 KCAL/MOL
REMARK 922        TOTAL FREE ENERGY PREDICTED BY IDOCK:   -6.38 KCAL/MOL
REMARK 923 INTER-LIGAND FREE ENERGY PREDICTED BY IDOCK:   -5.61 KCAL/MOL
REMARK 924 INTRA-LIGAND FREE ENERGY PREDICTED BY IDOCK:   -0.77 KCAL/MOL
REMARK 927      BINDING AFFINITY PREDICTED BY RF-SCORE:    0.00 PKD
ROOT
HETATM    1  C   UNL     1      -6.873   7.303  71.705  1.00  0.00    -0.058 C  
HETATM    2  C   UNL     1      -7.137   7.779  73.019  1.00  0.00    -0.097 C  
HETATM    3  C   UNL     1      -8.419   7.584  72.258  1.00  0.00    -0.138 C  
HETATM    4  C   UNL     1      -8.255   6.594  70.462  1.00  0.00    -0.118 C  
HETATM    5  C   UNL     1      -8.315   6.089  71.726  1.00  0.00    -0.119 C  
HETATM    6  C   UNL     1      -9.845  11.004  68.828  1.00  0.00    -0.206 A  
HETATM    7  C   UNL     1     -10.078   6.724  71.312  1.00  0.00    -0.203 C  
HETATM    8  C   UNL     1      -7.126   8.740  70.615  1.00  0.00    -0.063 C  
HETATM    9  C   UNL     1      -8.136   4.770  72.408  1.00  0.00    -0.107 C  
HETATM   10  C   UNL     1      -9.987   8.222  70.311  1.00  0.00    -0.188 C  
HETATM   11  C   UNL     1      -9.854  12.193  68.077  1.00  0.00    -0.202 A  
HETATM   12  C   UNL     1      -8.682  12.932  67.931  1.00  0.00    -0.186 A  
HETATM   13  C   UNL     1      -6.275   9.939  71.081  1.00  0.00     0.016 C  
HETATM   14  C   UNL     1      -8.685   9.327  70.401  1.00  0.00    -0.263 C  
HETATM   15  C   UNL     1      -8.668  10.530  69.435  1.00  0.00    -0.093 A  
HETATM   16  C   UNL     1      -7.500  11.330  69.321  1.00  0.00    -0.040 A  
HETATM   17  C   UNL     1      -7.517  12.514  68.558  1.00  0.00    -0.122 A  
HETATM   18  C   UNL     1      -6.187  11.000  69.989  1.00  0.00    -0.139 C  
ENDROOT
BRANCH   4  19
HETATM   19  O   UNL     1      -8.862   5.267  69.912  1.00  0.00    -0.109 OA 
HETATM   20  O   UNL     1      -7.460   3.888  68.720  1.00  0.00    -0.054 OA 
HETATM   21  O   UNL     1      -8.744   4.226  66.806  1.00  0.00    -0.111 OA 
HETATM   22  O   UNL     1      -9.869   3.594  68.788  1.00  0.00    -0.065 OA 
HETATM   23  P   UNL     1      -8.800   4.717  68.273  1.00  0.00    -0.112 P  
ENDBRANCH   4  19
BRANCH  12  24
HETATM   24  O   UNL     1      -8.736  14.142  67.214  1.00  0.00    -0.196 OA 
BRANCH  24  25
HETATM   25  C   UNL     1     -10.005  14.710  67.069  1.00  0.00    -0.246 C  
HETATM   26  O   UNL     1     -10.842  14.372  66.242  1.00  0.00    -0.304 OA 
HETATM   27  N   UNL     1     -10.283  15.606  68.095  1.00  0.00    -0.226 N  
BRANCH  27  28
HETATM   28  C   UNL     1      -9.364  16.721  68.355  1.00  0.00    -0.231 C  
HETATM   29 CL   UNL     1      -8.855  19.379  68.624  1.00  0.00    -0.417 Cl 
HETATM   30  C   UNL     1     -10.035  18.088  68.288  1.00  0.00    -0.371 C  
ENDBRANCH  27  28
BRANCH  27  31
HETATM   31  C   UNL     1     -11.683  15.742  68.510  1.00  0.00    -0.319 C  
HETATM   32 CL   UNL     1     -10.994  14.970  71.064  1.00  0.00    -0.218 Cl 
HETATM   33  C   UNL     1     -12.092  14.808  69.662  1.00  0.00    -0.304 C  
ENDBRANCH  27  31
ENDBRANCH  24  25
ENDBRANCH  12  24
TORSDOF 5
ENDMDL
MODEL      107
REMARK 921   NORMALIZED FREE ENERGY PREDICTED BY IDOCK:   -4.31 KCAL/MOL
REMARK 922        TOTAL FREE ENERGY PREDICTED BY IDOCK:   -6.35 KCAL/MOL
REMARK 923 INTER-LIGAND FREE ENERGY PREDICTED BY IDOCK:   -6.03 KCAL/MOL
REMARK 924 INTRA-LIGAND FREE ENERGY PREDICTED BY IDOCK:   -0.32 KCAL/MOL
REMARK 927      BINDING AFFINITY PREDICTED BY RF-SCORE:    0.00 PKD
ROOT
HETATM    1  C   UNL     1     -11.243  14.218  69.200  1.00  0.00    -0.302 C  
HETATM    2  C   UNL     1     -10.084  14.477  69.983  1.00  0.00     0.457 C  
HETATM    3  C   UNL     1      -9.716  14.281  68.539  1.00  0.00    -0.225 C  
HETATM    4  C   UNL     1     -11.286  14.221  67.212  1.00  0.00    -0.334 C  
HETATM    5  C   UNL     1     -10.664  15.298  67.768  1.00  0.00    -0.286 C  
HETATM    6  C   UNL     1      -9.528   9.617  66.612  1.00  0.00    -0.221 A  
HETATM    7  C   UNL     1      -9.440  14.568  66.483  1.00  0.00    -0.310 C  
HETATM    8  C   UNL     1     -11.194  12.430  68.852  1.00  0.00    -0.330 C  
HETATM    9  C   UNL     1     -10.865  16.777  67.855  1.00  0.00    -0.311 C  
HETATM   10  C   UNL     1      -9.557  12.769  66.454  1.00  0.00    -0.254 C  
HETATM   11  C   UNL     1      -9.538   8.212  66.558  1.00  0.00    -0.303 A  
HETATM   12  C   UNL     1     -10.178   7.482  67.557  1.00  0.00    -0.223 A  
HETATM   13  C   UNL     1     -11.067  11.619  70.158  1.00  0.00     0.233 C  
HETATM   14  C   UNL     1     -10.010  11.841  67.817  1.00  0.00    -0.198 C  
HETATM   15  C   UNL     1     -10.163  10.314  67.655  1.00  0.00    -0.247 A  
HETATM   16  C   UNL     1     -10.758   9.548  68.693  1.00  0.00    -0.218 A  
HETATM   17  C   UNL     1     -10.771   8.141  68.624  1.00  0.00    -0.065 A  
HETATM   18  C   UNL     1     -11.399  10.150  69.920  1.00  0.00    -0.335 C  
ENDROOT
BRANCH   4  19
HETATM   19  O   UNL     1     -11.684  15.096  65.983  1.00  0.00    -0.177 OA 
HETATM   20  O   UNL     1     -13.713  14.654  64.995  1.00  0.00     0.382 OA 
HETATM   21  O   UNL     1     -12.626  13.991  63.044  1.00  0.00    -0.643 OA 
HETATM   22  O   UNL     1     -12.025  16.076  63.985  1.00  0.00    -0.796 OA 
HETATM   23  P   UNL     1     -12.181  14.513  64.432  1.00  0.00    -0.210 P  
ENDBRANCH   4  19
BRANCH  12  24
HETATM   24  O   UNL     1     -10.126   6.076  67.500  1.00  0.00    -0.132 OA 
BRANCH  24  25
HETATM   25  C   UNL     1      -8.925   5.527  67.045  1.00  0.00    -0.113 C  
HETATM   26  O   UNL     1      -8.702   5.164  65.897  1.00  0.00    -0.125 OA 
HETATM   27  N   UNL     1      -7.934   5.593  68.017  1.00  0.00    -0.097 N  
BRANCH  27  28
HETATM   28  C   UNL     1      -8.175   5.006  69.341  1.00  0.00    -0.082 C  
HETATM   29 CL   UNL     1      -9.637   3.461  71.035  1.00  0.00    -0.235 Cl 
HETATM   30  C   UNL     1      -9.427   4.138  69.401  1.00  0.00    -0.190 C  
ENDBRANCH  27  28
BRANCH  27  31
HETATM   31  C   UNL     1      -6.548   5.738  67.558  1.00  0.00    -0.056 C  
HETATM   32 CL   UNL     1      -6.477   8.286  68.604  1.00  0.00    -0.053 Cl 
HETATM   33  C   UNL     1      -6.141   7.186  67.235  1.00  0.00    -0.037 C  
ENDBRANCH  27  31
ENDBRANCH  24  25
ENDBRANCH  12  24
TORSDOF 5
ENDMDL
MODEL      108
REMARK 921   NORMALIZED FREE ENERGY PREDICTED BY IDOCK:   -4.30 KCAL/MOL
REMARK 922        TOTAL FREE ENERGY PREDICTED BY IDOCK:   -6.34 KCAL/MOL
REMARK 923 INTER-LIGAND FREE ENERGY PREDICTED BY IDOCK:   -6.03 KCAL/MOL
REMARK 924 INTRA-LIGAND FREE ENERGY PREDICTED BY IDOCK:   -0.31 KCAL/MOL
REMARK 927      BINDING AFFINITY PREDICTED BY RF-SCORE:    0.00 PKD
ROOT
HETATM    1  C   UNL     1     -10.616   6.591  69.179  1.00  0.00    -0.286 C  
HETATM    2  C   UNL     1     -11.027   6.262  67.858  1.00  0.00    -0.421 C  
HETATM    3  C   UNL     1      -9.534   6.422  67.926  1.00  0.00    -0.115 C  
HETATM    4  C   UNL     1      -8.731   6.575  69.813  1.00  0.00    -0.143 C  
HETATM    5  C   UNL     1      -9.107   5.464  69.121  1.00  0.00    -0.131 C  
HETATM    6  C   UNL     1      -7.511  11.048  68.037  1.00  0.00    -0.090 A  
HETATM    7  C   UNL     1      -7.496   6.100  68.293  1.00  0.00    -0.087 C  
HETATM    8  C   UNL     1     -10.221   8.369  69.128  1.00  0.00    -0.217 C  
HETATM    9  C   UNL     1      -9.289   4.002  69.375  1.00  0.00    -0.243 C  
HETATM   10  C   UNL     1      -7.454   7.903  68.304  1.00  0.00    -0.104 C  
HETATM   11  C   UNL     1      -7.424  12.450  67.978  1.00  0.00    -0.114 A  
HETATM   12  C   UNL     1      -8.547  13.228  68.245  1.00  0.00    -0.169 A  
HETATM   13  C   UNL     1     -11.407   9.180  68.569  1.00  0.00     0.439 C  
HETATM   14  C   UNL     1      -8.865   8.870  68.273  1.00  0.00    -0.134 C  
HETATM   15  C   UNL     1      -8.714  10.402  68.374  1.00  0.00    -0.129 A  
HETATM   16  C   UNL     1      -9.861  11.214  68.585  1.00  0.00    -0.207 A  
HETATM   17  C   UNL     1      -9.760  12.618  68.532  1.00  0.00    -0.131 A  
HETATM   18  C   UNL     1     -11.238  10.666  68.867  1.00  0.00    -0.333 C  
ENDROOT
BRANCH   4  19
HETATM   19  O   UNL     1      -7.700   5.719  70.611  1.00  0.00    -0.088 OA 
HETATM   20  O   UNL     1      -8.406   4.818  72.606  1.00  0.00    -0.109 OA 
HETATM   21  O   UNL     1      -6.861   6.131  73.754  1.00  0.00    -0.078 OA 
HETATM   22  O   UNL     1      -6.079   4.861  71.918  1.00  0.00    -0.025 OA 
HETATM   23  P   UNL     1      -7.258   5.936  72.270  1.00  0.00    -0.092 P  
ENDBRANCH   4  19
BRANCH  12  24
HETATM   24  O   UNL     1      -8.439  14.627  68.128  1.00  0.00    -0.144 OA 
BRANCH  24  25
HETATM   25  C   UNL     1      -9.430  15.372  68.773  1.00  0.00    -0.211 C  
HETATM   26  O   UNL     1      -9.561  15.476  69.986  1.00  0.00    -0.228 OA 
HETATM   27  N   UNL     1     -10.164  16.133  67.871  1.00  0.00    -0.255 N  
BRANCH  27  28
HETATM   28  C   UNL     1     -10.822  15.478  66.735  1.00  0.00    -0.291 C  
HETATM   29 CL   UNL     1     -12.751  13.861  65.703  1.00  0.00    -0.560 Cl 
HETATM   30  C   UNL     1     -12.008  14.608  67.139  1.00  0.00    -0.283 C  
ENDBRANCH  27  28
BRANCH  27  31
HETATM   31  C   UNL     1     -10.702  17.411  68.348  1.00  0.00    -0.301 C  
HETATM   32 CL   UNL     1     -10.482  18.445  65.804  1.00  0.00    -0.365 Cl 
HETATM   33  C   UNL     1     -10.207  18.636  67.560  1.00  0.00    -0.386 C  
ENDBRANCH  27  31
ENDBRANCH  24  25
ENDBRANCH  12  24
TORSDOF 5
ENDMDL
MODEL      109
REMARK 921   NORMALIZED FREE ENERGY PREDICTED BY IDOCK:   -4.30 KCAL/MOL
REMARK 922        TOTAL FREE ENERGY PREDICTED BY IDOCK:   -6.34 KCAL/MOL
REMARK 923 INTER-LIGAND FREE ENERGY PREDICTED BY IDOCK:   -6.15 KCAL/MOL
REMARK 924 INTRA-LIGAND FREE ENERGY PREDICTED BY IDOCK:   -0.19 KCAL/MOL
REMARK 927      BINDING AFFINITY PREDICTED BY RF-SCORE:    0.00 PKD
ROOT
HETATM    1  C   UNL     1      -8.081   6.522  71.184  1.00  0.00    -0.116 C  
HETATM    2  C   UNL     1      -8.681   6.918  72.411  1.00  0.00    -0.134 C  
HETATM    3  C   UNL     1      -9.730   6.513  71.413  1.00  0.00    -0.184 C  
HETATM    4  C   UNL     1      -9.040   5.604  69.702  1.00  0.00    -0.130 C  
HETATM    5  C   UNL     1      -9.259   5.071  70.936  1.00  0.00    -0.192 C  
HETATM    6  C   UNL     1     -11.029   9.696  67.713  1.00  0.00    -0.203 A  
HETATM    7  C   UNL     1     -10.989   5.393  70.169  1.00  0.00    -0.077 C  
HETATM    8  C   UNL     1      -8.363   7.913  70.043  1.00  0.00    -0.121 C  
HETATM    9  C   UNL     1      -8.989   3.791  71.660  1.00  0.00    -0.155 C  
HETATM   10  C   UNL     1     -10.968   6.903  69.182  1.00  0.00    -0.240 C  
HETATM   11  C   UNL     1     -11.099  10.879  66.957  1.00  0.00    -0.271 A  
HETATM   12  C   UNL     1     -10.072  11.816  67.036  1.00  0.00    -0.209 A  
HETATM   13  C   UNL     1      -7.849   9.235  70.650  1.00  0.00    -0.181 C  
HETATM   14  C   UNL     1      -9.927   8.219  69.513  1.00  0.00    -0.187 C  
HETATM   15  C   UNL     1      -9.931   9.425  68.551  1.00  0.00    -0.190 A  
HETATM   16  C   UNL     1      -8.925  10.422  68.660  1.00  0.00    -0.146 A  
HETATM   17  C   UNL     1      -9.000  11.599  67.890  1.00  0.00    -0.170 A  
HETATM   18  C   UNL     1      -7.734  10.316  69.582  1.00  0.00    -0.166 C  
ENDROOT
BRANCH   4  19
HETATM   19  O   UNL     1      -9.279   4.202  69.063  1.00  0.00    -0.124 OA 
HETATM   20  O   UNL     1      -7.419   2.944  68.568  1.00  0.00    -0.049 OA 
HETATM   21  O   UNL     1      -7.924   3.078  66.297  1.00  0.00    -0.080 OA 
HETATM   22  O   UNL     1      -9.644   2.395  67.769  1.00  0.00    -0.162 OA 
HETATM   23  P   UNL     1      -8.563   3.609  67.603  1.00  0.00    -0.115 P  
ENDBRANCH   4  19
BRANCH  12  24
HETATM   24  O   UNL     1     -10.196  13.012  66.304  1.00  0.00    -0.274 OA 
BRANCH  24  25
HETATM   25  C   UNL     1      -9.455  14.098  66.778  1.00  0.00    -0.279 C  
HETATM   26  O   UNL     1      -8.238  14.121  66.911  1.00  0.00    -0.127 OA 
HETATM   27  N   UNL     1     -10.248  15.230  66.928  1.00  0.00    -0.263 N  
BRANCH  27  28
HETATM   28  C   UNL     1     -11.455  15.166  67.761  1.00  0.00    -0.318 C  
HETATM   29 CL   UNL     1     -12.728  14.499  70.070  1.00  0.00    -0.274 Cl 
HETATM   30  C   UNL     1     -11.218  14.527  69.125  1.00  0.00    -0.269 C  
ENDBRANCH  27  28
BRANCH  27  31
HETATM   31  C   UNL     1      -9.607  16.534  66.725  1.00  0.00    -0.254 C  
HETATM   32 CL   UNL     1      -8.328  16.275  69.152  1.00  0.00    -0.237 Cl 
HETATM   33  C   UNL     1      -9.283  17.286  68.028  1.00  0.00    -0.256 C  
ENDBRANCH  27  31
ENDBRANCH  24  25
ENDBRANCH  12  24
TORSDOF 5
ENDMDL
MODEL      110
REMARK 921   NORMALIZED FREE ENERGY PREDICTED BY IDOCK:   -4.27 KCAL/MOL
REMARK 922        TOTAL FREE ENERGY PREDICTED BY IDOCK:   -6.30 KCAL/MOL
REMARK 923 INTER-LIGAND FREE ENERGY PREDICTED BY IDOCK:   -5.50 KCAL/MOL
REMARK 924 INTRA-LIGAND FREE ENERGY PREDICTED BY IDOCK:   -0.81 KCAL/MOL
REMARK 927      BINDING AFFINITY PREDICTED BY RF-SCORE:    0.00 PKD
ROOT
HETATM    1  C   UNL     1      -9.863   6.020  68.009  1.00  0.00    -0.137 C  
HETATM    2  C   UNL     1      -9.004   5.404  67.057  1.00  0.00    -0.112 C  
HETATM    3  C   UNL     1      -8.259   5.706  68.327  1.00  0.00    -0.103 C  
HETATM    4  C   UNL     1      -9.411   6.296  69.926  1.00  0.00    -0.150 C  
HETATM    5  C   UNL     1      -9.158   5.042  69.457  1.00  0.00    -0.150 C  
HETATM    6  C   UNL     1      -6.732  10.425  69.276  1.00  0.00    -0.067 A  
HETATM    7  C   UNL     1      -7.539   5.644  70.294  1.00  0.00    -0.081 C  
HETATM    8  C   UNL     1      -9.397   7.781  68.003  1.00  0.00    -0.146 C  
HETATM    9  C   UNL     1      -9.646   3.647  69.690  1.00  0.00    -0.211 C  
HETATM   10  C   UNL     1      -7.308   7.411  70.015  1.00  0.00    -0.082 C  
HETATM   11  C   UNL     1      -6.467  11.791  69.071  1.00  0.00    -0.084 A  
HETATM   12  C   UNL     1      -7.187  12.504  68.116  1.00  0.00    -0.106 A  
HETATM   13  C   UNL     1      -9.449   8.359  66.574  1.00  0.00    -0.284 C  
HETATM   14  C   UNL     1      -7.905   8.224  68.634  1.00  0.00    -0.120 C  
HETATM   15  C   UNL     1      -7.726   9.754  68.540  1.00  0.00    -0.081 A  
HETATM   16  C   UNL     1      -8.406  10.486  67.531  1.00  0.00    -0.118 A  
HETATM   17  C   UNL     1      -8.139  11.856  67.341  1.00  0.00    -0.165 A  
HETATM   18  C   UNL     1      -9.432   9.884  66.603  1.00  0.00    -0.220 C  
ENDROOT
BRANCH   4  19
HETATM   19  O   UNL     1      -9.647   5.707  71.351  1.00  0.00    -0.150 OA 
HETATM   20  O   UNL     1     -11.710   6.061  72.303  1.00  0.00    -0.310 OA 
HETATM   21  O   UNL     1     -10.725   7.354  73.972  1.00  0.00    -0.254 OA 
HETATM   22  O   UNL     1      -9.801   5.219  73.544  1.00  0.00    -0.154 OA 
HETATM   23  P   UNL     1     -10.216   6.576  72.734  1.00  0.00    -0.207 P  
ENDBRANCH   4  19
BRANCH  12  24
HETATM   24  O   UNL     1      -6.862  13.856  67.901  1.00  0.00    -0.124 OA 
BRANCH  24  25
HETATM   25  C   UNL     1      -7.273  14.749  68.894  1.00  0.00    -0.126 C  
HETATM   26  O   UNL     1      -6.866  14.760  70.049  1.00  0.00    -0.178 OA 
HETATM   27  N   UNL     1      -8.089  15.748  68.376  1.00  0.00    -0.138 N  
BRANCH  27  28
HETATM   28  C   UNL     1      -9.298  15.384  67.628  1.00  0.00    -0.203 C  
HETATM   29 CL   UNL     1     -11.729  14.174  67.466  1.00  0.00    -0.394 Cl 
HETATM   30  C   UNL     1     -10.291  14.562  68.444  1.00  0.00    -0.241 C  
ENDBRANCH  27  28
BRANCH  27  31
HETATM   31  C   UNL     1      -8.036  17.064  69.021  1.00  0.00    -0.153 C  
HETATM   32 CL   UNL     1      -6.935  18.133  66.733  1.00  0.00    -0.214 Cl 
HETATM   33  C   UNL     1      -6.899  17.969  68.513  1.00  0.00    -0.237 C  
ENDBRANCH  27  31
ENDBRANCH  24  25
ENDBRANCH  12  24
TORSDOF 5
ENDMDL
MODEL      111
REMARK 921   NORMALIZED FREE ENERGY PREDICTED BY IDOCK:   -4.25 KCAL/MOL
REMARK 922        TOTAL FREE ENERGY PREDICTED BY IDOCK:   -6.28 KCAL/MOL
REMARK 923 INTER-LIGAND FREE ENERGY PREDICTED BY IDOCK:   -5.35 KCAL/MOL
REMARK 924 INTRA-LIGAND FREE ENERGY PREDICTED BY IDOCK:   -0.93 KCAL/MOL
REMARK 927      BINDING AFFINITY PREDICTED BY RF-SCORE:    0.00 PKD
ROOT
HETATM    1  C   UNL     1      -8.910  11.799  65.270  1.00  0.00     0.324 C  
HETATM    2  C   UNL     1      -9.582  11.267  64.135  1.00  0.00    -0.255 C  
HETATM    3  C   UNL     1     -10.524  11.392  65.301  1.00  0.00    -0.340 C  
HETATM    4  C   UNL     1      -9.814  12.442  66.921  1.00  0.00    -0.215 C  
HETATM    5  C   UNL     1     -10.355  12.905  65.760  1.00  0.00    -0.297 C  
HETATM    6  C   UNL     1     -10.376   7.976  69.018  1.00  0.00    -0.228 A  
HETATM    7  C   UNL     1     -11.803  12.156  66.773  1.00  0.00    -0.304 C  
HETATM    8  C   UNL     1      -8.648  10.379  66.380  1.00  0.00    -0.137 C  
HETATM    9  C   UNL     1     -10.532  14.213  65.058  1.00  0.00    -0.447 C  
HETATM   10  C   UNL     1     -11.249  10.698  67.678  1.00  0.00    -0.361 C  
HETATM   11  C   UNL     1     -10.026   6.812  69.725  1.00  0.00    -0.189 A  
HETATM   12  C   UNL     1      -8.825   6.164  69.447  1.00  0.00    -0.126 A  
HETATM   13  C   UNL     1      -7.927   9.231  65.645  1.00  0.00    -0.103 C  
HETATM   14  C   UNL     1      -9.981   9.687  67.134  1.00  0.00    -0.249 C  
HETATM   15  C   UNL     1      -9.530   8.517  68.033  1.00  0.00    -0.154 A  
HETATM   16  C   UNL     1      -8.338   7.807  67.725  1.00  0.00    -0.125 A  
HETATM   17  C   UNL     1      -7.993   6.647  68.446  1.00  0.00    -0.111 A  
HETATM   18  C   UNL     1      -7.376   8.211  66.635  1.00  0.00    -0.082 C  
ENDROOT
BRANCH   4  19
HETATM   19  O   UNL     1     -10.288  13.737  67.649  1.00  0.00    -0.235 OA 
HETATM   20  O   UNL     1      -8.932  15.587  67.487  1.00  0.00    -0.183 OA 
HETATM   21  O   UNL     1      -8.540  15.509  69.782  1.00  0.00    -0.212 OA 
HETATM   22  O   UNL     1     -10.786  15.432  69.046  1.00  0.00    -0.224 OA 
HETATM   23  P   UNL     1      -9.365  14.672  68.775  1.00  0.00    -0.116 P  
ENDBRANCH   4  19
BRANCH  12  24
HETATM   24  O   UNL     1      -8.528   4.974  70.137  1.00  0.00    -0.089 OA 
BRANCH  24  25
HETATM   25  C   UNL     1      -7.234   4.874  70.654  1.00  0.00    -0.053 C  
HETATM   26  O   UNL     1      -6.308   4.265  70.133  1.00  0.00    -0.025 OA 
HETATM   27  N   UNL     1      -7.062   5.696  71.762  1.00  0.00    -0.075 N  
BRANCH  27  28
HETATM   28  C   UNL     1      -7.969   5.569  72.908  1.00  0.00    -0.101 C  
HETATM   29 CL   UNL     1      -9.921   6.554  74.527  1.00  0.00    -0.362 Cl 
HETATM   30  C   UNL     1      -8.847   6.797  73.126  1.00  0.00    -0.123 C  
ENDBRANCH  27  28
BRANCH  27  31
HETATM   31  C   UNL     1      -5.724   6.252  71.988  1.00  0.00    -0.036 C  
HETATM   32 CL   UNL     1      -6.760   8.799  71.810  1.00  0.00    -0.087 Cl 
HETATM   33  C   UNL     1      -5.495   7.627  71.336  1.00  0.00    -0.035 C  
ENDBRANCH  27  31
ENDBRANCH  24  25
ENDBRANCH  12  24
TORSDOF 5
ENDMDL
MODEL      112
REMARK 921   NORMALIZED FREE ENERGY PREDICTED BY IDOCK:   -4.21 KCAL/MOL
REMARK 922        TOTAL FREE ENERGY PREDICTED BY IDOCK:   -6.23 KCAL/MOL
REMARK 923 INTER-LIGAND FREE ENERGY PREDICTED BY IDOCK:   -5.54 KCAL/MOL
REMARK 924 INTRA-LIGAND FREE ENERGY PREDICTED BY IDOCK:   -0.69 KCAL/MOL
REMARK 927      BINDING AFFINITY PREDICTED BY RF-SCORE:    0.00 PKD
ROOT
HETATM    1  C   UNL     1      -6.201  16.576  68.520  1.00  0.00    -0.130 C  
HETATM    2  C   UNL     1      -5.125  16.158  67.690  1.00  0.00    -0.147 C  
HETATM    3  C   UNL     1      -6.324  16.526  66.860  1.00  0.00    -0.166 C  
HETATM    4  C   UNL     1      -7.857  17.461  67.863  1.00  0.00    -0.201 C  
HETATM    5  C   UNL     1      -6.700  17.984  67.370  1.00  0.00    -0.194 C  
HETATM    6  C   UNL     1     -10.194  13.304  66.479  1.00  0.00    -0.283 A  
HETATM    7  C   UNL     1      -7.812  17.603  65.853  1.00  0.00    -0.109 C  
HETATM    8  C   UNL     1      -7.367  15.177  68.533  1.00  0.00    -0.119 C  
HETATM    9  C   UNL     1      -5.943  19.272  67.438  1.00  0.00    -0.193 C  
HETATM   10  C   UNL     1      -8.762  16.096  66.133  1.00  0.00    -0.358 C  
HETATM   11  C   UNL     1     -10.941  12.120  66.611  1.00  0.00    -0.325 A  
HETATM   12  C   UNL     1     -10.642  11.220  67.631  1.00  0.00    -0.213 A  
HETATM   13  C   UNL     1      -6.658  13.874  68.954  1.00  0.00    -0.103 C  
HETATM   14  C   UNL     1      -8.213  14.817  67.127  1.00  0.00    -0.239 C  
HETATM   15  C   UNL     1      -9.147  13.612  67.367  1.00  0.00    -0.222 A  
HETATM   16  C   UNL     1      -8.822  12.652  68.362  1.00  0.00    -0.119 A  
HETATM   17  C   UNL     1      -9.583  11.474  68.491  1.00  0.00    -0.180 A  
HETATM   18  C   UNL     1      -7.672  12.798  69.328  1.00  0.00     0.462 C  
ENDROOT
BRANCH   4  19
HETATM   19  O   UNL     1      -8.541  18.854  67.714  1.00  0.00    -0.283 OA 
HETATM   20  O   UNL     1     -10.171  19.391  69.245  1.00  0.00    -0.316 OA 
HETATM   21  O   UNL     1     -11.766  19.421  67.547  1.00  0.00     0.547 OA 
HETATM   22  O   UNL     1      -9.782  20.667  67.216  1.00  0.00    -0.465 OA 
HETATM   23  P   UNL     1     -10.243  19.153  67.626  1.00  0.00    -0.453 P  
ENDBRANCH   4  19
BRANCH  12  24
HETATM   24  O   UNL     1     -11.377  10.021  67.705  1.00  0.00    -0.220 OA 
BRANCH  24  25
HETATM   25  C   UNL     1     -10.659   8.849  67.452  1.00  0.00    -0.235 C  
HETATM   26  O   UNL     1     -10.229   8.504  66.359  1.00  0.00    -0.273 OA 
HETATM   27  N   UNL     1     -10.336   8.185  68.630  1.00  0.00    -0.208 N  
BRANCH  27  28
HETATM   28  C   UNL     1     -11.400   7.817  69.572  1.00  0.00     0.230 C  
HETATM   29 CL   UNL     1     -12.293   6.450  71.747  1.00  0.00    -0.340 Cl 
HETATM   30  C   UNL     1     -10.947   6.833  70.645  1.00  0.00    -0.267 C  
ENDBRANCH  27  28
BRANCH  27  31
HETATM   31  C   UNL     1      -9.089   7.414  68.649  1.00  0.00    -0.134 C  
HETATM   32 CL   UNL     1      -8.160   8.982  70.716  1.00  0.00    -0.172 Cl 
HETATM   33  C   UNL     1      -7.864   8.212  69.130  1.00  0.00    -0.107 C  
ENDBRANCH  27  31
ENDBRANCH  24  25
ENDBRANCH  12  24
TORSDOF 5
ENDMDL
MODEL      113
REMARK 921   NORMALIZED FREE ENERGY PREDICTED BY IDOCK:   -4.19 KCAL/MOL
REMARK 922        TOTAL FREE ENERGY PREDICTED BY IDOCK:   -6.20 KCAL/MOL
REMARK 923 INTER-LIGAND FREE ENERGY PREDICTED BY IDOCK:   -7.37 KCAL/MOL
REMARK 924 INTRA-LIGAND FREE ENERGY PREDICTED BY IDOCK:    1.18 KCAL/MOL
REMARK 927      BINDING AFFINITY PREDICTED BY RF-SCORE:    0.00 PKD
ROOT
HETATM    1  C   UNL     1      -6.814   6.690  72.455  1.00  0.00    -0.064 C  
HETATM    2  C   UNL     1      -6.240   7.601  73.384  1.00  0.00    -0.062 C  
HETATM    3  C   UNL     1      -7.659   7.281  73.762  1.00  0.00    -0.124 C  
HETATM    4  C   UNL     1      -8.539   5.737  72.725  1.00  0.00    -0.119 C  
HETATM    5  C   UNL     1      -7.692   5.692  73.791  1.00  0.00    -0.101 C  
HETATM    6  C   UNL     1     -11.468   9.474  71.274  1.00  0.00    -0.447 A  
HETATM    7  C   UNL     1      -9.378   6.312  74.465  1.00  0.00    -0.216 C  
HETATM    8  C   UNL     1      -7.928   7.697  71.425  1.00  0.00    -0.094 C  
HETATM    9  C   UNL     1      -6.914   4.666  74.552  1.00  0.00    -0.068 C  
HETATM   10  C   UNL     1     -10.188   7.374  73.252  1.00  0.00    -0.386 C  
HETATM   11  C   UNL     1     -12.143  10.338  70.394  1.00  0.00    -0.373 A  
HETATM   12  C   UNL     1     -11.474  10.874  69.296  1.00  0.00    -0.302 A  
HETATM   13  C   UNL     1      -7.178   8.899  70.815  1.00  0.00    -0.083 C  
HETATM   14  C   UNL     1      -9.326   8.320  72.117  1.00  0.00    -0.303 C  
HETATM   15  C   UNL     1     -10.122   9.123  71.068  1.00  0.00    -0.373 A  
HETATM   16  C   UNL     1      -9.444   9.728  69.975  1.00  0.00    -0.278 A  
HETATM   17  C   UNL     1     -10.132  10.585  69.095  1.00  0.00    -0.240 A  
HETATM   18  C   UNL     1      -7.979   9.521  69.677  1.00  0.00    -0.120 C  
ENDROOT
BRANCH   4  19
HETATM   19  O   UNL     1      -9.141   4.365  73.156  1.00  0.00    -0.117 OA 
HETATM   20  O   UNL     1      -8.131   2.471  72.329  1.00  0.00    -0.053 OA 
HETATM   21  O   UNL     1     -10.070   1.944  71.150  1.00  0.00    -0.054 OA 
HETATM   22  O   UNL     1     -10.283   2.446  73.451  1.00  0.00    -0.102 OA 
HETATM   23  P   UNL     1      -9.631   3.087  72.097  1.00  0.00    -0.158 P  
ENDBRANCH   4  19
BRANCH  12  24
HETATM   24  O   UNL     1     -12.164  11.775  68.463  1.00  0.00    -0.430 OA 
BRANCH  24  25
HETATM   25  C   UNL     1     -11.388  12.770  67.865  1.00  0.00    -0.293 C  
HETATM   26  O   UNL     1     -10.448  12.575  67.104  1.00  0.00    -0.222 OA 
HETATM   27  N   UNL     1     -11.912  14.036  68.099  1.00  0.00    -0.365 N  
BRANCH  27  28
HETATM   28  C   UNL     1     -12.152  14.480  69.478  1.00  0.00    -0.306 C  
HETATM   29 CL   UNL     1     -11.872  16.297  71.482  1.00  0.00    -0.500 Cl 
HETATM   30  C   UNL     1     -11.526  15.833  69.798  1.00  0.00    -0.349 C  
ENDBRANCH  27  28
BRANCH  27  31
HETATM   31  C   UNL     1     -11.706  15.054  67.063  1.00  0.00    -0.188 C  
HETATM   32 CL   UNL     1      -9.011  15.079  67.638  1.00  0.00    -0.174 Cl 
HETATM   33  C   UNL     1     -10.517  15.993  67.333  1.00  0.00    -0.308 C  
ENDBRANCH  27  31
ENDBRANCH  24  25
ENDBRANCH  12  24
TORSDOF 5
ENDMDL
MODEL      114
REMARK 921   NORMALIZED FREE ENERGY PREDICTED BY IDOCK:   -4.19 KCAL/MOL
REMARK 922        TOTAL FREE ENERGY PREDICTED BY IDOCK:   -6.20 KCAL/MOL
REMARK 923 INTER-LIGAND FREE ENERGY PREDICTED BY IDOCK:   -5.48 KCAL/MOL
REMARK 924 INTRA-LIGAND FREE ENERGY PREDICTED BY IDOCK:   -0.71 KCAL/MOL
REMARK 927      BINDING AFFINITY PREDICTED BY RF-SCORE:    0.00 PKD
ROOT
HETATM    1  C   UNL     1     -12.283  12.298  69.191  1.00  0.00    -0.075 C  
HETATM    2  C   UNL     1     -11.731  12.805  70.400  1.00  0.00    -0.097 C  
HETATM    3  C   UNL     1     -10.751  12.945  69.268  1.00  0.00     0.032 C  
HETATM    4  C   UNL     1     -11.492  12.568  67.387  1.00  0.00    -0.341 C  
HETATM    5  C   UNL     1     -11.582  13.698  68.142  1.00  0.00    -0.367 C  
HETATM    6  C   UNL     1      -8.145   8.914  67.698  1.00  0.00    -0.106 A  
HETATM    7  C   UNL     1      -9.763  13.594  67.539  1.00  0.00    -0.227 C  
HETATM    8  C   UNL     1     -11.467  10.691  68.930  1.00  0.00    -0.334 C  
HETATM    9  C   UNL     1     -12.308  15.005  68.107  1.00  0.00     0.254 C  
HETATM   10  C   UNL     1      -9.215  11.876  67.491  1.00  0.00    -0.177 C  
HETATM   11  C   UNL     1      -7.635   7.604  67.669  1.00  0.00    -0.109 A  
HETATM   12  C   UNL     1      -8.331   6.573  68.296  1.00  0.00    -0.117 A  
HETATM   13  C   UNL     1     -11.619   9.788  70.171  1.00  0.00    -0.239 C  
HETATM   14  C   UNL     1      -9.836  10.669  68.531  1.00  0.00    -0.175 C  
HETATM   15  C   UNL     1      -9.358   9.214  68.344  1.00  0.00    -0.139 A  
HETATM   16  C   UNL     1     -10.020   8.158  69.027  1.00  0.00    -0.191 A  
HETATM   17  C   UNL     1      -9.505   6.847  68.982  1.00  0.00    -0.137 A  
HETATM   18  C   UNL     1     -11.280   8.340  69.836  1.00  0.00    -0.031 C  
ENDROOT
BRANCH   4  19
HETATM   19  O   UNL     1     -11.621  13.431  66.094  1.00  0.00    -0.322 OA 
HETATM   20  O   UNL     1     -13.172  12.759  64.535  1.00  0.00    -0.699 OA 
HETATM   21  O   UNL     1     -11.464  12.334  63.009  1.00  0.00    -0.260 OA 
HETATM   22  O   UNL     1     -11.479  14.440  64.085  1.00  0.00    -0.250 OA 
HETATM   23  P   UNL     1     -11.538  12.852  64.466  1.00  0.00    -0.407 P  
ENDBRANCH   4  19
BRANCH  12  24
HETATM   24  O   UNL     1      -7.768   5.282  68.291  1.00  0.00    -0.079 OA 
BRANCH  24  25
HETATM   25  C   UNL     1      -8.496   4.302  67.611  1.00  0.00    -0.099 C  
HETATM   26  O   UNL     1      -9.251   3.492  68.133  1.00  0.00    -0.144 OA 
HETATM   27  N   UNL     1      -8.395   4.456  66.233  1.00  0.00    -0.112 N  
BRANCH  27  28
HETATM   28  C   UNL     1      -7.071   4.493  65.601  1.00  0.00    -0.067 C  
HETATM   29 CL   UNL     1      -5.253   5.645  63.939  1.00  0.00    -0.013 Cl 
HETATM   30  C   UNL     1      -6.885   5.672  64.653  1.00  0.00    -0.051 C  
ENDBRANCH  27  28
BRANCH  27  31
HETATM   31  C   UNL     1      -9.546   4.041  65.423  1.00  0.00    -0.188 C  
HETATM   32 CL   UNL     1      -8.406   1.555  65.092  1.00  0.00    -0.077 Cl 
HETATM   33  C   UNL     1      -9.218   2.973  64.366  1.00  0.00    -0.137 C  
ENDBRANCH  27  31
ENDBRANCH  24  25
ENDBRANCH  12  24
TORSDOF 5
ENDMDL
MODEL      115
REMARK 921   NORMALIZED FREE ENERGY PREDICTED BY IDOCK:   -4.16 KCAL/MOL
REMARK 922        TOTAL FREE ENERGY PREDICTED BY IDOCK:   -6.16 KCAL/MOL
REMARK 923 INTER-LIGAND FREE ENERGY PREDICTED BY IDOCK:   -5.41 KCAL/MOL
REMARK 924 INTRA-LIGAND FREE ENERGY PREDICTED BY IDOCK:   -0.75 KCAL/MOL
REMARK 927      BINDING AFFINITY PREDICTED BY RF-SCORE:    0.00 PKD
ROOT
HETATM    1  C   UNL     1      -6.291   5.595  66.947  1.00  0.00    -0.035 C  
HETATM    2  C   UNL     1      -5.904   5.478  68.311  1.00  0.00    -0.017 C  
HETATM    3  C   UNL     1      -7.382   5.252  68.157  1.00  0.00    -0.072 C  
HETATM    4  C   UNL     1      -8.066   5.059  66.227  1.00  0.00    -0.108 C  
HETATM    5  C   UNL     1      -7.477   4.132  67.033  1.00  0.00    -0.077 C  
HETATM    6  C   UNL     1     -10.469   9.201  67.539  1.00  0.00    -0.335 A  
HETATM    7  C   UNL     1      -9.247   4.403  67.723  1.00  0.00    -0.166 C  
HETATM    8  C   UNL     1      -7.115   7.215  66.822  1.00  0.00    -0.078 C  
HETATM    9  C   UNL     1      -6.923   2.748  66.917  1.00  0.00    -0.049 C  
HETATM   10  C   UNL     1      -9.731   6.132  67.550  1.00  0.00    -0.126 C  
HETATM   11  C   UNL     1     -10.902  10.537  67.471  1.00  0.00    -0.357 A  
HETATM   12  C   UNL     1      -9.989  11.550  67.190  1.00  0.00    -0.199 A  
HETATM   13  C   UNL     1      -6.206   8.337  67.363  1.00  0.00    -0.056 C  
HETATM   14  C   UNL     1      -8.608   7.421  67.563  1.00  0.00    -0.122 C  
HETATM   15  C   UNL     1      -9.123   8.855  67.319  1.00  0.00    -0.153 A  
HETATM   16  C   UNL     1      -8.200   9.911  67.093  1.00  0.00    -0.121 A  
HETATM   17  C   UNL     1      -8.647  11.244  67.016  1.00  0.00    -0.148 A  
HETATM   18  C   UNL     1      -6.714   9.707  66.928  1.00  0.00    -0.075 C  
ENDROOT
BRANCH   4  19
HETATM   19  O   UNL     1      -8.797   3.915  65.459  1.00  0.00    -0.117 OA 
HETATM   20  O   UNL     1      -7.906   3.272  63.439  1.00  0.00    -0.067 OA 
HETATM   21  O   UNL     1      -9.823   4.020  62.347  1.00  0.00    -0.127 OA 
HETATM   22  O   UNL     1     -10.103   2.579  64.202  1.00  0.00    -0.129 OA 
HETATM   23  P   UNL     1      -9.338   3.970  63.817  1.00  0.00    -0.132 P  
ENDBRANCH   4  19
BRANCH  12  24
HETATM   24  O   UNL     1     -10.446  12.882  67.177  1.00  0.00    -0.236 OA 
BRANCH  24  25
HETATM   25  C   UNL     1     -10.004  13.669  66.111  1.00  0.00    -0.306 C  
HETATM   26  O   UNL     1     -10.282  13.486  64.933  1.00  0.00    -0.360 OA 
HETATM   27  N   UNL     1      -9.337  14.804  66.558  1.00  0.00    -0.276 N  
BRANCH  27  28
HETATM   28  C   UNL     1      -8.191  14.663  67.463  1.00  0.00    -0.188 C  
HETATM   29 CL   UNL     1      -6.960  15.126  69.844  1.00  0.00    -0.172 Cl 
HETATM   30  C   UNL     1      -8.391  15.355  68.807  1.00  0.00    -0.182 C  
ENDBRANCH  27  28
BRANCH  27  31
HETATM   31  C   UNL     1      -9.429  16.010  65.728  1.00  0.00    -0.247 C  
HETATM   32 CL   UNL     1     -10.776  17.295  67.760  1.00  0.00    -0.361 Cl 
HETATM   33  C   UNL     1     -10.660  16.884  66.023  1.00  0.00    -0.218 C  
ENDBRANCH  27  31
ENDBRANCH  24  25
ENDBRANCH  12  24
TORSDOF 5
ENDMDL
MODEL      116
REMARK 921   NORMALIZED FREE ENERGY PREDICTED BY IDOCK:   -4.11 KCAL/MOL
REMARK 922        TOTAL FREE ENERGY PREDICTED BY IDOCK:   -6.10 KCAL/MOL
REMARK 923 INTER-LIGAND FREE ENERGY PREDICTED BY IDOCK:   -5.75 KCAL/MOL
REMARK 924 INTRA-LIGAND FREE ENERGY PREDICTED BY IDOCK:   -0.34 KCAL/MOL
REMARK 927      BINDING AFFINITY PREDICTED BY RF-SCORE:    0.00 PKD
ROOT
HETATM    1  C   UNL     1      -9.783  12.753  68.171  1.00  0.00    -0.223 C  
HETATM    2  C   UNL     1      -8.398  12.915  68.454  1.00  0.00    -0.116 C  
HETATM    3  C   UNL     1      -8.597  12.383  67.062  1.00  0.00    -0.191 C  
HETATM    4  C   UNL     1     -10.532  12.394  66.364  1.00  0.00    -0.243 C  
HETATM    5  C   UNL     1      -9.623  13.408  66.411  1.00  0.00    -0.265 C  
HETATM    6  C   UNL     1      -9.694   7.501  66.377  1.00  0.00    -0.180 A  
HETATM    7  C   UNL     1      -9.039  12.221  65.021  1.00  0.00     0.571 C  
HETATM    8  C   UNL     1     -10.086  10.960  68.273  1.00  0.00    -0.189 C  
HETATM    9  C   UNL     1      -9.593  14.887  66.193  1.00  0.00    -0.340 C  
HETATM   10  C   UNL     1      -9.383  10.509  65.472  1.00  0.00    -0.245 C  
HETATM   11  C   UNL     1      -9.898   6.142  66.674  1.00  0.00    -0.202 A  
HETATM   12  C   UNL     1     -10.225   5.755  67.972  1.00  0.00    -0.187 A  
HETATM   13  C   UNL     1      -9.603  10.397  69.626  1.00  0.00    -0.142 C  
HETATM   14  C   UNL     1      -9.432   9.961  67.091  1.00  0.00    -0.190 C  
HETATM   15  C   UNL     1      -9.823   8.494  67.365  1.00  0.00    -0.244 A  
HETATM   16  C   UNL     1     -10.099   8.071  68.693  1.00  0.00    -0.212 A  
HETATM   17  C   UNL     1     -10.311   6.708  68.977  1.00  0.00    -0.216 A  
HETATM   18  C   UNL     1     -10.179   9.007  69.874  1.00  0.00    -0.214 C  
ENDROOT
BRANCH   4  19
HETATM   19  O   UNL     1     -11.229  13.087  65.153  1.00  0.00    -0.287 OA 
HETATM   20  O   UNL     1     -13.522  12.957  65.048  1.00  0.00    -0.516 OA 
HETATM   21  O   UNL     1     -13.369  11.696  63.096  1.00  0.00    -0.410 OA 
HETATM   22  O   UNL     1     -12.150  13.720  63.197  1.00  0.00    -0.434 OA 
HETATM   23  P   UNL     1     -12.359  12.353  64.067  1.00  0.00    -0.440 P  
ENDBRANCH   4  19
BRANCH  12  24
HETATM   24  O   UNL     1     -10.373   4.383  68.247  1.00  0.00     0.104 OA 
BRANCH  24  25
HETATM   25  C   UNL     1      -9.520   3.859  69.222  1.00  0.00    -0.186 C  
HETATM   26  O   UNL     1      -9.669   3.979  70.431  1.00  0.00    -0.187 OA 
HETATM   27  N   UNL     1      -8.556   3.029  68.663  1.00  0.00    -0.072 N  
BRANCH  27  28
HETATM   28  C   UNL     1      -7.689   3.539  67.594  1.00  0.00    -0.077 C  
HETATM   29 CL   UNL     1      -6.815   3.522  65.018  1.00  0.00    -0.047 Cl 
HETATM   30  C   UNL     1      -7.897   2.836  66.257  1.00  0.00    -0.081 C  
ENDBRANCH  27  28
BRANCH  27  31
HETATM   31  C   UNL     1      -8.074   1.910  69.480  1.00  0.00    -0.044 C  
HETATM   32 CL   UNL     1      -6.313   3.608  70.750  1.00  0.00    -0.019 Cl 
HETATM   33  C   UNL     1      -6.609   2.046  69.930  1.00  0.00    -0.029 C  
ENDBRANCH  27  31
ENDBRANCH  24  25
ENDBRANCH  12  24
TORSDOF 5
ENDMDL
MODEL      117
REMARK 921   NORMALIZED FREE ENERGY PREDICTED BY IDOCK:   -3.97 KCAL/MOL
REMARK 922        TOTAL FREE ENERGY PREDICTED BY IDOCK:   -5.91 KCAL/MOL
REMARK 923 INTER-LIGAND FREE ENERGY PREDICTED BY IDOCK:   -7.28 KCAL/MOL
REMARK 924 INTRA-LIGAND FREE ENERGY PREDICTED BY IDOCK:    1.37 KCAL/MOL
REMARK 927      BINDING AFFINITY PREDICTED BY RF-SCORE:    0.00 PKD
ROOT
HETATM    1  C   UNL     1     -10.265   6.456  71.820  1.00  0.00    -0.222 C  
HETATM    2  C   UNL     1     -11.566   5.886  71.882  1.00  0.00    -0.255 C  
HETATM    3  C   UNL     1     -11.045   5.868  70.472  1.00  0.00    -0.347 C  
HETATM    4  C   UNL     1      -9.059   6.350  70.242  1.00  0.00    -0.155 C  
HETATM    5  C   UNL     1      -9.625   5.165  70.605  1.00  0.00    -0.242 C  
HETATM    6  C   UNL     1     -11.111  10.103  67.722  1.00  0.00    -0.293 A  
HETATM    7  C   UNL     1      -9.983   5.386  68.732  1.00  0.00    -0.235 C  
HETATM    8  C   UNL     1     -10.501   8.110  71.093  1.00  0.00    -0.238 C  
HETATM    9  C   UNL     1      -9.186   3.836  71.130  1.00  0.00    -0.201 C  
HETATM   10  C   UNL     1     -10.282   7.123  68.350  1.00  0.00    -0.194 C  
HETATM   11  C   UNL     1     -11.389  11.431  67.354  1.00  0.00    -0.359 A  
HETATM   12  C   UNL     1     -11.647  12.385  68.336  1.00  0.00    -0.324 A  
HETATM   13  C   UNL     1     -11.553   8.913  71.886  1.00  0.00    -0.442 C  
HETATM   14  C   UNL     1     -10.944   8.226  69.477  1.00  0.00    -0.051 C  
HETATM   15  C   UNL     1     -11.075   9.709  69.072  1.00  0.00    -0.104 A  
HETATM   16  C   UNL     1     -11.398  10.685  70.052  1.00  0.00    -0.400 A  
HETATM   17  C   UNL     1     -11.666  12.015  69.673  1.00  0.00    -0.405 A  
HETATM   18  C   UNL     1     -11.488  10.394  71.530  1.00  0.00     0.227 C  
ENDROOT
BRANCH   4  19
HETATM   19  O   UNL     1      -7.829   5.578  69.673  1.00  0.00    -0.086 OA 
HETATM   20  O   UNL     1      -5.754   6.189  70.454  1.00  0.00    -0.016 OA 
HETATM   21  O   UNL     1      -5.158   6.916  68.323  1.00  0.00    -0.010 OA 
HETATM   22  O   UNL     1      -6.075   4.746  68.529  1.00  0.00    -0.028 OA 
HETATM   23  P   UNL     1      -6.419   6.284  68.961  1.00  0.00    -0.046 P  
ENDBRANCH   4  19
BRANCH  12  24
HETATM   24  O   UNL     1     -11.971  13.694  67.932  1.00  0.00    -0.358 OA 
BRANCH  24  25
HETATM   25  C   UNL     1     -10.889  14.540  67.676  1.00  0.00    -0.273 C  
HETATM   26  O   UNL     1      -9.962  14.294  66.914  1.00  0.00    -0.252 OA 
HETATM   27  N   UNL     1     -11.065  15.787  68.265  1.00  0.00    -0.326 N  
BRANCH  27  28
HETATM   28  C   UNL     1     -11.322  15.879  69.707  1.00  0.00    -0.347 C  
HETATM   29 CL   UNL     1     -12.938  15.540  71.869  1.00  0.00    -0.478 Cl 
HETATM   30  C   UNL     1     -12.715  15.403  70.107  1.00  0.00    -0.227 C  
ENDBRANCH  27  28
BRANCH  27  31
HETATM   31  C   UNL     1     -10.473  16.943  67.585  1.00  0.00    -0.332 C  
HETATM   32 CL   UNL     1     -11.542  16.078  65.197  1.00  0.00     0.090 Cl 
HETATM   33  C   UNL     1     -10.131  16.696  66.105  1.00  0.00    -0.345 C  
ENDBRANCH  27  31
ENDBRANCH  24  25
ENDBRANCH  12  24
TORSDOF 5
ENDMDL
MODEL      118
REMARK 921   NORMALIZED FREE ENERGY PREDICTED BY IDOCK:   -3.93 KCAL/MOL
REMARK 922        TOTAL FREE ENERGY PREDICTED BY IDOCK:   -5.86 KCAL/MOL
REMARK 923 INTER-LIGAND FREE ENERGY PREDICTED BY IDOCK:   -4.85 KCAL/MOL
REMARK 924 INTRA-LIGAND FREE ENERGY PREDICTED BY IDOCK:   -1.01 KCAL/MOL
REMARK 927      BINDING AFFINITY PREDICTED BY RF-SCORE:    0.00 PKD
ROOT
HETATM    1  C   UNL     1      -6.800   4.924  68.411  1.00  0.00    -0.055 C  
HETATM    2  C   UNL     1      -7.522   4.770  69.626  1.00  0.00    -0.056 C  
HETATM    3  C   UNL     1      -8.445   4.669  68.443  1.00  0.00    -0.094 C  
HETATM    4  C   UNL     1      -7.535   4.542  66.603  1.00  0.00    -0.082 C  
HETATM    5  C   UNL     1      -7.760   3.566  67.526  1.00  0.00    -0.077 C  
HETATM    6  C   UNL     1      -9.913   8.865  66.047  1.00  0.00    -0.199 A  
HETATM    7  C   UNL     1      -9.466   3.981  66.749  1.00  0.00    -0.219 C  
HETATM    8  C   UNL     1      -7.189   6.608  67.834  1.00  0.00    -0.091 C  
HETATM    9  C   UNL     1      -7.371   2.141  67.756  1.00  0.00    -0.055 C  
HETATM   10  C   UNL     1      -9.580   5.745  66.391  1.00  0.00    -0.175 C  
HETATM   11  C   UNL     1     -10.090  10.233  65.773  1.00  0.00    -0.325 A  
HETATM   12  C   UNL     1      -9.201  11.167  66.298  1.00  0.00    -0.195 A  
HETATM   13  C   UNL     1      -6.890   7.648  68.933  1.00  0.00    -0.061 C  
HETATM   14  C   UNL     1      -8.743   6.936  67.288  1.00  0.00    -0.119 C  
HETATM   15  C   UNL     1      -8.844   8.408  66.840  1.00  0.00    -0.157 A  
HETATM   16  C   UNL     1      -7.986   9.384  67.412  1.00  0.00    -0.106 A  
HETATM   17  C   UNL     1      -8.166  10.751  67.123  1.00  0.00    -0.123 A  
HETATM   18  C   UNL     1      -6.851   9.057  68.353  1.00  0.00    -0.064 C  
ENDROOT
BRANCH   4  19
HETATM   19  O   UNL     1      -7.549   3.466  65.473  1.00  0.00    -0.076 OA 
HETATM   20  O   UNL     1      -5.513   2.689  64.741  1.00  0.00    -0.008 OA 
HETATM   21  O   UNL     1      -5.908   3.613  62.639  1.00  0.00    -0.012 OA 
HETATM   22  O   UNL     1      -7.598   2.251  63.578  1.00  0.00    -0.053 OA 
HETATM   23  P   UNL     1      -6.683   3.544  63.978  1.00  0.00    -0.045 P  
ENDBRANCH   4  19
BRANCH  12  24
HETATM   24  O   UNL     1      -9.434  12.532  66.045  1.00  0.00    -0.231 OA 
BRANCH  24  25
HETATM   25  C   UNL     1     -10.521  13.100  66.715  1.00  0.00    -0.261 C  
HETATM   26  O   UNL     1     -11.635  13.274  66.238  1.00  0.00    -0.318 OA 
HETATM   27  N   UNL     1     -10.242  13.299  68.063  1.00  0.00    -0.234 N  
BRANCH  27  28
HETATM   28  C   UNL     1      -9.066  14.085  68.453  1.00  0.00    -0.191 C  
HETATM   29 CL   UNL     1      -7.126  15.910  67.902  1.00  0.00    -0.135 Cl 
HETATM   30  C   UNL     1      -8.543  14.988  67.341  1.00  0.00    -0.192 C  
ENDBRANCH  27  28
BRANCH  27  31
HETATM   31  C   UNL     1     -11.363  13.202  69.004  1.00  0.00    -0.282 C  
HETATM   32 CL   UNL     1     -10.531  10.676  69.723  1.00  0.00    -0.234 Cl 
HETATM   33  C   UNL     1     -11.863  11.766  69.241  1.00  0.00    -0.326 C  
ENDBRANCH  27  31
ENDBRANCH  24  25
ENDBRANCH  12  24
TORSDOF 5
ENDMDL
MODEL      119
REMARK 921   NORMALIZED FREE ENERGY PREDICTED BY IDOCK:   -3.88 KCAL/MOL
REMARK 922        TOTAL FREE ENERGY PREDICTED BY IDOCK:   -5.79 KCAL/MOL
REMARK 923 INTER-LIGAND FREE ENERGY PREDICTED BY IDOCK:   -6.03 KCAL/MOL
REMARK 924 INTRA-LIGAND FREE ENERGY PREDICTED BY IDOCK:    0.24 KCAL/MOL
REMARK 927      BINDING AFFINITY PREDICTED BY RF-SCORE:    0.00 PKD
ROOT
HETATM    1  C   UNL     1     -11.442  15.233  69.322  1.00  0.00    -0.334 C  
HETATM    2  C   UNL     1     -11.163  14.981  70.693  1.00  0.00    -0.280 C  
HETATM    3  C   UNL     1      -9.888  15.095  69.904  1.00  0.00    -0.072 C  
HETATM    4  C   UNL     1     -10.084  15.780  67.975  1.00  0.00    -0.228 C  
HETATM    5  C   UNL     1     -10.041  16.482  69.142  1.00  0.00    -0.287 C  
HETATM    6  C   UNL     1      -8.349  11.220  67.055  1.00  0.00    -0.153 A  
HETATM    7  C   UNL     1      -8.258  15.847  68.825  1.00  0.00    -0.196 C  
HETATM    8  C   UNL     1     -11.141  13.650  68.473  1.00  0.00    -0.301 C  
HETATM    9  C   UNL     1     -10.264  17.886  69.605  1.00  0.00     0.343 C  
HETATM   10  C   UNL     1      -8.299  14.207  68.075  1.00  0.00    -0.160 C  
HETATM   11  C   UNL     1      -8.301   9.928  66.502  1.00  0.00    -0.125 A  
HETATM   12  C   UNL     1      -9.447   9.137  66.482  1.00  0.00    -0.208 A  
HETATM   13  C   UNL     1     -11.952  12.513  69.128  1.00  0.00    -0.287 C  
HETATM   14  C   UNL     1      -9.564  13.088  68.347  1.00  0.00    -0.178 C  
HETATM   15  C   UNL     1      -9.541  11.746  67.585  1.00  0.00    -0.184 A  
HETATM   16  C   UNL     1     -10.682  10.900  67.606  1.00  0.00    -0.288 A  
HETATM   17  C   UNL     1     -10.625   9.611  67.041  1.00  0.00    -0.267 A  
HETATM   18  C   UNL     1     -12.005  11.289  68.220  1.00  0.00    -0.215 C  
ENDROOT
BRANCH   4  19
HETATM   19  O   UNL     1      -9.522  17.022  67.217  1.00  0.00    -0.234 OA 
HETATM   20  O   UNL     1     -10.898  18.856  67.044  1.00  0.00    -0.427 OA 
HETATM   21  O   UNL     1     -10.970  18.592  64.730  1.00  0.00    -0.404 OA 
HETATM   22  O   UNL     1      -8.846  18.610  65.770  1.00  0.00    -0.409 OA 
HETATM   23  P   UNL     1     -10.287  17.851  65.905  1.00  0.00     0.015 P  
ENDBRANCH   4  19
BRANCH  12  24
HETATM   24  O   UNL     1      -9.353   7.831  65.967  1.00  0.00    -0.140 OA 
BRANCH  24  25
HETATM   25  C   UNL     1      -8.881   6.858  66.852  1.00  0.00    -0.120 C  
HETATM   26  O   UNL     1      -8.075   7.052  67.753  1.00  0.00    -0.112 OA 
HETATM   27  N   UNL     1      -9.564   5.657  66.702  1.00  0.00    -0.145 N  
BRANCH  27  28
HETATM   28  C   UNL     1      -9.623   5.014  65.384  1.00  0.00    -0.049 C  
HETATM   29 CL   UNL     1      -8.529   4.430  62.964  1.00  0.00    -0.096 Cl 
HETATM   30  C   UNL     1      -8.378   5.250  64.538  1.00  0.00    -0.138 C  
ENDBRANCH  27  28
BRANCH  27  31
HETATM   31  C   UNL     1      -9.727   4.821  67.896  1.00  0.00    -0.149 C  
HETATM   32 CL   UNL     1      -7.215   3.764  67.487  1.00  0.00    -0.062 Cl 
HETATM   33  C   UNL     1      -8.946   3.495  67.846  1.00  0.00    -0.139 C  
ENDBRANCH  27  31
ENDBRANCH  24  25
ENDBRANCH  12  24
TORSDOF 5
ENDMDL
MODEL      120
REMARK 921   NORMALIZED FREE ENERGY PREDICTED BY IDOCK:   -3.81 KCAL/MOL
REMARK 922        TOTAL FREE ENERGY PREDICTED BY IDOCK:   -5.70 KCAL/MOL
REMARK 923 INTER-LIGAND FREE ENERGY PREDICTED BY IDOCK:   -5.65 KCAL/MOL
REMARK 924 INTRA-LIGAND FREE ENERGY PREDICTED BY IDOCK:   -0.05 KCAL/MOL
REMARK 927      BINDING AFFINITY PREDICTED BY RF-SCORE:    0.00 PKD
ROOT
HETATM    1  C   UNL     1      -7.771  15.361  68.757  1.00  0.00    -0.150 C  
HETATM    2  C   UNL     1      -7.289  15.546  67.432  1.00  0.00    -0.241 C  
HETATM    3  C   UNL     1      -8.664  14.938  67.417  1.00  0.00    -0.208 C  
HETATM    4  C   UNL     1      -9.649  14.901  69.222  1.00  0.00    -0.128 C  
HETATM    5  C   UNL     1      -9.519  15.921  68.329  1.00  0.00    -0.201 C  
HETATM    6  C   UNL     1      -9.242  10.020  68.408  1.00  0.00    -0.131 A  
HETATM    7  C   UNL     1     -10.737  14.663  67.542  1.00  0.00    -0.268 C  
HETATM    8  C   UNL     1      -7.619  13.574  69.076  1.00  0.00     0.080 C  
HETATM    9  C   UNL     1      -9.810  17.386  68.262  1.00  0.00    -0.310 C  
HETATM   10  C   UNL     1     -10.251  12.976  67.955  1.00  0.00    -0.234 C  
HETATM   11  C   UNL     1      -8.906   8.678  68.658  1.00  0.00    -0.142 A  
HETATM   12  C   UNL     1      -7.654   8.360  69.181  1.00  0.00    -0.087 A  
HETATM   13  C   UNL     1      -6.179  13.088  68.808  1.00  0.00    -0.079 C  
HETATM   14  C   UNL     1      -8.631  12.517  68.252  1.00  0.00    -0.173 C  
HETATM   15  C   UNL     1      -8.341  11.064  68.684  1.00  0.00    -0.153 A  
HETATM   16  C   UNL     1      -7.050  10.712  69.161  1.00  0.00    -0.095 A  
HETATM   17  C   UNL     1      -6.727   9.365  69.417  1.00  0.00    -0.048 A  
HETATM   18  C   UNL     1      -5.948  11.711  69.418  1.00  0.00    -0.079 C  
ENDROOT
BRANCH   4  19
HETATM   19  O   UNL     1     -10.988  15.522  69.724  1.00  0.00    -0.247 OA 
HETATM   20  O   UNL     1     -11.256  15.741  71.998  1.00  0.00    -0.304 OA 
HETATM   21  O   UNL     1     -13.017  14.217  71.945  1.00  0.00    -0.319 OA 
HETATM   22  O   UNL     1     -13.074  16.019  70.414  1.00  0.00    -0.224 OA 
HETATM   23  P   UNL     1     -12.059  14.834  70.897  1.00  0.00    -0.377 P  
ENDBRANCH   4  19
BRANCH  12  24
HETATM   24  O   UNL     1      -7.331   7.003  69.373  1.00  0.00    -0.086 OA 
BRANCH  24  25
HETATM   25  C   UNL     1      -7.532   6.166  68.273  1.00  0.00    -0.087 C  
HETATM   26  O   UNL     1      -6.792   6.084  67.301  1.00  0.00    -0.059 OA 
HETATM   27  N   UNL     1      -8.597   5.297  68.481  1.00  0.00    -0.095 N  
BRANCH  27  28
HETATM   28  C   UNL     1      -9.917   5.835  68.830  1.00  0.00    -0.159 C  
HETATM   29 CL   UNL     1     -11.846   6.427  70.653  1.00  0.00    -0.391 Cl 
HETATM   30  C   UNL     1     -10.235   5.745  70.318  1.00  0.00    -0.230 C  
ENDBRANCH  27  28
BRANCH  27  31
HETATM   31  C   UNL     1      -8.526   3.979  67.841  1.00  0.00    -0.094 C  
HETATM   32 CL   UNL     1      -9.434   5.083  65.486  1.00  0.00    -0.156 Cl 
HETATM   33  C   UNL     1      -9.541   3.778  66.702  1.00  0.00    -0.174 C  
ENDBRANCH  27  31
ENDBRANCH  24  25
ENDBRANCH  12  24
TORSDOF 5
ENDMDL
MODEL      121
REMARK 921   NORMALIZED FREE ENERGY PREDICTED BY IDOCK:   -3.78 KCAL/MOL
REMARK 922        TOTAL FREE ENERGY PREDICTED BY IDOCK:   -5.66 KCAL/MOL
REMARK 923 INTER-LIGAND FREE ENERGY PREDICTED BY IDOCK:   -5.08 KCAL/MOL
REMARK 924 INTRA-LIGAND FREE ENERGY PREDICTED BY IDOCK:   -0.58 KCAL/MOL
REMARK 927      BINDING AFFINITY PREDICTED BY RF-SCORE:    0.00 PKD
ROOT
HETATM    1  C   UNL     1     -10.533   6.944  72.296  1.00  0.00    -0.233 C  
HETATM    2  C   UNL     1     -11.940   6.767  72.196  1.00  0.00    -0.309 C  
HETATM    3  C   UNL     1     -11.216   5.521  71.768  1.00  0.00    -0.165 C  
HETATM    4  C   UNL     1      -9.196   5.478  72.153  1.00  0.00    -0.143 C  
HETATM    5  C   UNL     1     -10.242   5.215  72.986  1.00  0.00    -0.217 C  
HETATM    6  C   UNL     1      -9.090   5.307  67.192  1.00  0.00    -0.112 A  
HETATM    7  C   UNL     1     -10.128   3.731  71.773  1.00  0.00    -0.174 C  
HETATM    8  C   UNL     1      -9.957   7.169  70.582  1.00  0.00    -0.195 C  
HETATM    9  C   UNL     1     -10.470   4.973  74.444  1.00  0.00    -0.313 C  
HETATM   10  C   UNL     1      -9.639   4.298  70.132  1.00  0.00    -0.269 C  
HETATM   11  C   UNL     1      -8.747   5.677  65.880  1.00  0.00    -0.147 A  
HETATM   12  C   UNL     1      -8.784   7.017  65.503  1.00  0.00    -0.025 A  
HETATM   13  C   UNL     1     -10.732   8.306  69.886  1.00  0.00    -0.234 C  
HETATM   14  C   UNL     1     -10.008   5.857  69.534  1.00  0.00    -0.238 C  
HETATM   15  C   UNL     1      -9.464   6.267  68.150  1.00  0.00    -0.113 A  
HETATM   16  C   UNL     1      -9.552   7.620  67.727  1.00  0.00    -0.169 A  
HETATM   17  C   UNL     1      -9.197   7.981  66.412  1.00  0.00    -0.245 A  
HETATM   18  C   UNL     1     -10.022   8.749  68.612  1.00  0.00    -0.197 C  
ENDROOT
BRANCH   4  19
HETATM   19  O   UNL     1      -8.289   4.542  73.009  1.00  0.00    -0.098 OA 
HETATM   20  O   UNL     1      -6.085   5.151  73.250  1.00  0.00    -0.035 OA 
HETATM   21  O   UNL     1      -5.423   3.247  72.083  1.00  0.00    -0.003 OA 
HETATM   22  O   UNL     1      -6.935   2.966  73.880  1.00  0.00    -0.034 OA 
HETATM   23  P   UNL     1      -6.776   3.858  72.520  1.00  0.00    -0.043 P  
ENDBRANCH   4  19
BRANCH  12  24
HETATM   24  O   UNL     1      -8.483   7.349  64.168  1.00  0.00     0.072 OA 
BRANCH  24  25
HETATM   25  C   UNL     1      -7.273   8.015  63.963  1.00  0.00    -0.087 C  
HETATM   26  O   UNL     1      -6.166   7.578  64.250  1.00  0.00    -0.047 OA 
HETATM   27  N   UNL     1      -7.452   9.182  63.229  1.00  0.00    -0.096 N  
BRANCH  27  28
HETATM   28  C   UNL     1      -8.401  10.198  63.699  1.00  0.00    -0.170 C  
HETATM   29 CL   UNL     1     -10.572  11.792  63.318  1.00  0.00    -0.437 Cl 
HETATM   30  C   UNL     1      -9.459  10.565  62.663  1.00  0.00    -0.296 C  
ENDBRANCH  27  28
BRANCH  27  31
HETATM   31  C   UNL     1      -6.351   9.605  62.356  1.00  0.00    -0.097 C  
HETATM   32 CL   UNL     1      -5.131  10.830  64.502  1.00  0.00    -0.153 Cl 
HETATM   33  C   UNL     1      -5.665  10.910  62.797  1.00  0.00    -0.065 C  
ENDBRANCH  27  31
ENDBRANCH  24  25
ENDBRANCH  12  24
TORSDOF 5
ENDMDL
MODEL      122
REMARK 921   NORMALIZED FREE ENERGY PREDICTED BY IDOCK:   -3.77 KCAL/MOL
REMARK 922        TOTAL FREE ENERGY PREDICTED BY IDOCK:   -5.66 KCAL/MOL
REMARK 923 INTER-LIGAND FREE ENERGY PREDICTED BY IDOCK:   -4.66 KCAL/MOL
REMARK 924 INTRA-LIGAND FREE ENERGY PREDICTED BY IDOCK:   -0.99 KCAL/MOL
REMARK 927      BINDING AFFINITY PREDICTED BY RF-SCORE:    0.00 PKD
ROOT
HETATM    1  C   UNL     1     -10.034   4.828  67.015  1.00  0.00    -0.235 C  
HETATM    2  C   UNL     1     -10.657   4.777  65.738  1.00  0.00    -0.262 C  
HETATM    3  C   UNL     1      -9.162   4.847  65.597  1.00  0.00    -0.159 C  
HETATM    4  C   UNL     1      -8.083   4.598  67.330  1.00  0.00    -0.101 C  
HETATM    5  C   UNL     1      -8.642   3.659  66.516  1.00  0.00    -0.115 C  
HETATM    6  C   UNL     1      -6.789   9.261  66.220  1.00  0.00    -0.082 A  
HETATM    7  C   UNL     1      -7.124   4.361  65.573  1.00  0.00    -0.067 C  
HETATM    8  C   UNL     1      -9.512   6.561  67.224  1.00  0.00    -0.140 C  
HETATM    9  C   UNL     1      -8.898   2.186  66.529  1.00  0.00    -0.128 C  
HETATM   10  C   UNL     1      -6.941   6.124  65.903  1.00  0.00    -0.061 C  
HETATM   11  C   UNL     1      -6.603  10.643  66.401  1.00  0.00    -0.120 A  
HETATM   12  C   UNL     1      -7.611  11.411  66.978  1.00  0.00    -0.151 A  
HETATM   13  C   UNL     1     -10.700   7.521  67.014  1.00  0.00    -0.367 C  
HETATM   14  C   UNL     1      -8.260   7.148  66.270  1.00  0.00    -0.124 C  
HETATM   15  C   UNL     1      -7.978   8.623  66.621  1.00  0.00    -0.096 A  
HETATM   16  C   UNL     1      -9.014   9.436  67.153  1.00  0.00    -0.144 A  
HETATM   17  C   UNL     1      -8.813  10.818  67.339  1.00  0.00    -0.129 A  
HETATM   18  C   UNL     1     -10.375   8.913  67.545  1.00  0.00    -0.328 C  
ENDROOT
BRANCH   4  19
HETATM   19  O   UNL     1      -7.017   3.556  67.788  1.00  0.00    -0.049 OA 
HETATM   20  O   UNL     1      -7.246   2.682  69.902  1.00  0.00    -0.040 OA 
HETATM   21  O   UNL     1      -5.242   3.683  70.541  1.00  0.00    -0.003 OA 
HETATM   22  O   UNL     1      -5.246   2.396  68.557  1.00  0.00    -0.011 OA 
HETATM   23  P   UNL     1      -6.080   3.623  69.241  1.00  0.00    -0.029 P  
ENDBRANCH   4  19
BRANCH  12  24
HETATM   24  O   UNL     1      -7.413  12.799  67.100  1.00  0.00    -0.126 OA 
BRANCH  24  25
HETATM   25  C   UNL     1      -7.122  13.264  68.385  1.00  0.00    -0.107 C  
HETATM   26  O   UNL     1      -6.226  12.843  69.105  1.00  0.00    -0.088 OA 
HETATM   27  N   UNL     1      -7.869  14.394  68.699  1.00  0.00    -0.136 N  
BRANCH  27  28
HETATM   28  C   UNL     1      -9.333  14.347  68.604  1.00  0.00    -0.188 C  
HETATM   29 CL   UNL     1     -11.802  15.182  69.380  1.00  0.00    -0.344 Cl 
HETATM   30  C   UNL     1     -10.034  15.297  69.568  1.00  0.00    -0.242 C  
ENDBRANCH  27  28
BRANCH  27  31
HETATM   31  C   UNL     1      -7.258  15.376  69.601  1.00  0.00    -0.174 C  
HETATM   32 CL   UNL     1      -7.138  17.191  67.531  1.00  0.00    -0.167 Cl 
HETATM   33  C   UNL     1      -6.324  16.379  68.900  1.00  0.00    -0.150 C  
ENDBRANCH  27  31
ENDBRANCH  24  25
ENDBRANCH  12  24
TORSDOF 5
ENDMDL
MODEL      123
REMARK 921   NORMALIZED FREE ENERGY PREDICTED BY IDOCK:   -3.76 KCAL/MOL
REMARK 922        TOTAL FREE ENERGY PREDICTED BY IDOCK:   -5.64 KCAL/MOL
REMARK 923 INTER-LIGAND FREE ENERGY PREDICTED BY IDOCK:   -4.62 KCAL/MOL
REMARK 924 INTRA-LIGAND FREE ENERGY PREDICTED BY IDOCK:   -1.03 KCAL/MOL
REMARK 927      BINDING AFFINITY PREDICTED BY RF-SCORE:    0.00 PKD
ROOT
HETATM    1  C   UNL     1     -11.282   7.577  71.287  1.00  0.00    -0.274 C  
HETATM    2  C   UNL     1     -12.232   6.854  70.516  1.00  0.00    -0.253 C  
HETATM    3  C   UNL     1     -10.892   6.175  70.479  1.00  0.00    -0.364 C  
HETATM    4  C   UNL     1      -9.484   6.894  71.795  1.00  0.00    -0.153 C  
HETATM    5  C   UNL     1     -10.507   6.020  72.014  1.00  0.00    -0.251 C  
HETATM    6  C   UNL     1      -7.239   8.000  67.508  1.00  0.00    -0.088 A  
HETATM    7  C   UNL     1      -9.189   5.068  70.993  1.00  0.00    -0.191 C  
HETATM    8  C   UNL     1     -10.231   8.434  70.071  1.00  0.00    -0.202 C  
HETATM    9  C   UNL     1     -11.175   5.357  73.175  1.00  0.00    -0.355 C  
HETATM   10  C   UNL     1      -8.402   6.169  69.801  1.00  0.00    -0.124 C  
HETATM   11  C   UNL     1      -6.605   8.788  66.530  1.00  0.00    -0.063 A  
HETATM   12  C   UNL     1      -7.128  10.035  66.197  1.00  0.00    -0.108 A  
HETATM   13  C   UNL     1     -11.087   9.271  69.098  1.00  0.00    -0.002 C  
HETATM   14  C   UNL     1      -9.192   7.522  69.116  1.00  0.00    -0.144 C  
HETATM   15  C   UNL     1      -8.394   8.447  68.174  1.00  0.00    -0.128 A  
HETATM   16  C   UNL     1      -8.942   9.696  67.775  1.00  0.00    -0.122 A  
HETATM   17  C   UNL     1      -8.294  10.481  66.802  1.00  0.00    -0.128 A  
HETATM   18  C   UNL     1     -10.223  10.267  68.333  1.00  0.00    -0.189 C  
ENDROOT
BRANCH   4  19
HETATM   19  O   UNL     1      -8.693   6.249  72.974  1.00  0.00    -0.125 OA 
HETATM   20  O   UNL     1      -7.827   7.672  74.559  1.00  0.00    -0.159 OA 
HETATM   21  O   UNL     1      -5.667   7.055  73.945  1.00  0.00    -0.054 OA 
HETATM   22  O   UNL     1      -7.216   5.328  74.405  1.00  0.00    -0.081 OA 
HETATM   23  P   UNL     1      -7.096   6.674  73.486  1.00  0.00    -0.075 P  
ENDBRANCH   4  19
BRANCH  12  24
HETATM   24  O   UNL     1      -6.499  10.777  65.180  1.00  0.00    -0.036 OA 
BRANCH  24  25
HETATM   25  C   UNL     1      -6.278  10.100  63.978  1.00  0.00    -0.132 C  
HETATM   26  O   UNL     1      -5.190   9.712  63.572  1.00  0.00    -0.067 OA 
HETATM   27  N   UNL     1      -7.475   9.760  63.357  1.00  0.00    -0.119 N  
BRANCH  27  28
HETATM   28  C   UNL     1      -8.462  10.805  63.061  1.00  0.00    -0.125 C  
HETATM   29 CL   UNL     1     -10.932  11.905  63.355  1.00  0.00    -0.475 Cl 
HETATM   30  C   UNL     1      -9.800  10.591  63.760  1.00  0.00    -0.300 C  
ENDBRANCH  27  28
BRANCH  27  31
HETATM   31  C   UNL     1      -7.492   8.534  62.552  1.00  0.00    -0.103 C  
HETATM   32 CL   UNL     1      -8.880   7.249  64.555  1.00  0.00     0.475 Cl 
HETATM   33  C   UNL     1      -7.532   7.238  63.381  1.00  0.00    -0.101 C  
ENDBRANCH  27  31
ENDBRANCH  24  25
ENDBRANCH  12  24
TORSDOF 5
ENDMDL
MODEL      124
REMARK 921   NORMALIZED FREE ENERGY PREDICTED BY IDOCK:   -3.75 KCAL/MOL
REMARK 922        TOTAL FREE ENERGY PREDICTED BY IDOCK:   -5.63 KCAL/MOL
REMARK 923 INTER-LIGAND FREE ENERGY PREDICTED BY IDOCK:   -5.52 KCAL/MOL
REMARK 924 INTRA-LIGAND FREE ENERGY PREDICTED BY IDOCK:   -0.12 KCAL/MOL
REMARK 927      BINDING AFFINITY PREDICTED BY RF-SCORE:    0.00 PKD
ROOT
HETATM    1  C   UNL     1     -12.422  12.367  69.232  1.00  0.00     0.297 C  
HETATM    2  C   UNL     1     -12.265  13.155  70.405  1.00  0.00    -0.389 C  
HETATM    3  C   UNL     1     -11.023  13.208  69.559  1.00  0.00     0.024 C  
HETATM    4  C   UNL     1     -11.183  12.397  67.676  1.00  0.00    -0.288 C  
HETATM    5  C   UNL     1     -11.563  13.627  68.124  1.00  0.00    -0.367 C  
HETATM    6  C   UNL     1      -7.793   9.326  69.606  1.00  0.00    -0.090 A  
HETATM    7  C   UNL     1      -9.645  13.647  68.044  1.00  0.00    -0.216 C  
HETATM    8  C   UNL     1     -11.449  10.857  69.537  1.00  0.00    -0.372 C  
HETATM    9  C   UNL     1     -12.345  14.800  67.626  1.00  0.00     0.196 C  
HETATM   10  C   UNL     1      -8.980  12.036  68.505  1.00  0.00    -0.098 C  
HETATM   11  C   UNL     1      -7.200   8.110  69.988  1.00  0.00    -0.056 A  
HETATM   12  C   UNL     1      -7.964   7.132  70.621  1.00  0.00    -0.101 A  
HETATM   13  C   UNL     1     -11.872  10.189  70.861  1.00  0.00    -0.468 C  
HETATM   14  C   UNL     1      -9.774  10.972  69.584  1.00  0.00     0.333 C  
HETATM   15  C   UNL     1      -9.157   9.581  69.840  1.00  0.00    -0.237 A  
HETATM   16  C   UNL     1      -9.901   8.594  70.539  1.00  0.00    -0.210 A  
HETATM   17  C   UNL     1      -9.299   7.375  70.909  1.00  0.00    -0.155 A  
HETATM   18  C   UNL     1     -11.347   8.759  70.940  1.00  0.00    -0.322 C  
ENDROOT
BRANCH   4  19
HETATM   19  O   UNL     1     -11.013  12.982  66.240  1.00  0.00    -0.279 OA 
HETATM   20  O   UNL     1     -12.922  13.266  64.990  1.00  0.00    -0.726 OA 
HETATM   21  O   UNL     1     -12.170  11.673  63.466  1.00  0.00    -0.443 OA 
HETATM   22  O   UNL     1     -10.687  13.419  64.055  1.00  0.00    -0.342 OA 
HETATM   23  P   UNL     1     -11.624  12.291  64.776  1.00  0.00    -0.309 P  
ENDBRANCH   4  19
BRANCH  12  24
HETATM   24  O   UNL     1      -7.328   5.947  71.035  1.00  0.00    -0.078 OA 
BRANCH  24  25
HETATM   25  C   UNL     1      -8.020   4.761  70.777  1.00  0.00    -0.081 C  
HETATM   26  O   UNL     1      -8.526   4.037  71.625  1.00  0.00    -0.090 OA 
HETATM   27  N   UNL     1      -8.220   4.573  69.415  1.00  0.00    -0.068 N  
BRANCH  27  28
HETATM   28  C   UNL     1      -7.068   4.580  68.504  1.00  0.00    -0.053 C  
HETATM   29 CL   UNL     1      -5.871   5.323  66.178  1.00  0.00    -0.018 Cl 
HETATM   30  C   UNL     1      -7.317   5.358  67.217  1.00  0.00    -0.083 C  
ENDBRANCH  27  28
BRANCH  27  31
HETATM   31  C   UNL     1      -9.432   3.857  69.003  1.00  0.00    -0.170 C  
HETATM   32 CL   UNL     1      -7.920   1.615  68.473  1.00  0.00    -0.053 Cl 
HETATM   33  C   UNL     1      -9.189   2.761  67.951  1.00  0.00    -0.204 C  
ENDBRANCH  27  31
ENDBRANCH  24  25
ENDBRANCH  12  24
TORSDOF 5
ENDMDL
MODEL      125
REMARK 921   NORMALIZED FREE ENERGY PREDICTED BY IDOCK:   -3.74 KCAL/MOL
REMARK 922        TOTAL FREE ENERGY PREDICTED BY IDOCK:   -5.62 KCAL/MOL
REMARK 923 INTER-LIGAND FREE ENERGY PREDICTED BY IDOCK:   -4.65 KCAL/MOL
REMARK 924 INTRA-LIGAND FREE ENERGY PREDICTED BY IDOCK:   -0.97 KCAL/MOL
REMARK 927      BINDING AFFINITY PREDICTED BY RF-SCORE:    0.00 PKD
ROOT
HETATM    1  C   UNL     1      -7.599   5.428  72.670  1.00  0.00    -0.098 C  
HETATM    2  C   UNL     1      -8.568   5.790  73.646  1.00  0.00    -0.119 C  
HETATM    3  C   UNL     1      -9.231   5.450  72.340  1.00  0.00    -0.152 C  
HETATM    4  C   UNL     1      -8.021   4.593  70.915  1.00  0.00    -0.081 C  
HETATM    5  C   UNL     1      -8.643   4.017  71.982  1.00  0.00    -0.116 C  
HETATM    6  C   UNL     1      -9.198   8.806  68.566  1.00  0.00    -0.141 A  
HETATM    7  C   UNL     1     -10.017   4.410  70.701  1.00  0.00    -0.254 C  
HETATM    8  C   UNL     1      -7.473   6.870  71.564  1.00  0.00    -0.086 C  
HETATM    9  C   UNL     1      -8.640   2.704  72.697  1.00  0.00    -0.075 C  
HETATM   10  C   UNL     1      -9.655   5.957  69.846  1.00  0.00    -0.194 C  
HETATM   11  C   UNL     1      -9.002  10.019  67.883  1.00  0.00    -0.131 A  
HETATM   12  C   UNL     1      -8.050  10.927  68.339  1.00  0.00    -0.131 A  
HETATM   13  C   UNL     1      -7.176   8.153  72.366  1.00  0.00    -0.119 C  
HETATM   14  C   UNL     1      -8.770   7.233  70.560  1.00  0.00    -0.148 C  
HETATM   15  C   UNL     1      -8.443   8.476  69.706  1.00  0.00    -0.129 A  
HETATM   16  C   UNL     1      -7.520   9.443  70.187  1.00  0.00    -0.120 A  
HETATM   17  C   UNL     1      -7.324  10.651  69.489  1.00  0.00    -0.141 A  
HETATM   18  C   UNL     1      -6.703   9.273  71.445  1.00  0.00    -0.011 C  
ENDROOT
BRANCH   4  19
HETATM   19  O   UNL     1      -8.049   3.223  70.170  1.00  0.00    -0.046 OA 
HETATM   20  O   UNL     1      -6.052   2.102  69.962  1.00  0.00    -0.022 OA 
HETATM   21  O   UNL     1      -6.145   2.351  67.648  1.00  0.00    -0.023 OA 
HETATM   22  O   UNL     1      -8.055   1.484  68.739  1.00  0.00    -0.048 OA 
HETATM   23  P   UNL     1      -7.044   2.763  68.839  1.00  0.00    -0.044 P  
ENDBRANCH   4  19
BRANCH  12  24
HETATM   24  O   UNL     1      -7.913  12.154  67.662  1.00  0.00    -0.136 OA 
BRANCH  24  25
HETATM   25  C   UNL     1      -9.048  12.609  66.987  1.00  0.00    -0.215 C  
HETATM   26  O   UNL     1      -9.350  12.323  65.835  1.00  0.00    -0.199 OA 
HETATM   27  N   UNL     1      -9.903  13.302  67.836  1.00  0.00    -0.227 N  
BRANCH  27  28
HETATM   28  C   UNL     1      -9.395  14.448  68.600  1.00  0.00    -0.188 C  
HETATM   29 CL   UNL     1      -9.086  17.127  68.960  1.00  0.00    -0.185 Cl 
HETATM   30  C   UNL     1      -9.729  15.795  67.967  1.00  0.00    -0.212 C  
ENDBRANCH  27  28
BRANCH  27  31
HETATM   31  C   UNL     1     -11.339  13.234  67.550  1.00  0.00    -0.296 C  
HETATM   32 CL   UNL     1     -11.726  11.803  69.874  1.00  0.00    -0.399 Cl 
HETATM   33  C   UNL     1     -12.036  11.986  68.122  1.00  0.00    -0.163 C  
ENDBRANCH  27  31
ENDBRANCH  24  25
ENDBRANCH  12  24
TORSDOF 5
ENDMDL
MODEL      126
REMARK 921   NORMALIZED FREE ENERGY PREDICTED BY IDOCK:   -3.73 KCAL/MOL
REMARK 922        TOTAL FREE ENERGY PREDICTED BY IDOCK:   -5.61 KCAL/MOL
REMARK 923 INTER-LIGAND FREE ENERGY PREDICTED BY IDOCK:   -5.71 KCAL/MOL
REMARK 924 INTRA-LIGAND FREE ENERGY PREDICTED BY IDOCK:    0.10 KCAL/MOL
REMARK 927      BINDING AFFINITY PREDICTED BY RF-SCORE:    0.00 PKD
ROOT
HETATM    1  C   UNL     1      -9.395  13.210  66.654  1.00  0.00    -0.242 C  
HETATM    2  C   UNL     1      -9.838  12.485  65.514  1.00  0.00    -0.197 C  
HETATM    3  C   UNL     1     -10.771  12.273  66.673  1.00  0.00    -0.276 C  
HETATM    4  C   UNL     1     -10.475  13.496  68.300  1.00  0.00    -0.253 C  
HETATM    5  C   UNL     1     -11.136  13.750  67.136  1.00  0.00    -0.315 C  
HETATM    6  C   UNL     1      -9.481   9.100  70.383  1.00  0.00    -0.269 A  
HETATM    7  C   UNL     1     -12.244  12.544  68.137  1.00  0.00     0.103 C  
HETATM    8  C   UNL     1      -8.669  11.961  67.763  1.00  0.00    -0.158 C  
HETATM    9  C   UNL     1     -11.747  14.921  66.436  1.00  0.00    -0.193 C  
HETATM   10  C   UNL     1     -11.228  11.362  69.043  1.00  0.00    -0.319 C  
HETATM   11  C   UNL     1      -8.758   8.123  71.090  1.00  0.00    -0.161 A  
HETATM   12  C   UNL     1      -7.405   7.928  70.819  1.00  0.00    -0.061 A  
HETATM   13  C   UNL     1      -7.592  11.135  67.030  1.00  0.00    -0.135 C  
HETATM   14  C   UNL     1      -9.687  10.851  68.506  1.00  0.00    -0.183 C  
HETATM   15  C   UNL     1      -8.867   9.902  69.405  1.00  0.00    -0.195 A  
HETATM   16  C   UNL     1      -7.502   9.646  69.104  1.00  0.00    -0.079 A  
HETATM   17  C   UNL     1      -6.784   8.672  69.825  1.00  0.00    -0.042 A  
HETATM   18  C   UNL     1      -6.731  10.361  68.022  1.00  0.00    -0.065 C  
ENDROOT
BRANCH   4  19
HETATM   19  O   UNL     1     -11.369  14.546  69.028  1.00  0.00    -0.244 OA 
HETATM   20  O   UNL     1     -10.799  15.093  71.187  1.00  0.00    -0.233 OA 
HETATM   21  O   UNL     1     -12.798  14.176  71.955  1.00  0.00    -0.323 OA 
HETATM   22  O   UNL     1     -12.911  15.725  70.171  1.00  0.00    -0.293 OA 
HETATM   23  P   UNL     1     -12.123  14.351  70.573  1.00  0.00    -0.363 P  
ENDBRANCH   4  19
BRANCH  12  24
HETATM   24  O   UNL     1      -6.722   6.909  71.509  1.00  0.00    -0.058 OA 
BRANCH  24  25
HETATM   25  C   UNL     1      -6.867   6.909  72.898  1.00  0.00    -0.070 C  
HETATM   26  O   UNL     1      -6.454   7.779  73.654  1.00  0.00    -0.072 OA 
HETATM   27  N   UNL     1      -7.693   5.875  73.324  1.00  0.00    -0.098 N  
BRANCH  27  28
HETATM   28  C   UNL     1      -7.380   4.492  72.947  1.00  0.00    -0.083 C  
HETATM   29 CL   UNL     1      -6.476   1.999  73.554  1.00  0.00    -0.013 Cl 
HETATM   30  C   UNL     1      -6.819   3.661  74.096  1.00  0.00    -0.046 C  
ENDBRANCH  27  28
BRANCH  27  31
HETATM   31  C   UNL     1      -8.494   6.106  74.531  1.00  0.00    -0.127 C  
HETATM   32 CL   UNL     1     -10.787   5.554  73.107  1.00  0.00    -0.301 Cl 
HETATM   33  C   UNL     1      -9.919   6.616  74.253  1.00  0.00    -0.345 C  
ENDBRANCH  27  31
ENDBRANCH  24  25
ENDBRANCH  12  24
TORSDOF 5
ENDMDL
MODEL      127
REMARK 921   NORMALIZED FREE ENERGY PREDICTED BY IDOCK:   -3.68 KCAL/MOL
REMARK 922        TOTAL FREE ENERGY PREDICTED BY IDOCK:   -5.54 KCAL/MOL
REMARK 923 INTER-LIGAND FREE ENERGY PREDICTED BY IDOCK:   -5.30 KCAL/MOL
REMARK 924 INTRA-LIGAND FREE ENERGY PREDICTED BY IDOCK:   -0.23 KCAL/MOL
REMARK 927      BINDING AFFINITY PREDICTED BY RF-SCORE:    0.00 PKD
ROOT
HETATM    1  C   UNL     1      -9.468  11.389  65.480  1.00  0.00    -0.251 C  
HETATM    2  C   UNL     1     -10.681  11.393  64.737  1.00  0.00    -0.362 C  
HETATM    3  C   UNL     1     -10.937  11.755  66.174  1.00  0.00    -0.355 C  
HETATM    4  C   UNL     1      -9.268  12.117  67.320  1.00  0.00    -0.185 C  
HETATM    5  C   UNL     1      -9.916  12.942  66.450  1.00  0.00    -0.267 C  
HETATM    6  C   UNL     1     -11.042   8.131  69.689  1.00  0.00    -0.015 A  
HETATM    7  C   UNL     1     -11.046  12.786  67.994  1.00  0.00    -0.284 C  
HETATM    8  C   UNL     1      -9.515   9.857  66.464  1.00  0.00    -0.230 C  
HETATM    9  C   UNL     1      -9.701  14.277  65.812  1.00  0.00    -0.264 C  
HETATM   10  C   UNL     1     -10.954  11.118  68.675  1.00  0.00    -0.268 C  
HETATM   11  C   UNL     1     -11.049   6.844  70.256  1.00  0.00    -0.342 A  
HETATM   12  C   UNL     1     -10.501   5.773  69.554  1.00  0.00    -0.293 A  
HETATM   13  C   UNL     1      -9.757   8.630  65.560  1.00  0.00     0.208 C  
HETATM   14  C   UNL     1     -10.623   9.738  67.721  1.00  0.00    -0.320 C  
HETATM   15  C   UNL     1     -10.480   8.371  68.422  1.00  0.00    -0.208 A  
HETATM   16  C   UNL     1      -9.980   7.254  67.701  1.00  0.00    -0.207 A  
HETATM   17  C   UNL     1      -9.983   5.970  68.282  1.00  0.00    -0.173 A  
HETATM   18  C   UNL     1      -9.429   7.337  66.298  1.00  0.00    -0.133 C  
ENDROOT
BRANCH   4  19
HETATM   19  O   UNL     1      -8.762  13.363  68.111  1.00  0.00    -0.168 OA 
HETATM   20  O   UNL     1      -6.809  14.339  67.391  1.00  0.00    -0.221 OA 
HETATM   21  O   UNL     1      -5.771  13.758  69.394  1.00  0.00    -0.084 OA 
HETATM   22  O   UNL     1      -7.854  14.871  69.516  1.00  0.00    -0.174 OA 
HETATM   23  P   UNL     1      -7.183  13.571  68.788  1.00  0.00    -0.031 P  
ENDBRANCH   4  19
BRANCH  12  24
HETATM   24  O   UNL     1     -10.568   4.489  70.128  1.00  0.00     0.120 OA 
BRANCH  24  25
HETATM   25  C   UNL     1      -9.910   4.331  71.350  1.00  0.00    -0.190 C  
HETATM   26  O   UNL     1      -9.935   5.131  72.277  1.00  0.00    -0.169 OA 
HETATM   27  N   UNL     1      -9.347   3.065  71.466  1.00  0.00    -0.120 N  
BRANCH  27  28
HETATM   28  C   UNL     1      -8.417   2.586  70.437  1.00  0.00    -0.050 C  
HETATM   29 CL   UNL     1      -6.397   3.008  68.664  1.00  0.00    -0.029 Cl 
HETATM   30  C   UNL     1      -7.496   3.676  69.897  1.00  0.00    -0.045 C  
ENDBRANCH  27  28
BRANCH  27  31
HETATM   31  C   UNL     1      -9.259   2.487  72.811  1.00  0.00    -0.078 C  
HETATM   32 CL   UNL     1      -7.096   4.105  73.356  1.00  0.00    -0.062 Cl 
HETATM   33  C   UNL     1      -7.838   2.479  73.401  1.00  0.00    -0.054 C  
ENDBRANCH  27  31
ENDBRANCH  24  25
ENDBRANCH  12  24
TORSDOF 5
ENDMDL
MODEL      128
REMARK 921   NORMALIZED FREE ENERGY PREDICTED BY IDOCK:   -3.67 KCAL/MOL
REMARK 922        TOTAL FREE ENERGY PREDICTED BY IDOCK:   -5.53 KCAL/MOL
REMARK 923 INTER-LIGAND FREE ENERGY PREDICTED BY IDOCK:   -4.55 KCAL/MOL
REMARK 924 INTRA-LIGAND FREE ENERGY PREDICTED BY IDOCK:   -0.98 KCAL/MOL
REMARK 927      BINDING AFFINITY PREDICTED BY RF-SCORE:    0.00 PKD
ROOT
HETATM    1  C   UNL     1     -11.233  11.365  67.668  1.00  0.00    -0.346 C  
HETATM    2  C   UNL     1     -11.322  12.359  68.681  1.00  0.00    -0.332 C  
HETATM    3  C   UNL     1      -9.924  12.281  68.136  1.00  0.00    -0.210 C  
HETATM    4  C   UNL     1      -9.682  11.134  66.445  1.00  0.00    -0.204 C  
HETATM    5  C   UNL     1     -10.125  12.417  66.564  1.00  0.00    -0.246 C  
HETATM    6  C   UNL     1      -6.867   8.540  69.607  1.00  0.00    -0.043 A  
HETATM    7  C   UNL     1      -8.237  12.462  66.907  1.00  0.00    -0.089 C  
HETATM    8  C   UNL     1     -10.384   9.958  68.452  1.00  0.00    -0.226 C  
HETATM    9  C   UNL     1     -10.753  13.463  65.700  1.00  0.00    -0.283 C  
HETATM   10  C   UNL     1      -7.724  10.976  67.792  1.00  0.00    -0.108 C  
HETATM   11  C   UNL     1      -6.398   7.427  70.327  1.00  0.00    -0.034 A  
HETATM   12  C   UNL     1      -7.303   6.567  70.945  1.00  0.00    -0.083 A  
HETATM   13  C   UNL     1     -11.102   9.536  69.750  1.00  0.00    -0.216 C  
HETATM   14  C   UNL     1      -8.758  10.113  68.846  1.00  0.00    -0.149 C  
HETATM   15  C   UNL     1      -8.242   8.806  69.483  1.00  0.00    -0.111 A  
HETATM   16  C   UNL     1      -9.144   7.949  70.170  1.00  0.00    -0.152 A  
HETATM   17  C   UNL     1      -8.664   6.832  70.881  1.00  0.00    -0.142 A  
HETATM   18  C   UNL     1     -10.638   8.156  70.205  1.00  0.00    -0.237 C  
ENDROOT
BRANCH   4  19
HETATM   19  O   UNL     1      -9.186  11.449  65.000  1.00  0.00    -0.180 OA 
HETATM   20  O   UNL     1     -10.452  10.641  63.259  1.00  0.00    -0.129 OA 
HETATM   21  O   UNL     1      -8.690   9.265  62.606  1.00  0.00    -0.215 OA 
HETATM   22  O   UNL     1      -8.223  11.555  62.967  1.00  0.00     0.301 OA 
HETATM   23  P   UNL     1      -8.925  10.296  63.736  1.00  0.00    -0.277 P  
ENDBRANCH   4  19
BRANCH  12  24
HETATM   24  O   UNL     1      -6.800   5.491  71.700  1.00  0.00    -0.061 OA 
BRANCH  24  25
HETATM   25  C   UNL     1      -7.255   4.222  71.333  1.00  0.00    -0.043 C  
HETATM   26  O   UNL     1      -7.120   3.714  70.227  1.00  0.00    -0.040 OA 
HETATM   27  N   UNL     1      -7.740   3.518  72.429  1.00  0.00    -0.061 N  
BRANCH  27  28
HETATM   28  C   UNL     1      -8.798   4.106  73.260  1.00  0.00    -0.098 C  
HETATM   29 CL   UNL     1     -11.364   4.930  73.625  1.00  0.00    -0.309 Cl 
HETATM   30  C   UNL     1     -10.140   4.217  72.545  1.00  0.00    -0.172 C  
ENDBRANCH  27  28
BRANCH  27  31
HETATM   31  C   UNL     1      -7.597   2.059  72.410  1.00  0.00    -0.044 C  
HETATM   32 CL   UNL     1      -5.690   2.229  74.392  1.00  0.00     0.000 Cl 
HETATM   33  C   UNL     1      -6.198   1.559  72.814  1.00  0.00    -0.009 C  
ENDBRANCH  27  31
ENDBRANCH  24  25
ENDBRANCH  12  24
TORSDOF 5
ENDMDL
MODEL      129
REMARK 921   NORMALIZED FREE ENERGY PREDICTED BY IDOCK:   -3.63 KCAL/MOL
REMARK 922        TOTAL FREE ENERGY PREDICTED BY IDOCK:   -5.48 KCAL/MOL
REMARK 923 INTER-LIGAND FREE ENERGY PREDICTED BY IDOCK:   -4.90 KCAL/MOL
REMARK 924 INTRA-LIGAND FREE ENERGY PREDICTED BY IDOCK:   -0.58 KCAL/MOL
REMARK 927      BINDING AFFINITY PREDICTED BY RF-SCORE:    0.00 PKD
ROOT
HETATM    1  C   UNL     1      -7.136   6.401  63.565  1.00  0.00    -0.054 C  
HETATM    2  C   UNL     1      -6.037   7.197  63.142  1.00  0.00    -0.045 C  
HETATM    3  C   UNL     1      -5.760   6.581  64.485  1.00  0.00    -0.030 C  
HETATM    4  C   UNL     1      -7.094   5.144  65.106  1.00  0.00    -0.063 C  
HETATM    5  C   UNL     1      -6.037   5.033  64.253  1.00  0.00    -0.022 C  
HETATM    6  C   UNL     1      -7.867   8.557  68.628  1.00  0.00    -0.108 A  
HETATM    7  C   UNL     1      -5.296   5.226  66.013  1.00  0.00    -0.013 C  
HETATM    8  C   UNL     1      -7.980   7.391  64.841  1.00  0.00    -0.128 C  
HETATM    9  C   UNL     1      -5.470   4.022  63.309  1.00  0.00    -0.013 C  
HETATM   10  C   UNL     1      -6.301   6.354  66.998  1.00  0.00    -0.041 C  
HETATM   11  C   UNL     1      -8.580   9.452  69.445  1.00  0.00    -0.148 A  
HETATM   12  C   UNL     1      -9.539  10.293  68.884  1.00  0.00    -0.190 A  
HETATM   13  C   UNL     1      -8.329   8.795  64.305  1.00  0.00    -0.158 C  
HETATM   14  C   UNL     1      -7.213   7.630  66.316  1.00  0.00    -0.071 C  
HETATM   15  C   UNL     1      -8.106   8.479  67.243  1.00  0.00    -0.105 A  
HETATM   16  C   UNL     1      -9.046   9.387  66.685  1.00  0.00    -0.181 A  
HETATM   17  C   UNL     1      -9.762  10.272  67.514  1.00  0.00    -0.196 A  
HETATM   18  C   UNL     1      -9.345   9.484  65.209  1.00  0.00    -0.317 C  
ENDROOT
BRANCH   4  19
HETATM   19  O   UNL     1      -6.949   3.634  65.468  1.00  0.00    -0.058 OA 
HETATM   20  O   UNL     1      -8.679   2.242  64.872  1.00  0.00    -0.101 OA 
HETATM   21  O   UNL     1      -9.125   1.822  67.120  1.00  0.00    -0.128 OA 
HETATM   22  O   UNL     1      -6.894   1.573  66.375  1.00  0.00    -0.036 OA 
HETATM   23  P   UNL     1      -8.098   2.677  66.340  1.00  0.00    -0.089 P  
ENDBRANCH   4  19
BRANCH  12  24
HETATM   24  O   UNL     1     -10.199  11.212  69.721  1.00  0.00     0.067 OA 
BRANCH  24  25
HETATM   25  C   UNL     1     -11.341  11.813  69.187  1.00  0.00    -0.279 C  
HETATM   26  O   UNL     1     -12.409  11.249  68.981  1.00  0.00    -0.446 OA 
HETATM   27  N   UNL     1     -11.184  13.189  69.066  1.00  0.00    -0.257 N  
BRANCH  27  28
HETATM   28  C   UNL     1     -10.048  13.727  68.309  1.00  0.00    -0.239 C  
HETATM   29 CL   UNL     1      -9.027  15.152  66.229  1.00  0.00    -0.314 Cl 
HETATM   30  C   UNL     1     -10.463  14.531  67.082  1.00  0.00    -0.267 C  
ENDBRANCH  27  28
BRANCH  27  31
HETATM   31  C   UNL     1     -12.384  14.020  69.211  1.00  0.00    -0.171 C  
HETATM   32 CL   UNL     1     -11.000  15.715  70.885  1.00  0.00    -0.350 Cl 
HETATM   33  C   UNL     1     -12.477  14.763  70.555  1.00  0.00    -0.352 C  
ENDBRANCH  27  31
ENDBRANCH  24  25
ENDBRANCH  12  24
TORSDOF 5
ENDMDL
MODEL      130
REMARK 921   NORMALIZED FREE ENERGY PREDICTED BY IDOCK:   -3.58 KCAL/MOL
REMARK 922        TOTAL FREE ENERGY PREDICTED BY IDOCK:   -5.42 KCAL/MOL
REMARK 923 INTER-LIGAND FREE ENERGY PREDICTED BY IDOCK:   -5.75 KCAL/MOL
REMARK 924 INTRA-LIGAND FREE ENERGY PREDICTED BY IDOCK:    0.33 KCAL/MOL
REMARK 927      BINDING AFFINITY PREDICTED BY RF-SCORE:    0.00 PKD
ROOT
HETATM    1  C   UNL     1      -6.492  18.554  69.219  1.00  0.00    -0.272 C  
HETATM    2  C   UNL     1      -5.129  18.734  68.858  1.00  0.00    -0.192 C  
HETATM    3  C   UNL     1      -5.937  18.286  67.673  1.00  0.00    -0.168 C  
HETATM    4  C   UNL     1      -7.979  18.291  67.924  1.00  0.00    -0.254 C  
HETATM    5  C   UNL     1      -7.141  19.324  67.625  1.00  0.00    -0.251 C  
HETATM    6  C   UNL     1      -7.249  13.430  67.224  1.00  0.00    -0.023 A  
HETATM    7  C   UNL     1      -7.253  18.242  66.044  1.00  0.00    -0.298 C  
HETATM    8  C   UNL     1      -6.725  16.751  69.324  1.00  0.00    -0.229 C  
HETATM    9  C   UNL     1      -7.205  20.814  67.519  1.00  0.00    -0.377 C  
HETATM   10  C   UNL     1      -7.365  16.496  66.483  1.00  0.00    -0.229 C  
HETATM   11  C   UNL     1      -7.304  12.050  67.487  1.00  0.00    -0.137 A  
HETATM   12  C   UNL     1      -7.012  11.574  68.763  1.00  0.00    -0.096 A  
HETATM   13  C   UNL     1      -5.687  16.117  70.273  1.00  0.00    -0.149 C  
HETATM   14  C   UNL     1      -6.681  15.847  67.909  1.00  0.00    -0.163 C  
HETATM   15  C   UNL     1      -6.913  14.356  68.229  1.00  0.00    -0.113 A  
HETATM   16  C   UNL     1      -6.562  13.842  69.506  1.00  0.00    -0.081 A  
HETATM   17  C   UNL     1      -6.630  12.458  69.762  1.00  0.00     0.044 A  
HETATM   18  C   UNL     1      -6.096  14.699  70.658  1.00  0.00    -0.148 C  
ENDROOT
BRANCH   4  19
HETATM   19  O   UNL     1      -9.144  19.040  67.207  1.00  0.00    -0.279 OA 
HETATM   20  O   UNL     1     -11.233  18.089  67.329  1.00  0.00    -0.019 OA 
HETATM   21  O   UNL     1     -11.222  17.751  65.024  1.00  0.00    -0.566 OA 
HETATM   22  O   UNL     1     -10.691  19.913  65.822  1.00  0.00    -0.479 OA 
HETATM   23  P   UNL     1     -10.241  18.359  66.055  1.00  0.00    -0.125 P  
ENDBRANCH   4  19
BRANCH  12  24
HETATM   24  O   UNL     1      -7.027  10.183  68.981  1.00  0.00    -0.053 OA 
BRANCH  24  25
HETATM   25  C   UNL     1      -8.279   9.620  69.243  1.00  0.00    -0.123 C  
HETATM   26  O   UNL     1      -9.319  10.247  69.397  1.00  0.00    -0.204 OA 
HETATM   27  N   UNL     1      -8.246   8.234  69.141  1.00  0.00    -0.120 N  
BRANCH  27  28
HETATM   28  C   UNL     1      -7.280   7.470  69.940  1.00  0.00    -0.080 C  
HETATM   29 CL   UNL     1      -6.631   6.003  72.136  1.00  0.00    -0.058 Cl 
HETATM   30  C   UNL     1      -7.864   6.921  71.237  1.00  0.00    -0.097 C  
ENDBRANCH  27  28
BRANCH  27  31
HETATM   31  C   UNL     1      -9.469   7.561  68.693  1.00  0.00    -0.146 C  
HETATM   32 CL   UNL     1      -8.130   6.617  66.478  1.00  0.00    -0.109 Cl 
HETATM   33  C   UNL     1      -9.579   7.407  67.166  1.00  0.00    -0.159 C  
ENDBRANCH  27  31
ENDBRANCH  24  25
ENDBRANCH  12  24
TORSDOF 5
ENDMDL
MODEL      131
REMARK 921   NORMALIZED FREE ENERGY PREDICTED BY IDOCK:   -3.51 KCAL/MOL
REMARK 922        TOTAL FREE ENERGY PREDICTED BY IDOCK:   -5.32 KCAL/MOL
REMARK 923 INTER-LIGAND FREE ENERGY PREDICTED BY IDOCK:   -4.89 KCAL/MOL
REMARK 924 INTRA-LIGAND FREE ENERGY PREDICTED BY IDOCK:   -0.43 KCAL/MOL
REMARK 927      BINDING AFFINITY PREDICTED BY RF-SCORE:    0.00 PKD
ROOT
HETATM    1  C   UNL     1      -7.391   8.649  69.763  1.00  0.00    -0.052 C  
HETATM    2  C   UNL     1      -8.252   8.806  70.884  1.00  0.00    -0.189 C  
HETATM    3  C   UNL     1      -9.040   8.817  69.603  1.00  0.00    -0.149 C  
HETATM    4  C   UNL     1      -8.007   8.278  67.908  1.00  0.00    -0.123 C  
HETATM    5  C   UNL     1      -8.574   7.489  68.864  1.00  0.00    -0.129 C  
HETATM    6  C   UNL     1      -9.108  12.977  66.740  1.00  0.00    -0.212 A  
HETATM    7  C   UNL     1     -10.021   8.235  67.847  1.00  0.00    -0.227 C  
HETATM    8  C   UNL     1      -7.266  10.308  69.020  1.00  0.00    -0.080 C  
HETATM    9  C   UNL     1      -8.594   6.044  69.245  1.00  0.00    -0.118 C  
HETATM   10  C   UNL     1      -9.635   9.925  67.350  1.00  0.00    -0.185 C  
HETATM   11  C   UNL     1      -8.893  14.309  66.346  1.00  0.00    -0.001 A  
HETATM   12  C   UNL     1      -7.852  15.042  66.912  1.00  0.00    -0.021 A  
HETATM   13  C   UNL     1      -6.825  11.349  70.070  1.00  0.00     0.138 C  
HETATM   14  C   UNL     1      -8.616  10.955  68.258  1.00  0.00    -0.139 C  
HETATM   15  C   UNL     1      -8.284  12.352  67.694  1.00  0.00    -0.169 A  
HETATM   16  C   UNL     1      -7.266  13.137  68.299  1.00  0.00    -0.107 A  
HETATM   17  C   UNL     1      -7.053  14.468  67.890  1.00  0.00    -0.168 A  
HETATM   18  C   UNL     1      -6.361  12.636  69.398  1.00  0.00    -0.112 C  
ENDROOT
BRANCH   4  19
HETATM   19  O   UNL     1      -8.181   7.130  66.868  1.00  0.00    -0.114 OA 
HETATM   20  O   UNL     1      -6.415   5.683  66.598  1.00  0.00    -0.047 OA 
HETATM   21  O   UNL     1      -6.136   6.421  64.406  1.00  0.00    -0.028 OA 
HETATM   22  O   UNL     1      -8.306   5.766  65.080  1.00  0.00    -0.137 OA 
HETATM   23  P   UNL     1      -7.101   6.755  65.569  1.00  0.00    -0.072 P  
ENDBRANCH   4  19
BRANCH  12  24
HETATM   24  O   UNL     1      -7.695  16.388  66.532  1.00  0.00    -0.257 OA 
BRANCH  24  25
HETATM   25  C   UNL     1      -6.490  16.990  66.902  1.00  0.00    -0.213 C  
HETATM   26  O   UNL     1      -5.374  16.534  66.685  1.00  0.00    -0.353 OA 
HETATM   27  N   UNL     1      -6.692  18.270  67.406  1.00  0.00    -0.194 N  
BRANCH  27  28
HETATM   28  C   UNL     1      -7.610  18.470  68.533  1.00  0.00    -0.306 C  
HETATM   29 CL   UNL     1      -9.958  19.376  69.566  1.00  0.00    -0.236 Cl 
HETATM   30  C   UNL     1      -8.901  19.183  68.145  1.00  0.00    -0.319 C  
ENDBRANCH  27  28
BRANCH  27  31
HETATM   31  C   UNL     1      -5.629  19.257  67.186  1.00  0.00    -0.171 C  
HETATM   32 CL   UNL     1      -6.865  20.057  64.857  1.00  0.00    -0.248 Cl 
HETATM   33  C   UNL     1      -5.366  19.578  65.704  1.00  0.00    -0.155 C  
ENDBRANCH  27  31
ENDBRANCH  24  25
ENDBRANCH  12  24
TORSDOF 5
ENDMDL
MODEL      132
REMARK 921   NORMALIZED FREE ENERGY PREDICTED BY IDOCK:   -3.49 KCAL/MOL
REMARK 922        TOTAL FREE ENERGY PREDICTED BY IDOCK:   -5.29 KCAL/MOL
REMARK 923 INTER-LIGAND FREE ENERGY PREDICTED BY IDOCK:   -5.49 KCAL/MOL
REMARK 924 INTRA-LIGAND FREE ENERGY PREDICTED BY IDOCK:    0.20 KCAL/MOL
REMARK 927      BINDING AFFINITY PREDICTED BY RF-SCORE:    0.00 PKD
ROOT
HETATM    1  C   UNL     1     -10.879  10.302  66.648  1.00  0.00    -0.115 C  
HETATM    2  C   UNL     1     -10.625   9.933  65.298  1.00  0.00     0.525 C  
HETATM    3  C   UNL     1      -9.384   9.780  66.133  1.00  0.00    -0.243 C  
HETATM    4  C   UNL     1      -9.642   9.954  68.166  1.00  0.00    -0.139 C  
HETATM    5  C   UNL     1      -9.862   8.881  67.354  1.00  0.00    -0.247 C  
HETATM    6  C   UNL     1      -6.682  13.861  67.377  1.00  0.00     0.007 A  
HETATM    7  C   UNL     1      -7.957   9.075  67.495  1.00  0.00    -0.101 C  
HETATM    8  C   UNL     1     -10.109  11.941  66.848  1.00  0.00    -0.229 C  
HETATM    9  C   UNL     1     -10.484   7.525  67.446  1.00  0.00    -0.367 C  
HETATM   10  C   UNL     1      -7.506  10.820  67.565  1.00  0.00    -0.093 C  
HETATM   11  C   UNL     1      -6.251  15.199  67.402  1.00  0.00     0.040 A  
HETATM   12  C   UNL     1      -7.137  16.220  67.065  1.00  0.00    -0.224 A  
HETATM   13  C   UNL     1     -10.618  12.923  65.773  1.00  0.00    -0.293 C  
HETATM   14  C   UNL     1      -8.433  12.054  66.830  1.00  0.00    -0.155 C  
HETATM   15  C   UNL     1      -8.002  13.522  67.028  1.00  0.00     0.031 A  
HETATM   16  C   UNL     1      -8.869  14.575  66.632  1.00  0.00    -0.214 A  
HETATM   17  C   UNL     1      -8.430  15.913  66.670  1.00  0.00    -0.322 A  
HETATM   18  C   UNL     1     -10.283  14.362  66.147  1.00  0.00    -0.317 C  
ENDROOT
BRANCH   4  19
HETATM   19  O   UNL     1      -9.394   8.986  69.363  1.00  0.00    -0.153 OA 
HETATM   20  O   UNL     1     -11.246   8.169  70.453  1.00  0.00    -0.264 OA 
HETATM   21  O   UNL     1     -10.613   9.298  72.390  1.00  0.00     0.131 OA 
HETATM   22  O   UNL     1      -8.990   7.950  71.322  1.00  0.00    -0.130 OA 
HETATM   23  P   UNL     1     -10.038   9.151  70.961  1.00  0.00    -0.301 P  
ENDBRANCH   4  19
BRANCH  12  24
HETATM   24  O   UNL     1      -6.660  17.545  67.052  1.00  0.00    -0.152 OA 
BRANCH  24  25
HETATM   25  C   UNL     1      -6.099  18.004  68.246  1.00  0.00    -0.178 C  
HETATM   26  O   UNL     1      -5.134  17.508  68.812  1.00  0.00    -0.148 OA 
HETATM   27  N   UNL     1      -6.664  19.211  68.644  1.00  0.00    -0.268 N  
BRANCH  27  28
HETATM   28  C   UNL     1      -8.118  19.312  68.811  1.00  0.00    -0.356 C  
HETATM   29 CL   UNL     1     -10.595  19.896  67.851  1.00  0.00    -0.493 Cl 
HETATM   30  C   UNL     1      -8.839  19.812  67.564  1.00  0.00    -0.326 C  
ENDBRANCH  27  28
BRANCH  27  31
HETATM   31  C   UNL     1      -5.808  20.144  69.385  1.00  0.00    -0.308 C  
HETATM   32 CL   UNL     1      -5.750  18.390  71.509  1.00  0.00     0.214 Cl 
HETATM   33  C   UNL     1      -5.965  20.062  70.913  1.00  0.00    -0.302 C  
ENDBRANCH  27  31
ENDBRANCH  24  25
ENDBRANCH  12  24
TORSDOF 5
ENDMDL
MODEL      133
REMARK 921   NORMALIZED FREE ENERGY PREDICTED BY IDOCK:   -3.42 KCAL/MOL
REMARK 922        TOTAL FREE ENERGY PREDICTED BY IDOCK:   -5.21 KCAL/MOL
REMARK 923 INTER-LIGAND FREE ENERGY PREDICTED BY IDOCK:   -4.95 KCAL/MOL
REMARK 924 INTRA-LIGAND FREE ENERGY PREDICTED BY IDOCK:   -0.26 KCAL/MOL
REMARK 927      BINDING AFFINITY PREDICTED BY RF-SCORE:    0.00 PKD
ROOT
HETATM    1  C   UNL     1      -7.829  10.357  64.796  1.00  0.00    -0.086 C  
HETATM    2  C   UNL     1      -7.931   9.031  64.293  1.00  0.00    -0.142 C  
HETATM    3  C   UNL     1      -9.192   9.425  65.009  1.00  0.00    -0.280 C  
HETATM    4  C   UNL     1      -9.354  11.411  65.517  1.00  0.00    -0.208 C  
HETATM    5  C   UNL     1      -9.599  10.801  64.324  1.00  0.00    -0.333 C  
HETATM    6  C   UNL     1      -9.319   9.402  70.057  1.00  0.00    -0.253 A  
HETATM    7  C   UNL     1     -11.033  10.297  65.496  1.00  0.00     0.510 C  
HETATM    8  C   UNL     1      -7.561  10.168  66.588  1.00  0.00    -0.107 C  
HETATM    9  C   UNL     1      -9.890  11.195  62.912  1.00  0.00    -0.323 C  
HETATM   10  C   UNL     1     -10.423  10.082  67.180  1.00  0.00    -0.305 C  
HETATM   11  C   UNL     1      -8.912   9.182  71.385  1.00  0.00    -0.144 A  
HETATM   12  C   UNL     1      -7.556   9.075  71.687  1.00  0.00     0.066 A  
HETATM   13  C   UNL     1      -6.358   9.245  66.870  1.00  0.00    -0.066 C  
HETATM   14  C   UNL     1      -8.823   9.596  67.538  1.00  0.00    -0.129 C  
HETATM   15  C   UNL     1      -8.383   9.529  69.015  1.00  0.00    -0.126 A  
HETATM   16  C   UNL     1      -7.010   9.358  69.338  1.00  0.00    -0.049 A  
HETATM   17  C   UNL     1      -6.613   9.147  70.673  1.00  0.00    -0.071 A  
HETATM   18  C   UNL     1      -5.898   9.378  68.318  1.00  0.00    -0.041 C  
ENDROOT
BRANCH   4  19
HETATM   19  O   UNL     1     -10.370  12.533  65.143  1.00  0.00    -0.280 OA 
HETATM   20  O   UNL     1      -9.862  14.674  65.811  1.00  0.00    -0.317 OA 
HETATM   21  O   UNL     1     -11.725  14.687  67.210  1.00  0.00    -0.381 OA 
HETATM   22  O   UNL     1     -12.042  14.031  64.960  1.00  0.00    -0.375 OA 
HETATM   23  P   UNL     1     -11.085  13.670  66.234  1.00  0.00    -0.310 P  
ENDBRANCH   4  19
BRANCH  12  24
HETATM   24  O   UNL     1      -7.184   8.804  73.018  1.00  0.00    -0.341 OA 
BRANCH  24  25
HETATM   25  C   UNL     1      -6.398   7.666  73.213  1.00  0.00    -0.063 C  
HETATM   26  O   UNL     1      -5.174   7.637  73.177  1.00  0.00    -0.040 OA 
HETATM   27  N   UNL     1      -7.163   6.582  73.626  1.00  0.00    -0.081 N  
BRANCH  27  28
HETATM   28  C   UNL     1      -8.309   6.151  72.816  1.00  0.00    -0.117 C  
HETATM   29 CL   UNL     1     -10.975   5.720  72.495  1.00  0.00    -0.290 Cl 
HETATM   30  C   UNL     1      -9.642   6.252  73.550  1.00  0.00    -0.149 C  
ENDBRANCH  27  28
BRANCH  27  31
HETATM   31  C   UNL     1      -6.521   5.601  74.507  1.00  0.00    -0.072 C  
HETATM   32 CL   UNL     1      -5.424   4.355  72.307  1.00  0.00    -0.004 Cl 
HETATM   33  C   UNL     1      -6.302   4.222  73.859  1.00  0.00    -0.045 C  
ENDBRANCH  27  31
ENDBRANCH  24  25
ENDBRANCH  12  24
TORSDOF 5
ENDMDL
MODEL      134
REMARK 921   NORMALIZED FREE ENERGY PREDICTED BY IDOCK:   -3.36 KCAL/MOL
REMARK 922        TOTAL FREE ENERGY PREDICTED BY IDOCK:   -5.12 KCAL/MOL
REMARK 923 INTER-LIGAND FREE ENERGY PREDICTED BY IDOCK:   -4.49 KCAL/MOL
REMARK 924 INTRA-LIGAND FREE ENERGY PREDICTED BY IDOCK:   -0.64 KCAL/MOL
REMARK 927      BINDING AFFINITY PREDICTED BY RF-SCORE:    0.00 PKD
ROOT
HETATM    1  C   UNL     1     -10.794  10.414  66.586  1.00  0.00    -0.140 C  
HETATM    2  C   UNL     1      -9.848   9.772  65.741  1.00  0.00    -0.360 C  
HETATM    3  C   UNL     1      -9.297   9.930  67.130  1.00  0.00    -0.170 C  
HETATM    4  C   UNL     1     -10.640  10.539  68.565  1.00  0.00    -0.206 C  
HETATM    5  C   UNL     1     -10.423   9.294  68.055  1.00  0.00    -0.275 C  
HETATM    6  C   UNL     1      -7.546  14.421  68.636  1.00  0.00    -0.132 A  
HETATM    7  C   UNL     1      -8.916   9.691  69.176  1.00  0.00    -0.154 C  
HETATM    8  C   UNL     1     -10.184  12.120  66.777  1.00  0.00    -0.224 C  
HETATM    9  C   UNL     1     -11.060   7.942  68.110  1.00  0.00     0.288 C  
HETATM   10  C   UNL     1      -8.492  11.440  69.062  1.00  0.00     0.051 C  
HETATM   11  C   UNL     1      -7.134  15.764  68.571  1.00  0.00    -0.118 A  
HETATM   12  C   UNL     1      -7.624  16.594  67.566  1.00  0.00    -0.155 A  
HETATM   13  C   UNL     1      -9.952  12.778  65.402  1.00  0.00    -0.215 C  
HETATM   14  C   UNL     1      -8.782  12.382  67.664  1.00  0.00    -0.178 C  
HETATM   15  C   UNL     1      -8.459  13.890  67.708  1.00  0.00    -0.183 A  
HETATM   16  C   UNL     1      -8.901  14.739  66.657  1.00  0.00    -0.262 A  
HETATM   17  C   UNL     1      -8.489  16.085  66.608  1.00  0.00    -0.323 A  
HETATM   18  C   UNL     1      -9.809  14.290  65.539  1.00  0.00    -0.284 C  
ENDROOT
BRANCH   4  19
HETATM   19  O   UNL     1     -11.155   9.898  69.890  1.00  0.00    -0.248 OA 
HETATM   20  O   UNL     1     -13.432   9.795  70.189  1.00  0.00     0.313 OA 
HETATM   21  O   UNL     1     -13.267  11.249  72.002  1.00  0.00    -0.506 OA 
HETATM   22  O   UNL     1     -11.839   9.364  71.969  1.00  0.00    -0.355 OA 
HETATM   23  P   UNL     1     -12.270  10.611  71.004  1.00  0.00    -0.380 P  
ENDBRANCH   4  19
BRANCH  12  24
HETATM   24  O   UNL     1      -7.153  17.919  67.500  1.00  0.00    -0.190 OA 
BRANCH  24  25
HETATM   25  C   UNL     1      -7.771  18.740  66.554  1.00  0.00    -0.255 C  
HETATM   26  O   UNL     1      -7.390  18.905  65.402  1.00  0.00    -0.478 OA 
HETATM   27  N   UNL     1      -8.985  19.232  67.019  1.00  0.00    -0.284 N  
BRANCH  27  28
HETATM   28  C   UNL     1      -9.033  19.966  68.289  1.00  0.00    -0.228 C  
HETATM   29 CL   UNL     1     -10.087  20.394  70.760  1.00  0.00     1.167 Cl 
HETATM   30  C   UNL     1     -10.106  19.456  69.245  1.00  0.00    -0.169 C  
ENDBRANCH  27  28
BRANCH  27  31
HETATM   31  C   UNL     1     -10.036  19.481  66.027  1.00  0.00    -0.436 C  
HETATM   32 CL   UNL     1     -11.409  17.272  66.936  1.00  0.00     0.542 Cl 
HETATM   33  C   UNL     1     -10.772  18.214  65.557  1.00  0.00     0.062 C  
ENDBRANCH  27  31
ENDBRANCH  24  25
ENDBRANCH  12  24
TORSDOF 5
ENDMDL
MODEL      135
REMARK 921   NORMALIZED FREE ENERGY PREDICTED BY IDOCK:   -3.31 KCAL/MOL
REMARK 922        TOTAL FREE ENERGY PREDICTED BY IDOCK:   -5.06 KCAL/MOL
REMARK 923 INTER-LIGAND FREE ENERGY PREDICTED BY IDOCK:   -6.53 KCAL/MOL
REMARK 924 INTRA-LIGAND FREE ENERGY PREDICTED BY IDOCK:    1.47 KCAL/MOL
REMARK 927      BINDING AFFINITY PREDICTED BY RF-SCORE:    0.00 PKD
ROOT
HETATM    1  C   UNL     1     -10.871  13.317  64.586  1.00  0.00    -0.396 C  
HETATM    2  C   UNL     1     -12.179  12.994  65.039  1.00  0.00    -0.501 C  
HETATM    3  C   UNL     1     -11.405  13.704  66.115  1.00  0.00    -0.324 C  
HETATM    4  C   UNL     1      -9.615  14.535  65.533  1.00  0.00    -0.082 C  
HETATM    5  C   UNL     1     -10.880  15.020  65.393  1.00  0.00    -0.376 C  
HETATM    6  C   UNL     1      -7.943  11.181  68.790  1.00  0.00    -0.144 A  
HETATM    7  C   UNL     1     -10.443  15.174  67.256  1.00  0.00    -0.271 C  
HETATM    8  C   UNL     1      -9.772  12.113  65.399  1.00  0.00    -0.178 C  
HETATM    9  C   UNL     1     -11.569  16.147  64.692  1.00  0.00    -0.133 C  
HETATM   10  C   UNL     1      -9.437  13.773  67.783  1.00  0.00    -0.216 C  
HETATM   11  C   UNL     1      -7.187  10.102  69.282  1.00  0.00    -0.085 A  
HETATM   12  C   UNL     1      -7.052   8.943  68.521  1.00  0.00    -0.072 A  
HETATM   13  C   UNL     1     -10.242  10.669  65.129  1.00  0.00    -0.368 C  
HETATM   14  C   UNL     1      -9.537  12.227  67.058  1.00  0.00    -0.208 C  
HETATM   15  C   UNL     1      -8.566  11.124  67.530  1.00  0.00    -0.129 A  
HETATM   16  C   UNL     1      -8.463   9.911  66.798  1.00  0.00    -0.125 A  
HETATM   17  C   UNL     1      -7.695   8.840  67.296  1.00  0.00    -0.096 A  
HETATM   18  C   UNL     1      -9.148   9.667  65.475  1.00  0.00    -0.252 C  
ENDROOT
BRANCH   4  19
HETATM   19  O   UNL     1      -9.063  15.993  65.527  1.00  0.00    -0.320 OA 
HETATM   20  O   UNL     1      -7.523  16.538  67.145  1.00  0.00    -0.146 OA 
HETATM   21  O   UNL     1      -9.024  18.059  68.072  1.00  0.00    -0.260 OA 
HETATM   22  O   UNL     1      -8.620  18.191  65.746  1.00  0.00    -0.472 OA 
HETATM   23  P   UNL     1      -9.043  17.083  66.871  1.00  0.00    -0.258 P  
ENDBRANCH   4  19
BRANCH  12  24
HETATM   24  O   UNL     1      -6.330   7.864  69.064  1.00  0.00    -0.035 OA 
BRANCH  24  25
HETATM   25  C   UNL     1      -6.691   7.476  70.357  1.00  0.00    -0.047 C  
HETATM   26  O   UNL     1      -6.150   7.858  71.388  1.00  0.00    -0.035 OA 
HETATM   27  N   UNL     1      -7.860   6.725  70.356  1.00  0.00    -0.107 N  
BRANCH  27  28
HETATM   28  C   UNL     1      -7.946   5.516  69.529  1.00  0.00    -0.094 C  
HETATM   29 CL   UNL     1      -9.098   3.134  68.898  1.00  0.00    -0.191 Cl 
HETATM   30  C   UNL     1      -9.059   4.565  69.957  1.00  0.00    -0.102 C  
ENDBRANCH  27  28
BRANCH  27  31
HETATM   31  C   UNL     1      -8.730   6.831  71.532  1.00  0.00    -0.127 C  
HETATM   32 CL   UNL     1     -10.396   8.525  70.137  1.00  0.00    -0.205 Cl 
HETATM   33  C   UNL     1      -9.489   8.166  71.635  1.00  0.00    -0.177 C  
ENDBRANCH  27  31
ENDBRANCH  24  25
ENDBRANCH  12  24
TORSDOF 5
ENDMDL
MODEL      136
REMARK 921   NORMALIZED FREE ENERGY PREDICTED BY IDOCK:   -3.26 KCAL/MOL
REMARK 922        TOTAL FREE ENERGY PREDICTED BY IDOCK:   -5.00 KCAL/MOL
REMARK 923 INTER-LIGAND FREE ENERGY PREDICTED BY IDOCK:   -5.64 KCAL/MOL
REMARK 924 INTRA-LIGAND FREE ENERGY PREDICTED BY IDOCK:    0.65 KCAL/MOL
REMARK 927      BINDING AFFINITY PREDICTED BY RF-SCORE:    0.00 PKD
ROOT
HETATM    1  C   UNL     1     -10.882   7.580  67.098  1.00  0.00    -0.298 C  
HETATM    2  C   UNL     1      -9.969   7.032  66.157  1.00  0.00     0.179 C  
HETATM    3  C   UNL     1      -9.250   7.461  67.406  1.00  0.00    -0.146 C  
HETATM    4  C   UNL     1     -10.447   7.972  68.999  1.00  0.00    -0.199 C  
HETATM    5  C   UNL     1     -10.058   6.739  68.570  1.00  0.00    -0.166 C  
HETATM    6  C   UNL     1      -8.262  12.354  68.172  1.00  0.00    -0.173 A  
HETATM    7  C   UNL     1      -8.510   7.551  69.363  1.00  0.00    -0.133 C  
HETATM    8  C   UNL     1     -10.620   9.381  67.026  1.00  0.00    -0.272 C  
HETATM    9  C   UNL     1     -10.381   5.308  68.856  1.00  0.00    -0.228 C  
HETATM   10  C   UNL     1      -8.484   9.322  69.021  1.00  0.00    -0.132 C  
HETATM   11  C   UNL     1      -8.155  13.732  67.917  1.00  0.00    -0.166 A  
HETATM   12  C   UNL     1      -8.961  14.324  66.947  1.00  0.00    -0.236 A  
HETATM   13  C   UNL     1     -10.751   9.898  65.579  1.00  0.00     0.548 C  
HETATM   14  C   UNL     1      -9.182  10.012  67.621  1.00  0.00    -0.148 C  
HETATM   15  C   UNL     1      -9.179  11.548  67.473  1.00  0.00    -0.166 A  
HETATM   16  C   UNL     1      -9.948  12.162  66.448  1.00  0.00    -0.243 A  
HETATM   17  C   UNL     1      -9.840  13.546  66.208  1.00  0.00    -0.306 A  
HETATM   18  C   UNL     1     -10.908  11.414  65.555  1.00  0.00    -0.282 C  
ENDROOT
BRANCH   4  19
HETATM   19  O   UNL     1     -10.601   7.412  70.446  1.00  0.00    -0.218 OA 
HETATM   20  O   UNL     1     -11.071   8.925  72.112  1.00  0.00    -0.362 OA 
HETATM   21  O   UNL     1      -9.016   8.473  73.112  1.00  0.00    -0.288 OA 
HETATM   22  O   UNL     1     -10.394   6.635  72.550  1.00  0.00    -0.188 OA 
HETATM   23  P   UNL     1      -9.764   7.972  71.853  1.00  0.00    -0.233 P  
ENDBRANCH   4  19
BRANCH  12  24
HETATM   24  O   UNL     1      -8.794  15.696  66.682  1.00  0.00    -0.240 OA 
BRANCH  24  25
HETATM   25  C   UNL     1      -8.702  16.528  67.800  1.00  0.00    -0.196 C  
HETATM   26  O   UNL     1      -9.443  16.489  68.775  1.00  0.00    -0.229 OA 
HETATM   27  N   UNL     1      -7.554  17.311  67.761  1.00  0.00    -0.178 N  
BRANCH  27  28
HETATM   28  C   UNL     1      -7.297  18.165  66.596  1.00  0.00    -0.222 C  
HETATM   29 CL   UNL     1      -7.580  20.511  65.248  1.00  0.00     0.088 Cl 
HETATM   30  C   UNL     1      -7.950  19.540  66.694  1.00  0.00    -0.293 C  
ENDBRANCH  27  28
BRANCH  27  31
HETATM   31  C   UNL     1      -6.943  17.675  69.044  1.00  0.00    -0.233 C  
HETATM   32 CL   UNL     1      -5.169  15.583  68.782  1.00  0.00    -0.098 Cl 
HETATM   33  C   UNL     1      -6.322  16.489  69.804  1.00  0.00    -0.183 C  
ENDBRANCH  27  31
ENDBRANCH  24  25
ENDBRANCH  12  24
TORSDOF 5
ENDMDL
MODEL      137
REMARK 921   NORMALIZED FREE ENERGY PREDICTED BY IDOCK:   -3.23 KCAL/MOL
REMARK 922        TOTAL FREE ENERGY PREDICTED BY IDOCK:   -4.96 KCAL/MOL
REMARK 923 INTER-LIGAND FREE ENERGY PREDICTED BY IDOCK:   -4.95 KCAL/MOL
REMARK 924 INTRA-LIGAND FREE ENERGY PREDICTED BY IDOCK:   -0.02 KCAL/MOL
REMARK 927      BINDING AFFINITY PREDICTED BY RF-SCORE:    0.00 PKD
ROOT
HETATM    1  C   UNL     1      -9.841  13.345  67.868  1.00  0.00    -0.237 C  
HETATM    2  C   UNL     1      -8.458  13.644  68.004  1.00  0.00    -0.174 C  
HETATM    3  C   UNL     1      -8.724  12.953  66.697  1.00  0.00    -0.046 C  
HETATM    4  C   UNL     1     -10.704  12.737  66.182  1.00  0.00    -0.275 C  
HETATM    5  C   UNL     1      -9.887  13.818  66.044  1.00  0.00    -0.298 C  
HETATM    6  C   UNL     1      -9.441   7.954  66.607  1.00  0.00    -0.270 A  
HETATM    7  C   UNL     1      -9.319  12.538  64.731  1.00  0.00     0.470 C  
HETATM    8  C   UNL     1      -9.976  11.555  68.176  1.00  0.00    -0.197 C  
HETATM    9  C   UNL     1     -10.005  15.263  65.677  1.00  0.00    -0.397 C  
HETATM   10  C   UNL     1      -9.472  10.863  65.380  1.00  0.00    -0.254 C  
HETATM   11  C   UNL     1      -9.499   6.623  67.055  1.00  0.00    -0.170 A  
HETATM   12  C   UNL     1      -9.682   6.353  68.410  1.00  0.00    -0.131 A  
HETATM   13  C   UNL     1      -9.335  11.180  69.528  1.00  0.00     0.432 C  
HETATM   14  C   UNL     1      -9.338  10.490  67.044  1.00  0.00    -0.176 C  
HETATM   15  C   UNL     1      -9.574   9.035  67.498  1.00  0.00    -0.182 A  
HETATM   16  C   UNL     1      -9.700   8.736  68.881  1.00  0.00    -0.174 A  
HETATM   17  C   UNL     1      -9.767   7.398  69.318  1.00  0.00    -0.165 A  
HETATM   18  C   UNL     1      -9.764   9.784  69.965  1.00  0.00    -0.292 C  
ENDROOT
BRANCH   4  19
HETATM   19  O   UNL     1     -11.558  13.239  64.977  1.00  0.00    -0.303 OA 
HETATM   20  O   UNL     1     -13.530  12.134  64.557  1.00  0.00    -0.614 OA 
HETATM   21  O   UNL     1     -12.693  11.402  62.510  1.00  0.00     0.502 OA 
HETATM   22  O   UNL     1     -12.534  13.710  63.003  1.00  0.00    -0.719 OA 
HETATM   23  P   UNL     1     -12.157  12.269  63.675  1.00  0.00    -0.543 P  
ENDBRANCH   4  19
BRANCH  12  24
HETATM   24  O   UNL     1      -9.686   5.011  68.832  1.00  0.00    -0.143 OA 
BRANCH  24  25
HETATM   25  C   UNL     1      -8.918   4.128  68.070  1.00  0.00    -0.121 C  
HETATM   26  O   UNL     1      -9.311   3.515  67.085  1.00  0.00    -0.181 OA 
HETATM   27  N   UNL     1      -7.583   4.147  68.458  1.00  0.00    -0.062 N  
BRANCH  27  28
HETATM   28  C   UNL     1      -7.230   3.889  69.859  1.00  0.00    -0.042 C  
HETATM   29 CL   UNL     1      -6.519   4.753  72.338  1.00  0.00    -0.040 Cl 
HETATM   30  C   UNL     1      -6.927   5.156  70.652  1.00  0.00    -0.052 C  
ENDBRANCH  27  28
BRANCH  27  31
HETATM   31  C   UNL     1      -6.576   3.886  67.424  1.00  0.00    -0.046 C  
HETATM   32 CL   UNL     1      -5.690   6.486  67.640  1.00  0.00    -0.011 Cl 
HETATM   33  C   UNL     1      -6.189   5.123  66.595  1.00  0.00    -0.035 C  
ENDBRANCH  27  31
ENDBRANCH  24  25
ENDBRANCH  12  24
TORSDOF 5
ENDMDL
MODEL      138
REMARK 921   NORMALIZED FREE ENERGY PREDICTED BY IDOCK:   -3.16 KCAL/MOL
REMARK 922        TOTAL FREE ENERGY PREDICTED BY IDOCK:   -4.87 KCAL/MOL
REMARK 923 INTER-LIGAND FREE ENERGY PREDICTED BY IDOCK:   -4.66 KCAL/MOL
REMARK 924 INTRA-LIGAND FREE ENERGY PREDICTED BY IDOCK:   -0.21 KCAL/MOL
REMARK 927      BINDING AFFINITY PREDICTED BY RF-SCORE:    0.00 PKD
ROOT
HETATM    1  C   UNL     1      -7.269   6.404  62.808  1.00  0.00    -0.055 C  
HETATM    2  C   UNL     1      -6.094   7.050  62.334  1.00  0.00    -0.045 C  
HETATM    3  C   UNL     1      -5.881   6.512  63.721  1.00  0.00    -0.030 C  
HETATM    4  C   UNL     1      -7.354   5.268  64.438  1.00  0.00    -0.060 C  
HETATM    5  C   UNL     1      -6.314   4.987  63.603  1.00  0.00    -0.026 C  
HETATM    6  C   UNL     1      -7.772   8.996  67.690  1.00  0.00    -0.097 A  
HETATM    7  C   UNL     1      -5.556   5.234  65.349  1.00  0.00    -0.014 C  
HETATM    8  C   UNL     1      -8.006   7.567  64.000  1.00  0.00    -0.091 C  
HETATM    9  C   UNL     1      -5.854   3.855  62.741  1.00  0.00    -0.013 C  
HETATM   10  C   UNL     1      -6.440   6.529  66.240  1.00  0.00    -0.043 C  
HETATM   11  C   UNL     1      -8.390  10.018  68.433  1.00  0.00    -0.111 A  
HETATM   12  C   UNL     1      -9.258  10.907  67.805  1.00  0.00    -0.153 A  
HETATM   13  C   UNL     1      -8.211   8.955  63.359  1.00  0.00    -0.181 C  
HETATM   14  C   UNL     1      -7.217   7.837  65.459  1.00  0.00    -0.064 C  
HETATM   15  C   UNL     1      -8.019   8.840  66.314  1.00  0.00    -0.106 A  
HETATM   16  C   UNL     1      -8.862   9.793  65.683  1.00  0.00    -0.182 A  
HETATM   17  C   UNL     1      -9.483  10.807  66.439  1.00  0.00    -0.200 A  
HETATM   18  C   UNL     1      -9.150   9.810  64.202  1.00  0.00    -0.289 C  
ENDROOT
BRANCH   4  19
HETATM   19  O   UNL     1      -7.363   3.782  64.913  1.00  0.00    -0.066 OA 
HETATM   20  O   UNL     1      -9.290   2.580  64.556  1.00  0.00    -0.134 OA 
HETATM   21  O   UNL     1      -9.604   2.385  66.856  1.00  0.00     0.045 OA 
HETATM   22  O   UNL     1      -7.486   1.803  65.981  1.00  0.00    -0.059 OA 
HETATM   23  P   UNL     1      -8.546   3.045  65.938  1.00  0.00    -0.128 P  
ENDBRANCH   4  19
BRANCH  12  24
HETATM   24  O   UNL     1      -9.821  11.949  68.566  1.00  0.00    -0.208 OA 
BRANCH  24  25
HETATM   25  C   UNL     1      -9.620  13.241  68.076  1.00  0.00    -0.220 C  
HETATM   26  O   UNL     1      -8.675  13.598  67.385  1.00  0.00    -0.190 OA 
HETATM   27  N   UNL     1     -10.719  14.057  68.323  1.00  0.00    -0.247 N  
BRANCH  27  28
HETATM   28  C   UNL     1     -11.212  14.214  69.696  1.00  0.00    -0.191 C  
HETATM   29 CL   UNL     1     -12.777  13.420  71.774  1.00  0.00    -0.363 Cl 
HETATM   30  C   UNL     1     -12.241  13.161  70.096  1.00  0.00    -0.290 C  
ENDBRANCH  27  28
BRANCH  27  31
HETATM   31  C   UNL     1     -11.001  15.119  67.352  1.00  0.00    -0.314 C  
HETATM   32 CL   UNL     1      -9.603  16.907  68.916  1.00  0.00    -0.263 Cl 
HETATM   33  C   UNL     1     -11.070  16.529  67.966  1.00  0.00    -0.275 C  
ENDBRANCH  27  31
ENDBRANCH  24  25
ENDBRANCH  12  24
TORSDOF 5
ENDMDL
MODEL      139
REMARK 921   NORMALIZED FREE ENERGY PREDICTED BY IDOCK:   -3.10 KCAL/MOL
REMARK 922        TOTAL FREE ENERGY PREDICTED BY IDOCK:   -4.79 KCAL/MOL
REMARK 923 INTER-LIGAND FREE ENERGY PREDICTED BY IDOCK:   -4.77 KCAL/MOL
REMARK 924 INTRA-LIGAND FREE ENERGY PREDICTED BY IDOCK:   -0.02 KCAL/MOL
REMARK 927      BINDING AFFINITY PREDICTED BY RF-SCORE:    0.00 PKD
ROOT
HETATM    1  C   UNL     1      -7.036   6.338  65.967  1.00  0.00    -0.065 C  
HETATM    2  C   UNL     1      -5.875   7.102  65.668  1.00  0.00    -0.036 C  
HETATM    3  C   UNL     1      -6.044   6.953  67.155  1.00  0.00    -0.029 C  
HETATM    4  C   UNL     1      -7.478   5.611  67.766  1.00  0.00    -0.077 C  
HETATM    5  C   UNL     1      -6.197   5.384  67.360  1.00  0.00    -0.034 C  
HETATM    6  C   UNL     1      -9.438   9.793  69.587  1.00  0.00    -0.237 A  
HETATM    7  C   UNL     1      -6.081   6.182  69.102  1.00  0.00    -0.029 C  
HETATM    8  C   UNL     1      -8.273   7.549  66.534  1.00  0.00    -0.123 C  
HETATM    9  C   UNL     1      -5.330   4.216  67.013  1.00  0.00    -0.013 C  
HETATM   10  C   UNL     1      -7.378   7.418  69.314  1.00  0.00    -0.086 C  
HETATM   11  C   UNL     1     -10.399  10.795  69.813  1.00  0.00    -0.073 A  
HETATM   12  C   UNL     1     -11.136  11.304  68.747  1.00  0.00    -0.233 A  
HETATM   13  C   UNL     1      -8.455   8.675  65.496  1.00  0.00    -0.181 C  
HETATM   14  C   UNL     1      -8.040   8.309  68.014  1.00  0.00    -0.127 C  
HETATM   15  C   UNL     1      -9.206   9.278  68.298  1.00  0.00    -0.134 A  
HETATM   16  C   UNL     1      -9.928   9.854  67.219  1.00  0.00    -0.245 A  
HETATM   17  C   UNL     1     -10.895  10.850  67.458  1.00  0.00    -0.324 A  
HETATM   18  C   UNL     1      -9.726   9.470  65.773  1.00  0.00    -0.357 C  
ENDROOT
BRANCH   4  19
HETATM   19  O   UNL     1      -7.430   4.307  68.620  1.00  0.00    -0.059 OA 
HETATM   20  O   UNL     1      -9.443   3.387  69.244  1.00  0.00    -0.167 OA 
HETATM   21  O   UNL     1      -8.951   3.810  71.481  1.00  0.00    -0.099 OA 
HETATM   22  O   UNL     1      -7.317   2.694  70.188  1.00  0.00    -0.040 OA 
HETATM   23  P   UNL     1      -8.233   4.045  70.130  1.00  0.00    -0.057 P  
ENDBRANCH   4  19
BRANCH  12  24
HETATM   24  O   UNL     1     -12.054  12.341  68.999  1.00  0.00    -0.265 OA 
BRANCH  24  25
HETATM   25  C   UNL     1     -11.520  13.508  69.550  1.00  0.00    -0.255 C  
HETATM   26  O   UNL     1     -11.721  13.910  70.690  1.00  0.00    -0.246 OA 
HETATM   27  N   UNL     1     -10.584  14.091  68.704  1.00  0.00    -0.253 N  
BRANCH  27  28
HETATM   28  C   UNL     1     -10.961  14.426  67.325  1.00  0.00    -0.297 C  
HETATM   29 CL   UNL     1     -10.594  15.833  65.026  1.00  0.00    -0.439 Cl 
HETATM   30  C   UNL     1     -10.074  15.495  66.696  1.00  0.00    -0.267 C  
ENDBRANCH  27  28
BRANCH  27  31
HETATM   31  C   UNL     1      -9.479  14.828  69.325  1.00  0.00    -0.055 C  
HETATM   32 CL   UNL     1      -7.699  13.556  67.651  1.00  0.00    -0.162 Cl 
HETATM   33  C   UNL     1      -8.134  14.081  69.304  1.00  0.00     0.296 C  
ENDBRANCH  27  31
ENDBRANCH  24  25
ENDBRANCH  12  24
TORSDOF 5
ENDMDL
MODEL      140
REMARK 921   NORMALIZED FREE ENERGY PREDICTED BY IDOCK:   -3.09 KCAL/MOL
REMARK 922        TOTAL FREE ENERGY PREDICTED BY IDOCK:   -4.77 KCAL/MOL
REMARK 923 INTER-LIGAND FREE ENERGY PREDICTED BY IDOCK:   -5.48 KCAL/MOL
REMARK 924 INTRA-LIGAND FREE ENERGY PREDICTED BY IDOCK:    0.70 KCAL/MOL
REMARK 927      BINDING AFFINITY PREDICTED BY RF-SCORE:    0.00 PKD
ROOT
HETATM    1  C   UNL     1      -8.950  16.465  67.645  1.00  0.00    -0.198 C  
HETATM    2  C   UNL     1      -7.921  16.978  66.808  1.00  0.00    -0.274 C  
HETATM    3  C   UNL     1      -8.511  15.728  66.217  1.00  0.00    -0.245 C  
HETATM    4  C   UNL     1     -10.224  15.031  67.118  1.00  0.00    -0.249 C  
HETATM    5  C   UNL     1     -10.073  16.023  66.197  1.00  0.00    -0.346 C  
HETATM    6  C   UNL     1      -7.188  11.218  68.064  1.00  0.00    -0.079 A  
HETATM    7  C   UNL     1      -9.789  14.370  65.264  1.00  0.00    -0.216 C  
HETATM    8  C   UNL     1      -8.212  15.024  68.481  1.00  0.00    -0.151 C  
HETATM    9  C   UNL     1     -10.903  17.100  65.575  1.00  0.00    -0.058 C  
HETATM   10  C   UNL     1      -8.941  13.186  66.327  1.00  0.00     0.098 C  
HETATM   11  C   UNL     1      -6.497  10.254  68.821  1.00  0.00    -0.051 A  
HETATM   12  C   UNL     1      -5.864  10.624  70.005  1.00  0.00    -0.076 A  
HETATM   13  C   UNL     1      -6.898  15.413  69.189  1.00  0.00    -0.144 C  
HETATM   14  C   UNL     1      -7.867  13.653  67.574  1.00  0.00    -0.185 C  
HETATM   15  C   UNL     1      -7.265  12.559  68.480  1.00  0.00    -0.110 A  
HETATM   16  C   UNL     1      -6.561  12.924  69.659  1.00  0.00     0.017 A  
HETATM   17  C   UNL     1      -5.881  11.949  70.415  1.00  0.00    -0.155 A  
HETATM   18  C   UNL     1      -6.477  14.337  70.184  1.00  0.00    -0.110 C  
ENDROOT
BRANCH   4  19
HETATM   19  O   UNL     1     -11.679  14.792  66.611  1.00  0.00    -0.358 OA 
HETATM   20  O   UNL     1     -12.653  12.776  67.131  1.00  0.00    -0.063 OA 
HETATM   21  O   UNL     1     -12.726  12.219  64.870  1.00  0.00    -0.575 OA 
HETATM   22  O   UNL     1     -13.590  14.325  65.513  1.00  0.00    -0.497 OA 
HETATM   23  P   UNL     1     -12.231  13.434  65.692  1.00  0.00    -0.477 P  
ENDBRANCH   4  19
BRANCH  12  24
HETATM   24  O   UNL     1      -5.140   9.646  70.713  1.00  0.00    -0.033 OA 
BRANCH  24  25
HETATM   25  C   UNL     1      -5.783   9.095  71.823  1.00  0.00    -0.073 C  
HETATM   26  O   UNL     1      -5.870   9.622  72.925  1.00  0.00    -0.304 OA 
HETATM   27  N   UNL     1      -6.472   7.935  71.490  1.00  0.00    -0.038 N  
BRANCH  27  28
HETATM   28  C   UNL     1      -5.760   6.828  70.841  1.00  0.00    -0.027 C  
HETATM   29 CL   UNL     1      -5.257   4.174  70.524  1.00  0.00    -0.003 Cl 
HETATM   30  C   UNL     1      -6.160   5.455  71.370  1.00  0.00    -0.033 C  
ENDBRANCH  27  28
BRANCH  27  31
HETATM   31  C   UNL     1      -7.690   7.633  72.249  1.00  0.00    -0.093 C  
HETATM   32 CL   UNL     1      -9.218   8.522  70.135  1.00  0.00    -0.153 Cl 
HETATM   33  C   UNL     1      -8.891   8.527  71.893  1.00  0.00    -0.216 C  
ENDBRANCH  27  31
ENDBRANCH  24  25
ENDBRANCH  12  24
TORSDOF 5
ENDMDL
MODEL      141
REMARK 921   NORMALIZED FREE ENERGY PREDICTED BY IDOCK:   -3.09 KCAL/MOL
REMARK 922        TOTAL FREE ENERGY PREDICTED BY IDOCK:   -4.77 KCAL/MOL
REMARK 923 INTER-LIGAND FREE ENERGY PREDICTED BY IDOCK:   -3.69 KCAL/MOL
REMARK 924 INTRA-LIGAND FREE ENERGY PREDICTED BY IDOCK:   -1.09 KCAL/MOL
REMARK 927      BINDING AFFINITY PREDICTED BY RF-SCORE:    0.00 PKD
ROOT
HETATM    1  C   UNL     1      -5.921   3.325  65.701  1.00  0.00    -0.019 C  
HETATM    2  C   UNL     1      -5.149   2.268  66.257  1.00  0.00    -0.005 C  
HETATM    3  C   UNL     1      -6.618   1.985  66.402  1.00  0.00    -0.031 C  
HETATM    4  C   UNL     1      -7.880   3.240  65.370  1.00  0.00    -0.082 C  
HETATM    5  C   UNL     1      -7.181   2.158  64.925  1.00  0.00    -0.054 C  
HETATM    6  C   UNL     1      -9.273   4.311  70.014  1.00  0.00    -0.207 A  
HETATM    7  C   UNL     1      -8.611   1.473  66.008  1.00  0.00    -0.108 C  
HETATM    8  C   UNL     1      -6.552   4.259  67.132  1.00  0.00    -0.046 C  
HETATM    9  C   UNL     1      -6.852   1.505  63.621  1.00  0.00    -0.026 C  
HETATM   10  C   UNL     1      -8.923   2.570  67.404  1.00  0.00    -0.187 C  
HETATM   11  C   UNL     1      -9.551   5.099  71.145  1.00  0.00    -0.224 A  
HETATM   12  C   UNL     1      -8.659   6.095  71.535  1.00  0.00    -0.131 A  
HETATM   13  C   UNL     1      -5.399   4.684  68.063  1.00  0.00    -0.011 C  
HETATM   14  C   UNL     1      -7.711   3.544  68.116  1.00  0.00    -0.064 C  
HETATM   15  C   UNL     1      -8.109   4.512  69.249  1.00  0.00    -0.068 A  
HETATM   16  C   UNL     1      -7.186   5.494  69.700  1.00  0.00    -0.065 A  
HETATM   17  C   UNL     1      -7.479   6.283  70.829  1.00  0.00    -0.091 A  
HETATM   18  C   UNL     1      -5.856   5.763  69.038  1.00  0.00    -0.016 C  
ENDROOT
BRANCH   4  19
HETATM   19  O   UNL     1      -8.937   3.008  64.247  1.00  0.00    -0.104 OA 
HETATM   20  O   UNL     1      -9.742   4.870  63.165  1.00  0.00     0.171 OA 
HETATM   21  O   UNL     1     -11.869   4.458  64.020  1.00  0.00     0.539 OA 
HETATM   22  O   UNL     1     -10.747   2.672  62.950  1.00  0.00    -0.160 OA 
HETATM   23  P   UNL     1     -10.485   3.774  64.127  1.00  0.00    -0.137 P  
ENDBRANCH   4  19
BRANCH  12  24
HETATM   24  O   UNL     1      -8.942   6.832  72.700  1.00  0.00    -0.130 OA 
BRANCH  24  25
HETATM   25  C   UNL     1      -9.176   8.198  72.518  1.00  0.00    -0.251 C  
HETATM   26  O   UNL     1      -8.376   9.092  72.763  1.00  0.00    -0.301 OA 
HETATM   27  N   UNL     1     -10.377   8.426  71.857  1.00  0.00    -0.256 N  
BRANCH  27  28
HETATM   28  C   UNL     1     -11.622   7.868  72.399  1.00  0.00    -0.380 C  
HETATM   29 CL   UNL     1     -14.090   6.774  72.068  1.00  0.00    -0.237 Cl 
HETATM   30  C   UNL     1     -12.617   7.446  71.324  1.00  0.00    -0.340 C  
ENDBRANCH  27  28
BRANCH  27  31
HETATM   31  C   UNL     1     -10.458   9.610  70.996  1.00  0.00    -0.257 C  
HETATM   32 CL   UNL     1     -10.531   7.981  68.775  1.00  0.00    -0.215 Cl 
HETATM   33  C   UNL     1      -9.848   9.415  69.597  1.00  0.00    -0.193 C  
ENDBRANCH  27  31
ENDBRANCH  24  25
ENDBRANCH  12  24
TORSDOF 5
ENDMDL
MODEL      142
REMARK 921   NORMALIZED FREE ENERGY PREDICTED BY IDOCK:   -2.88 KCAL/MOL
REMARK 922        TOTAL FREE ENERGY PREDICTED BY IDOCK:   -4.50 KCAL/MOL
REMARK 923 INTER-LIGAND FREE ENERGY PREDICTED BY IDOCK:   -5.74 KCAL/MOL
REMARK 924 INTRA-LIGAND FREE ENERGY PREDICTED BY IDOCK:    1.24 KCAL/MOL
REMARK 927      BINDING AFFINITY PREDICTED BY RF-SCORE:    0.00 PKD
ROOT
HETATM    1  C   UNL     1      -5.997  17.063  68.263  1.00  0.00    -0.134 C  
HETATM    2  C   UNL     1      -5.130  16.709  67.193  1.00  0.00    -0.139 C  
HETATM    3  C   UNL     1      -6.529  16.927  66.691  1.00  0.00    -0.235 C  
HETATM    4  C   UNL     1      -7.846  17.761  68.034  1.00  0.00    -0.241 C  
HETATM    5  C   UNL     1      -6.909  18.366  67.251  1.00  0.00    -0.208 C  
HETATM    6  C   UNL     1     -10.026  13.349  67.376  1.00  0.00    -0.230 A  
HETATM    7  C   UNL     1      -8.324  17.816  66.076  1.00  0.00    -0.082 C  
HETATM    8  C   UNL     1      -6.976  15.564  68.601  1.00  0.00    -0.116 C  
HETATM    9  C   UNL     1      -6.293  19.720  67.098  1.00  0.00    -0.205 C  
HETATM   10  C   UNL     1      -9.016  16.242  66.620  1.00  0.00    -0.283 C  
HETATM   11  C   UNL     1     -10.593  12.108  67.718  1.00  0.00    -0.229 A  
HETATM   12  C   UNL     1      -9.957  11.285  68.645  1.00  0.00    -0.204 A  
HETATM   13  C   UNL     1      -6.055  14.352  68.852  1.00  0.00    -0.087 C  
HETATM   14  C   UNL     1      -8.108  15.065  67.465  1.00  0.00    -0.200 C  
HETATM   15  C   UNL     1      -8.825  13.792  67.960  1.00  0.00    -0.182 A  
HETATM   16  C   UNL     1      -8.165  12.910  68.858  1.00  0.00     0.247 A  
HETATM   17  C   UNL     1      -8.746  11.674  69.200  1.00  0.00     0.324 A  
HETATM   18  C   UNL     1      -6.829  13.205  69.494  1.00  0.00     0.092 C  
ENDROOT
BRANCH   4  19
HETATM   19  O   UNL     1      -8.682  19.077  68.038  1.00  0.00    -0.289 OA 
HETATM   20  O   UNL     1     -10.960  18.872  68.267  1.00  0.00    -0.004 OA 
HETATM   21  O   UNL     1     -11.261  19.739  66.126  1.00  0.00    -0.133 OA 
HETATM   22  O   UNL     1      -9.872  20.942  67.615  1.00  0.00    -0.364 OA 
HETATM   23  P   UNL     1     -10.043  19.426  67.029  1.00  0.00    -0.465 P  
ENDBRANCH   4  19
BRANCH  12  24
HETATM   24  O   UNL     1     -10.524  10.029  68.928  1.00  0.00    -0.191 OA 
BRANCH  24  25
HETATM   25  C   UNL     1     -11.176   9.916  70.158  1.00  0.00    -0.289 C  
HETATM   26  O   UNL     1     -12.162  10.558  70.499  1.00  0.00    -0.293 OA 
HETATM   27  N   UNL     1     -10.676   8.855  70.905  1.00  0.00    -0.215 N  
BRANCH  27  28
HETATM   28  C   UNL     1      -9.240   8.786  71.197  1.00  0.00    -0.237 C  
HETATM   29 CL   UNL     1      -7.168   8.589  72.949  1.00  0.00    -0.099 Cl 
HETATM   30  C   UNL     1      -8.928   8.677  72.686  1.00  0.00    -0.045 C  
ENDBRANCH  27  28
BRANCH  27  31
HETATM   31  C   UNL     1     -11.607   8.168  71.807  1.00  0.00    -0.291 C  
HETATM   32 CL   UNL     1     -10.840   5.746  70.738  1.00  0.00    -0.343 Cl 
HETATM   33  C   UNL     1     -12.157   6.842  71.251  1.00  0.00    -0.373 C  
ENDBRANCH  27  31
ENDBRANCH  24  25
ENDBRANCH  12  24
TORSDOF 5
ENDMDL
MODEL      143
REMARK 921   NORMALIZED FREE ENERGY PREDICTED BY IDOCK:   -2.82 KCAL/MOL
REMARK 922        TOTAL FREE ENERGY PREDICTED BY IDOCK:   -4.43 KCAL/MOL
REMARK 923 INTER-LIGAND FREE ENERGY PREDICTED BY IDOCK:   -4.80 KCAL/MOL
REMARK 924 INTRA-LIGAND FREE ENERGY PREDICTED BY IDOCK:    0.37 KCAL/MOL
REMARK 927      BINDING AFFINITY PREDICTED BY RF-SCORE:    0.00 PKD
ROOT
HETATM    1  C   UNL     1      -6.656   7.176  70.167  1.00  0.00    -0.047 C  
HETATM    2  C   UNL     1      -5.735   7.922  70.952  1.00  0.00    -0.033 C  
HETATM    3  C   UNL     1      -6.989   7.641  71.731  1.00  0.00    -0.062 C  
HETATM    4  C   UNL     1      -8.296   6.301  70.877  1.00  0.00    -0.127 C  
HETATM    5  C   UNL     1      -7.166   6.066  71.603  1.00  0.00    -0.087 C  
HETATM    6  C   UNL     1     -11.150  10.363  70.847  1.00  0.00    -0.084 A  
HETATM    7  C   UNL     1      -8.489   6.693  72.845  1.00  0.00    -0.123 C  
HETATM    8  C   UNL     1      -7.933   8.374  69.662  1.00  0.00    -0.106 C  
HETATM    9  C   UNL     1      -6.295   4.906  71.961  1.00  0.00    -0.030 C  
HETATM   10  C   UNL     1      -9.528   7.950  72.075  1.00  0.00    -0.230 C  
HETATM   11  C   UNL     1     -11.978  11.374  70.327  1.00  0.00    -0.460 A  
HETATM   12  C   UNL     1     -11.636  12.007  69.134  1.00  0.00    -0.312 A  
HETATM   13  C   UNL     1      -7.296   9.598  68.973  1.00  0.00    -0.073 C  
HETATM   14  C   UNL     1      -8.976   8.983  70.829  1.00  0.00    -0.286 C  
HETATM   15  C   UNL     1      -9.977   9.963  70.182  1.00  0.00    -0.291 A  
HETATM   16  C   UNL     1      -9.618  10.663  68.999  1.00  0.00    -0.207 A  
HETATM   17  C   UNL     1     -10.460  11.667  68.482  1.00  0.00    -0.236 A  
HETATM   18  C   UNL     1      -8.348  10.409  68.225  1.00  0.00    -0.119 C  
ENDROOT
BRANCH   4  19
HETATM   19  O   UNL     1      -8.865   4.922  71.333  1.00  0.00    -0.128 OA 
HETATM   20  O   UNL     1     -11.079   4.501  70.879  1.00  0.00     0.748 OA 
HETATM   21  O   UNL     1     -11.543   4.442  73.162  1.00  0.00    -0.210 OA 
HETATM   22  O   UNL     1      -9.744   3.126  72.369  1.00  0.00    -0.128 OA 
HETATM   23  P   UNL     1     -10.278   4.669  72.298  1.00  0.00    -0.163 P  
ENDBRANCH   4  19
BRANCH  12  24
HETATM   24  O   UNL     1     -12.460  13.049  68.667  1.00  0.00     0.060 OA 
BRANCH  24  25
HETATM   25  C   UNL     1     -12.212  14.313  69.207  1.00  0.00    -0.252 C  
HETATM   26  O   UNL     1     -12.573  14.694  70.313  1.00  0.00    -0.342 OA 
HETATM   27  N   UNL     1     -11.350  15.051  68.404  1.00  0.00    -0.295 N  
BRANCH  27  28
HETATM   28  C   UNL     1     -11.682  15.269  66.991  1.00  0.00    -0.014 C  
HETATM   29 CL   UNL     1     -11.304  14.763  64.345  1.00  0.00    -0.273 Cl 
HETATM   30  C   UNL     1     -10.829  14.445  66.033  1.00  0.00    -0.309 C  
ENDBRANCH  27  28
BRANCH  27  31
HETATM   31  C   UNL     1     -10.463  16.011  69.070  1.00  0.00    -0.246 C  
HETATM   32 CL   UNL     1      -8.301  14.405  68.488  1.00  0.00    -0.154 Cl 
HETATM   33  C   UNL     1      -9.202  15.379  69.686  1.00  0.00    -0.185 C  
ENDBRANCH  27  31
ENDBRANCH  24  25
ENDBRANCH  12  24
TORSDOF 5
ENDMDL
MODEL      144
REMARK 921   NORMALIZED FREE ENERGY PREDICTED BY IDOCK:   -2.78 KCAL/MOL
REMARK 922        TOTAL FREE ENERGY PREDICTED BY IDOCK:   -4.38 KCAL/MOL
REMARK 923 INTER-LIGAND FREE ENERGY PREDICTED BY IDOCK:   -4.00 KCAL/MOL
REMARK 924 INTRA-LIGAND FREE ENERGY PREDICTED BY IDOCK:   -0.38 KCAL/MOL
REMARK 927      BINDING AFFINITY PREDICTED BY RF-SCORE:    0.00 PKD
ROOT
HETATM    1  C   UNL     1      -6.456   7.359  69.796  1.00  0.00    -0.035 C  
HETATM    2  C   UNL     1      -5.844   7.555  71.064  1.00  0.00    -0.035 C  
HETATM    3  C   UNL     1      -7.282   7.992  71.096  1.00  0.00    -0.056 C  
HETATM    4  C   UNL     1      -8.412   7.483  69.455  1.00  0.00    -0.133 C  
HETATM    5  C   UNL     1      -8.071   6.730  70.538  1.00  0.00    -0.116 C  
HETATM    6  C   UNL     1      -8.597  12.430  69.074  1.00  0.00     0.444 A  
HETATM    7  C   UNL     1      -9.376   7.998  71.148  1.00  0.00    -0.176 C  
HETATM    8  C   UNL     1      -6.573   9.021  69.059  1.00  0.00    -0.048 C  
HETATM    9  C   UNL     1      -8.155   5.302  70.972  1.00  0.00    -0.112 C  
HETATM   10  C   UNL     1      -9.158   9.578  70.306  1.00  0.00    -0.296 C  
HETATM   11  C   UNL     1      -8.466  13.700  68.486  1.00  0.00    -0.106 A  
HETATM   12  C   UNL     1      -7.318  14.018  67.765  1.00  0.00    -0.167 A  
HETATM   13  C   UNL     1      -5.195   9.713  69.043  1.00  0.00    -0.036 C  
HETATM   14  C   UNL     1      -7.645  10.128  69.728  1.00  0.00    -0.175 C  
HETATM   15  C   UNL     1      -7.590  11.455  68.945  1.00  0.00    -0.114 A  
HETATM   16  C   UNL     1      -6.403  11.822  68.256  1.00  0.00    -0.050 A  
HETATM   17  C   UNL     1      -6.287  13.094  67.662  1.00  0.00    -0.163 A  
HETATM   18  C   UNL     1      -5.202  10.919  68.110  1.00  0.00    -0.036 C  
ENDROOT
BRANCH   4  19
HETATM   19  O   UNL     1      -9.693   6.614  69.265  1.00  0.00    -0.146 OA 
HETATM   20  O   UNL     1      -9.509   4.753  67.926  1.00  0.00    -0.130 OA 
HETATM   21  O   UNL     1     -11.001   5.692  66.404  1.00  0.00    -0.218 OA 
HETATM   22  O   UNL     1     -11.639   5.641  68.680  1.00  0.00     0.636 OA 
HETATM   23  P   UNL     1     -10.383   6.127  67.755  1.00  0.00    -0.260 P  
ENDBRANCH   4  19
BRANCH  12  24
HETATM   24  O   UNL     1      -7.197  15.315  67.231  1.00  0.00    -0.200 OA 
BRANCH  24  25
HETATM   25  C   UNL     1      -7.865  16.326  67.926  1.00  0.00    -0.145 C  
HETATM   26  O   UNL     1      -7.605  16.694  69.064  1.00  0.00    -0.226 OA 
HETATM   27  N   UNL     1      -8.768  16.996  67.109  1.00  0.00    -0.205 N  
BRANCH  27  28
HETATM   28  C   UNL     1      -9.804  16.239  66.396  1.00  0.00    -0.291 C  
HETATM   29 CL   UNL     1     -12.053  14.709  66.377  1.00  0.00    -0.296 Cl 
HETATM   30  C   UNL     1     -10.832  15.598  67.322  1.00  0.00    -0.298 C  
ENDBRANCH  27  28
BRANCH  27  31
HETATM   31  C   UNL     1      -9.010  18.415  67.393  1.00  0.00    -0.261 C  
HETATM   32 CL   UNL     1      -6.964  19.099  65.678  1.00  0.00    -0.306 Cl 
HETATM   33  C   UNL     1      -7.760  19.304  67.266  1.00  0.00    -0.245 C  
ENDBRANCH  27  31
ENDBRANCH  24  25
ENDBRANCH  12  24
TORSDOF 5
ENDMDL
MODEL      145
REMARK 921   NORMALIZED FREE ENERGY PREDICTED BY IDOCK:   -2.67 KCAL/MOL
REMARK 922        TOTAL FREE ENERGY PREDICTED BY IDOCK:   -4.24 KCAL/MOL
REMARK 923 INTER-LIGAND FREE ENERGY PREDICTED BY IDOCK:   -3.73 KCAL/MOL
REMARK 924 INTRA-LIGAND FREE ENERGY PREDICTED BY IDOCK:   -0.50 KCAL/MOL
REMARK 927      BINDING AFFINITY PREDICTED BY RF-SCORE:    0.00 PKD
ROOT
HETATM    1  C   UNL     1      -8.270  11.202  65.432  1.00  0.00     0.159 C  
HETATM    2  C   UNL     1      -8.358  10.614  64.140  1.00  0.00    -0.024 C  
HETATM    3  C   UNL     1      -9.675  10.516  64.859  1.00  0.00    -0.360 C  
HETATM    4  C   UNL     1      -9.830  11.596  66.603  1.00  0.00    -0.200 C  
HETATM    5  C   UNL     1      -9.968  12.011  65.313  1.00  0.00    -0.273 C  
HETATM    6  C   UNL     1     -10.321   7.007  68.433  1.00  0.00    -0.216 A  
HETATM    7  C   UNL     1     -11.530  10.971  65.719  1.00  0.00     0.420 C  
HETATM    8  C   UNL     1      -8.194   9.798  66.591  1.00  0.00    -0.120 C  
HETATM    9  C   UNL     1     -10.102  13.300  64.566  1.00  0.00    -0.241 C  
HETATM   10  C   UNL     1     -11.103   9.592  66.800  1.00  0.00     0.295 C  
HETATM   11  C   UNL     1     -10.059   5.890  69.246  1.00  0.00    -0.251 A  
HETATM   12  C   UNL     1      -8.746   5.478  69.459  1.00  0.00    -0.104 A  
HETATM   13  C   UNL     1      -7.054   8.832  66.211  1.00  0.00    -0.082 C  
HETATM   14  C   UNL     1      -9.563   8.848  66.800  1.00  0.00    -0.262 C  
HETATM   15  C   UNL     1      -9.280   7.734  67.829  1.00  0.00    -0.143 A  
HETATM   16  C   UNL     1      -7.953   7.260  68.013  1.00  0.00    -0.119 A  
HETATM   17  C   UNL     1      -7.701   6.146  68.837  1.00  0.00    -0.093 A  
HETATM   18  C   UNL     1      -6.742   7.879  67.359  1.00  0.00    -0.069 C  
ENDROOT
BRANCH   4  19
HETATM   19  O   UNL     1     -10.769  12.751  67.067  1.00  0.00    -0.249 OA 
HETATM   20  O   UNL     1      -9.806  14.810  67.412  1.00  0.00    -0.220 OA 
HETATM   21  O   UNL     1     -10.320  14.679  69.680  1.00  0.00    -0.136 OA 
HETATM   22  O   UNL     1     -12.058  14.260  68.132  1.00  0.00    -0.323 OA 
HETATM   23  P   UNL     1     -10.532  13.769  68.446  1.00  0.00    -0.253 P  
ENDBRANCH   4  19
BRANCH  12  24
HETATM   24  O   UNL     1      -8.521   4.327  70.238  1.00  0.00    -0.068 OA 
BRANCH  24  25
HETATM   25  C   UNL     1      -9.262   4.234  71.418  1.00  0.00    -0.134 C  
HETATM   26  O   UNL     1     -10.392   3.771  71.511  1.00  0.00    -0.031 OA 
HETATM   27  N   UNL     1      -8.498   4.576  72.528  1.00  0.00    -0.113 N  
BRANCH  27  28
HETATM   28  C   UNL     1      -7.824   5.879  72.572  1.00  0.00    -0.102 C  
HETATM   29 CL   UNL     1      -7.884   8.591  72.774  1.00  0.00    -0.127 Cl 
HETATM   30  C   UNL     1      -8.784   7.055  72.720  1.00  0.00    -0.119 C  
ENDBRANCH  27  28
BRANCH  27  31
HETATM   31  C   UNL     1      -8.814   3.910  73.796  1.00  0.00    -0.092 C  
HETATM   32 CL   UNL     1      -6.736   2.150  73.380  1.00  0.00    -0.021 Cl 
HETATM   33  C   UNL     1      -8.445   2.416  73.831  1.00  0.00    -0.063 C  
ENDBRANCH  27  31
ENDBRANCH  24  25
ENDBRANCH  12  24
TORSDOF 5
ENDMDL
MODEL      146
REMARK 921   NORMALIZED FREE ENERGY PREDICTED BY IDOCK:   -2.64 KCAL/MOL
REMARK 922        TOTAL FREE ENERGY PREDICTED BY IDOCK:   -4.20 KCAL/MOL
REMARK 923 INTER-LIGAND FREE ENERGY PREDICTED BY IDOCK:   -5.35 KCAL/MOL
REMARK 924 INTRA-LIGAND FREE ENERGY PREDICTED BY IDOCK:    1.15 KCAL/MOL
REMARK 927      BINDING AFFINITY PREDICTED BY RF-SCORE:    0.00 PKD
ROOT
HETATM    1  C   UNL     1      -6.556   5.192  67.632  1.00  0.00    -0.053 C  
HETATM    2  C   UNL     1      -6.325   5.025  69.025  1.00  0.00    -0.031 C  
HETATM    3  C   UNL     1      -7.790   4.906  68.711  1.00  0.00    -0.077 C  
HETATM    4  C   UNL     1      -8.276   4.794  66.715  1.00  0.00    -0.107 C  
HETATM    5  C   UNL     1      -7.840   3.815  67.556  1.00  0.00    -0.082 C  
HETATM    6  C   UNL     1     -10.520   9.070  67.869  1.00  0.00    -0.291 A  
HETATM    7  C   UNL     1      -9.651   4.196  68.062  1.00  0.00    -0.200 C  
HETATM    8  C   UNL     1      -7.250   6.868  67.460  1.00  0.00    -0.090 C  
HETATM    9  C   UNL     1      -7.371   2.397  67.465  1.00  0.00    -0.056 C  
HETATM   10  C   UNL     1      -9.996   5.957  67.882  1.00  0.00    -0.157 C  
HETATM   11  C   UNL     1     -10.853  10.434  67.788  1.00  0.00    -0.351 A  
HETATM   12  C   UNL     1      -9.849  11.386  67.629  1.00  0.00    -0.176 A  
HETATM   13  C   UNL     1      -6.331   7.914  68.122  1.00  0.00    -0.050 C  
HETATM   14  C   UNL     1      -8.796   7.165  68.045  1.00  0.00    -0.129 C  
HETATM   15  C   UNL     1      -9.185   8.635  67.783  1.00  0.00    -0.146 A  
HETATM   16  C   UNL     1      -8.174   9.628  67.681  1.00  0.00    -0.114 A  
HETATM   17  C   UNL     1      -8.519  10.991  67.591  1.00  0.00    -0.121 A  
HETATM   18  C   UNL     1      -6.696   9.323  67.668  1.00  0.00    -0.068 C  
ENDROOT
BRANCH   4  19
HETATM   19  O   UNL     1      -8.996   3.717  65.847  1.00  0.00    -0.123 OA 
HETATM   20  O   UNL     1      -7.876   2.945  63.993  1.00  0.00    -0.075 OA 
HETATM   21  O   UNL     1      -9.512   3.866  62.613  1.00  0.00    -0.107 OA 
HETATM   22  O   UNL     1     -10.226   2.500  64.406  1.00  0.00    -0.007 OA 
HETATM   23  P   UNL     1      -9.268   3.796  64.140  1.00  0.00    -0.158 P  
ENDBRANCH   4  19
BRANCH  12  24
HETATM   24  O   UNL     1     -10.211  12.746  67.602  1.00  0.00    -0.213 OA 
BRANCH  24  25
HETATM   25  C   UNL     1     -11.279  13.076  66.765  1.00  0.00    -0.298 C  
HETATM   26  O   UNL     1     -12.379  13.463  67.139  1.00  0.00    -0.295 OA 
HETATM   27  N   UNL     1     -10.899  13.078  65.428  1.00  0.00    -0.280 N  
BRANCH  27  28
HETATM   28  C   UNL     1     -10.281  11.881  64.847  1.00  0.00    -0.271 C  
HETATM   29 CL   UNL     1      -8.966  10.613  62.831  1.00  0.00    -0.236 Cl 
HETATM   30  C   UNL     1      -9.701  12.111  63.455  1.00  0.00    -0.102 C  
ENDBRANCH  27  28
BRANCH  27  31
HETATM   31  C   UNL     1     -11.586  14.015  64.532  1.00  0.00    -0.391 C  
HETATM   32 CL   UNL     1     -13.206  11.968  63.648  1.00  0.00    -0.234 Cl 
HETATM   33  C   UNL     1     -12.158  13.364  63.260  1.00  0.00    -0.262 C  
ENDBRANCH  27  31
ENDBRANCH  24  25
ENDBRANCH  12  24
TORSDOF 5
ENDMDL
MODEL      147
REMARK 921   NORMALIZED FREE ENERGY PREDICTED BY IDOCK:   -2.49 KCAL/MOL
REMARK 922        TOTAL FREE ENERGY PREDICTED BY IDOCK:   -4.00 KCAL/MOL
REMARK 923 INTER-LIGAND FREE ENERGY PREDICTED BY IDOCK:   -5.77 KCAL/MOL
REMARK 924 INTRA-LIGAND FREE ENERGY PREDICTED BY IDOCK:    1.77 KCAL/MOL
REMARK 927      BINDING AFFINITY PREDICTED BY RF-SCORE:    0.00 PKD
ROOT
HETATM    1  C   UNL     1      -9.291  13.446  68.370  1.00  0.00    -0.165 C  
HETATM    2  C   UNL     1      -7.926  13.775  68.145  1.00  0.00    -0.150 C  
HETATM    3  C   UNL     1      -8.603  13.405  66.854  1.00  0.00    -0.114 C  
HETATM    4  C   UNL     1     -10.649  13.217  66.935  1.00  0.00    -0.263 C  
HETATM    5  C   UNL     1      -9.887  14.341  66.822  1.00  0.00    -0.274 C  
HETATM    6  C   UNL     1      -9.442   8.544  65.771  1.00  0.00    -0.134 A  
HETATM    7  C   UNL     1      -9.787  13.444  65.127  1.00  0.00    -0.094 C  
HETATM    8  C   UNL     1      -9.370  11.630  68.258  1.00  0.00    -0.191 C  
HETATM    9  C   UNL     1     -10.075  15.823  66.873  1.00  0.00    -0.267 C  
HETATM   10  C   UNL     1      -9.776  11.656  65.362  1.00  0.00    -0.255 C  
HETATM   11  C   UNL     1      -9.393   7.143  65.876  1.00  0.00     0.067 A  
HETATM   12  C   UNL     1      -9.154   6.547  67.112  1.00  0.00    -0.120 A  
HETATM   13  C   UNL     1      -8.352  10.975  69.213  1.00  0.00     0.033 C  
HETATM   14  C   UNL     1      -9.142  10.902  66.761  1.00  0.00    -0.164 C  
HETATM   15  C   UNL     1      -9.264   9.370  66.895  1.00  0.00    -0.173 A  
HETATM   16  C   UNL     1      -8.963   8.742  68.133  1.00  0.00    -0.141 A  
HETATM   17  C   UNL     1      -8.926   7.337  68.230  1.00  0.00    -0.125 A  
HETATM   18  C   UNL     1      -8.660   9.495  69.406  1.00  0.00    -0.159 C  
ENDROOT
BRANCH   4  19
HETATM   19  O   UNL     1     -11.821  13.948  66.211  1.00  0.00    -0.367 OA 
HETATM   20  O   UNL     1     -13.227  12.660  64.926  1.00  0.00    -0.819 OA 
HETATM   21  O   UNL     1     -12.522  13.787  63.013  1.00  0.00    -0.712 OA 
HETATM   22  O   UNL     1     -13.220  15.087  64.861  1.00  0.00     0.031 OA 
HETATM   23  P   UNL     1     -12.191  13.863  64.523  1.00  0.00    -0.358 P  
ENDBRANCH   4  19
BRANCH  12  24
HETATM   24  O   UNL     1      -9.062   5.143  67.175  1.00  0.00    -0.112 OA 
BRANCH  24  25
HETATM   25  C   UNL     1      -7.920   4.580  66.598  1.00  0.00    -0.102 C  
HETATM   26  O   UNL     1      -6.778   4.998  66.736  1.00  0.00    -0.051 OA 
HETATM   27  N   UNL     1      -8.207   3.372  65.974  1.00  0.00    -0.093 N  
BRANCH  27  28
HETATM   28  C   UNL     1      -9.253   3.316  64.946  1.00  0.00    -0.146 C  
HETATM   29 CL   UNL     1     -10.392   4.225  62.649  1.00  0.00    -0.110 Cl 
HETATM   30  C   UNL     1      -9.090   4.370  63.857  1.00  0.00    -0.138 C  
ENDBRANCH  27  28
BRANCH  27  31
HETATM   31  C   UNL     1      -7.149   2.357  65.951  1.00  0.00    -0.060 C  
HETATM   32 CL   UNL     1      -6.231   3.381  63.563  1.00  0.00    -0.018 Cl 
HETATM   33  C   UNL     1      -6.694   1.955  64.536  1.00  0.00    -0.030 C  
ENDBRANCH  27  31
ENDBRANCH  24  25
ENDBRANCH  12  24
TORSDOF 5
ENDMDL
MODEL      148
REMARK 921   NORMALIZED FREE ENERGY PREDICTED BY IDOCK:   -2.40 KCAL/MOL
REMARK 922        TOTAL FREE ENERGY PREDICTED BY IDOCK:   -3.88 KCAL/MOL
REMARK 923 INTER-LIGAND FREE ENERGY PREDICTED BY IDOCK:   -4.95 KCAL/MOL
REMARK 924 INTRA-LIGAND FREE ENERGY PREDICTED BY IDOCK:    1.07 KCAL/MOL
REMARK 927      BINDING AFFINITY PREDICTED BY RF-SCORE:    0.00 PKD
ROOT
HETATM    1  C   UNL     1      -6.353  16.950  68.870  1.00  0.00    -0.179 C  
HETATM    2  C   UNL     1      -5.125  16.661  68.212  1.00  0.00    -0.108 C  
HETATM    3  C   UNL     1      -6.229  16.863  67.211  1.00  0.00    -0.198 C  
HETATM    4  C   UNL     1      -7.994  17.609  67.959  1.00  0.00    -0.241 C  
HETATM    5  C   UNL     1      -6.852  18.268  67.618  1.00  0.00    -0.203 C  
HETATM    6  C   UNL     1      -9.575  13.172  66.389  1.00  0.00    -0.259 A  
HETATM    7  C   UNL     1      -7.678  17.729  65.972  1.00  0.00    -0.223 C  
HETATM    8  C   UNL     1      -7.326  15.414  68.761  1.00  0.00    -0.135 C  
HETATM    9  C   UNL     1      -6.278  19.643  67.752  1.00  0.00    -0.225 C  
HETATM   10  C   UNL     1      -8.465  16.118  66.162  1.00  0.00    -0.288 C  
HETATM   11  C   UNL     1     -10.181  11.904  66.451  1.00  0.00    -0.240 A  
HETATM   12  C   UNL     1      -9.922  11.062  67.530  1.00  0.00    -0.174 A  
HETATM   13  C   UNL     1      -6.529  14.217  69.318  1.00  0.00    -0.115 C  
HETATM   14  C   UNL     1      -7.910  14.932  67.262  1.00  0.00    -0.235 C  
HETATM   15  C   UNL     1      -8.712  13.622  67.405  1.00  0.00    -0.214 A  
HETATM   16  C   UNL     1      -8.417  12.723  68.465  1.00  0.00    -0.044 A  
HETATM   17  C   UNL     1      -9.037  11.459  68.522  1.00  0.00    -0.169 A  
HETATM   18  C   UNL     1      -7.445  13.027  69.578  1.00  0.00     0.589 C  
ENDROOT
BRANCH   4  19
HETATM   19  O   UNL     1      -8.817  18.902  67.673  1.00  0.00    -0.283 OA 
HETATM   20  O   UNL     1     -11.108  18.707  67.665  1.00  0.00    -0.277 OA 
HETATM   21  O   UNL     1     -11.153  19.248  65.399  1.00  0.00    -0.384 OA 
HETATM   22  O   UNL     1      -9.939  20.671  66.846  1.00  0.00    -0.418 OA 
HETATM   23  P   UNL     1     -10.050  19.084  66.473  1.00  0.00    -0.459 P  
ENDBRANCH   4  19
BRANCH  12  24
HETATM   24  O   UNL     1     -10.505   9.781  67.536  1.00  0.00    -0.218 OA 
BRANCH  24  25
HETATM   25  C   UNL     1      -9.705   8.748  68.032  1.00  0.00    -0.157 C  
HETATM   26  O   UNL     1      -9.481   8.533  69.217  1.00  0.00    -0.157 OA 
HETATM   27  N   UNL     1      -9.318   7.873  67.024  1.00  0.00    -0.151 N  
BRANCH  27  28
HETATM   28  C   UNL     1      -8.625   8.392  65.839  1.00  0.00    -0.158 C  
HETATM   29 CL   UNL     1      -6.664   9.881  64.683  1.00  0.00    -0.117 Cl 
HETATM   30  C   UNL     1      -7.451   9.306  66.174  1.00  0.00    -0.096 C  
ENDBRANCH  27  28
BRANCH  27  31
HETATM   31  C   UNL     1      -9.118   6.468  67.391  1.00  0.00    -0.112 C  
HETATM   32 CL   UNL     1     -10.869   5.708  65.404  1.00  0.00     0.946 Cl 
HETATM   33  C   UNL     1     -10.329   5.564  67.102  1.00  0.00    -0.248 C  
ENDBRANCH  27  31
ENDBRANCH  24  25
ENDBRANCH  12  24
TORSDOF 5
ENDMDL
MODEL      149
REMARK 921   NORMALIZED FREE ENERGY PREDICTED BY IDOCK:   -2.31 KCAL/MOL
REMARK 922        TOTAL FREE ENERGY PREDICTED BY IDOCK:   -3.78 KCAL/MOL
REMARK 923 INTER-LIGAND FREE ENERGY PREDICTED BY IDOCK:   -3.60 KCAL/MOL
REMARK 924 INTRA-LIGAND FREE ENERGY PREDICTED BY IDOCK:   -0.18 KCAL/MOL
REMARK 927      BINDING AFFINITY PREDICTED BY RF-SCORE:    0.00 PKD
ROOT
HETATM    1  C   UNL     1      -8.834  13.613  67.830  1.00  0.00    -0.188 C  
HETATM    2  C   UNL     1      -8.488  13.668  66.452  1.00  0.00     0.486 C  
HETATM    3  C   UNL     1      -9.770  12.908  66.647  1.00  0.00    -0.254 C  
HETATM    4  C   UNL     1     -10.595  13.006  68.529  1.00  0.00    -0.258 C  
HETATM    5  C   UNL     1     -10.668  13.901  67.505  1.00  0.00    -0.271 C  
HETATM    6  C   UNL     1      -9.633   8.140  68.306  1.00  0.00    -0.154 A  
HETATM    7  C   UNL     1     -11.774  12.414  67.005  1.00  0.00    -0.423 C  
HETATM    8  C   UNL     1      -8.430  11.917  68.358  1.00  0.00    -0.155 C  
HETATM    9  C   UNL     1     -11.149  15.299  67.281  1.00  0.00    -0.325 C  
HETATM   10  C   UNL     1     -11.046  10.868  67.581  1.00  0.00    -0.376 C  
HETATM   11  C   UNL     1      -9.109   6.894  68.691  1.00  0.00    -0.131 A  
HETATM   12  C   UNL     1      -7.789   6.799  69.127  1.00  0.00    -0.111 A  
HETATM   13  C   UNL     1      -6.966  11.569  68.016  1.00  0.00    -0.077 C  
HETATM   14  C   UNL     1      -9.361  10.646  67.776  1.00  0.00    -0.154 C  
HETATM   15  C   UNL     1      -8.854   9.311  68.359  1.00  0.00    -0.129 A  
HETATM   16  C   UNL     1      -7.494   9.180  68.750  1.00  0.00    -0.076 A  
HETATM   17  C   UNL     1      -6.982   7.927  69.143  1.00  0.00    -0.057 A  
HETATM   18  C   UNL     1      -6.512  10.325  68.771  1.00  0.00    -0.051 C  
ENDROOT
BRANCH   4  19
HETATM   19  O   UNL     1     -11.958  13.531  69.075  1.00  0.00    -0.327 OA 
HETATM   20  O   UNL     1     -11.952  15.585  70.109  1.00  0.00    -0.319 OA 
HETATM   21  O   UNL     1     -12.548  14.580  72.124  1.00  0.00    -0.322 OA 
HETATM   22  O   UNL     1     -13.832  14.053  70.210  1.00  0.00     0.759 OA 
HETATM   23  P   UNL     1     -12.269  14.085  70.684  1.00  0.00    -0.364 P  
ENDBRANCH   4  19
BRANCH  12  24
HETATM   24  O   UNL     1      -7.281   5.528  69.458  1.00  0.00    -0.062 OA 
BRANCH  24  25
HETATM   25  C   UNL     1      -6.680   5.420  70.714  1.00  0.00    -0.047 C  
HETATM   26  O   UNL     1      -5.484   5.244  70.915  1.00  0.00    -0.004 OA 
HETATM   27  N   UNL     1      -7.578   5.704  71.736  1.00  0.00    -0.094 N  
BRANCH  27  28
HETATM   28  C   UNL     1      -8.840   4.959  71.822  1.00  0.00    -0.128 C  
HETATM   29 CL   UNL     1     -10.316   2.711  71.414  1.00  0.00     0.271 Cl 
HETATM   30  C   UNL     1      -8.748   3.544  71.262  1.00  0.00    -0.078 C  
ENDBRANCH  27  28
BRANCH  27  31
HETATM   31  C   UNL     1      -7.039   6.310  72.958  1.00  0.00    -0.079 C  
HETATM   32 CL   UNL     1      -6.404   3.804  73.911  1.00  0.00    -0.024 Cl 
HETATM   33  C   UNL     1      -7.135   5.409  74.202  1.00  0.00    -0.079 C  
ENDBRANCH  27  31
ENDBRANCH  24  25
ENDBRANCH  12  24
TORSDOF 5
ENDMDL
MODEL      150
REMARK 921   NORMALIZED FREE ENERGY PREDICTED BY IDOCK:   -2.11 KCAL/MOL
REMARK 922        TOTAL FREE ENERGY PREDICTED BY IDOCK:   -3.51 KCAL/MOL
REMARK 923 INTER-LIGAND FREE ENERGY PREDICTED BY IDOCK:   -3.92 KCAL/MOL
REMARK 924 INTRA-LIGAND FREE ENERGY PREDICTED BY IDOCK:    0.41 KCAL/MOL
REMARK 927      BINDING AFFINITY PREDICTED BY RF-SCORE:    0.00 PKD
ROOT
HETATM    1  C   UNL     1      -7.968  14.909  68.207  1.00  0.00    -0.130 C  
HETATM    2  C   UNL     1      -6.841  15.298  67.432  1.00  0.00    -0.188 C  
HETATM    3  C   UNL     1      -7.728  14.370  66.650  1.00  0.00     0.773 C  
HETATM    4  C   UNL     1      -9.564  13.966  67.486  1.00  0.00    -0.229 C  
HETATM    5  C   UNL     1      -9.164  15.045  66.757  1.00  0.00    -0.280 C  
HETATM    6  C   UNL     1      -7.599   9.407  67.573  1.00  0.00    -0.091 A  
HETATM    7  C   UNL     1      -9.309  13.581  65.524  1.00  0.00     0.325 C  
HETATM    8  C   UNL     1      -7.622  13.198  68.729  1.00  0.00    -0.033 C  
HETATM    9  C   UNL     1      -9.692  16.393  66.383  1.00  0.00    -0.308 C  
HETATM   10  C   UNL     1      -8.791  12.043  66.311  1.00  0.00    -0.075 C  
HETATM   11  C   UNL     1      -7.177   8.176  68.107  1.00  0.00    -0.094 A  
HETATM   12  C   UNL     1      -6.472   8.145  69.307  1.00  0.00    -0.039 A  
HETATM   13  C   UNL     1      -6.253  13.105  69.434  1.00  0.00    -0.111 C  
HETATM   14  C   UNL     1      -7.636  11.982  67.571  1.00  0.00    -0.147 C  
HETATM   15  C   UNL     1      -7.333  10.621  68.231  1.00  0.00    -0.089 A  
HETATM   16  C   UNL     1      -6.561  10.569  69.423  1.00  0.00    -0.069 A  
HETATM   17  C   UNL     1      -6.153   9.330  69.955  1.00  0.00    -0.038 A  
HETATM   18  C   UNL     1      -6.121  11.790  70.194  1.00  0.00    -0.147 C  
ENDROOT
BRANCH   4  19
HETATM   19  O   UNL     1     -11.031  14.199  67.013  1.00  0.00    -0.292 OA 
HETATM   20  O   UNL     1     -12.529  12.490  67.357  1.00  0.00    -0.152 OA 
HETATM   21  O   UNL     1     -12.771  12.228  65.055  1.00  0.00    -0.581 OA 
HETATM   22  O   UNL     1     -13.004  14.406  65.946  1.00  0.00    -0.304 OA 
HETATM   23  P   UNL     1     -11.950  13.159  65.980  1.00  0.00    -0.429 P  
ENDBRANCH   4  19
BRANCH  12  24
HETATM   24  O   UNL     1      -6.022   6.901  69.789  1.00  0.00    -0.022 OA 
BRANCH  24  25
HETATM   25  C   UNL     1      -6.729   6.373  70.872  1.00  0.00    -0.058 C  
HETATM   26  O   UNL     1      -6.422   6.506  72.050  1.00  0.00    -0.052 OA 
HETATM   27  N   UNL     1      -7.934   5.810  70.469  1.00  0.00    -0.103 N  
BRANCH  27  28
HETATM   28  C   UNL     1      -7.940   4.771  69.433  1.00  0.00    -0.070 C  
HETATM   29 CL   UNL     1      -9.150   2.721  68.117  1.00  0.00    -0.204 Cl 
HETATM   30  C   UNL     1      -9.224   3.949  69.405  1.00  0.00    -0.153 C  
ENDBRANCH  27  28
BRANCH  27  31
HETATM   31  C   UNL     1      -9.051   5.857  71.419  1.00  0.00    -0.140 C  
HETATM   32 CL   UNL     1     -10.403   7.565  69.731  1.00  0.00    -0.215 Cl 
HETATM   33  C   UNL     1      -9.850   7.172  71.385  1.00  0.00    -0.176 C  
ENDBRANCH  27  31
ENDBRANCH  24  25
ENDBRANCH  12  24
TORSDOF 5
ENDMDL
MODEL      151
REMARK 921   NORMALIZED FREE ENERGY PREDICTED BY IDOCK:   -2.08 KCAL/MOL
REMARK 922        TOTAL FREE ENERGY PREDICTED BY IDOCK:   -3.47 KCAL/MOL
REMARK 923 INTER-LIGAND FREE ENERGY PREDICTED BY IDOCK:   -3.13 KCAL/MOL
REMARK 924 INTRA-LIGAND FREE ENERGY PREDICTED BY IDOCK:   -0.35 KCAL/MOL
REMARK 927      BINDING AFFINITY PREDICTED BY RF-SCORE:    0.00 PKD
ROOT
HETATM    1  C   UNL     1      -9.158  18.795  66.472  1.00  0.00    -0.325 C  
HETATM    2  C   UNL     1     -10.512  19.020  66.101  1.00  0.00    -0.541 C  
HETATM    3  C   UNL     1     -10.405  18.733  67.573  1.00  0.00    -0.471 C  
HETATM    4  C   UNL     1      -8.500  18.705  68.347  1.00  0.00    -0.338 C  
HETATM    5  C   UNL     1      -9.310  19.767  68.079  1.00  0.00    -0.444 C  
HETATM    6  C   UNL     1      -9.786  13.979  69.160  1.00  0.00     0.147 A  
HETATM    7  C   UNL     1     -10.043  18.904  69.629  1.00  0.00     0.352 C  
HETATM    8  C   UNL     1      -9.019  16.993  66.703  1.00  0.00    -0.280 C  
HETATM    9  C   UNL     1      -9.210  21.259  68.031  1.00  0.00     0.495 C  
HETATM   10  C   UNL     1      -9.845  17.116  69.504  1.00  0.00     0.125 C  
HETATM   11  C   UNL     1      -9.699  12.576  69.118  1.00  0.00     0.480 A  
HETATM   12  C   UNL     1      -9.369  11.935  67.926  1.00  0.00    -0.187 A  
HETATM   13  C   UNL     1      -9.509  16.239  65.450  1.00  0.00     0.298 C  
HETATM   14  C   UNL     1      -9.797  16.283  68.011  1.00  0.00    -0.236 C  
HETATM   15  C   UNL     1      -9.535  14.763  68.019  1.00  0.00    -0.204 A  
HETATM   16  C   UNL     1      -9.259  14.085  66.802  1.00  0.00    -0.280 A  
HETATM   17  C   UNL     1      -9.165  12.680  66.773  1.00  0.00    -0.225 A  
HETATM   18  C   UNL     1      -9.057  14.783  65.479  1.00  0.00     0.647 C  
ENDROOT
BRANCH   4  19
HETATM   19  O   UNL     1      -7.779  19.542  69.448  1.00  0.00    -0.267 OA 
HETATM   20  O   UNL     1      -5.498  19.767  69.269  1.00  0.00    -0.199 OA 
HETATM   21  O   UNL     1      -5.217  18.574  71.250  1.00  0.00    -0.297 OA 
HETATM   22  O   UNL     1      -6.740  20.384  71.260  1.00  0.00    -0.395 OA 
HETATM   23  P   UNL     1      -6.427  19.031  70.399  1.00  0.00     0.544 P  
ENDBRANCH   4  19
BRANCH  12  24
HETATM   24  O   UNL     1      -9.340  10.528  67.905  1.00  0.00    -0.141 OA 
BRANCH  24  25
HETATM   25  C   UNL     1      -9.474   9.896  69.144  1.00  0.00    -0.196 C  
HETATM   26  O   UNL     1      -8.794  10.128  70.135  1.00  0.00    -0.091 OA 
HETATM   27  N   UNL     1     -10.597   9.077  69.179  1.00  0.00    -0.224 N  
BRANCH  27  28
HETATM   28  C   UNL     1     -10.763   8.028  68.167  1.00  0.00    -0.032 C  
HETATM   29 CL   UNL     1     -10.554   5.441  67.355  1.00  0.00    -0.255 Cl 
HETATM   30  C   UNL     1     -10.309   6.651  68.639  1.00  0.00    -0.188 C  
ENDBRANCH  27  28
BRANCH  27  31
HETATM   31  C   UNL     1     -11.272   8.915  70.471  1.00  0.00    -0.252 C  
HETATM   32 CL   UNL     1     -13.068  10.884  69.770  1.00  0.00     0.232 Cl 
HETATM   33  C   UNL     1     -11.956  10.193  70.988  1.00  0.00    -0.378 C  
ENDBRANCH  27  31
ENDBRANCH  24  25
ENDBRANCH  12  24
TORSDOF 5
ENDMDL
MODEL      152
REMARK 921   NORMALIZED FREE ENERGY PREDICTED BY IDOCK:   -2.06 KCAL/MOL
REMARK 922        TOTAL FREE ENERGY PREDICTED BY IDOCK:   -3.45 KCAL/MOL
REMARK 923 INTER-LIGAND FREE ENERGY PREDICTED BY IDOCK:   -4.57 KCAL/MOL
REMARK 924 INTRA-LIGAND FREE ENERGY PREDICTED BY IDOCK:    1.13 KCAL/MOL
REMARK 927      BINDING AFFINITY PREDICTED BY RF-SCORE:    0.00 PKD
ROOT
HETATM    1  C   UNL     1      -7.113   7.137  65.387  1.00  0.00    -0.064 C  
HETATM    2  C   UNL     1      -5.998   7.914  64.971  1.00  0.00    -0.041 C  
HETATM    3  C   UNL     1      -6.105   7.899  66.470  1.00  0.00    -0.045 C  
HETATM    4  C   UNL     1      -7.456   6.565  67.261  1.00  0.00    -0.088 C  
HETATM    5  C   UNL     1      -6.183   6.352  66.826  1.00  0.00    -0.040 C  
HETATM    6  C   UNL     1      -9.525  10.820  68.767  1.00  0.00    -0.187 A  
HETATM    7  C   UNL     1      -6.037   7.314  68.480  1.00  0.00    -0.027 C  
HETATM    8  C   UNL     1      -8.379   8.347  65.890  1.00  0.00    -0.137 C  
HETATM    9  C   UNL     1      -5.280   5.192  66.553  1.00  0.00    -0.008 C  
HETATM   10  C   UNL     1      -7.376   8.512  68.631  1.00  0.00    -0.088 C  
HETATM   11  C   UNL     1     -10.518  11.800  68.939  1.00  0.00    -0.182 A  
HETATM   12  C   UNL     1     -11.316  12.178  67.862  1.00  0.00    -0.300 A  
HETATM   13  C   UNL     1      -8.647   9.362  64.760  1.00  0.00    -0.202 C  
HETATM   14  C   UNL     1      -8.123   9.251  67.282  1.00  0.00    -0.113 C  
HETATM   15  C   UNL     1      -9.319  10.196  67.524  1.00  0.00    -0.168 A  
HETATM   16  C   UNL     1     -10.104  10.639  66.426  1.00  0.00    -0.279 A  
HETATM   17  C   UNL     1     -11.103  11.615  66.612  1.00  0.00    -0.364 A  
HETATM   18  C   UNL     1      -9.940  10.130  65.015  1.00  0.00    -0.375 C  
ENDROOT
BRANCH   4  19
HETATM   19  O   UNL     1      -7.320   5.351  68.230  1.00  0.00    -0.070 OA 
HETATM   20  O   UNL     1      -8.680   3.539  67.836  1.00  0.00    -0.095 OA 
HETATM   21  O   UNL     1      -9.761   3.899  69.868  1.00  0.00    -0.202 OA 
HETATM   22  O   UNL     1      -7.397   3.817  69.878  1.00  0.00    -0.042 OA 
HETATM   23  P   UNL     1      -8.609   4.584  69.094  1.00  0.00    -0.087 P  
ENDBRANCH   4  19
BRANCH  12  24
HETATM   24  O   UNL     1     -12.267  13.197  68.055  1.00  0.00    -0.260 OA 
BRANCH  24  25
HETATM   25  C   UNL     1     -11.905  14.209  68.948  1.00  0.00    -0.347 C  
HETATM   26  O   UNL     1     -11.270  15.215  68.658  1.00  0.00    -0.257 OA 
HETATM   27  N   UNL     1     -12.499  14.029  70.192  1.00  0.00    -0.341 N  
BRANCH  27  28
HETATM   28  C   UNL     1     -12.309  12.764  70.911  1.00  0.00    -0.265 C  
HETATM   29 CL   UNL     1     -13.221  10.783  72.536  1.00  0.00     0.079 Cl 
HETATM   30  C   UNL     1     -13.535  12.327  71.705  1.00  0.00    -0.005 C  
ENDBRANCH  27  28
BRANCH  27  31
HETATM   31  C   UNL     1     -12.819  15.233  70.966  1.00  0.00    -0.440 C  
HETATM   32 CL   UNL     1     -10.152  15.925  70.979  1.00  0.00     0.926 Cl 
HETATM   33  C   UNL     1     -11.680  15.713  71.883  1.00  0.00    -0.459 C  
ENDBRANCH  27  31
ENDBRANCH  24  25
ENDBRANCH  12  24
TORSDOF 5
ENDMDL
MODEL      153
REMARK 921   NORMALIZED FREE ENERGY PREDICTED BY IDOCK:   -1.99 KCAL/MOL
REMARK 922        TOTAL FREE ENERGY PREDICTED BY IDOCK:   -3.36 KCAL/MOL
REMARK 923 INTER-LIGAND FREE ENERGY PREDICTED BY IDOCK:   -5.20 KCAL/MOL
REMARK 924 INTRA-LIGAND FREE ENERGY PREDICTED BY IDOCK:    1.84 KCAL/MOL
REMARK 927      BINDING AFFINITY PREDICTED BY RF-SCORE:    0.00 PKD
ROOT
HETATM    1  C   UNL     1      -6.625  15.908  69.370  1.00  0.00    -0.173 C  
HETATM    2  C   UNL     1      -5.331  15.855  68.783  1.00  0.00    -0.104 C  
HETATM    3  C   UNL     1      -6.392  15.949  67.722  1.00  0.00    -0.172 C  
HETATM    4  C   UNL     1      -8.293  16.363  68.388  1.00  0.00    -0.191 C  
HETATM    5  C   UNL     1      -7.252  17.212  68.162  1.00  0.00    -0.193 C  
HETATM    6  C   UNL     1      -9.058  11.846  66.473  1.00  0.00    -0.211 A  
HETATM    7  C   UNL     1      -7.885  16.660  66.436  1.00  0.00    -0.347 C  
HETATM    8  C   UNL     1      -7.335  14.250  69.112  1.00  0.00    -0.092 C  
HETATM    9  C   UNL     1      -6.912  18.647  68.410  1.00  0.00    -0.278 C  
HETATM   10  C   UNL     1      -8.417  14.937  66.484  1.00  0.00    -0.040 C  
HETATM   11  C   UNL     1      -9.458  10.499  66.424  1.00  0.00    -0.208 A  
HETATM   12  C   UNL     1      -9.132   9.639  67.470  1.00  0.00    -0.130 A  
HETATM   13  C   UNL     1      -6.392  13.158  69.655  1.00  0.00    -0.086 C  
HETATM   14  C   UNL     1      -7.746  13.782  67.552  1.00  0.00    -0.187 C  
HETATM   15  C   UNL     1      -8.338  12.357  67.568  1.00  0.00    -0.173 A  
HETATM   16  C   UNL     1      -7.967  11.448  68.595  1.00  0.00    -0.141 A  
HETATM   17  C   UNL     1      -8.381  10.103  68.540  1.00  0.00    -0.116 A  
HETATM   18  C   UNL     1      -7.121  11.825  69.787  1.00  0.00     0.289 C  
ENDROOT
BRANCH   4  19
HETATM   19  O   UNL     1      -9.292  17.530  68.118  1.00  0.00    -0.260 OA 
HETATM   20  O   UNL     1     -11.376  16.964  67.326  1.00  0.00     0.128 OA 
HETATM   21  O   UNL     1     -10.926  18.074  65.328  1.00  0.00    -0.575 OA 
HETATM   22  O   UNL     1     -10.537  19.242  67.348  1.00  0.00    -0.436 OA 
HETATM   23  P   UNL     1     -10.155  17.817  66.646  1.00  0.00    -0.364 P  
ENDBRANCH   4  19
BRANCH  12  24
HETATM   24  O   UNL     1      -9.505   8.285  67.366  1.00  0.00    -0.144 OA 
BRANCH  24  25
HETATM   25  C   UNL     1      -8.520   7.353  67.703  1.00  0.00    -0.120 C  
HETATM   26  O   UNL     1      -7.315   7.573  67.725  1.00  0.00    -0.096 OA 
HETATM   27  N   UNL     1      -9.076   6.173  68.182  1.00  0.00    -0.113 N  
BRANCH  27  28
HETATM   28  C   UNL     1     -10.059   5.450  67.366  1.00  0.00    -0.185 C  
HETATM   29 CL   UNL     1     -10.906   4.448  64.983  1.00  0.00    -0.204 Cl 
HETATM   30  C   UNL     1      -9.667   5.345  65.896  1.00  0.00    -0.068 C  
ENDBRANCH  27  28
BRANCH  27  31
HETATM   31  C   UNL     1      -8.308   5.421  69.180  1.00  0.00    -0.097 C  
HETATM   32 CL   UNL     1      -6.744   4.368  67.170  1.00  0.00    -0.050 Cl 
HETATM   33  C   UNL     1      -7.710   4.105  68.652  1.00  0.00    -0.062 C  
ENDBRANCH  27  31
ENDBRANCH  24  25
ENDBRANCH  12  24
TORSDOF 5
ENDMDL
MODEL      154
REMARK 921   NORMALIZED FREE ENERGY PREDICTED BY IDOCK:   -1.87 KCAL/MOL
REMARK 922        TOTAL FREE ENERGY PREDICTED BY IDOCK:   -3.20 KCAL/MOL
REMARK 923 INTER-LIGAND FREE ENERGY PREDICTED BY IDOCK:   -4.60 KCAL/MOL
REMARK 924 INTRA-LIGAND FREE ENERGY PREDICTED BY IDOCK:    1.40 KCAL/MOL
REMARK 927      BINDING AFFINITY PREDICTED BY RF-SCORE:    0.00 PKD
ROOT
HETATM    1  C   UNL     1     -10.768   7.500  72.327  1.00  0.00    -0.294 C  
HETATM    2  C   UNL     1     -12.163   7.255  72.204  1.00  0.00    -0.260 C  
HETATM    3  C   UNL     1     -11.372   6.080  71.702  1.00  0.00    -0.313 C  
HETATM    4  C   UNL     1      -9.354   6.119  72.101  1.00  0.00    -0.151 C  
HETATM    5  C   UNL     1     -10.389   5.747  72.906  1.00  0.00    -0.226 C  
HETATM    6  C   UNL     1      -9.214   6.277  67.140  1.00  0.00    -0.125 A  
HETATM    7  C   UNL     1     -10.189   4.354  71.601  1.00  0.00    -0.186 C  
HETATM    8  C   UNL     1     -10.196   7.866  70.636  1.00  0.00    -0.199 C  
HETATM    9  C   UNL     1     -10.611   5.399  74.343  1.00  0.00    -0.160 C  
HETATM   10  C   UNL     1      -9.723   5.051  70.004  1.00  0.00    -0.278 C  
HETATM   11  C   UNL     1      -8.885   6.750  65.857  1.00  0.00    -0.127 A  
HETATM   12  C   UNL     1      -8.992   8.108  65.568  1.00  0.00    -0.032 A  
HETATM   13  C   UNL     1     -11.028   9.003  70.009  1.00  0.00    -0.230 C  
HETATM   14  C   UNL     1     -10.172   6.625  69.505  1.00  0.00    -0.208 C  
HETATM   15  C   UNL     1      -9.644   7.152  68.155  1.00  0.00    -0.134 A  
HETATM   16  C   UNL     1      -9.802   8.523  67.820  1.00  0.00    -0.218 A  
HETATM   17  C   UNL     1      -9.460   8.987  66.534  1.00  0.00    -0.266 A  
HETATM   18  C   UNL     1     -10.336   9.565  68.772  1.00  0.00    -0.228 C  
ENDROOT
BRANCH   4  19
HETATM   19  O   UNL     1      -8.403   5.179  72.902  1.00  0.00    -0.108 OA 
HETATM   20  O   UNL     1      -6.310   5.986  73.405  1.00  0.00    -0.061 OA 
HETATM   21  O   UNL     1      -5.346   4.346  72.062  1.00  0.00    -0.003 OA 
HETATM   22  O   UNL     1      -6.933   3.656  73.673  1.00  0.00    -0.043 OA 
HETATM   23  P   UNL     1      -6.789   4.739  72.458  1.00  0.00    -0.069 P  
ENDBRANCH   4  19
BRANCH  12  24
HETATM   24  O   UNL     1      -8.702   8.541  64.260  1.00  0.00    -0.052 OA 
BRANCH  24  25
HETATM   25  C   UNL     1      -7.509   9.251  64.102  1.00  0.00    -0.110 C  
HETATM   26  O   UNL     1      -7.281  10.064  63.216  1.00  0.00    -0.128 OA 
HETATM   27  N   UNL     1      -6.652   9.054  65.179  1.00  0.00    -0.071 N  
BRANCH  27  28
HETATM   28  C   UNL     1      -6.267   7.690  65.561  1.00  0.00    -0.038 C  
HETATM   29 CL   UNL     1      -5.126   5.930  67.292  1.00  0.00    -0.004 Cl 
HETATM   30  C   UNL     1      -5.547   7.617  66.903  1.00  0.00    -0.031 C  
ENDBRANCH  27  28
BRANCH  27  31
HETATM   31  C   UNL     1      -5.759  10.160  65.540  1.00  0.00    -0.081 C  
HETATM   32 CL   UNL     1      -6.655  10.023  68.142  1.00  0.00    -0.055 Cl 
HETATM   33  C   UNL     1      -6.265  11.021  66.710  1.00  0.00    -0.110 C  
ENDBRANCH  27  31
ENDBRANCH  24  25
ENDBRANCH  12  24
TORSDOF 5
ENDMDL
MODEL      155
REMARK 921   NORMALIZED FREE ENERGY PREDICTED BY IDOCK:   -1.67 KCAL/MOL
REMARK 922        TOTAL FREE ENERGY PREDICTED BY IDOCK:   -2.94 KCAL/MOL
REMARK 923 INTER-LIGAND FREE ENERGY PREDICTED BY IDOCK:   -3.94 KCAL/MOL
REMARK 924 INTRA-LIGAND FREE ENERGY PREDICTED BY IDOCK:    1.01 KCAL/MOL
REMARK 927      BINDING AFFINITY PREDICTED BY RF-SCORE:    0.00 PKD
ROOT
HETATM    1  C   UNL     1      -8.217   7.888  67.253  1.00  0.00    -0.122 C  
HETATM    2  C   UNL     1      -7.007   7.377  66.709  1.00  0.00    -0.077 C  
HETATM    3  C   UNL     1      -6.825   7.745  68.155  1.00  0.00    -0.068 C  
HETATM    4  C   UNL     1      -8.544   8.192  69.192  1.00  0.00    -0.136 C  
HETATM    5  C   UNL     1      -8.007   6.977  68.890  1.00  0.00    -0.120 C  
HETATM    6  C   UNL     1      -6.258  12.591  69.457  1.00  0.00    -0.120 A  
HETATM    7  C   UNL     1      -6.888   7.741  70.249  1.00  0.00    -0.046 C  
HETATM    8  C   UNL     1      -7.967   9.689  67.367  1.00  0.00    -0.106 C  
HETATM    9  C   UNL     1      -8.400   5.536  68.967  1.00  0.00    -0.102 C  
HETATM   10  C   UNL     1      -6.753   9.525  70.021  1.00  0.00    -0.070 C  
HETATM   11  C   UNL     1      -6.077  13.979  69.323  1.00  0.00    -0.100 A  
HETATM   12  C   UNL     1      -6.458  14.620  68.147  1.00  0.00    -0.137 A  
HETATM   13  C   UNL     1      -7.542  10.272  66.004  1.00  0.00    -0.128 C  
HETATM   14  C   UNL     1      -6.872  10.283  68.493  1.00  0.00    -0.061 C  
HETATM   15  C   UNL     1      -6.830  11.824  68.426  1.00  0.00    -0.069 A  
HETATM   16  C   UNL     1      -7.156  12.489  67.214  1.00  0.00    -0.114 A  
HETATM   17  C   UNL     1      -6.980  13.882  67.094  1.00  0.00     0.348 A  
HETATM   18  C   UNL     1      -7.694  11.789  65.989  1.00  0.00     0.472 C  
ENDROOT
BRANCH   4  19
HETATM   19  O   UNL     1      -9.232   7.567  70.444  1.00  0.00    -0.156 OA 
HETATM   20  O   UNL     1     -11.342   6.698  70.157  1.00  0.00    -0.327 OA 
HETATM   21  O   UNL     1     -12.211   8.315  71.591  1.00  0.00    -0.288 OA 
HETATM   22  O   UNL     1     -10.345   7.070  72.338  1.00  0.00    -0.195 OA 
HETATM   23  P   UNL     1     -10.805   7.962  71.049  1.00  0.00    -0.244 P  
ENDBRANCH   4  19
BRANCH  12  24
HETATM   24  O   UNL     1      -6.218  16.001  68.026  1.00  0.00    -0.108 OA 
BRANCH  24  25
HETATM   25  C   UNL     1      -7.194  16.841  68.570  1.00  0.00    -0.194 C  
HETATM   26  O   UNL     1      -7.101  17.438  69.635  1.00  0.00    -0.045 OA 
HETATM   27  N   UNL     1      -8.233  17.062  67.674  1.00  0.00    -0.183 N  
BRANCH  27  28
HETATM   28  C   UNL     1      -8.953  15.919  67.100  1.00  0.00    -0.208 C  
HETATM   29 CL   UNL     1     -10.327  14.739  65.070  1.00  0.00    -0.434 Cl 
HETATM   30  C   UNL     1      -9.478  16.177  65.692  1.00  0.00    -0.101 C  
ENDBRANCH  27  28
BRANCH  27  31
HETATM   31  C   UNL     1      -8.919  18.356  67.743  1.00  0.00    -0.281 C  
HETATM   32 CL   UNL     1     -11.071  17.142  68.963  1.00  0.00    -0.012 Cl 
HETATM   33  C   UNL     1     -10.455  18.257  67.709  1.00  0.00    -0.410 C  
ENDBRANCH  27  31
ENDBRANCH  24  25
ENDBRANCH  12  24
TORSDOF 5
ENDMDL
MODEL      156
REMARK 921   NORMALIZED FREE ENERGY PREDICTED BY IDOCK:   -1.56 KCAL/MOL
REMARK 922        TOTAL FREE ENERGY PREDICTED BY IDOCK:   -2.80 KCAL/MOL
REMARK 923 INTER-LIGAND FREE ENERGY PREDICTED BY IDOCK:   -4.00 KCAL/MOL
REMARK 924 INTRA-LIGAND FREE ENERGY PREDICTED BY IDOCK:    1.19 KCAL/MOL
REMARK 927      BINDING AFFINITY PREDICTED BY RF-SCORE:    0.00 PKD
ROOT
HETATM    1  C   UNL     1     -10.634  12.389  66.703  1.00  0.00    -0.256 C  
HETATM    2  C   UNL     1     -11.791  12.602  67.502  1.00  0.00    -0.396 C  
HETATM    3  C   UNL     1     -10.542  12.899  68.285  1.00  0.00    -0.259 C  
HETATM    4  C   UNL     1      -8.796  12.962  67.200  1.00  0.00    -0.210 C  
HETATM    5  C   UNL     1      -9.751  13.920  67.358  1.00  0.00    -0.234 C  
HETATM    6  C   UNL     1      -7.791   9.097  70.150  1.00  0.00    -0.114 A  
HETATM    7  C   UNL     1      -8.810  13.813  69.027  1.00  0.00     0.273 C  
HETATM    8  C   UNL     1      -9.931  10.815  67.289  1.00  0.00    -0.219 C  
HETATM    9  C   UNL     1     -10.096  15.255  66.778  1.00  0.00    -0.262 C  
HETATM   10  C   UNL     1      -8.342  12.107  69.376  1.00  0.00     0.936 C  
HETATM   11  C   UNL     1      -7.424   7.787  70.507  1.00  0.00    -0.074 A  
HETATM   12  C   UNL     1      -7.968   6.702  69.824  1.00  0.00    -0.120 A  
HETATM   13  C   UNL     1     -10.989   9.694  67.257  1.00  0.00    -0.107 C  
HETATM   14  C   UNL     1      -9.237  10.761  68.818  1.00  0.00    -0.192 C  
HETATM   15  C   UNL     1      -8.696   9.344  69.102  1.00  0.00    -0.142 A  
HETATM   16  C   UNL     1      -9.283   8.220  68.459  1.00  0.00    -0.136 A  
HETATM   17  C   UNL     1      -8.900   6.913  68.818  1.00  0.00    -0.132 A  
HETATM   18  C   UNL     1     -10.333   8.323  67.380  1.00  0.00    -0.350 C  
ENDROOT
BRANCH   4  19
HETATM   19  O   UNL     1      -7.734  14.075  66.944  1.00  0.00     0.064 OA 
HETATM   20  O   UNL     1      -5.523  13.492  67.191  1.00  0.00    -0.289 OA 
HETATM   21  O   UNL     1      -5.328  14.962  68.987  1.00  0.00    -0.092 OA 
HETATM   22  O   UNL     1      -6.275  15.790  66.985  1.00  0.00    -0.312 OA 
HETATM   23  P   UNL     1      -6.464  14.543  68.023  1.00  0.00    -0.169 P  
ENDBRANCH   4  19
BRANCH  12  24
HETATM   24  O   UNL     1      -7.618   5.403  70.239  1.00  0.00    -0.072 OA 
BRANCH  24  25
HETATM   25  C   UNL     1      -6.790   5.323  71.362  1.00  0.00    -0.052 C  
HETATM   26  O   UNL     1      -5.574   5.467  71.357  1.00  0.00    -0.008 OA 
HETATM   27  N   UNL     1      -7.529   5.226  72.535  1.00  0.00    -0.094 N  
BRANCH  27  28
HETATM   28  C   UNL     1      -8.520   4.154  72.682  1.00  0.00    -0.101 C  
HETATM   29 CL   UNL     1     -11.037   3.293  73.250  1.00  0.00    -0.264 Cl 
HETATM   30  C   UNL     1      -9.897   4.654  73.104  1.00  0.00    -0.143 C  
ENDBRANCH  27  28
BRANCH  27  31
HETATM   31  C   UNL     1      -6.950   5.814  73.747  1.00  0.00    -0.082 C  
HETATM   32 CL   UNL     1      -8.759   7.887  73.597  1.00  0.00    -0.303 Cl 
HETATM   33  C   UNL     1      -7.070   7.347  73.822  1.00  0.00    -0.084 C  
ENDBRANCH  27  31
ENDBRANCH  24  25
ENDBRANCH  12  24
TORSDOF 5
ENDMDL
MODEL      157
REMARK 921   NORMALIZED FREE ENERGY PREDICTED BY IDOCK:   -1.45 KCAL/MOL
REMARK 922        TOTAL FREE ENERGY PREDICTED BY IDOCK:   -2.66 KCAL/MOL
REMARK 923 INTER-LIGAND FREE ENERGY PREDICTED BY IDOCK:   -3.19 KCAL/MOL
REMARK 924 INTRA-LIGAND FREE ENERGY PREDICTED BY IDOCK:    0.53 KCAL/MOL
REMARK 927      BINDING AFFINITY PREDICTED BY RF-SCORE:    0.00 PKD
ROOT
HETATM    1  C   UNL     1      -5.727   3.321  66.034  1.00  0.00    -0.018 C  
HETATM    2  C   UNL     1      -5.135   2.249  66.756  1.00  0.00    -0.005 C  
HETATM    3  C   UNL     1      -6.613   2.027  66.593  1.00  0.00    -0.038 C  
HETATM    4  C   UNL     1      -7.576   3.303  65.299  1.00  0.00    -0.080 C  
HETATM    5  C   UNL     1      -6.846   2.185  65.028  1.00  0.00    -0.042 C  
HETATM    6  C   UNL     1      -9.865   4.541  69.527  1.00  0.00    -0.277 A  
HETATM    7  C   UNL     1      -8.499   1.582  65.796  1.00  0.00    -0.100 C  
HETATM    8  C   UNL     1      -6.605   4.314  67.284  1.00  0.00    -0.046 C  
HETATM    9  C   UNL     1      -6.278   1.488  63.833  1.00  0.00    -0.013 C  
HETATM   10  C   UNL     1      -9.050   2.724  67.078  1.00  0.00    -0.184 C  
HETATM   11  C   UNL     1     -10.340   5.366  70.562  1.00  0.00    -0.344 A  
HETATM   12  C   UNL     1      -9.508   6.336  71.115  1.00  0.00    -0.170 A  
HETATM   13  C   UNL     1      -5.655   4.716  68.431  1.00  0.00    -0.016 C  
HETATM   14  C   UNL     1      -7.973   3.668  68.013  1.00  0.00    -0.076 C  
HETATM   15  C   UNL     1      -8.559   4.678  69.022  1.00  0.00    -0.099 A  
HETATM   16  C   UNL     1      -7.710   5.634  69.641  1.00  0.00    -0.083 A  
HETATM   17  C   UNL     1      -8.200   6.462  70.670  1.00  0.00    -0.125 A  
HETATM   18  C   UNL     1      -6.261   5.835  69.271  1.00  0.00    -0.032 C  
ENDROOT
BRANCH   4  19
HETATM   19  O   UNL     1      -8.383   3.085  63.982  1.00  0.00    -0.085 OA 
HETATM   20  O   UNL     1      -9.046   4.965  62.835  1.00  0.00    -0.111 OA 
HETATM   21  O   UNL     1     -11.277   4.433  63.240  1.00  0.00     0.311 OA 
HETATM   22  O   UNL     1      -9.888   2.743  62.342  1.00  0.00    -0.092 OA 
HETATM   23  P   UNL     1      -9.910   3.797  63.590  1.00  0.00    -0.174 P  
ENDBRANCH   4  19
BRANCH  12  24
HETATM   24  O   UNL     1      -9.998   7.112  72.183  1.00  0.00    -0.165 OA 
BRANCH  24  25
HETATM   25  C   UNL     1      -9.782   6.594  73.462  1.00  0.00    -0.191 C  
HETATM   26  O   UNL     1     -10.625   6.517  74.347  1.00  0.00    -0.223 OA 
HETATM   27  N   UNL     1      -8.525   6.012  73.572  1.00  0.00    -0.119 N  
BRANCH  27  28
HETATM   28  C   UNL     1      -7.329   6.797  73.242  1.00  0.00    -0.079 C  
HETATM   29 CL   UNL     1      -5.779   9.015  73.523  1.00  0.00    -0.101 Cl 
HETATM   30  C   UNL     1      -7.261   8.134  73.972  1.00  0.00    -0.162 C  
ENDBRANCH  27  28
BRANCH  27  31
HETATM   31  C   UNL     1      -8.385   4.878  74.491  1.00  0.00    -0.100 C  
HETATM   32 CL   UNL     1      -7.690   3.257  72.373  1.00  0.00    -0.057 Cl 
HETATM   33  C   UNL     1      -8.669   3.509  73.849  1.00  0.00    -0.088 C  
ENDBRANCH  27  31
ENDBRANCH  24  25
ENDBRANCH  12  24
TORSDOF 5
ENDMDL
MODEL      158
REMARK 921   NORMALIZED FREE ENERGY PREDICTED BY IDOCK:   -1.40 KCAL/MOL
REMARK 922        TOTAL FREE ENERGY PREDICTED BY IDOCK:   -2.59 KCAL/MOL
REMARK 923 INTER-LIGAND FREE ENERGY PREDICTED BY IDOCK:   -6.29 KCAL/MOL
REMARK 924 INTRA-LIGAND FREE ENERGY PREDICTED BY IDOCK:    3.70 KCAL/MOL
REMARK 927      BINDING AFFINITY PREDICTED BY RF-SCORE:    0.00 PKD
ROOT
HETATM    1  C   UNL     1      -8.651  13.683  68.044  1.00  0.00    -0.175 C  
HETATM    2  C   UNL     1      -7.444  13.956  67.344  1.00  0.00    -0.147 C  
HETATM    3  C   UNL     1      -8.417  13.230  66.459  1.00  0.00     0.270 C  
HETATM    4  C   UNL     1     -10.330  13.041  67.192  1.00  0.00    -0.243 C  
HETATM    5  C   UNL     1      -9.744  14.100  66.566  1.00  0.00    -0.307 C  
HETATM    6  C   UNL     1      -9.052   8.248  66.991  1.00  0.00    -0.172 A  
HETATM    7  C   UNL     1     -10.039  12.767  65.216  1.00  0.00    -0.263 C  
HETATM    8  C   UNL     1      -8.582  11.907  68.441  1.00  0.00    -0.152 C  
HETATM    9  C   UNL     1     -10.053  15.534  66.280  1.00  0.00    -0.312 C  
HETATM   10  C   UNL     1      -9.788  11.116  65.898  1.00  0.00    -0.275 C  
HETATM   11  C   UNL     1      -8.840   6.933  67.441  1.00  0.00    -0.118 A  
HETATM   12  C   UNL     1      -8.205   6.710  68.661  1.00  0.00    -0.119 A  
HETATM   13  C   UNL     1      -7.277  11.561  69.187  1.00  0.00    -0.084 C  
HETATM   14  C   UNL     1      -8.716  10.793  67.191  1.00  0.00    -0.131 C  
HETATM   15  C   UNL     1      -8.645   9.358  67.753  1.00  0.00    -0.116 A  
HETATM   16  C   UNL     1      -7.948   9.106  68.965  1.00  0.00    -0.101 A  
HETATM   17  C   UNL     1      -7.749   7.785  69.411  1.00  0.00    -0.106 A  
HETATM   18  C   UNL     1      -7.373  10.189  69.845  1.00  0.00    -0.169 C  
ENDROOT
BRANCH   4  19
HETATM   19  O   UNL     1     -11.724  13.523  66.684  1.00  0.00    -0.348 OA 
HETATM   20  O   UNL     1     -12.775  12.218  65.110  1.00  0.00    -0.571 OA 
HETATM   21  O   UNL     1     -12.605  13.944  63.555  1.00  0.00    -0.842 OA 
HETATM   22  O   UNL     1     -13.507  14.461  65.679  1.00  0.00    -0.393 OA 
HETATM   23  P   UNL     1     -12.189  13.745  65.032  1.00  0.00    -0.440 P  
ENDBRANCH   4  19
BRANCH  12  24
HETATM   24  O   UNL     1      -7.963   5.382  69.060  1.00  0.00    -0.091 OA 
BRANCH  24  25
HETATM   25  C   UNL     1      -7.020   5.211  70.076  1.00  0.00    -0.056 C  
HETATM   26  O   UNL     1      -5.878   4.797  69.920  1.00  0.00    -0.015 OA 
HETATM   27  N   UNL     1      -7.472   5.730  71.284  1.00  0.00    -0.092 N  
BRANCH  27  28
HETATM   28  C   UNL     1      -8.753   5.274  71.836  1.00  0.00    -0.131 C  
HETATM   29 CL   UNL     1     -11.153   5.768  73.017  1.00  0.00    -0.306 Cl 
HETATM   30  C   UNL     1      -9.618   6.407  72.378  1.00  0.00    -0.146 C  
ENDBRANCH  27  28
BRANCH  27  31
HETATM   31  C   UNL     1      -6.466   6.269  72.205  1.00  0.00    -0.054 C  
HETATM   32 CL   UNL     1      -6.203   3.781  73.360  1.00  0.00    -0.018 Cl 
HETATM   33  C   UNL     1      -6.404   5.546  73.562  1.00  0.00    -0.069 C  
ENDBRANCH  27  31
ENDBRANCH  24  25
ENDBRANCH  12  24
TORSDOF 5
ENDMDL
MODEL      159
REMARK 921   NORMALIZED FREE ENERGY PREDICTED BY IDOCK:   -1.33 KCAL/MOL
REMARK 922        TOTAL FREE ENERGY PREDICTED BY IDOCK:   -2.51 KCAL/MOL
REMARK 923 INTER-LIGAND FREE ENERGY PREDICTED BY IDOCK:   -5.66 KCAL/MOL
REMARK 924 INTRA-LIGAND FREE ENERGY PREDICTED BY IDOCK:    3.16 KCAL/MOL
REMARK 927      BINDING AFFINITY PREDICTED BY RF-SCORE:    0.00 PKD
ROOT
HETATM    1  C   UNL     1      -6.339  16.502  69.095  1.00  0.00    -0.185 C  
HETATM    2  C   UNL     1      -5.148  16.544  68.319  1.00  0.00    -0.105 C  
HETATM    3  C   UNL     1      -6.323  16.155  67.466  1.00  0.00    -0.195 C  
HETATM    4  C   UNL     1      -8.174  16.361  68.340  1.00  0.00    -0.190 C  
HETATM    5  C   UNL     1      -7.387  17.303  67.748  1.00  0.00    -0.180 C  
HETATM    6  C   UNL     1      -8.123  11.441  67.674  1.00  0.00    -0.124 A  
HETATM    7  C   UNL     1      -8.084  16.210  66.332  1.00  0.00    -0.305 C  
HETATM    8  C   UNL     1      -6.682  14.731  69.351  1.00  0.00    -0.149 C  
HETATM    9  C   UNL     1      -7.353  18.790  67.598  1.00  0.00    -0.238 C  
HETATM   10  C   UNL     1      -8.202  14.491  66.865  1.00  0.00    -0.073 C  
HETATM   11  C   UNL     1      -8.210  10.078  68.005  1.00  0.00    -0.116 A  
HETATM   12  C   UNL     1      -7.574   9.597  69.147  1.00  0.00    -0.082 A  
HETATM   13  C   UNL     1      -5.457  14.017  69.957  1.00  0.00    -0.104 C  
HETATM   14  C   UNL     1      -7.162  13.803  68.036  1.00  0.00    -0.137 C  
HETATM   15  C   UNL     1      -7.410  12.347  68.480  1.00  0.00    -0.105 A  
HETATM   16  C   UNL     1      -6.721  11.824  69.608  1.00  0.00    -0.034 A  
HETATM   17  C   UNL     1      -6.823  10.458  69.935  1.00  0.00    -0.143 A  
HETATM   18  C   UNL     1      -5.844  12.652  70.515  1.00  0.00    -0.129 C  
ENDROOT
BRANCH   4  19
HETATM   19  O   UNL     1      -9.437  17.206  67.988  1.00  0.00    -0.251 OA 
HETATM   20  O   UNL     1     -11.256  16.076  67.153  1.00  0.00    -0.171 OA 
HETATM   21  O   UNL     1     -11.034  17.201  65.125  1.00  0.00    -0.543 OA 
HETATM   22  O   UNL     1     -11.060  18.495  67.105  1.00  0.00    -0.226 OA 
HETATM   23  P   UNL     1     -10.280  17.203  66.477  1.00  0.00    -0.282 P  
ENDBRANCH   4  19
BRANCH  12  24
HETATM   24  O   UNL     1      -7.640   8.219  69.423  1.00  0.00    -0.091 OA 
BRANCH  24  25
HETATM   25  C   UNL     1      -8.916   7.705  69.668  1.00  0.00    -0.140 C  
HETATM   26  O   UNL     1      -9.666   8.067  70.566  1.00  0.00    -0.177 OA 
HETATM   27  N   UNL     1      -9.318   6.837  68.659  1.00  0.00    -0.132 N  
BRANCH  27  28
HETATM   28  C   UNL     1      -8.475   5.687  68.312  1.00  0.00    -0.105 C  
HETATM   29 CL   UNL     1      -7.905   3.029  68.415  1.00  0.00    -0.058 Cl 
HETATM   30  C   UNL     1      -8.977   4.369  68.892  1.00  0.00    -0.109 C  
ENDBRANCH  27  28
BRANCH  27  31
HETATM   31  C   UNL     1     -10.753   6.768  68.361  1.00  0.00    -0.232 C  
HETATM   32 CL   UNL     1     -10.239   4.961  66.345  1.00  0.00    -0.282 Cl 
HETATM   33  C   UNL     1     -11.075   6.444  66.892  1.00  0.00    -0.272 C  
ENDBRANCH  27  31
ENDBRANCH  24  25
ENDBRANCH  12  24
TORSDOF 5
ENDMDL
MODEL      160
REMARK 921   NORMALIZED FREE ENERGY PREDICTED BY IDOCK:   -0.77 KCAL/MOL
REMARK 922        TOTAL FREE ENERGY PREDICTED BY IDOCK:   -1.78 KCAL/MOL
REMARK 923 INTER-LIGAND FREE ENERGY PREDICTED BY IDOCK:   -3.20 KCAL/MOL
REMARK 924 INTRA-LIGAND FREE ENERGY PREDICTED BY IDOCK:    1.42 KCAL/MOL
REMARK 927      BINDING AFFINITY PREDICTED BY RF-SCORE:    0.00 PKD
ROOT
HETATM    1  C   UNL     1      -6.401   6.904  67.759  1.00  0.00    -0.048 C  
HETATM    2  C   UNL     1      -5.147   7.090  68.404  1.00  0.00    -0.016 C  
HETATM    3  C   UNL     1      -6.278   7.277  69.377  1.00  0.00    -0.031 C  
HETATM    4  C   UNL     1      -8.142   6.729  68.703  1.00  0.00    -0.120 C  
HETATM    5  C   UNL     1      -7.142   5.953  69.207  1.00  0.00    -0.066 C  
HETATM    6  C   UNL     1      -8.904  11.590  69.368  1.00  0.00     0.630 A  
HETATM    7  C   UNL     1      -7.872   6.928  70.691  1.00  0.00    -0.101 C  
HETATM    8  C   UNL     1      -7.080   8.581  67.543  1.00  0.00    -0.080 C  
HETATM    9  C   UNL     1      -6.826   4.499  69.351  1.00  0.00    -0.046 C  
HETATM   10  C   UNL     1      -8.351   8.589  70.176  1.00  0.00    -0.123 C  
HETATM   11  C   UNL     1      -9.269  12.910  69.050  1.00  0.00     0.481 A  
HETATM   12  C   UNL     1      -8.852  13.476  67.848  1.00  0.00    -0.190 A  
HETATM   13  C   UNL     1      -6.073   9.492  66.812  1.00  0.00    -0.064 C  
HETATM   14  C   UNL     1      -7.579   9.431  68.903  1.00  0.00    -0.075 C  
HETATM   15  C   UNL     1      -8.129  10.812  68.489  1.00  0.00    -0.133 A  
HETATM   16  C   UNL     1      -7.666  11.430  67.296  1.00  0.00    -0.145 A  
HETATM   17  C   UNL     1      -8.046  12.750  66.983  1.00  0.00    -0.072 A  
HETATM   18  C   UNL     1      -6.755  10.756  66.300  1.00  0.00    -0.134 C  
ENDROOT
BRANCH   4  19
HETATM   19  O   UNL     1      -9.189   5.678  69.185  1.00  0.00    -0.114 OA 
HETATM   20  O   UNL     1     -11.333   6.425  69.550  1.00  0.00    -0.390 OA 
HETATM   21  O   UNL     1     -11.124   5.940  71.818  1.00  0.00    -0.263 OA 
HETATM   22  O   UNL     1     -10.545   4.246  70.273  1.00  0.00     0.357 OA 
HETATM   23  P   UNL     1     -10.211   5.817  70.575  1.00  0.00    -0.256 P  
ENDBRANCH   4  19
BRANCH  12  24
HETATM   24  O   UNL     1      -9.193  14.816  67.582  1.00  0.00    -0.186 OA 
BRANCH  24  25
HETATM   25  C   UNL     1      -8.828  15.744  68.561  1.00  0.00    -0.193 C  
HETATM   26  O   UNL     1      -7.749  15.777  69.139  1.00  0.00    -0.189 OA 
HETATM   27  N   UNL     1      -9.780  16.749  68.691  1.00  0.00    -0.249 N  
BRANCH  27  28
HETATM   28  C   UNL     1     -11.177  16.394  68.967  1.00  0.00    -0.291 C  
HETATM   29 CL   UNL     1     -13.050  14.893  70.246  1.00  0.00    -0.202 Cl 
HETATM   30  C   UNL     1     -11.328  15.251  69.964  1.00  0.00    -0.290 C  
ENDBRANCH  27  28
BRANCH  27  31
HETATM   31  C   UNL     1      -9.306  18.079  69.085  1.00  0.00     0.040 C  
HETATM   32 CL   UNL     1      -9.514  18.919  66.469  1.00  0.00    -0.345 Cl 
HETATM   33  C   UNL     1      -8.553  18.833  67.974  1.00  0.00    -0.297 C  
ENDBRANCH  27  31
ENDBRANCH  24  25
ENDBRANCH  12  24
TORSDOF 5
ENDMDL
MODEL      161
REMARK 921   NORMALIZED FREE ENERGY PREDICTED BY IDOCK:   -0.64 KCAL/MOL
REMARK 922        TOTAL FREE ENERGY PREDICTED BY IDOCK:   -1.61 KCAL/MOL
REMARK 923 INTER-LIGAND FREE ENERGY PREDICTED BY IDOCK:   -3.62 KCAL/MOL
REMARK 924 INTRA-LIGAND FREE ENERGY PREDICTED BY IDOCK:    2.01 KCAL/MOL
REMARK 927      BINDING AFFINITY PREDICTED BY RF-SCORE:    0.00 PKD
ROOT
HETATM    1  C   UNL     1     -10.595  14.708  68.742  1.00  0.00    -0.248 C  
HETATM    2  C   UNL     1     -11.179  14.907  67.461  1.00  0.00    -0.334 C  
HETATM    3  C   UNL     1     -11.916  13.839  68.221  1.00  0.00    -0.392 C  
HETATM    4  C   UNL     1     -11.421  13.646  70.208  1.00  0.00     0.020 C  
HETATM    5  C   UNL     1     -12.261  14.536  69.608  1.00  0.00    -0.336 C  
HETATM    6  C   UNL     1      -9.957   9.197  68.561  1.00  0.00    -0.192 A  
HETATM    7  C   UNL     1     -13.158  12.839  69.580  1.00  0.00     1.430 C  
HETATM    8  C   UNL     1      -9.662  13.150  68.606  1.00  0.00    -0.062 C  
HETATM    9  C   UNL     1     -13.015  15.774  69.973  1.00  0.00     0.353 C  
HETATM   10  C   UNL     1     -11.971  11.506  69.321  1.00  0.00    -0.397 C  
HETATM   11  C   UNL     1      -9.098   8.109  68.327  1.00  0.00    -0.135 A  
HETATM   12  C   UNL     1      -7.796   8.334  67.884  1.00  0.00    -0.114 A  
HETATM   13  C   UNL     1      -8.680  13.199  67.418  1.00  0.00    -0.206 C  
HETATM   14  C   UNL     1     -10.512  11.710  68.452  1.00  0.00    -0.230 C  
HETATM   15  C   UNL     1      -9.529  10.524  68.367  1.00  0.00    -0.158 A  
HETATM   16  C   UNL     1      -8.218  10.725  67.859  1.00  0.00    -0.113 A  
HETATM   17  C   UNL     1      -7.362   9.629  67.638  1.00  0.00    -0.090 A  
HETATM   18  C   UNL     1      -7.649  12.081  67.517  1.00  0.00    -0.147 C  
ENDROOT
BRANCH   4  19
HETATM   19  O   UNL     1     -12.232  13.786  71.532  1.00  0.00    -0.267 OA 
HETATM   20  O   UNL     1     -13.036  15.876  72.055  1.00  0.00    -0.457 OA 
HETATM   21  O   UNL     1     -11.662  15.943  73.934  1.00  0.00    -0.168 OA 
HETATM   22  O   UNL     1     -13.017  14.029  73.629  1.00  0.00    -0.287 OA 
HETATM   23  P   UNL     1     -11.931  14.925  72.800  1.00  0.00    -0.101 P  
ENDBRANCH   4  19
BRANCH  12  24
HETATM   24  O   UNL     1      -6.978   7.221  67.612  1.00  0.00    -0.071 OA 
BRANCH  24  25
HETATM   25  C   UNL     1      -6.598   6.457  68.718  1.00  0.00    -0.051 C  
HETATM   26  O   UNL     1      -5.900   6.849  69.644  1.00  0.00    -0.018 OA 
HETATM   27  N   UNL     1      -7.249   5.229  68.737  1.00  0.00    -0.064 N  
BRANCH  27  28
HETATM   28  C   UNL     1      -7.154   4.338  67.574  1.00  0.00    -0.064 C  
HETATM   29 CL   UNL     1      -8.219   3.207  65.341  1.00  0.00    -0.093 Cl 
HETATM   30  C   UNL     1      -8.425   4.301  66.732  1.00  0.00    -0.104 C  
ENDBRANCH  27  28
BRANCH  27  31
HETATM   31  C   UNL     1      -7.536   4.638  70.048  1.00  0.00    -0.054 C  
HETATM   32 CL   UNL     1     -10.208   5.225  69.719  1.00  0.00    -0.342 Cl 
HETATM   33  C   UNL     1      -8.755   5.250  70.761  1.00  0.00    -0.131 C  
ENDBRANCH  27  31
ENDBRANCH  24  25
ENDBRANCH  12  24
TORSDOF 5
ENDMDL
MODEL      162
REMARK 921   NORMALIZED FREE ENERGY PREDICTED BY IDOCK:   -0.56 KCAL/MOL
REMARK 922        TOTAL FREE ENERGY PREDICTED BY IDOCK:   -1.50 KCAL/MOL
REMARK 923 INTER-LIGAND FREE ENERGY PREDICTED BY IDOCK:   -5.01 KCAL/MOL
REMARK 924 INTRA-LIGAND FREE ENERGY PREDICTED BY IDOCK:    3.51 KCAL/MOL
REMARK 927      BINDING AFFINITY PREDICTED BY RF-SCORE:    0.00 PKD
ROOT
HETATM    1  C   UNL     1      -9.054  12.577  67.572  1.00  0.00    -0.187 C  
HETATM    2  C   UNL     1      -7.718  12.935  67.244  1.00  0.00    -0.122 C  
HETATM    3  C   UNL     1      -8.271  11.966  66.236  1.00  0.00     0.134 C  
HETATM    4  C   UNL     1     -10.289  11.591  66.365  1.00  0.00    -0.237 C  
HETATM    5  C   UNL     1      -9.639  12.637  65.781  1.00  0.00    -0.117 C  
HETATM    6  C   UNL     1      -8.546   7.053  67.374  1.00  0.00    -0.121 A  
HETATM    7  C   UNL     1      -9.342  11.114  64.650  1.00  0.00    -0.200 C  
HETATM    8  C   UNL     1      -8.943  10.896  68.264  1.00  0.00    -0.150 C  
HETATM    9  C   UNL     1      -9.978  13.962  65.178  1.00  0.00    -0.249 C  
HETATM   10  C   UNL     1      -9.165   9.619  65.643  1.00  0.00    -0.270 C  
HETATM   11  C   UNL     1      -8.363   5.853  68.082  1.00  0.00    -0.115 A  
HETATM   12  C   UNL     1      -8.143   5.882  69.457  1.00  0.00    -0.106 A  
HETATM   13  C   UNL     1      -7.926  10.844  69.423  1.00  0.00    -0.027 C  
HETATM   14  C   UNL     1      -8.549   9.625  67.238  1.00  0.00    -0.132 C  
HETATM   15  C   UNL     1      -8.523   8.299  68.027  1.00  0.00    -0.132 A  
HETATM   16  C   UNL     1      -8.240   8.309  69.419  1.00  0.00    -0.117 A  
HETATM   17  C   UNL     1      -8.067   7.099  70.120  1.00  0.00    -0.130 A  
HETATM   18  C   UNL     1      -8.095   9.568  70.239  1.00  0.00    -0.200 C  
ENDROOT
BRANCH   4  19
HETATM   19  O   UNL     1     -11.481  11.793  65.379  1.00  0.00    -0.277 OA 
HETATM   20  O   UNL     1     -11.747  13.889  64.472  1.00  0.00    -0.376 OA 
HETATM   21  O   UNL     1     -13.785  14.116  65.577  1.00  0.00    -0.396 OA 
HETATM   22  O   UNL     1     -13.432  12.150  64.312  1.00  0.00    -0.708 OA 
HETATM   23  P   UNL     1     -12.697  13.020  65.483  1.00  0.00     0.237 P  
ENDBRANCH   4  19
BRANCH  12  24
HETATM   24  O   UNL     1      -7.914   4.666  70.128  1.00  0.00    -0.063 OA 
BRANCH  24  25
HETATM   25  C   UNL     1      -9.045   4.037  70.655  1.00  0.00    -0.111 C  
HETATM   26  O   UNL     1     -10.155   4.028  70.139  1.00  0.00    -0.119 OA 
HETATM   27  N   UNL     1      -8.728   3.266  71.767  1.00  0.00    -0.083 N  
BRANCH  27  28
HETATM   28  C   UNL     1      -8.037   3.883  72.905  1.00  0.00    -0.091 C  
HETATM   29 CL   UNL     1      -5.766   4.699  74.161  1.00  0.00    -0.020 Cl 
HETATM   30  C   UNL     1      -6.521   3.929  72.743  1.00  0.00    -0.028 C  
ENDBRANCH  27  28
BRANCH  27  31
HETATM   31  C   UNL     1      -9.534   2.064  72.006  1.00  0.00    -0.104 C  
HETATM   32 CL   UNL     1     -11.342   3.572  73.438  1.00  0.00    -0.269 Cl 
HETATM   33  C   UNL     1     -10.338   2.097  73.318  1.00  0.00    -0.124 C  
ENDBRANCH  27  31
ENDBRANCH  24  25
ENDBRANCH  12  24
TORSDOF 5
ENDMDL
MODEL      163
REMARK 921   NORMALIZED FREE ENERGY PREDICTED BY IDOCK:   -0.47 KCAL/MOL
REMARK 922        TOTAL FREE ENERGY PREDICTED BY IDOCK:   -1.39 KCAL/MOL
REMARK 923 INTER-LIGAND FREE ENERGY PREDICTED BY IDOCK:   -1.16 KCAL/MOL
REMARK 924 INTRA-LIGAND FREE ENERGY PREDICTED BY IDOCK:   -0.23 KCAL/MOL
REMARK 927      BINDING AFFINITY PREDICTED BY RF-SCORE:    0.00 PKD
ROOT
HETATM    1  C   UNL     1     -10.722  10.299  67.503  1.00  0.00    -0.348 C  
HETATM    2  C   UNL     1     -11.885  10.347  68.320  1.00  0.00     0.258 C  
HETATM    3  C   UNL     1     -10.642  10.315  69.166  1.00  0.00    -0.254 C  
HETATM    4  C   UNL     1      -8.866  10.574  68.162  1.00  0.00    -0.134 C  
HETATM    5  C   UNL     1      -9.763  11.507  68.587  1.00  0.00    -0.172 C  
HETATM    6  C   UNL     1      -8.189   5.955  69.852  1.00  0.00    -0.117 A  
HETATM    7  C   UNL     1      -8.877  10.851  70.158  1.00  0.00     1.412 C  
HETATM    8  C   UNL     1     -10.135   8.578  67.606  1.00  0.00    -0.271 C  
HETATM    9  C   UNL     1     -10.007  12.973  68.422  1.00  0.00    -0.216 C  
HETATM   10  C   UNL     1      -8.528   9.090  69.994  1.00  0.00    -0.149 C  
HETATM   11  C   UNL     1      -7.915   4.576  69.812  1.00  0.00    -0.061 A  
HETATM   12  C   UNL     1      -8.507   3.778  68.835  1.00  0.00    -0.078 A  
HETATM   13  C   UNL     1     -11.261   7.590  67.237  1.00  0.00     0.271 C  
HETATM   14  C   UNL     1      -9.489   8.030  69.057  1.00  0.00    -0.151 C  
HETATM   15  C   UNL     1      -9.047   6.559  68.916  1.00  0.00    -0.131 A  
HETATM   16  C   UNL     1      -9.685   5.716  67.967  1.00  0.00    -0.149 A  
HETATM   17  C   UNL     1      -9.395   4.338  67.929  1.00  0.00    -0.200 A  
HETATM   18  C   UNL     1     -10.696   6.202  66.957  1.00  0.00    -0.423 C  
ENDROOT
BRANCH   4  19
HETATM   19  O   UNL     1      -7.729  11.638  68.253  1.00  0.00    -0.113 OA 
HETATM   20  O   UNL     1      -7.251  12.828  66.345  1.00  0.00     0.689 OA 
HETATM   21  O   UNL     1      -5.130  11.869  66.269  1.00  0.00    -0.338 OA 
HETATM   22  O   UNL     1      -5.826  12.841  68.310  1.00  0.00    -0.061 OA 
HETATM   23  P   UNL     1      -6.357  11.760  67.206  1.00  0.00    -0.150 P  
ENDBRANCH   4  19
BRANCH  12  24
HETATM   24  O   UNL     1      -8.250   2.394  68.853  1.00  0.00    -0.051 OA 
BRANCH  24  25
HETATM   25  C   UNL     1      -7.455   1.907  67.813  1.00  0.00    -0.055 C  
HETATM   26  O   UNL     1      -7.866   1.536  66.721  1.00  0.00    -0.064 OA 
HETATM   27  N   UNL     1      -6.101   2.049  68.096  1.00  0.00    -0.024 N  
BRANCH  27  28
HETATM   28  C   UNL     1      -5.554   1.475  69.331  1.00  0.00    -0.013 C  
HETATM   29 CL   UNL     1      -5.218   1.501  72.030  1.00  0.00     0.000 Cl 
HETATM   30  C   UNL     1      -5.912   2.271  70.581  1.00  0.00    -0.018 C  
ENDBRANCH  27  28
BRANCH  27  31
HETATM   31  C   UNL     1      -5.195   2.265  66.964  1.00  0.00    -0.008 C  
HETATM   32 CL   UNL     1      -5.788   4.956  67.014  1.00  0.00    -0.025 Cl 
HETATM   33  C   UNL     1      -5.582   3.454  66.066  1.00  0.00    -0.018 C  
ENDBRANCH  27  31
ENDBRANCH  24  25
ENDBRANCH  12  24
TORSDOF 5
ENDMDL
MODEL      164
REMARK 921   NORMALIZED FREE ENERGY PREDICTED BY IDOCK:   -0.43 KCAL/MOL
REMARK 922        TOTAL FREE ENERGY PREDICTED BY IDOCK:   -1.34 KCAL/MOL
REMARK 923 INTER-LIGAND FREE ENERGY PREDICTED BY IDOCK:   -3.57 KCAL/MOL
REMARK 924 INTRA-LIGAND FREE ENERGY PREDICTED BY IDOCK:    2.23 KCAL/MOL
REMARK 927      BINDING AFFINITY PREDICTED BY RF-SCORE:    0.00 PKD
ROOT
HETATM    1  C   UNL     1      -8.542  10.720  69.280  1.00  0.00    -0.047 C  
HETATM    2  C   UNL     1      -7.986  11.479  68.214  1.00  0.00    -0.142 C  
HETATM    3  C   UNL     1      -9.253  10.800  67.776  1.00  0.00    -0.155 C  
HETATM    4  C   UNL     1     -10.366   9.927  69.270  1.00  0.00    -0.219 C  
HETATM    5  C   UNL     1     -10.312  11.232  68.881  1.00  0.00    -0.214 C  
HETATM    6  C   UNL     1      -9.196   5.878  66.645  1.00  0.00    -0.147 A  
HETATM    7  C   UNL     1     -11.268  10.295  67.506  1.00  0.00    -0.192 C  
HETATM    8  C   UNL     1      -8.161   8.984  68.880  1.00  0.00    -0.104 C  
HETATM    9  C   UNL     1     -10.804  12.558  69.364  1.00  0.00     0.037 C  
HETATM   10  C   UNL     1     -10.580   8.644  67.275  1.00  0.00    -0.308 C  
HETATM   11  C   UNL     1      -8.692   4.592  66.384  1.00  0.00    -0.112 A  
HETATM   12  C   UNL     1      -7.455   4.212  66.898  1.00  0.00    -0.077 A  
HETATM   13  C   UNL     1      -6.650   8.796  68.634  1.00  0.00    -0.055 C  
HETATM   14  C   UNL     1      -8.940   8.265  67.578  1.00  0.00    -0.141 C  
HETATM   15  C   UNL     1      -8.480   6.800  67.431  1.00  0.00    -0.121 A  
HETATM   16  C   UNL     1      -7.195   6.412  67.895  1.00  0.00    -0.087 A  
HETATM   17  C   UNL     1      -6.704   5.117  67.635  1.00  0.00    -0.055 A  
HETATM   18  C   UNL     1      -6.272   7.319  68.672  1.00  0.00    -0.031 C  
ENDROOT
BRANCH   4  19
HETATM   19  O   UNL     1     -11.817  10.152  69.795  1.00  0.00    -0.191 OA 
HETATM   20  O   UNL     1     -12.043  10.965  71.935  1.00  0.00     0.091 OA 
HETATM   21  O   UNL     1     -13.070   8.978  72.588  1.00  0.00    -0.426 OA 
HETATM   22  O   UNL     1     -13.897  10.060  70.655  1.00  0.00     0.009 OA 
HETATM   23  P   UNL     1     -12.478   9.533  71.270  1.00  0.00    -0.343 P  
ENDBRANCH   4  19
BRANCH  12  24
HETATM   24  O   UNL     1      -6.956   2.936  66.577  1.00  0.00    -0.051 OA 
BRANCH  24  25
HETATM   25  C   UNL     1      -6.891   2.631  65.215  1.00  0.00    -0.044 C  
HETATM   26  O   UNL     1      -6.935   1.503  64.739  1.00  0.00    -0.036 OA 
HETATM   27  N   UNL     1      -6.940   3.778  64.432  1.00  0.00    -0.045 N  
BRANCH  27  28
HETATM   28  C   UNL     1      -5.966   4.852  64.657  1.00  0.00    -0.021 C  
HETATM   29 CL   UNL     1      -5.145   7.429  64.364  1.00  0.00    -0.028 Cl 
HETATM   30  C   UNL     1      -6.376   6.184  64.037  1.00  0.00    -0.030 C  
ENDBRANCH  27  28
BRANCH  27  31
HETATM   31  C   UNL     1      -7.566   3.667  63.111  1.00  0.00    -0.055 C  
HETATM   32 CL   UNL     1      -9.978   3.085  64.310  1.00  0.00    -0.149 Cl 
HETATM   33  C   UNL     1      -8.760   2.697  63.060  1.00  0.00    -0.085 C  
ENDBRANCH  27  31
ENDBRANCH  24  25
ENDBRANCH  12  24
TORSDOF 5
ENDMDL
MODEL      165
REMARK 921   NORMALIZED FREE ENERGY PREDICTED BY IDOCK:   -0.31 KCAL/MOL
REMARK 922        TOTAL FREE ENERGY PREDICTED BY IDOCK:   -1.18 KCAL/MOL
REMARK 923 INTER-LIGAND FREE ENERGY PREDICTED BY IDOCK:   -3.21 KCAL/MOL
REMARK 924 INTRA-LIGAND FREE ENERGY PREDICTED BY IDOCK:    2.03 KCAL/MOL
REMARK 927      BINDING AFFINITY PREDICTED BY RF-SCORE:    0.00 PKD
ROOT
HETATM    1  C   UNL     1      -6.125   2.925  65.125  1.00  0.00    -0.019 C  
HETATM    2  C   UNL     1      -5.594   1.610  65.233  1.00  0.00    -0.009 C  
HETATM    3  C   UNL     1      -7.086   1.597  65.414  1.00  0.00    -0.047 C  
HETATM    4  C   UNL     1      -8.061   3.353  64.968  1.00  0.00    -0.090 C  
HETATM    5  C   UNL     1      -7.628   2.367  64.133  1.00  0.00    -0.064 C  
HETATM    6  C   UNL     1      -9.088   3.052  69.817  1.00  0.00    -0.200 A  
HETATM    7  C   UNL     1      -9.151   1.659  65.063  1.00  0.00    -0.120 C  
HETATM    8  C   UNL     1      -6.505   3.429  66.833  1.00  0.00    -0.037 C  
HETATM    9  C   UNL     1      -7.477   2.141  62.663  1.00  0.00    -0.041 C  
HETATM   10  C   UNL     1      -9.184   2.261  66.763  1.00  0.00    -0.048 C  
HETATM   11  C   UNL     1      -9.162   3.451  71.163  1.00  0.00    -0.194 A  
HETATM   12  C   UNL     1      -8.064   4.056  71.770  1.00  0.00    -0.082 A  
HETATM   13  C   UNL     1      -5.268   3.273  67.741  1.00  0.00    -0.012 C  
HETATM   14  C   UNL     1      -7.773   2.673  67.635  1.00  0.00    -0.060 C  
HETATM   15  C   UNL     1      -7.924   3.260  69.054  1.00  0.00    -0.061 A  
HETATM   16  C   UNL     1      -6.799   3.826  69.711  1.00  0.00    -0.041 A  
HETATM   17  C   UNL     1      -6.887   4.230  71.057  1.00  0.00    -0.036 A  
HETATM   18  C   UNL     1      -5.456   4.029  69.052  1.00  0.00    -0.012 C  
ENDROOT
BRANCH   4  19
HETATM   19  O   UNL     1      -9.166   3.731  63.935  1.00  0.00    -0.119 OA 
HETATM   20  O   UNL     1     -11.332   3.823  64.702  1.00  0.00    -0.109 OA 
HETATM   21  O   UNL     1     -11.904   2.037  63.320  1.00  0.00    -0.067 OA 
HETATM   22  O   UNL     1     -10.755   3.859  62.344  1.00  0.00    -0.201 OA 
HETATM   23  P   UNL     1     -10.611   2.837  63.611  1.00  0.00    -0.088 P  
ENDBRANCH   4  19
BRANCH  12  24
HETATM   24  O   UNL     1      -8.154   4.398  73.133  1.00  0.00    -0.093 OA 
BRANCH  24  25
HETATM   25  C   UNL     1      -7.522   5.586  73.507  1.00  0.00    -0.095 C  
HETATM   26  O   UNL     1      -6.481   5.664  74.147  1.00  0.00    -0.070 OA 
HETATM   27  N   UNL     1      -8.127   6.692  72.922  1.00  0.00    -0.107 N  
BRANCH  27  28
HETATM   28  C   UNL     1      -9.565   6.918  73.109  1.00  0.00    -0.158 C  
HETATM   29 CL   UNL     1     -11.852   8.295  72.587  1.00  0.00    -0.444 Cl 
HETATM   30  C   UNL     1     -10.104   8.099  72.309  1.00  0.00    -0.269 C  
ENDBRANCH  27  28
BRANCH  27  31
HETATM   31  C   UNL     1      -7.273   7.844  72.614  1.00  0.00    -0.092 C  
HETATM   32 CL   UNL     1      -7.467   7.261  69.928  1.00  0.00    -0.084 Cl 
HETATM   33  C   UNL     1      -6.441   7.685  71.329  1.00  0.00    -0.038 C  
ENDBRANCH  27  31
ENDBRANCH  24  25
ENDBRANCH  12  24
TORSDOF 5
ENDMDL
MODEL      166
REMARK 921   NORMALIZED FREE ENERGY PREDICTED BY IDOCK:   -0.30 KCAL/MOL
REMARK 922        TOTAL FREE ENERGY PREDICTED BY IDOCK:   -1.17 KCAL/MOL
REMARK 923 INTER-LIGAND FREE ENERGY PREDICTED BY IDOCK:   -0.84 KCAL/MOL
REMARK 924 INTRA-LIGAND FREE ENERGY PREDICTED BY IDOCK:   -0.33 KCAL/MOL
REMARK 927      BINDING AFFINITY PREDICTED BY RF-SCORE:    0.00 PKD
ROOT
HETATM    1  C   UNL     1     -11.928  10.921  69.183  1.00  0.00    -0.359 C  
HETATM    2  C   UNL     1     -11.486  10.917  70.535  1.00  0.00    -0.314 C  
HETATM    3  C   UNL     1     -10.422  11.474  69.629  1.00  0.00     0.247 C  
HETATM    4  C   UNL     1     -11.002  11.859  67.694  1.00  0.00    -0.235 C  
HETATM    5  C   UNL     1     -11.179  12.611  68.816  1.00  0.00    -0.325 C  
HETATM    6  C   UNL     1      -7.605   8.337  66.850  1.00  0.00    -0.092 A  
HETATM    7  C   UNL     1      -9.315  12.731  68.371  1.00  0.00    -0.143 C  
HETATM    8  C   UNL     1     -11.056   9.531  68.391  1.00  0.00    -0.036 C  
HETATM    9  C   UNL     1     -11.930  13.837  69.227  1.00  0.00    -0.399 C  
HETATM   10  C   UNL     1      -8.725  11.159  67.711  1.00  0.00    -0.132 C  
HETATM   11  C   UNL     1      -7.064   7.135  66.360  1.00  0.00    -0.077 A  
HETATM   12  C   UNL     1      -7.783   5.948  66.483  1.00  0.00    -0.100 A  
HETATM   13  C   UNL     1     -11.285   8.221  69.172  1.00  0.00     0.329 C  
HETATM   14  C   UNL     1      -9.398   9.650  68.151  1.00  0.00    -0.140 C  
HETATM   15  C   UNL     1      -8.873   8.375  67.458  1.00  0.00    -0.139 A  
HETATM   16  C   UNL     1      -9.562   7.144  67.625  1.00  0.00    -0.152 A  
HETATM   17  C   UNL     1      -9.014   5.947  67.122  1.00  0.00    -0.113 A  
HETATM   18  C   UNL     1     -10.887   7.012  68.335  1.00  0.00    -0.191 C  
ENDROOT
BRANCH   4  19
HETATM   19  O   UNL     1     -11.048  13.155  66.827  1.00  0.00    -0.278 OA 
HETATM   20  O   UNL     1     -12.375  13.115  64.951  1.00  0.00    -0.404 OA 
HETATM   21  O   UNL     1     -10.490  13.349  63.603  1.00  0.00    -0.029 OA 
HETATM   22  O   UNL     1     -10.757  14.868  65.395  1.00  0.00    -0.325 OA 
HETATM   23  P   UNL     1     -10.753  13.257  65.125  1.00  0.00    -0.357 P  
ENDBRANCH   4  19
BRANCH  12  24
HETATM   24  O   UNL     1      -7.192   4.755  66.027  1.00  0.00    -0.073 OA 
BRANCH  24  25
HETATM   25  C   UNL     1      -6.525   3.996  66.993  1.00  0.00    -0.041 C  
HETATM   26  O   UNL     1      -5.342   4.107  67.288  1.00  0.00    -0.011 OA 
HETATM   27  N   UNL     1      -7.407   3.200  67.714  1.00  0.00    -0.054 N  
BRANCH  27  28
HETATM   28  C   UNL     1      -8.292   2.269  67.004  1.00  0.00    -0.088 C  
HETATM   29 CL   UNL     1     -10.741   1.554  66.062  1.00  0.00     3.041 Cl 
HETATM   30  C   UNL     1      -9.742   2.734  66.946  1.00  0.00     0.353 C  
ENDBRANCH  27  28
BRANCH  27  31
HETATM   31  C   UNL     1      -7.067   2.913  69.112  1.00  0.00    -0.044 C  
HETATM   32 CL   UNL     1      -8.900   4.799  69.935  1.00  0.00    -0.117 Cl 
HETATM   33  C   UNL     1      -7.255   4.108  70.063  1.00  0.00    -0.045 C  
ENDBRANCH  27  31
ENDBRANCH  24  25
ENDBRANCH  12  24
TORSDOF 5
ENDMDL
MODEL      167
REMARK 921   NORMALIZED FREE ENERGY PREDICTED BY IDOCK:    0.21 KCAL/MOL
REMARK 922        TOTAL FREE ENERGY PREDICTED BY IDOCK:   -0.51 KCAL/MOL
REMARK 923 INTER-LIGAND FREE ENERGY PREDICTED BY IDOCK:   -0.44 KCAL/MOL
REMARK 924 INTRA-LIGAND FREE ENERGY PREDICTED BY IDOCK:   -0.07 KCAL/MOL
REMARK 927      BINDING AFFINITY PREDICTED BY RF-SCORE:    0.00 PKD
ROOT
HETATM    1  C   UNL     1     -12.469  10.666  70.391  1.00  0.00    -0.421 C  
HETATM    2  C   UNL     1     -11.904  10.698  71.696  1.00  0.00     0.214 C  
HETATM    3  C   UNL     1     -11.136  11.591  70.762  1.00  0.00     1.347 C  
HETATM    4  C   UNL     1     -11.998  11.924  68.924  1.00  0.00    -0.254 C  
HETATM    5  C   UNL     1     -12.257  12.519  70.122  1.00  0.00    -0.307 C  
HETATM    6  C   UNL     1      -7.872   9.570  67.482  1.00  0.00    -0.102 A  
HETATM    7  C   UNL     1     -10.555  13.190  69.539  1.00  0.00     0.350 C  
HETATM    8  C   UNL     1     -11.337   9.635  69.405  1.00  0.00    -0.038 C  
HETATM    9  C   UNL     1     -13.269  13.453  70.705  1.00  0.00     0.075 C  
HETATM   10  C   UNL     1      -9.628  11.897  68.691  1.00  0.00    -0.101 C  
HETATM   11  C   UNL     1      -7.075   8.605  66.840  1.00  0.00    -0.075 A  
HETATM   12  C   UNL     1      -7.423   7.258  66.910  1.00  0.00    -0.097 A  
HETATM   13  C   UNL     1     -11.114   8.265  70.077  1.00  0.00    -0.147 C  
HETATM   14  C   UNL     1      -9.810  10.233  69.042  1.00  0.00    -0.215 C  
HETATM   15  C   UNL     1      -9.030   9.208  68.193  1.00  0.00    -0.129 A  
HETATM   16  C   UNL     1      -9.332   7.824  68.300  1.00  0.00    -0.143 A  
HETATM   17  C   UNL     1      -8.533   6.867  67.645  1.00  0.00    -0.122 A  
HETATM   18  C   UNL     1     -10.488   7.276  69.101  1.00  0.00    -0.222 C  
ENDROOT
BRANCH   4  19
HETATM   19  O   UNL     1     -12.489  13.208  68.189  1.00  0.00     0.033 OA 
HETATM   20  O   UNL     1     -13.209  12.963  66.019  1.00  0.00     0.372 OA 
HETATM   21  O   UNL     1     -11.445  14.291  65.276  1.00  0.00    -0.322 OA 
HETATM   22  O   UNL     1     -12.781  15.124  67.040  1.00  0.00     0.831 OA 
HETATM   23  P   UNL     1     -11.938  13.779  66.651  1.00  0.00    -0.418 P  
ENDBRANCH   4  19
BRANCH  12  24
HETATM   24  O   UNL     1      -6.577   6.313  66.299  1.00  0.00    -0.045 OA 
BRANCH  24  25
HETATM   25  C   UNL     1      -7.170   5.497  65.332  1.00  0.00    -0.067 C  
HETATM   26  O   UNL     1      -8.002   5.863  64.511  1.00  0.00    -0.115 OA 
HETATM   27  N   UNL     1      -6.579   4.240  65.293  1.00  0.00    -0.046 N  
BRANCH  27  28
HETATM   28  C   UNL     1      -6.506   3.433  66.518  1.00  0.00    -0.040 C  
HETATM   29 CL   UNL     1      -5.294   1.558  68.071  1.00  0.00    -0.012 Cl 
HETATM   30  C   UNL     1      -5.310   2.488  66.551  1.00  0.00    -0.012 C  
ENDBRANCH  27  28
BRANCH  27  31
HETATM   31  C   UNL     1      -6.546   3.551  63.999  1.00  0.00    -0.038 C  
HETATM   32 CL   UNL     1      -9.148   2.728  64.379  1.00  0.00    -0.116 Cl 
HETATM   33  C   UNL     1      -7.469   2.322  63.916  1.00  0.00    -0.059 C  
ENDBRANCH  27  31
ENDBRANCH  24  25
ENDBRANCH  12  24
TORSDOF 5
ENDMDL
MODEL      168
REMARK 921   NORMALIZED FREE ENERGY PREDICTED BY IDOCK:    0.81 KCAL/MOL
REMARK 922        TOTAL FREE ENERGY PREDICTED BY IDOCK:    0.27 KCAL/MOL
REMARK 923 INTER-LIGAND FREE ENERGY PREDICTED BY IDOCK:    0.32 KCAL/MOL
REMARK 924 INTRA-LIGAND FREE ENERGY PREDICTED BY IDOCK:   -0.05 KCAL/MOL
REMARK 927      BINDING AFFINITY PREDICTED BY RF-SCORE:    0.00 PKD
ROOT
HETATM    1  C   UNL     1      -7.607   9.396  66.424  1.00  0.00    -0.097 C  
HETATM    2  C   UNL     1      -6.379   9.432  65.707  1.00  0.00    -0.068 C  
HETATM    3  C   UNL     1      -6.135   9.546  67.186  1.00  0.00    -0.063 C  
HETATM    4  C   UNL     1      -7.759   9.184  68.396  1.00  0.00    -0.094 C  
HETATM    5  C   UNL     1      -6.915   8.301  67.793  1.00  0.00    -0.078 C  
HETATM    6  C   UNL     1      -6.937  13.948  69.528  1.00  0.00     0.021 A  
HETATM    7  C   UNL     1      -5.923   9.108  69.224  1.00  0.00    -0.038 C  
HETATM    8  C   UNL     1      -7.916  11.118  66.931  1.00  0.00    -0.151 C  
HETATM    9  C   UNL     1      -6.828   6.826  67.561  1.00  0.00    -0.077 C  
HETATM   10  C   UNL     1      -6.379  10.844  69.403  1.00  0.00    -0.070 C  
HETATM   11  C   UNL     1      -7.214  15.315  69.705  1.00  0.00    -0.146 A  
HETATM   12  C   UNL     1      -7.924  16.012  68.730  1.00  0.00    -0.196 A  
HETATM   13  C   UNL     1      -7.872  12.066  65.716  1.00  0.00     1.079 C  
HETATM   14  C   UNL     1      -6.923  11.806  68.098  1.00  0.00    -0.076 C  
HETATM   15  C   UNL     1      -7.370  13.255  68.383  1.00  0.00    -0.112 A  
HETATM   16  C   UNL     1      -8.041  14.000  67.376  1.00  0.00    -0.199 A  
HETATM   17  C   UNL     1      -8.322  15.367  67.569  1.00  0.00    -0.190 A  
HETATM   18  C   UNL     1      -8.488  13.418  66.057  1.00  0.00     1.158 C  
ENDROOT
BRANCH   4  19
HETATM   19  O   UNL     1      -8.052   8.133  69.509  1.00  0.00    -0.114 OA 
HETATM   20  O   UNL     1      -9.752   6.636  69.117  1.00  0.00    -0.145 OA 
HETATM   21  O   UNL     1     -10.964   7.536  70.891  1.00  0.00    -0.244 OA 
HETATM   22  O   UNL     1      -8.715   6.926  71.292  1.00  0.00    -0.133 OA 
HETATM   23  P   UNL     1      -9.589   7.818  70.238  1.00  0.00    -0.174 P  
ENDBRANCH   4  19
BRANCH  12  24
HETATM   24  O   UNL     1      -8.142  17.391  68.915  1.00  0.00    -0.260 OA 
BRANCH  24  25
HETATM   25  C   UNL     1      -7.034  18.217  68.710  1.00  0.00    -0.270 C  
HETATM   26  O   UNL     1      -5.868  17.844  68.681  1.00  0.00    -0.173 OA 
HETATM   27  N   UNL     1      -7.418  19.510  68.371  1.00  0.00    -0.313 N  
BRANCH  27  28
HETATM   28  C   UNL     1      -8.324  20.254  69.254  1.00  0.00     0.674 C  
HETATM   29 CL   UNL     1     -10.798  21.180  69.901  1.00  0.00     1.149 Cl 
HETATM   30  C   UNL     1      -9.769  20.267  68.769  1.00  0.00     0.064 C  
ENDBRANCH  27  28
BRANCH  27  31
HETATM   31  C   UNL     1      -6.527  20.266  67.485  1.00  0.00    -0.231 C  
HETATM   32 CL   UNL     1      -7.312  18.691  65.365  1.00  0.00     0.048 Cl 
HETATM   33  C   UNL     1      -5.989  19.456  66.293  1.00  0.00    -0.164 C  
ENDBRANCH  27  31
ENDBRANCH  24  25
ENDBRANCH  12  24
TORSDOF 5
ENDMDL
MODEL      169
REMARK 921   NORMALIZED FREE ENERGY PREDICTED BY IDOCK:    0.97 KCAL/MOL
REMARK 922        TOTAL FREE ENERGY PREDICTED BY IDOCK:    0.47 KCAL/MOL
REMARK 923 INTER-LIGAND FREE ENERGY PREDICTED BY IDOCK:    0.93 KCAL/MOL
REMARK 924 INTRA-LIGAND FREE ENERGY PREDICTED BY IDOCK:   -0.46 KCAL/MOL
REMARK 927      BINDING AFFINITY PREDICTED BY RF-SCORE:    0.00 PKD
ROOT
HETATM    1  C   UNL     1     -11.225  10.520  70.095  1.00  0.00    -0.389 C  
HETATM    2  C   UNL     1     -10.589  10.566  71.366  1.00  0.00     1.944 C  
HETATM    3  C   UNL     1      -9.734  11.228  70.322  1.00  0.00     2.146 C  
HETATM    4  C   UNL     1     -10.631  11.546  68.498  1.00  0.00    -0.210 C  
HETATM    5  C   UNL     1     -10.716  12.278  69.643  1.00  0.00     0.350 C  
HETATM    6  C   UNL     1      -7.052   8.395  67.115  1.00  0.00    -0.079 A  
HETATM    7  C   UNL     1      -8.962  12.590  68.930  1.00  0.00     0.312 C  
HETATM    8  C   UNL     1     -10.341   9.227  69.165  1.00  0.00    -0.222 C  
HETATM    9  C   UNL     1     -11.521  13.420  70.177  1.00  0.00    -0.059 C  
HETATM   10  C   UNL     1      -8.316  11.087  68.170  1.00  0.00    -0.130 C  
HETATM   11  C   UNL     1      -6.468   7.254  66.536  1.00  0.00    -0.052 A  
HETATM   12  C   UNL     1      -7.034   5.999  66.748  1.00  0.00    -0.068 A  
HETATM   13  C   UNL     1     -10.315   7.902  69.954  1.00  0.00    -0.224 C  
HETATM   14  C   UNL     1      -8.758   9.517  68.684  1.00  0.00    -0.127 C  
HETATM   15  C   UNL     1      -8.212   8.303  67.905  1.00  0.00    -0.128 A  
HETATM   16  C   UNL     1      -8.738   7.006  68.155  1.00  0.00    -0.127 A  
HETATM   17  C   UNL     1      -8.151   5.872  67.561  1.00  0.00    -0.102 A  
HETATM   18  C   UNL     1      -9.922   6.739  69.051  1.00  0.00    -0.161 C  
ENDROOT
BRANCH   4  19
HETATM   19  O   UNL     1     -10.938  12.828  67.665  1.00  0.00    -0.231 OA 
HETATM   20  O   UNL     1     -12.489  12.636  65.978  1.00  0.00    -0.555 OA 
HETATM   21  O   UNL     1     -10.837  13.085  64.398  1.00  0.00    -0.344 OA 
HETATM   22  O   UNL     1     -11.037  14.564  66.233  1.00  0.00    -0.320 OA 
HETATM   23  P   UNL     1     -10.885  12.964  65.941  1.00  0.00    -0.284 P  
ENDBRANCH   4  19
BRANCH  12  24
HETATM   24  O   UNL     1      -6.397   4.873  66.194  1.00  0.00    -0.034 OA 
BRANCH  24  25
HETATM   25  C   UNL     1      -6.316   3.750  67.021  1.00  0.00    -0.036 C  
HETATM   26  O   UNL     1      -6.071   3.770  68.221  1.00  0.00    -0.029 OA 
HETATM   27  N   UNL     1      -6.715   2.596  66.356  1.00  0.00    -0.042 N  
BRANCH  27  28
HETATM   28  C   UNL     1      -6.063   2.222  65.095  1.00  0.00    -0.019 C  
HETATM   29 CL   UNL     1      -6.085   1.939  62.390  1.00  0.00    -0.008 Cl 
HETATM   30  C   UNL     1      -6.956   2.405  63.873  1.00  0.00    -0.040 C  
ENDBRANCH  27  28
BRANCH  27  31
HETATM   31  C   UNL     1      -7.348   1.542  67.155  1.00  0.00    -0.050 C  
HETATM   32 CL   UNL     1      -9.715   1.952  65.806  1.00  0.00     0.367 Cl 
HETATM   33  C   UNL     1      -8.861   1.732  67.361  1.00  0.00    -0.121 C  
ENDBRANCH  27  31
ENDBRANCH  24  25
ENDBRANCH  12  24
TORSDOF 5
ENDMDL
MODEL      170
REMARK 921   NORMALIZED FREE ENERGY PREDICTED BY IDOCK:    1.01 KCAL/MOL
REMARK 922        TOTAL FREE ENERGY PREDICTED BY IDOCK:    0.52 KCAL/MOL
REMARK 923 INTER-LIGAND FREE ENERGY PREDICTED BY IDOCK:   -2.26 KCAL/MOL
REMARK 924 INTRA-LIGAND FREE ENERGY PREDICTED BY IDOCK:    2.78 KCAL/MOL
REMARK 927      BINDING AFFINITY PREDICTED BY RF-SCORE:    0.00 PKD
ROOT
HETATM    1  C   UNL     1     -11.615   8.071  72.006  1.00  0.00    -0.369 C  
HETATM    2  C   UNL     1     -12.748   8.064  71.147  1.00  0.00    -0.150 C  
HETATM    3  C   UNL     1     -11.821   6.928  70.813  1.00  0.00    -0.427 C  
HETATM    4  C   UNL     1     -10.300   6.586  72.154  1.00  0.00    -0.198 C  
HETATM    5  C   UNL     1     -11.604   6.197  72.208  1.00  0.00    -0.362 C  
HETATM    6  C   UNL     1      -7.613   7.823  68.167  1.00  0.00    -0.116 A  
HETATM    7  C   UNL     1     -10.771   5.116  70.858  1.00  0.00    -0.128 C  
HETATM    8  C   UNL     1     -10.248   8.718  70.990  1.00  0.00    -0.301 C  
HETATM    9  C   UNL     1     -12.541   5.573  73.193  1.00  0.00     1.048 C  
HETATM   10  C   UNL     1      -9.541   6.077  69.955  1.00  0.00    -0.188 C  
HETATM   11  C   UNL     1      -6.664   8.517  67.395  1.00  0.00    -0.063 A  
HETATM   12  C   UNL     1      -6.594   9.906  67.464  1.00  0.00    -0.069 A  
HETATM   13  C   UNL     1     -10.626  10.074  70.360  1.00  0.00    -0.343 C  
HETATM   14  C   UNL     1      -9.653   7.769  69.738  1.00  0.00    -0.167 C  
HETATM   15  C   UNL     1      -8.499   8.502  69.024  1.00  0.00    -0.126 A  
HETATM   16  C   UNL     1      -8.448   9.922  69.033  1.00  0.00    -0.136 A  
HETATM   17  C   UNL     1      -7.487  10.606  68.263  1.00  0.00    -0.091 A  
HETATM   18  C   UNL     1      -9.389  10.791  69.831  1.00  0.00     0.556 C  
ENDROOT
BRANCH   4  19
HETATM   19  O   UNL     1      -9.908   5.363  73.039  1.00  0.00    -0.159 OA 
HETATM   20  O   UNL     1      -7.673   5.071  73.494  1.00  0.00    -0.094 OA 
HETATM   21  O   UNL     1      -7.684   3.071  72.300  1.00  0.00    -0.052 OA 
HETATM   22  O   UNL     1      -9.352   3.378  73.947  1.00  0.00    -0.095 OA 
HETATM   23  P   UNL     1      -8.734   4.153  72.649  1.00  0.00    -0.104 P  
ENDBRANCH   4  19
BRANCH  12  24
HETATM   24  O   UNL     1      -5.667  10.574  66.642  1.00  0.00    -0.050 OA 
BRANCH  24  25
HETATM   25  C   UNL     1      -6.021  10.696  65.296  1.00  0.00    -0.090 C  
HETATM   26  O   UNL     1      -5.282  10.472  64.346  1.00  0.00    -0.127 OA 
HETATM   27  N   UNL     1      -7.380  10.945  65.147  1.00  0.00     0.170 N  
BRANCH  27  28
HETATM   28  C   UNL     1      -7.989  12.090  65.834  1.00  0.00     0.795 C  
HETATM   29 CL   UNL     1     -10.142  13.362  66.903  1.00  0.00    -0.250 Cl 
HETATM   30  C   UNL     1      -9.489  11.937  66.057  1.00  0.00    -0.229 C  
ENDBRANCH  27  28
BRANCH  27  31
HETATM   31  C   UNL     1      -8.032  10.428  63.939  1.00  0.00    -0.075 C  
HETATM   32 CL   UNL     1      -8.049   7.902  65.039  1.00  0.00    -0.140 Cl 
HETATM   33  C   UNL     1      -7.712   8.954  63.633  1.00  0.00    -0.129 C  
ENDBRANCH  27  31
ENDBRANCH  24  25
ENDBRANCH  12  24
TORSDOF 5
ENDMDL
MODEL      171
REMARK 921   NORMALIZED FREE ENERGY PREDICTED BY IDOCK:    1.07 KCAL/MOL
REMARK 922        TOTAL FREE ENERGY PREDICTED BY IDOCK:    0.60 KCAL/MOL
REMARK 923 INTER-LIGAND FREE ENERGY PREDICTED BY IDOCK:   -3.70 KCAL/MOL
REMARK 924 INTRA-LIGAND FREE ENERGY PREDICTED BY IDOCK:    4.30 KCAL/MOL
REMARK 927      BINDING AFFINITY PREDICTED BY RF-SCORE:    0.00 PKD
ROOT
HETATM    1  C   UNL     1     -12.341  11.502  69.175  1.00  0.00    -0.069 C  
HETATM    2  C   UNL     1     -12.138  11.956  70.507  1.00  0.00    -0.422 C  
HETATM    3  C   UNL     1     -10.890  12.136  69.689  1.00  0.00     0.185 C  
HETATM    4  C   UNL     1     -11.093  11.840  67.663  1.00  0.00    -0.252 C  
HETATM    5  C   UNL     1     -11.391  12.939  68.411  1.00  0.00    -0.329 C  
HETATM    6  C   UNL     1      -7.935   8.158  68.717  1.00  0.00    -0.115 A  
HETATM    7  C   UNL     1      -9.476  12.849  68.318  1.00  0.00    -0.206 C  
HETATM    8  C   UNL     1     -11.476   9.902  69.077  1.00  0.00     0.003 C  
HETATM    9  C   UNL     1     -12.087  14.251  68.235  1.00  0.00    -0.278 C  
HETATM   10  C   UNL     1      -8.925  11.132  68.350  1.00  0.00    -0.165 C  
HETATM   11  C   UNL     1      -7.429   6.847  68.773  1.00  0.00    -0.099 A  
HETATM   12  C   UNL     1      -8.262   5.795  69.147  1.00  0.00    -0.101 A  
HETATM   13  C   UNL     1     -11.952   8.950  70.194  1.00  0.00     0.328 C  
HETATM   14  C   UNL     1      -9.797   9.887  69.134  1.00  0.00    -0.204 C  
HETATM   15  C   UNL     1      -9.279   8.438  69.023  1.00  0.00    -0.147 A  
HETATM   16  C   UNL     1     -10.094   7.359  69.458  1.00  0.00    -0.187 A  
HETATM   17  C   UNL     1      -9.580   6.048  69.501  1.00  0.00    -0.171 A  
HETATM   18  C   UNL     1     -11.528   7.515  69.904  1.00  0.00     0.019 C  
ENDROOT
BRANCH   4  19
HETATM   19  O   UNL     1     -10.873  12.756  66.420  1.00  0.00    -0.265 OA 
HETATM   20  O   UNL     1      -8.724  13.456  66.000  1.00  0.00     0.366 OA 
HETATM   21  O   UNL     1      -9.356  15.662  66.400  1.00  0.00    -0.248 OA 
HETATM   22  O   UNL     1     -10.667  14.398  64.892  1.00  0.00    -0.388 OA 
HETATM   23  P   UNL     1     -10.072  14.290  66.410  1.00  0.00    -0.308 P  
ENDBRANCH   4  19
BRANCH  12  24
HETATM   24  O   UNL     1      -7.712   4.503  69.241  1.00  0.00    -0.055 OA 
BRANCH  24  25
HETATM   25  C   UNL     1      -6.579   4.379  70.050  1.00  0.00    -0.033 C  
HETATM   26  O   UNL     1      -5.534   3.830  69.725  1.00  0.00    -0.014 OA 
HETATM   27  N   UNL     1      -6.711   5.105  71.227  1.00  0.00    -0.042 N  
BRANCH  27  28
HETATM   28  C   UNL     1      -7.865   4.867  72.103  1.00  0.00    -0.109 C  
HETATM   29 CL   UNL     1      -9.871   3.280  73.027  1.00  0.00    -0.178 Cl 
HETATM   30  C   UNL     1      -8.488   3.487  71.923  1.00  0.00    -0.081 C  
ENDBRANCH  27  28
BRANCH  27  31
HETATM   31  C   UNL     1      -5.488   5.660  71.818  1.00  0.00    -0.020 C  
HETATM   32 CL   UNL     1      -6.835   7.992  72.398  1.00  0.00    -0.075 Cl 
HETATM   33  C   UNL     1      -5.384   7.193  71.726  1.00  0.00    -0.036 C  
ENDBRANCH  27  31
ENDBRANCH  24  25
ENDBRANCH  12  24
TORSDOF 5
ENDMDL
MODEL      172
REMARK 921   NORMALIZED FREE ENERGY PREDICTED BY IDOCK:    1.30 KCAL/MOL
REMARK 922        TOTAL FREE ENERGY PREDICTED BY IDOCK:    0.90 KCAL/MOL
REMARK 923 INTER-LIGAND FREE ENERGY PREDICTED BY IDOCK:   -2.46 KCAL/MOL
REMARK 924 INTRA-LIGAND FREE ENERGY PREDICTED BY IDOCK:    3.36 KCAL/MOL
REMARK 927      BINDING AFFINITY PREDICTED BY RF-SCORE:    0.00 PKD
ROOT
HETATM    1  C   UNL     1      -9.097  15.357  67.342  1.00  0.00    -0.206 C  
HETATM    2  C   UNL     1      -9.565  15.052  66.034  1.00  0.00    -0.359 C  
HETATM    3  C   UNL     1     -10.718  15.310  66.964  1.00  0.00    -0.313 C  
HETATM    4  C   UNL     1     -10.231  16.082  68.807  1.00  0.00    -0.225 C  
HETATM    5  C   UNL     1     -10.371  16.720  67.611  1.00  0.00    -0.309 C  
HETATM    6  C   UNL     1     -12.157  11.732  70.224  1.00  0.00    -0.426 A  
HETATM    7  C   UNL     1     -12.140  16.246  68.183  1.00  0.00     0.687 C  
HETATM    8  C   UNL     1      -9.400  13.851  68.321  1.00  0.00    -0.209 C  
HETATM    9  C   UNL     1     -10.109  18.074  67.034  1.00  0.00    -0.348 C  
HETATM   10  C   UNL     1     -12.122  14.652  69.026  1.00  0.00    -0.270 C  
HETATM   11  C   UNL     1     -12.228  10.480  70.860  1.00  0.00    -0.490 A  
HETATM   12  C   UNL     1     -11.148   9.603  70.791  1.00  0.00    -0.334 A  
HETATM   13  C   UNL     1      -8.763  12.619  67.647  1.00  0.00    -0.179 C  
HETATM   14  C   UNL     1     -10.986  13.423  68.675  1.00  0.00    -0.288 C  
HETATM   15  C   UNL     1     -11.007  12.132  69.519  1.00  0.00    -0.031 A  
HETATM   16  C   UNL     1      -9.942  11.198  69.413  1.00  0.00     0.055 A  
HETATM   17  C   UNL     1     -10.019   9.951  70.063  1.00  0.00    -0.302 A  
HETATM   18  C   UNL     1      -8.683  11.447  68.619  1.00  0.00    -0.121 C  
ENDROOT
BRANCH   4  19
HETATM   19  O   UNL     1     -10.602  17.405  69.546  1.00  0.00    -0.218 OA 
HETATM   20  O   UNL     1     -10.268  19.373  68.405  1.00  0.00    -0.405 OA 
HETATM   21  O   UNL     1      -8.651  20.007  69.957  1.00  0.00     0.602 OA 
HETATM   22  O   UNL     1     -10.744  19.281  70.783  1.00  0.00     1.577 OA 
HETATM   23  P   UNL     1      -9.572  18.778  69.762  1.00  0.00     1.085 P  
ENDBRANCH   4  19
BRANCH  12  24
HETATM   24  O   UNL     1     -11.269   8.338  71.397  1.00  0.00    -0.241 OA 
BRANCH  24  25
HETATM   25  C   UNL     1     -11.784   7.321  70.589  1.00  0.00    -0.275 C  
HETATM   26  O   UNL     1     -12.912   7.299  70.111  1.00  0.00     0.546 OA 
HETATM   27  N   UNL     1     -10.804   6.399  70.242  1.00  0.00    -0.266 N  
BRANCH  27  28
HETATM   28  C   UNL     1     -10.030   5.731  71.295  1.00  0.00    -0.191 C  
HETATM   29 CL   UNL     1      -9.790   4.748  73.820  1.00  0.00    -0.157 Cl 
HETATM   30  C   UNL     1     -10.796   5.575  72.605  1.00  0.00    -0.257 C  
ENDBRANCH  27  28
BRANCH  27  31
HETATM   31  C   UNL     1     -10.933   5.735  68.941  1.00  0.00    -0.180 C  
HETATM   32 CL   UNL     1      -9.117   7.506  67.865  1.00  0.00    -0.131 Cl 
HETATM   33  C   UNL     1     -10.686   6.659  67.735  1.00  0.00    -0.283 C  
ENDBRANCH  27  31
ENDBRANCH  24  25
ENDBRANCH  12  24
TORSDOF 5
ENDMDL
MODEL      173
REMARK 921   NORMALIZED FREE ENERGY PREDICTED BY IDOCK:    1.43 KCAL/MOL
REMARK 922        TOTAL FREE ENERGY PREDICTED BY IDOCK:    1.06 KCAL/MOL
REMARK 923 INTER-LIGAND FREE ENERGY PREDICTED BY IDOCK:   -2.28 KCAL/MOL
REMARK 924 INTRA-LIGAND FREE ENERGY PREDICTED BY IDOCK:    3.35 KCAL/MOL
REMARK 927      BINDING AFFINITY PREDICTED BY RF-SCORE:    0.00 PKD
ROOT
HETATM    1  C   UNL     1      -5.727   3.318  66.033  1.00  0.00    -0.018 C  
HETATM    2  C   UNL     1      -5.129   2.250  66.757  1.00  0.00    -0.005 C  
HETATM    3  C   UNL     1      -6.605   2.018  66.591  1.00  0.00    -0.038 C  
HETATM    4  C   UNL     1      -7.574   3.288  65.296  1.00  0.00    -0.080 C  
HETATM    5  C   UNL     1      -6.837   2.175  65.026  1.00  0.00    -0.042 C  
HETATM    6  C   UNL     1      -9.877   4.511  69.521  1.00  0.00    -0.277 A  
HETATM    7  C   UNL     1      -8.486   1.561  65.792  1.00  0.00    -0.100 C  
HETATM    8  C   UNL     1      -6.612   4.305  67.282  1.00  0.00    -0.046 C  
HETATM    9  C   UNL     1      -6.263   1.482  63.832  1.00  0.00    -0.013 C  
HETATM   10  C   UNL     1      -9.047   2.700  67.073  1.00  0.00    -0.171 C  
HETATM   11  C   UNL     1     -10.359   5.333  70.555  1.00  0.00    -0.336 A  
HETATM   12  C   UNL     1      -9.534   6.309  71.109  1.00  0.00    -0.170 A  
HETATM   13  C   UNL     1      -5.667   4.714  68.431  1.00  0.00    -0.017 C  
HETATM   14  C   UNL     1      -7.977   3.651  68.010  1.00  0.00    -0.076 C  
HETATM   15  C   UNL     1      -8.571   4.656  69.018  1.00  0.00    -0.099 A  
HETATM   16  C   UNL     1      -7.729   5.618  69.638  1.00  0.00    -0.083 A  
HETATM   17  C   UNL     1      -8.225   6.443  70.667  1.00  0.00    -0.125 A  
HETATM   18  C   UNL     1      -6.281   5.829  69.270  1.00  0.00    -0.032 C  
ENDROOT
BRANCH   4  19
HETATM   19  O   UNL     1      -8.378   3.065  63.978  1.00  0.00    -0.085 OA 
HETATM   20  O   UNL     1      -9.052   4.940  62.831  1.00  0.00    -0.111 OA 
HETATM   21  O   UNL     1     -11.281   4.393  63.233  1.00  0.00     0.311 OA 
HETATM   22  O   UNL     1      -9.879   2.712  62.337  1.00  0.00    -0.092 OA 
HETATM   23  P   UNL     1      -9.910   3.766  63.585  1.00  0.00    -0.174 P  
ENDBRANCH   4  19
BRANCH  12  24
HETATM   24  O   UNL     1     -10.030   7.081  72.177  1.00  0.00    -0.166 OA 
BRANCH  24  25
HETATM   25  C   UNL     1      -9.081   7.818  72.890  1.00  0.00    -0.197 C  
HETATM   26  O   UNL     1      -8.994   7.867  74.111  1.00  0.00    -0.245 OA 
HETATM   27  N   UNL     1      -8.123   8.369  72.047  1.00  0.00    -0.141 N  
BRANCH  27  28
HETATM   28  C   UNL     1      -8.544   9.221  70.928  1.00  0.00    -0.162 C  
HETATM   29 CL   UNL     1     -10.285  10.971  69.786  1.00  0.00     0.056 Cl 
HETATM   30  C   UNL     1      -9.855   9.956  71.185  1.00  0.00     0.589 C  
ENDBRANCH  27  28
BRANCH  27  31
HETATM   31  C   UNL     1      -6.770   8.539  72.584  1.00  0.00    -0.058 C  
HETATM   32 CL   UNL     1      -5.935   9.521  70.149  1.00  0.00    -0.043 Cl 
HETATM   33  C   UNL     1      -5.655   8.421  71.530  1.00  0.00    -0.036 C  
ENDBRANCH  27  31
ENDBRANCH  24  25
ENDBRANCH  12  24
TORSDOF 5
ENDMDL
MODEL      174
REMARK 921   NORMALIZED FREE ENERGY PREDICTED BY IDOCK:    1.71 KCAL/MOL
REMARK 922        TOTAL FREE ENERGY PREDICTED BY IDOCK:    1.42 KCAL/MOL
REMARK 923 INTER-LIGAND FREE ENERGY PREDICTED BY IDOCK:   -3.96 KCAL/MOL
REMARK 924 INTRA-LIGAND FREE ENERGY PREDICTED BY IDOCK:    5.38 KCAL/MOL
REMARK 927      BINDING AFFINITY PREDICTED BY RF-SCORE:    0.00 PKD
ROOT
HETATM    1  C   UNL     1      -7.431   7.311  68.087  1.00  0.00    -0.102 C  
HETATM    2  C   UNL     1      -6.134   6.966  67.617  1.00  0.00    -0.029 C  
HETATM    3  C   UNL     1      -6.057   7.584  68.985  1.00  0.00    -0.034 C  
HETATM    4  C   UNL     1      -7.851   7.844  69.956  1.00  0.00    -0.105 C  
HETATM    5  C   UNL     1      -7.083   6.725  69.844  1.00  0.00    -0.071 C  
HETATM    6  C   UNL     1      -6.467  12.591  69.501  1.00  0.00    -0.083 A  
HETATM    7  C   UNL     1      -6.162   7.896  71.054  1.00  0.00    -0.034 C  
HETATM    8  C   UNL     1      -7.538   9.121  67.912  1.00  0.00    -0.085 C  
HETATM    9  C   UNL     1      -7.191   5.266  70.152  1.00  0.00    -0.062 C  
HETATM   10  C   UNL     1      -6.371   9.614  70.547  1.00  0.00    -0.088 C  
HETATM   11  C   UNL     1      -6.556  13.949  69.149  1.00  0.00    -0.111 A  
HETATM   12  C   UNL     1      -7.030  14.311  67.890  1.00  0.00    -0.164 A  
HETATM   13  C   UNL     1      -7.205   9.555  66.470  1.00  0.00    -0.089 C  
HETATM   14  C   UNL     1      -6.602  10.086  68.920  1.00  0.00    -0.049 C  
HETATM   15  C   UNL     1      -6.858  11.575  68.610  1.00  0.00    -0.077 A  
HETATM   16  C   UNL     1      -7.282  11.966  67.311  1.00  0.00    -0.147 A  
HETATM   17  C   UNL     1      -7.376  13.330  66.972  1.00  0.00     0.254 A  
HETATM   18  C   UNL     1      -7.648  10.992  66.218  1.00  0.00    -0.111 C  
ENDROOT
BRANCH   4  19
HETATM   19  O   UNL     1      -8.432   7.302  71.298  1.00  0.00    -0.114 OA 
HETATM   20  O   UNL     1      -7.383   5.482  72.234  1.00  0.00    -0.090 OA 
HETATM   21  O   UNL     1      -9.304   4.203  71.918  1.00  0.00    -0.121 OA 
HETATM   22  O   UNL     1      -9.542   6.301  72.983  1.00  0.00    -0.152 OA 
HETATM   23  P   UNL     1      -8.892   5.666  71.625  1.00  0.00    -0.135 P  
ENDBRANCH   4  19
BRANCH  12  24
HETATM   24  O   UNL     1      -7.059  15.677  67.551  1.00  0.00    -0.151 OA 
BRANCH  24  25
HETATM   25  C   UNL     1      -8.295  16.175  67.131  1.00  0.00    -0.197 C  
HETATM   26  O   UNL     1      -8.791  15.999  66.025  1.00  0.00    -0.333 OA 
HETATM   27  N   UNL     1      -8.991  16.764  68.180  1.00  0.00    -0.218 N  
BRANCH  27  28
HETATM   28  C   UNL     1      -8.361  17.838  68.957  1.00  0.00    -0.024 C  
HETATM   29 CL   UNL     1      -6.474  19.774  69.258  1.00  0.00    -0.357 Cl 
HETATM   30  C   UNL     1      -7.170  18.479  68.253  1.00  0.00    -0.264 C  
ENDBRANCH  27  28
BRANCH  27  31
HETATM   31  C   UNL     1     -10.455  16.697  68.140  1.00  0.00    -0.321 C  
HETATM   32 CL   UNL     1     -10.374  14.287  69.473  1.00  0.00    -0.002 Cl 
HETATM   33  C   UNL     1     -11.019  15.265  68.122  1.00  0.00    -0.292 C  
ENDBRANCH  27  31
ENDBRANCH  24  25
ENDBRANCH  12  24
TORSDOF 5
ENDMDL
MODEL      175
REMARK 921   NORMALIZED FREE ENERGY PREDICTED BY IDOCK:    3.39 KCAL/MOL
REMARK 922        TOTAL FREE ENERGY PREDICTED BY IDOCK:    3.60 KCAL/MOL
REMARK 923 INTER-LIGAND FREE ENERGY PREDICTED BY IDOCK:    4.05 KCAL/MOL
REMARK 924 INTRA-LIGAND FREE ENERGY PREDICTED BY IDOCK:   -0.45 KCAL/MOL
REMARK 927      BINDING AFFINITY PREDICTED BY RF-SCORE:    0.00 PKD
ROOT
HETATM    1  C   UNL     1     -11.197   4.520  65.741  1.00  0.00     0.720 C  
HETATM    2  C   UNL     1     -12.214   4.959  64.849  1.00  0.00     3.473 C  
HETATM    3  C   UNL     1     -10.866   5.009  64.184  1.00  0.00     1.492 C  
HETATM    4  C   UNL     1      -9.326   4.105  65.207  1.00  0.00    -0.164 C  
HETATM    5  C   UNL     1     -10.282   3.548  64.411  1.00  0.00    -0.172 C  
HETATM    6  C   UNL     1      -7.691   8.793  65.233  1.00  0.00    -0.098 A  
HETATM    7  C   UNL     1      -9.074   4.473  63.241  1.00  0.00    -0.117 C  
HETATM    8  C   UNL     1     -10.342   6.037  66.276  1.00  0.00    -0.037 C  
HETATM    9  C   UNL     1     -10.772   2.182  64.051  1.00  0.00     0.214 C  
HETATM   10  C   UNL     1      -8.485   5.991  64.018  1.00  0.00     0.120 C  
HETATM   11  C   UNL     1      -7.217  10.008  65.759  1.00  0.00    -0.117 A  
HETATM   12  C   UNL     1      -7.821  10.561  66.886  1.00  0.00    -0.117 A  
HETATM   13  C   UNL     1     -11.344   7.061  66.847  1.00  0.00     0.337 C  
HETATM   14  C   UNL     1      -9.404   6.872  65.160  1.00  0.00     0.854 C  
HETATM   15  C   UNL     1      -8.766   8.108  65.828  1.00  0.00    -0.183 A  
HETATM   16  C   UNL     1      -9.404   8.720  66.940  1.00  0.00    -0.213 A  
HETATM   17  C   UNL     1      -8.914   9.932  67.464  1.00  0.00    -0.141 A  
HETATM   18  C   UNL     1     -10.621   8.153  67.628  1.00  0.00    -0.258 C  
ENDROOT
BRANCH   4  19
HETATM   19  O   UNL     1      -8.368   2.922  64.872  1.00  0.00    -0.086 OA 
HETATM   20  O   UNL     1      -7.375   1.843  66.643  1.00  0.00    -0.054 OA 
HETATM   21  O   UNL     1      -5.282   2.572  65.923  1.00  0.00    -0.007 OA 
HETATM   22  O   UNL     1      -6.687   1.521  64.337  1.00  0.00    -0.021 OA 
HETATM   23  P   UNL     1      -6.739   2.737  65.427  1.00  0.00    -0.041 P  
ENDBRANCH   4  19
BRANCH  12  24
HETATM   24  O   UNL     1      -7.354  11.802  67.357  1.00  0.00    -0.117 OA 
BRANCH  24  25
HETATM   25  C   UNL     1      -8.206  12.484  68.229  1.00  0.00    -0.168 C  
HETATM   26  O   UNL     1      -8.324  12.257  69.427  1.00  0.00     0.601 OA 
HETATM   27  N   UNL     1      -8.795  13.582  67.613  1.00  0.00    -0.189 N  
BRANCH  27  28
HETATM   28  C   UNL     1      -9.550  13.397  66.368  1.00  0.00    -0.257 C  
HETATM   29 CL   UNL     1     -11.221  14.321  64.431  1.00  0.00    -0.310 Cl 
HETATM   30  C   UNL     1     -10.347  14.629  65.952  1.00  0.00    -0.319 C  
ENDBRANCH  27  28
BRANCH  27  31
HETATM   31  C   UNL     1      -9.111  14.740  68.456  1.00  0.00    -0.187 C  
HETATM   32 CL   UNL     1      -6.941  16.080  67.412  1.00  0.00    -0.202 Cl 
HETATM   33  C   UNL     1      -7.886  15.585  68.847  1.00  0.00    -0.182 C  
ENDBRANCH  27  31
ENDBRANCH  24  25
ENDBRANCH  12  24
TORSDOF 5
ENDMDL
MODEL      176
REMARK 921   NORMALIZED FREE ENERGY PREDICTED BY IDOCK:    3.55 KCAL/MOL
REMARK 922        TOTAL FREE ENERGY PREDICTED BY IDOCK:    3.80 KCAL/MOL
REMARK 923 INTER-LIGAND FREE ENERGY PREDICTED BY IDOCK:   -2.07 KCAL/MOL
REMARK 924 INTRA-LIGAND FREE ENERGY PREDICTED BY IDOCK:    5.87 KCAL/MOL
REMARK 927      BINDING AFFINITY PREDICTED BY RF-SCORE:    0.00 PKD
ROOT
HETATM    1  C   UNL     1      -7.500  13.583  68.243  1.00  0.00    -0.122 C  
HETATM    2  C   UNL     1      -6.459  13.091  67.409  1.00  0.00    -0.107 C  
HETATM    3  C   UNL     1      -7.804  12.812  66.799  1.00  0.00     0.202 C  
HETATM    4  C   UNL     1      -9.407  13.735  67.699  1.00  0.00    -0.213 C  
HETATM    5  C   UNL     1      -8.517  14.233  66.795  1.00  0.00    -0.051 C  
HETATM    6  C   UNL     1     -10.605   8.993  68.551  1.00  0.00    -0.196 A  
HETATM    7  C   UNL     1      -9.649  13.021  65.830  1.00  0.00    -0.073 C  
HETATM    8  C   UNL     1      -8.205  12.109  69.047  1.00  0.00     0.282 C  
HETATM    9  C   UNL     1      -8.159  15.557  66.200  1.00  0.00     0.542 C  
HETATM   10  C   UNL     1     -10.087  11.610  66.865  1.00  0.00    -0.238 C  
HETATM   11  C   UNL     1     -10.960   7.847  69.285  1.00  0.00     0.009 A  
HETATM   12  C   UNL     1     -10.293   7.547  70.471  1.00  0.00    -0.215 A  
HETATM   13  C   UNL     1      -7.106  11.288  69.752  1.00  0.00     0.045 C  
HETATM   14  C   UNL     1      -9.077  11.019  68.112  1.00  0.00    -0.155 C  
HETATM   15  C   UNL     1      -9.590   9.861  68.993  1.00  0.00    -0.188 A  
HETATM   16  C   UNL     1      -8.885   9.503  70.174  1.00  0.00    -0.266 A  
HETATM   17  C   UNL     1      -9.255   8.358  70.906  1.00  0.00    -0.192 A  
HETATM   18  C   UNL     1      -7.716  10.284  70.724  1.00  0.00     0.986 C  
ENDROOT
BRANCH   4  19
HETATM   19  O   UNL     1     -10.474  14.756  67.198  1.00  0.00    -0.260 OA 
HETATM   20  O   UNL     1     -10.452  15.283  64.960  1.00  0.00    -0.399 OA 
HETATM   21  O   UNL     1      -9.887  17.483  65.476  1.00  0.00    -0.508 OA 
HETATM   22  O   UNL     1     -11.733  16.527  66.605  1.00  0.00     0.805 OA 
HETATM   23  P   UNL     1     -10.164  16.195  66.289  1.00  0.00    -0.344 P  
ENDBRANCH   4  19
BRANCH  12  24
HETATM   24  O   UNL     1     -10.638   6.367  71.156  1.00  0.00    -0.222 OA 
BRANCH  24  25
HETATM   25  C   UNL     1     -10.102   6.225  72.438  1.00  0.00    -0.177 C  
HETATM   26  O   UNL     1     -10.484   6.824  73.435  1.00  0.00    -0.253 OA 
HETATM   27  N   UNL     1      -9.180   5.187  72.494  1.00  0.00    -0.132 N  
BRANCH  27  28
HETATM   28  C   UNL     1      -8.038   5.180  71.571  1.00  0.00    -0.115 C  
HETATM   29 CL   UNL     1      -5.428   5.692  71.002  1.00  0.00    -0.009 Cl 
HETATM   30  C   UNL     1      -6.761   5.747  72.182  1.00  0.00    -0.067 C  
ENDBRANCH  27  28
BRANCH  27  31
HETATM   31  C   UNL     1      -9.059   4.459  73.761  1.00  0.00    -0.104 C  
HETATM   32 CL   UNL     1     -10.922   2.630  72.880  1.00  0.00    -0.148 Cl 
HETATM   33  C   UNL     1     -10.335   3.709  74.180  1.00  0.00    -0.188 C  
ENDBRANCH  27  31
ENDBRANCH  24  25
ENDBRANCH  12  24
TORSDOF 5
ENDMDL
MODEL      177
REMARK 921   NORMALIZED FREE ENERGY PREDICTED BY IDOCK:    3.55 KCAL/MOL
REMARK 922        TOTAL FREE ENERGY PREDICTED BY IDOCK:    3.81 KCAL/MOL
REMARK 923 INTER-LIGAND FREE ENERGY PREDICTED BY IDOCK:   -1.50 KCAL/MOL
REMARK 924 INTRA-LIGAND FREE ENERGY PREDICTED BY IDOCK:    5.30 KCAL/MOL
REMARK 927      BINDING AFFINITY PREDICTED BY RF-SCORE:    0.00 PKD
ROOT
HETATM    1  C   UNL     1      -9.203   7.923  69.920  1.00  0.00    -0.153 C  
HETATM    2  C   UNL     1      -8.298   8.121  70.999  1.00  0.00    -0.129 C  
HETATM    3  C   UNL     1      -9.609   8.804  71.273  1.00  0.00    -0.323 C  
HETATM    4  C   UNL     1     -11.143   8.355  69.979  1.00  0.00    -0.148 C  
HETATM    5  C   UNL     1     -10.685   7.654  71.053  1.00  0.00    -0.239 C  
HETATM    6  C   UNL     1     -10.659  13.205  69.029  1.00  0.00    -0.089 A  
HETATM    7  C   UNL     1     -11.612   9.181  71.757  1.00  0.00    -0.457 C  
HETATM    8  C   UNL     1      -9.230   9.507  69.022  1.00  0.00    -0.155 C  
HETATM    9  C   UNL     1     -10.885   6.308  71.671  1.00  0.00    -0.298 C  
HETATM   10  C   UNL     1     -11.353  10.617  70.697  1.00  0.00    -0.288 C  
HETATM   11  C   UNL     1     -10.474  14.375  68.272  1.00  0.00    -0.245 A  
HETATM   12  C   UNL     1      -9.483  14.422  67.294  1.00  0.00    -0.215 A  
HETATM   13  C   UNL     1      -7.802   9.944  68.634  1.00  0.00    -0.086 C  
HETATM   14  C   UNL     1      -9.944  10.839  69.754  1.00  0.00     0.111 C  
HETATM   15  C   UNL     1      -9.867  12.062  68.816  1.00  0.00    -0.057 A  
HETATM   16  C   UNL     1      -8.824  12.153  67.856  1.00  0.00    -0.177 A  
HETATM   17  C   UNL     1      -8.654  13.327  67.096  1.00  0.00    -0.197 A  
HETATM   18  C   UNL     1      -7.837  11.044  67.579  1.00  0.00    -0.116 C  
ENDROOT
BRANCH   4  19
HETATM   19  O   UNL     1     -12.550   7.710  70.169  1.00  0.00     0.531 OA 
HETATM   20  O   UNL     1     -13.867   8.546  71.858  1.00  0.00    -0.383 OA 
HETATM   21  O   UNL     1     -13.763   6.497  72.962  1.00  0.00     1.229 OA 
HETATM   22  O   UNL     1     -14.371   6.486  70.677  1.00  0.00     1.288 OA 
HETATM   23  P   UNL     1     -13.190   7.070  71.643  1.00  0.00    -0.086 P  
ENDBRANCH   4  19
BRANCH  12  24
HETATM   24  O   UNL     1      -9.291  15.624  66.589  1.00  0.00    -0.230 OA 
BRANCH  24  25
HETATM   25  C   UNL     1     -10.126  16.685  66.951  1.00  0.00    -0.280 C  
HETATM   26  O   UNL     1     -10.468  16.958  68.095  1.00  0.00    -0.315 OA 
HETATM   27  N   UNL     1     -10.398  17.512  65.868  1.00  0.00    -0.321 N  
BRANCH  27  28
HETATM   28  C   UNL     1     -10.972  16.941  64.644  1.00  0.00     0.235 C  
HETATM   29 CL   UNL     1     -12.502  15.093  63.363  1.00  0.00     0.874 Cl 
HETATM   30  C   UNL     1     -11.840  15.713  64.896  1.00  0.00     0.041 C  
ENDBRANCH  27  28
BRANCH  27  31
HETATM   31  C   UNL     1     -10.619  18.935  66.146  1.00  0.00    -0.407 C  
HETATM   32 CL   UNL     1      -7.950  19.433  65.671  1.00  0.00    -0.049 Cl 
HETATM   33  C   UNL     1      -9.387  19.664  66.711  1.00  0.00    -0.364 C  
ENDBRANCH  27  31
ENDBRANCH  24  25
ENDBRANCH  12  24
TORSDOF 5
ENDMDL
MODEL      178
REMARK 921   NORMALIZED FREE ENERGY PREDICTED BY IDOCK:    4.07 KCAL/MOL
REMARK 922        TOTAL FREE ENERGY PREDICTED BY IDOCK:    4.47 KCAL/MOL
REMARK 923 INTER-LIGAND FREE ENERGY PREDICTED BY IDOCK:    0.67 KCAL/MOL
REMARK 924 INTRA-LIGAND FREE ENERGY PREDICTED BY IDOCK:    3.80 KCAL/MOL
REMARK 927      BINDING AFFINITY PREDICTED BY RF-SCORE:    0.00 PKD
ROOT
HETATM    1  C   UNL     1      -9.107   8.999  71.694  1.00  0.00    -0.178 C  
HETATM    2  C   UNL     1      -8.432  10.162  71.232  1.00  0.00     2.336 C  
HETATM    3  C   UNL     1      -9.366   9.635  70.177  1.00  0.00    -0.294 C  
HETATM    4  C   UNL     1     -10.662   8.157  70.782  1.00  0.00    -0.222 C  
HETATM    5  C   UNL     1     -10.757   9.507  70.937  1.00  0.00    -0.403 C  
HETATM    6  C   UNL     1      -8.027   5.616  67.427  1.00  0.00    -0.102 A  
HETATM    7  C   UNL     1     -11.082   9.150  69.079  1.00  0.00     0.063 C  
HETATM    8  C   UNL     1      -8.296   7.606  70.845  1.00  0.00    -0.112 C  
HETATM    9  C   UNL     1     -11.616  10.486  71.671  1.00  0.00     0.470 C  
HETATM   10  C   UNL     1     -10.047   7.786  68.511  1.00  0.00    -0.216 C  
HETATM   11  C   UNL     1      -7.228   4.585  66.904  1.00  0.00    -0.076 A  
HETATM   12  C   UNL     1      -6.137   4.114  67.630  1.00  0.00    -0.032 A  
HETATM   13  C   UNL     1      -6.771   7.637  71.073  1.00  0.00    -0.042 C  
HETATM   14  C   UNL     1      -8.519   7.429  69.190  1.00  0.00    -0.133 C  
HETATM   15  C   UNL     1      -7.758   6.185  68.686  1.00  0.00    -0.100 A  
HETATM   16  C   UNL     1      -6.606   5.729  69.382  1.00  0.00    -0.054 A  
HETATM   17  C   UNL     1      -5.818   4.689  68.852  1.00  0.00    -0.021 A  
HETATM   18  C   UNL     1      -6.138   6.302  70.697  1.00  0.00    -0.034 C  
ENDROOT
BRANCH   4  19
HETATM   19  O   UNL     1     -12.217   8.051  70.831  1.00  0.00    -0.238 OA 
HETATM   20  O   UNL     1     -13.225   8.348  72.876  1.00  0.00    -0.073 OA 
HETATM   21  O   UNL     1     -13.965   6.139  72.840  1.00  0.00     0.513 OA 
HETATM   22  O   UNL     1     -14.392   7.474  70.935  1.00  0.00    -0.153 OA 
HETATM   23  P   UNL     1     -13.140   7.042  71.891  1.00  0.00     0.009 P  
ENDBRANCH   4  19
BRANCH  12  24
HETATM   24  O   UNL     1      -5.328   3.115  67.055  1.00  0.00    -0.011 OA 
BRANCH  24  25
HETATM   25  C   UNL     1      -5.729   2.653  65.799  1.00  0.00    -0.018 C  
HETATM   26  O   UNL     1      -5.746   1.479  65.449  1.00  0.00    -0.012 OA 
HETATM   27  N   UNL     1      -6.274   3.674  65.030  1.00  0.00    -0.023 N  
BRANCH  27  28
HETATM   28  C   UNL     1      -5.497   4.894  64.786  1.00  0.00    -0.013 C  
HETATM   29 CL   UNL     1      -5.160   7.306  63.575  1.00  0.00    -0.032 Cl 
HETATM   30  C   UNL     1      -6.163   5.853  63.805  1.00  0.00    -0.025 C  
ENDBRANCH  27  28
BRANCH  27  31
HETATM   31  C   UNL     1      -7.322   3.308  64.071  1.00  0.00    -0.062 C  
HETATM   32 CL   UNL     1      -5.433   2.070  62.492  1.00  0.00    -0.006 Cl 
HETATM   33  C   UNL     1      -6.828   3.181  62.619  1.00  0.00    -0.031 C  
ENDBRANCH  27  31
ENDBRANCH  24  25
ENDBRANCH  12  24
TORSDOF 5
ENDMDL
MODEL      179
REMARK 921   NORMALIZED FREE ENERGY PREDICTED BY IDOCK:    4.34 KCAL/MOL
REMARK 922        TOTAL FREE ENERGY PREDICTED BY IDOCK:    4.82 KCAL/MOL
REMARK 923 INTER-LIGAND FREE ENERGY PREDICTED BY IDOCK:   -0.82 KCAL/MOL
REMARK 924 INTRA-LIGAND FREE ENERGY PREDICTED BY IDOCK:    5.64 KCAL/MOL
REMARK 927      BINDING AFFINITY PREDICTED BY RF-SCORE:    0.00 PKD
ROOT
HETATM    1  C   UNL     1      -9.043  11.056  63.889  1.00  0.00    -0.128 C  
HETATM    2  C   UNL     1      -9.511   9.903  63.200  1.00  0.00    -0.118 C  
HETATM    3  C   UNL     1     -10.589  10.469  64.082  1.00  0.00     0.157 C  
HETATM    4  C   UNL     1     -10.203  12.316  64.900  1.00  0.00    -0.281 C  
HETATM    5  C   UNL     1     -10.658  11.999  63.656  1.00  0.00    -0.503 C  
HETATM    6  C   UNL     1     -10.462   9.615  69.058  1.00  0.00    -0.229 A  
HETATM    7  C   UNL     1     -12.113  11.674  64.866  1.00  0.00     0.178 C  
HETATM    8  C   UNL     1      -8.743  10.503  65.598  1.00  0.00    -0.191 C  
HETATM    9  C   UNL     1     -10.909  12.689  62.353  1.00  0.00     3.620 C  
HETATM   10  C   UNL     1     -11.495  11.030  66.433  1.00  0.00     0.279 C  
HETATM   11  C   UNL     1     -10.059   9.076  70.293  1.00  0.00    -0.232 A  
HETATM   12  C   UNL     1      -8.764   8.586  70.448  1.00  0.00    -0.149 A  
HETATM   13  C   UNL     1      -7.808   9.277  65.623  1.00  0.00    -0.099 C  
HETATM   14  C   UNL     1     -10.060  10.108  66.563  1.00  0.00    -0.296 C  
HETATM   15  C   UNL     1      -9.579   9.682  67.965  1.00  0.00    -0.161 A  
HETATM   16  C   UNL     1      -8.283   9.123  68.129  1.00  0.00    -0.116 A  
HETATM   17  C   UNL     1      -7.887   8.595  69.374  1.00  0.00    -0.096 A  
HETATM   18  C   UNL     1      -7.257   9.041  67.025  1.00  0.00    -0.086 C  
ENDROOT
BRANCH   4  19
HETATM   19  O   UNL     1     -10.910  13.702  64.797  1.00  0.00    -0.349 OA 
HETATM   20  O   UNL     1     -11.869  14.535  66.714  1.00  0.00    -0.392 OA 
HETATM   21  O   UNL     1     -13.977  14.385  65.734  1.00  0.00     0.603 OA 
HETATM   22  O   UNL     1     -12.270  15.475  64.512  1.00  0.00    -0.239 OA 
HETATM   23  P   UNL     1     -12.529  14.063  65.292  1.00  0.00    -0.403 P  
ENDBRANCH   4  19
BRANCH  12  24
HETATM   24  O   UNL     1      -8.408   8.009  71.682  1.00  0.00    -0.107 OA 
BRANCH  24  25
HETATM   25  C   UNL     1      -8.129   6.640  71.657  1.00  0.00    -0.107 C  
HETATM   26  O   UNL     1      -7.265   6.106  70.973  1.00  0.00    -0.071 OA 
HETATM   27  N   UNL     1      -8.840   5.957  72.637  1.00  0.00    -0.122 N  
BRANCH  27  28
HETATM   28  C   UNL     1     -10.302   6.074  72.688  1.00  0.00    -0.196 C  
HETATM   29 CL   UNL     1     -12.621   7.320  72.005  1.00  0.00    -0.291 Cl 
HETATM   30  C   UNL     1     -10.844   7.259  71.897  1.00  0.00    -0.226 C  
ENDBRANCH  27  28
BRANCH  27  31
HETATM   31  C   UNL     1      -8.213   4.764  73.216  1.00  0.00    -0.100 C  
HETATM   32 CL   UNL     1     -10.680   3.904  74.094  1.00  0.00    -0.275 Cl 
HETATM   33  C   UNL     1      -8.951   4.198  74.443  1.00  0.00    -0.100 C  
ENDBRANCH  27  31
ENDBRANCH  24  25
ENDBRANCH  12  24
TORSDOF 5
ENDMDL
MODEL      180
REMARK 921   NORMALIZED FREE ENERGY PREDICTED BY IDOCK:    5.37 KCAL/MOL
REMARK 922        TOTAL FREE ENERGY PREDICTED BY IDOCK:    6.15 KCAL/MOL
REMARK 923 INTER-LIGAND FREE ENERGY PREDICTED BY IDOCK:    0.56 KCAL/MOL
REMARK 924 INTRA-LIGAND FREE ENERGY PREDICTED BY IDOCK:    5.59 KCAL/MOL
REMARK 927      BINDING AFFINITY PREDICTED BY RF-SCORE:    0.00 PKD
ROOT
HETATM    1  C   UNL     1     -11.796  15.119  69.171  1.00  0.00    -0.340 C  
HETATM    2  C   UNL     1     -12.943  15.231  68.338  1.00  0.00     1.890 C  
HETATM    3  C   UNL     1     -13.006  13.976  69.162  1.00  0.00     1.224 C  
HETATM    4  C   UNL     1     -11.601  13.810  70.656  1.00  0.00     0.062 C  
HETATM    5  C   UNL     1     -12.781  14.490  70.650  1.00  0.00    -0.421 C  
HETATM    6  C   UNL     1     -10.249   9.961  67.825  1.00  0.00    -0.241 A  
HETATM    7  C   UNL     1     -13.230  12.627  70.749  1.00  0.00     0.339 C  
HETATM    8  C   UNL     1     -10.752  13.854  68.379  1.00  0.00    -0.267 C  
HETATM    9  C   UNL     1     -13.500  15.480  71.510  1.00  0.00    -0.582 C  
HETATM   10  C   UNL     1     -12.072  11.648  69.772  1.00  0.00    -0.357 C  
HETATM   11  C   UNL     1      -9.407   9.137  67.057  1.00  0.00    -0.188 A  
HETATM   12  C   UNL     1      -8.544   9.703  66.122  1.00  0.00    -0.127 A  
HETATM   13  C   UNL     1     -10.481  14.209  66.903  1.00  0.00    -0.272 C  
HETATM   14  C   UNL     1     -11.271  12.256  68.389  1.00  0.00    -0.311 C  
HETATM   15  C   UNL     1     -10.234  11.360  67.681  1.00  0.00    -0.204 A  
HETATM   16  C   UNL     1      -9.389  11.910  66.680  1.00  0.00    -0.210 A  
HETATM   17  C   UNL     1      -8.543  11.076  65.923  1.00  0.00    -0.165 A  
HETATM   18  C   UNL     1      -9.329  13.381  66.346  1.00  0.00    -0.185 C  
ENDROOT
BRANCH   4  19
HETATM   19  O   UNL     1     -11.698  13.672  72.206  1.00  0.00     1.132 OA 
HETATM   20  O   UNL     1     -13.697  14.244  73.187  1.00  0.00    -0.534 OA 
HETATM   21  O   UNL     1     -12.656  16.005  74.301  1.00  0.00    -0.618 OA 
HETATM   22  O   UNL     1     -11.659  13.865  74.450  1.00  0.00     1.886 OA 
HETATM   23  P   UNL     1     -12.204  14.903  73.312  1.00  0.00    -0.263 P  
ENDBRANCH   4  19
BRANCH  12  24
HETATM   24  O   UNL     1      -7.751   8.847  65.335  1.00  0.00    -0.088 OA 
BRANCH  24  25
HETATM   25  C   UNL     1      -6.587   8.366  65.939  1.00  0.00    -0.053 C  
HETATM   26  O   UNL     1      -5.447   8.711  65.654  1.00  0.00    -0.034 OA 
HETATM   27  N   UNL     1      -6.875   7.560  67.034  1.00  0.00    -0.069 N  
BRANCH  27  28
HETATM   28  C   UNL     1      -7.758   6.399  66.869  1.00  0.00    -0.100 C  
HETATM   29 CL   UNL     1      -8.356   3.778  67.284  1.00  0.00    -0.097 Cl 
HETATM   30  C   UNL     1      -7.221   5.131  67.524  1.00  0.00    -0.071 C  
ENDBRANCH  27  28
BRANCH  27  31
HETATM   31  C   UNL     1      -5.910   7.553  68.139  1.00  0.00    -0.031 C  
HETATM   32 CL   UNL     1      -7.968   7.959  69.927  1.00  0.00    -0.107 Cl 
HETATM   33  C   UNL     1      -6.335   8.404  69.349  1.00  0.00    -0.038 C  
ENDBRANCH  27  31
ENDBRANCH  24  25
ENDBRANCH  12  24
TORSDOF 5
ENDMDL
MODEL      181
REMARK 921   NORMALIZED FREE ENERGY PREDICTED BY IDOCK:    5.66 KCAL/MOL
REMARK 922        TOTAL FREE ENERGY PREDICTED BY IDOCK:    6.53 KCAL/MOL
REMARK 923 INTER-LIGAND FREE ENERGY PREDICTED BY IDOCK:    6.36 KCAL/MOL
REMARK 924 INTRA-LIGAND FREE ENERGY PREDICTED BY IDOCK:    0.17 KCAL/MOL
REMARK 927      BINDING AFFINITY PREDICTED BY RF-SCORE:    0.00 PKD
ROOT
HETATM    1  C   UNL     1     -12.350  11.194  67.249  1.00  0.00     1.941 C  
HETATM    2  C   UNL     1     -13.074  11.879  68.264  1.00  0.00     3.885 C  
HETATM    3  C   UNL     1     -11.674  12.416  68.156  1.00  0.00    -0.408 C  
HETATM    4  C   UNL     1     -10.588  11.774  66.531  1.00  0.00    -0.253 C  
HETATM    5  C   UNL     1     -11.522  12.763  66.612  1.00  0.00    -0.404 C  
HETATM    6  C   UNL     1      -7.835   9.829  70.176  1.00  0.00    -0.196 A  
HETATM    7  C   UNL     1      -9.956  13.422  67.504  1.00  0.00    -0.230 C  
HETATM    8  C   UNL     1     -11.228  10.069  68.139  1.00  0.00    -0.192 C  
HETATM    9  C   UNL     1     -12.284  13.654  65.683  1.00  0.00    -0.490 C  
HETATM   10  C   UNL     1      -9.124  12.085  68.384  1.00  0.00    -0.158 C  
HETATM   11  C   UNL     1      -7.152   8.846  70.914  1.00  0.00    -0.085 A  
HETATM   12  C   UNL     1      -7.759   7.618  71.165  1.00  0.00    -0.085 A  
HETATM   13  C   UNL     1     -12.010   9.180  69.127  1.00  0.00     1.323 C  
HETATM   14  C   UNL     1      -9.950  10.725  69.010  1.00  0.00    -0.214 C  
HETATM   15  C   UNL     1      -9.127   9.598  69.668  1.00  0.00    -0.224 A  
HETATM   16  C   UNL     1      -9.748   8.360  69.987  1.00  0.00    -0.176 A  
HETATM   17  C   UNL     1      -9.051   7.380  70.719  1.00  0.00    -0.151 A  
HETATM   18  C   UNL     1     -11.160   8.002  69.590  1.00  0.00    -0.021 C  
ENDROOT
BRANCH   4  19
HETATM   19  O   UNL     1      -9.924  12.512  65.328  1.00  0.00    -0.267 OA 
HETATM   20  O   UNL     1     -10.820  12.138  63.244  1.00  0.00    -0.415 OA 
HETATM   21  O   UNL     1      -8.836  11.122  62.566  1.00  0.00    -0.302 OA 
HETATM   22  O   UNL     1      -8.689  13.247  63.593  1.00  0.00     3.632 OA 
HETATM   23  P   UNL     1      -9.350  11.778  63.870  1.00  0.00     0.290 P  
ENDBRANCH   4  19
BRANCH  12  24
HETATM   24  O   UNL     1      -7.068   6.675  71.949  1.00  0.00    -0.077 OA 
BRANCH  24  25
HETATM   25  C   UNL     1      -6.190   5.834  71.261  1.00  0.00    -0.039 C  
HETATM   26  O   UNL     1      -5.169   6.191  70.688  1.00  0.00    -0.013 OA 
HETATM   27  N   UNL     1      -6.520   4.495  71.442  1.00  0.00    -0.019 N  
BRANCH  27  28
HETATM   28  C   UNL     1      -7.872   4.030  71.114  1.00  0.00    -0.063 C  
HETATM   29 CL   UNL     1      -9.692   2.037  70.773  1.00  0.00    -0.159 Cl 
HETATM   30  C   UNL     1      -8.023   2.514  71.174  1.00  0.00    -0.046 C  
ENDBRANCH  27  28
BRANCH  27  31
HETATM   31  C   UNL     1      -5.422   3.523  71.425  1.00  0.00    -0.008 C  
HETATM   32 CL   UNL     1      -5.274   3.750  68.682  1.00  0.00    -0.011 Cl 
HETATM   33  C   UNL     1      -5.332   2.699  70.128  1.00  0.00    -0.008 C  
ENDBRANCH  27  31
ENDBRANCH  24  25
ENDBRANCH  12  24
TORSDOF 5
ENDMDL
MODEL      182
REMARK 921   NORMALIZED FREE ENERGY PREDICTED BY IDOCK:    6.09 KCAL/MOL
REMARK 922        TOTAL FREE ENERGY PREDICTED BY IDOCK:    7.08 KCAL/MOL
REMARK 923 INTER-LIGAND FREE ENERGY PREDICTED BY IDOCK:   -0.08 KCAL/MOL
REMARK 924 INTRA-LIGAND FREE ENERGY PREDICTED BY IDOCK:    7.16 KCAL/MOL
REMARK 927      BINDING AFFINITY PREDICTED BY RF-SCORE:    0.00 PKD
ROOT
HETATM    1  C   UNL     1     -11.674   8.144  72.155  1.00  0.00    -0.418 C  
HETATM    2  C   UNL     1     -12.790   8.290  71.285  1.00  0.00    -0.186 C  
HETATM    3  C   UNL     1     -12.002   7.059  70.935  1.00  0.00    -0.409 C  
HETATM    4  C   UNL     1     -10.549   6.508  72.283  1.00  0.00    -0.212 C  
HETATM    5  C   UNL     1     -11.891   6.278  72.316  1.00  0.00    -0.326 C  
HETATM    6  C   UNL     1      -7.687   7.495  68.348  1.00  0.00    -0.120 A  
HETATM    7  C   UNL     1     -11.178   5.133  70.951  1.00  0.00     0.498 C  
HETATM    8  C   UNL     1     -10.228   8.642  71.165  1.00  0.00    -0.294 C  
HETATM    9  C   UNL     1     -12.907   5.752  73.279  1.00  0.00     2.020 C  
HETATM   10  C   UNL     1      -9.831   5.957  70.080  1.00  0.00    -0.226 C  
HETATM   11  C   UNL     1      -6.652   8.085  67.600  1.00  0.00    -0.057 A  
HETATM   12  C   UNL     1      -6.417   9.454  67.699  1.00  0.00    -0.062 A  
HETATM   13  C   UNL     1     -10.433  10.047  70.561  1.00  0.00    -0.265 C  
HETATM   14  C   UNL     1      -9.737   7.655  69.899  1.00  0.00    -0.175 C  
HETATM   15  C   UNL     1      -8.494   8.258  69.211  1.00  0.00    -0.126 A  
HETATM   16  C   UNL     1      -8.274   9.661  69.251  1.00  0.00    -0.123 A  
HETATM   17  C   UNL     1      -7.228  10.240  68.505  1.00  0.00    -0.080 A  
HETATM   18  C   UNL     1      -9.113  10.620  70.059  1.00  0.00     0.624 C  
ENDROOT
BRANCH   4  19
HETATM   19  O   UNL     1     -10.317   5.230  73.145  1.00  0.00    -0.175 OA 
HETATM   20  O   UNL     1      -8.138   4.606  73.530  1.00  0.00    -0.100 OA 
HETATM   21  O   UNL     1      -8.477   2.645  72.319  1.00  0.00    -0.065 OA 
HETATM   22  O   UNL     1     -10.035   3.173  74.018  1.00  0.00    -0.102 OA 
HETATM   23  P   UNL     1      -9.346   3.866  72.709  1.00  0.00    -0.118 P  
ENDBRANCH   4  19
BRANCH  12  24
HETATM   24  O   UNL     1      -5.406  10.021  66.900  1.00  0.00    -0.040 OA 
BRANCH  24  25
HETATM   25  C   UNL     1      -5.386  11.417  66.841  1.00  0.00    -0.104 C  
HETATM   26  O   UNL     1      -5.128  12.080  65.844  1.00  0.00    -0.028 OA 
HETATM   27  N   UNL     1      -5.862  11.985  68.017  1.00  0.00    -0.050 N  
BRANCH  27  28
HETATM   28  C   UNL     1      -5.247  11.622  69.299  1.00  0.00    -0.048 C  
HETATM   29 CL   UNL     1      -5.404  11.167  71.976  1.00  0.00     0.239 Cl 
HETATM   30  C   UNL     1      -6.229  11.625  70.466  1.00  0.00     0.129 C  
ENDBRANCH  27  28
BRANCH  27  31
HETATM   31  C   UNL     1      -6.551  13.275  67.912  1.00  0.00    -0.145 C  
HETATM   32 CL   UNL     1      -8.763  12.001  66.875  1.00  0.00    -0.190 Cl 
HETATM   33  C   UNL     1      -7.588  13.344  66.777  1.00  0.00     0.653 C  
ENDBRANCH  27  31
ENDBRANCH  24  25
ENDBRANCH  12  24
TORSDOF 5
ENDMDL
MODEL      183
REMARK 921   NORMALIZED FREE ENERGY PREDICTED BY IDOCK:    6.20 KCAL/MOL
REMARK 922        TOTAL FREE ENERGY PREDICTED BY IDOCK:    7.23 KCAL/MOL
REMARK 923 INTER-LIGAND FREE ENERGY PREDICTED BY IDOCK:    5.07 KCAL/MOL
REMARK 924 INTRA-LIGAND FREE ENERGY PREDICTED BY IDOCK:    2.16 KCAL/MOL
REMARK 927      BINDING AFFINITY PREDICTED BY RF-SCORE:    0.00 PKD
ROOT
HETATM    1  C   UNL     1      -8.777  17.077  67.597  1.00  0.00    -0.216 C  
HETATM    2  C   UNL     1      -8.134  17.215  66.336  1.00  0.00    -0.337 C  
HETATM    3  C   UNL     1      -9.148  16.105  66.297  1.00  0.00    -0.373 C  
HETATM    4  C   UNL     1     -10.401  15.976  67.924  1.00  0.00    -0.269 C  
HETATM    5  C   UNL     1     -10.477  16.792  66.836  1.00  0.00    -0.269 C  
HETATM    6  C   UNL     1      -8.043  11.627  68.354  1.00  0.00    -0.153 A  
HETATM    7  C   UNL     1     -10.946  15.033  66.228  1.00  0.00    -0.338 C  
HETATM    8  C   UNL     1      -8.039  15.591  68.350  1.00  0.00    -0.136 C  
HETATM    9  C   UNL     1     -11.273  17.975  66.386  1.00  0.00     0.806 C  
HETATM   10  C   UNL     1      -9.964  13.788  67.089  1.00  0.00    -0.243 C  
HETATM   11  C   UNL     1      -7.291  10.604  68.957  1.00  0.00    -0.108 A  
HETATM   12  C   UNL     1      -6.149  10.919  69.690  1.00  0.00    -0.075 A  
HETATM   13  C   UNL     1      -6.501  15.699  68.385  1.00  0.00    -0.113 C  
HETATM   14  C   UNL     1      -8.389  14.090  67.684  1.00  0.00    -0.191 C  
HETATM   15  C   UNL     1      -7.675  12.979  68.482  1.00  0.00    -0.111 A  
HETATM   16  C   UNL     1      -6.475  13.272  69.184  1.00  0.00    -0.106 A  
HETATM   17  C   UNL     1      -5.735  12.239  69.792  1.00  0.00    -0.112 A  
HETATM   18  C   UNL     1      -5.904  14.662  69.330  1.00  0.00    -0.101 C  
ENDROOT
BRANCH   4  19
HETATM   19  O   UNL     1     -11.948  16.071  68.095  1.00  0.00    -0.089 OA 
HETATM   20  O   UNL     1     -12.736  16.759  70.142  1.00  0.00     1.681 OA 
HETATM   21  O   UNL     1     -13.724  14.674  70.470  1.00  0.00    -0.001 OA 
HETATM   22  O   UNL     1     -14.157  15.789  68.430  1.00  0.00     5.796 OA 
HETATM   23  P   UNL     1     -12.885  15.334  69.349  1.00  0.00     0.876 P  
ENDBRANCH   4  19
BRANCH  12  24
HETATM   24  O   UNL     1      -5.391   9.868  70.239  1.00  0.00    -0.038 OA 
BRANCH  24  25
HETATM   25  C   UNL     1      -6.077   9.003  71.095  1.00  0.00    -0.058 C  
HETATM   26  O   UNL     1      -5.764   8.757  72.254  1.00  0.00    -0.054 OA 
HETATM   27  N   UNL     1      -7.272   8.570  70.534  1.00  0.00    -0.042 N  
BRANCH  27  28
HETATM   28  C   UNL     1      -7.263   7.918  69.218  1.00  0.00    -0.080 C  
HETATM   29 CL   UNL     1      -8.480   6.468  67.265  1.00  0.00    -0.112 Cl 
HETATM   30  C   UNL     1      -8.575   7.222  68.877  1.00  0.00    -0.129 C  
ENDBRANCH  27  28
BRANCH  27  31
HETATM   31  C   UNL     1      -8.382   8.282  71.448  1.00  0.00    -0.133 C  
HETATM   32 CL   UNL     1     -10.037   9.878  69.929  1.00  0.00    -0.278 Cl 
HETATM   33  C   UNL     1      -9.427   9.408  71.543  1.00  0.00     0.176 C  
ENDBRANCH  27  31
ENDBRANCH  24  25
ENDBRANCH  12  24
TORSDOF 5
ENDMDL
MODEL      184
REMARK 921   NORMALIZED FREE ENERGY PREDICTED BY IDOCK:    8.32 KCAL/MOL
REMARK 922        TOTAL FREE ENERGY PREDICTED BY IDOCK:    9.97 KCAL/MOL
REMARK 923 INTER-LIGAND FREE ENERGY PREDICTED BY IDOCK:    1.21 KCAL/MOL
REMARK 924 INTRA-LIGAND FREE ENERGY PREDICTED BY IDOCK:    8.75 KCAL/MOL
REMARK 927      BINDING AFFINITY PREDICTED BY RF-SCORE:    0.00 PKD
ROOT
HETATM    1  C   UNL     1      -5.735  11.253  66.095  1.00  0.00    -0.085 C  
HETATM    2  C   UNL     1      -6.499  11.358  64.900  1.00  0.00     1.517 C  
HETATM    3  C   UNL     1      -7.400  11.248  66.098  1.00  0.00     0.058 C  
HETATM    4  C   UNL     1      -6.482  11.417  67.931  1.00  0.00    -0.058 C  
HETATM    5  C   UNL     1      -6.877  12.394  67.068  1.00  0.00    -0.006 C  
HETATM    6  C   UNL     1      -8.143   6.750  68.271  1.00  0.00    -0.115 A  
HETATM    7  C   UNL     1      -8.479  11.674  67.842  1.00  0.00    -0.148 C  
HETATM    8  C   UNL     1      -5.843   9.500  66.580  1.00  0.00    -0.055 C  
HETATM    9  C   UNL     1      -6.720  13.873  66.914  1.00  0.00     1.217 C  
HETATM   10  C   UNL     1      -8.309   9.898  68.101  1.00  0.00    -0.110 C  
HETATM   11  C   UNL     1      -8.097   5.359  68.470  1.00  0.00    -0.095 A  
HETATM   12  C   UNL     1      -7.085   4.605  67.881  1.00  0.00    -0.061 A  
HETATM   13  C   UNL     1      -5.410   8.581  65.420  1.00  0.00    -0.035 C  
HETATM   14  C   UNL     1      -7.315   8.903  67.126  1.00  0.00    -0.084 C  
HETATM   15  C   UNL     1      -7.176   7.411  67.492  1.00  0.00    -0.094 A  
HETATM   16  C   UNL     1      -6.188   6.615  66.854  1.00  0.00    -0.040 A  
HETATM   17  C   UNL     1      -6.146   5.223  67.068  1.00  0.00    -0.030 A  
HETATM   18  C   UNL     1      -5.139   7.166  65.919  1.00  0.00    -0.023 C  
ENDROOT
BRANCH   4  19
HETATM   19  O   UNL     1      -6.639  12.414  69.120  1.00  0.00    -0.093 OA 
HETATM   20  O   UNL     1      -8.366  13.927  68.997  1.00  0.00     0.015 OA 
HETATM   21  O   UNL     1      -6.833  15.679  68.894  1.00  0.00    -0.114 OA 
HETATM   22  O   UNL     1      -6.573  14.088  70.625  1.00  0.00    -0.001 OA 
HETATM   23  P   UNL     1      -6.742  14.137  69.001  1.00  0.00    -0.114 P  
ENDBRANCH   4  19
BRANCH  12  24
HETATM   24  O   UNL     1      -7.097   3.209  68.059  1.00  0.00    -0.049 OA 
BRANCH  24  25
HETATM   25  C   UNL     1      -6.985   2.760  69.377  1.00  0.00    -0.040 C  
HETATM   26  O   UNL     1      -7.839   2.128  69.985  1.00  0.00    -0.042 OA 
HETATM   27  N   UNL     1      -5.706   2.969  69.880  1.00  0.00    -0.017 N  
BRANCH  27  28
HETATM   28  C   UNL     1      -5.128   4.318  69.858  1.00  0.00     0.000 C  
HETATM   29 CL   UNL     1      -5.284   6.989  70.349  1.00  0.00    -0.022 Cl 
HETATM   30  C   UNL     1      -6.066   5.389  70.404  1.00  0.00    -0.022 C  
ENDBRANCH  27  28
BRANCH  27  31
HETATM   31  C   UNL     1      -5.207   2.011  70.872  1.00  0.00    -0.004 C  
HETATM   32 CL   UNL     1      -7.098   2.897  72.669  1.00  0.00    -0.034 Cl 
HETATM   33  C   UNL     1      -5.398   2.459  72.332  1.00  0.00     0.000 C  
ENDBRANCH  27  31
ENDBRANCH  24  25
ENDBRANCH  12  24
TORSDOF 5
ENDMDL
MODEL      185
REMARK 921   NORMALIZED FREE ENERGY PREDICTED BY IDOCK:    8.89 KCAL/MOL
REMARK 922        TOTAL FREE ENERGY PREDICTED BY IDOCK:   10.70 KCAL/MOL
REMARK 923 INTER-LIGAND FREE ENERGY PREDICTED BY IDOCK:    5.41 KCAL/MOL
REMARK 924 INTRA-LIGAND FREE ENERGY PREDICTED BY IDOCK:    5.30 KCAL/MOL
REMARK 927      BINDING AFFINITY PREDICTED BY RF-SCORE:    0.00 PKD
ROOT
HETATM    1  C   UNL     1      -9.278   8.768  71.537  1.00  0.00    -0.332 C  
HETATM    2  C   UNL     1      -9.400   8.188  72.830  1.00  0.00    -0.344 C  
HETATM    3  C   UNL     1      -8.029   7.941  72.264  1.00  0.00    -0.151 C  
HETATM    4  C   UNL     1      -7.564   8.980  70.551  1.00  0.00    -0.110 C  
HETATM    5  C   UNL     1      -7.527   9.391  71.849  1.00  0.00     0.636 C  
HETATM    6  C   UNL     1      -7.370   4.346  68.778  1.00  0.00    -0.056 A  
HETATM    7  C   UNL     1      -6.051   8.185  71.619  1.00  0.00    -0.038 C  
HETATM    8  C   UNL     1      -9.375   7.370  70.374  1.00  0.00    -0.161 C  
HETATM    9  C   UNL     1      -7.339  10.665  72.608  1.00  0.00     6.615 C  
HETATM   10  C   UNL     1      -6.501   6.849  70.494  1.00  0.00    -0.051 C  
HETATM   11  C   UNL     1      -7.658   3.256  67.938  1.00  0.00    -0.064 A  
HETATM   12  C   UNL     1      -8.976   2.986  67.578  1.00  0.00    -0.161 A  
HETATM   13  C   UNL     1     -10.649   6.536  70.622  1.00  0.00    -0.280 C  
HETATM   14  C   UNL     1      -8.103   6.275  70.319  1.00  0.00    -0.116 C  
HETATM   15  C   UNL     1      -8.388   5.188  69.262  1.00  0.00    -0.087 A  
HETATM   16  C   UNL     1      -9.729   4.858  68.930  1.00  0.00    -0.242 A  
HETATM   17  C   UNL     1     -10.006   3.769  68.080  1.00  0.00     0.138 A  
HETATM   18  C   UNL     1     -10.932   5.611  69.444  1.00  0.00    -0.244 C  
ENDROOT
BRANCH   4  19
HETATM   19  O   UNL     1      -6.459  10.022  70.198  1.00  0.00    -0.077 OA 
HETATM   20  O   UNL     1      -6.520  12.033  71.311  1.00  0.00     0.840 OA 
HETATM   21  O   UNL     1      -6.951  13.139  69.307  1.00  0.00    -0.074 OA 
HETATM   22  O   UNL     1      -5.126  11.635  69.365  1.00  0.00    -0.052 OA 
HETATM   23  P   UNL     1      -6.719  11.667  69.728  1.00  0.00     0.200 P  
ENDBRANCH   4  19
BRANCH  12  24
HETATM   24  O   UNL     1      -9.236   1.858  66.777  1.00  0.00    -0.090 OA 
BRANCH  24  25
HETATM   25  C   UNL     1      -8.879   1.970  65.431  1.00  0.00    -0.120 C  
HETATM   26  O   UNL     1      -7.866   1.502  64.926  1.00  0.00    -0.065 OA 
HETATM   27  N   UNL     1      -9.899   2.538  64.677  1.00  0.00    -0.025 N  
BRANCH  27  28
HETATM   28  C   UNL     1     -10.446   3.844  65.064  1.00  0.00    -0.065 C  
HETATM   29 CL   UNL     1     -10.124   6.427  65.851  1.00  0.00     0.296 Cl 
HETATM   30  C   UNL     1      -9.375   4.874  65.404  1.00  0.00    -0.140 C  
ENDBRANCH  27  28
BRANCH  27  31
HETATM   31  C   UNL     1     -10.019   2.116  63.278  1.00  0.00    -0.115 C  
HETATM   32 CL   UNL     1      -9.914   4.752  62.482  1.00  0.00     0.109 Cl 
HETATM   33  C   UNL     1     -10.701   3.150  62.365  1.00  0.00    -0.165 C  
ENDBRANCH  27  31
ENDBRANCH  24  25
ENDBRANCH  12  24
TORSDOF 5
ENDMDL
MODEL      186
REMARK 921   NORMALIZED FREE ENERGY PREDICTED BY IDOCK:    9.52 KCAL/MOL
REMARK 922        TOTAL FREE ENERGY PREDICTED BY IDOCK:   11.52 KCAL/MOL
REMARK 923 INTER-LIGAND FREE ENERGY PREDICTED BY IDOCK:   11.86 KCAL/MOL
REMARK 924 INTRA-LIGAND FREE ENERGY PREDICTED BY IDOCK:   -0.34 KCAL/MOL
REMARK 927      BINDING AFFINITY PREDICTED BY RF-SCORE:    0.00 PKD
ROOT
HETATM    1  C   UNL     1      -8.599  19.102  67.613  1.00  0.00    -0.327 C  
HETATM    2  C   UNL     1      -9.863  19.092  66.963  1.00  0.00    -0.407 C  
HETATM    3  C   UNL     1      -9.987  18.583  68.372  1.00  0.00    -0.414 C  
HETATM    4  C   UNL     1      -8.330  18.831  69.565  1.00  0.00     0.485 C  
HETATM    5  C   UNL     1      -9.307  19.725  69.245  1.00  0.00    -0.056 C  
HETATM    6  C   UNL     1      -8.539  13.871  69.469  1.00  0.00     0.862 A  
HETATM    7  C   UNL     1     -10.098  18.468  70.460  1.00  0.00     1.975 C  
HETATM    8  C   UNL     1      -8.066  17.360  67.648  1.00  0.00    -0.203 C  
HETATM    9  C   UNL     1      -9.572  21.188  69.403  1.00  0.00     2.042 C  
HETATM   10  C   UNL     1      -9.442  16.814  70.169  1.00  0.00     1.446 C  
HETATM   11  C   UNL     1      -8.100  12.549  69.278  1.00  0.00     0.670 A  
HETATM   12  C   UNL     1      -7.390  12.212  68.129  1.00  0.00    -0.103 A  
HETATM   13  C   UNL     1      -8.092  16.748  66.233  1.00  0.00    -0.365 C  
HETATM   14  C   UNL     1      -8.891  16.284  68.640  1.00  0.00    -0.226 C  
HETATM   15  C   UNL     1      -8.267  14.877  68.524  1.00  0.00    -0.153 A  
HETATM   16  C   UNL     1      -7.593  14.497  67.333  1.00  0.00    -0.209 A  
HETATM   17  C   UNL     1      -7.149  13.172  67.156  1.00  0.00     0.106 A  
HETATM   18  C   UNL     1      -7.308  15.441  66.191  1.00  0.00     2.151 C  
ENDROOT
BRANCH   4  19
HETATM   19  O   UNL     1      -8.075  19.599  70.898  1.00  0.00     1.541 OA 
HETATM   20  O   UNL     1      -6.486  21.260  70.864  1.00  0.00     1.240 OA 
HETATM   21  O   UNL     1      -5.171  20.043  72.353  1.00  0.00    -0.274 OA 
HETATM   22  O   UNL     1      -7.444  20.381  72.914  1.00  0.00     1.767 OA 
HETATM   23  P   UNL     1      -6.542  19.833  71.666  1.00  0.00     0.963 P  
ENDBRANCH   4  19
BRANCH  12  24
HETATM   24  O   UNL     1      -7.008  10.869  67.945  1.00  0.00    -0.071 OA 
BRANCH  24  25
HETATM   25  C   UNL     1      -7.010  10.071  69.091  1.00  0.00    -0.059 C  
HETATM   26  O   UNL     1      -6.144  10.073  69.957  1.00  0.00    -0.045 OA 
HETATM   27  N   UNL     1      -8.208   9.380  69.230  1.00  0.00    -0.106 N  
BRANCH  27  28
HETATM   28  C   UNL     1      -8.683   8.524  68.137  1.00  0.00    -0.142 C  
HETATM   29 CL   UNL     1     -10.468   7.936  66.171  1.00  0.00     0.468 Cl 
HETATM   30  C   UNL     1      -9.969   9.025  67.489  1.00  0.00    -0.207 C  
ENDBRANCH  27  28
BRANCH  27  31
HETATM   31  C   UNL     1      -8.666   9.092  70.594  1.00  0.00    -0.229 C  
HETATM   32 CL   UNL     1      -7.792   6.492  70.330  1.00  0.00    -0.108 Cl 
HETATM   33  C   UNL     1      -9.083   7.628  70.822  1.00  0.00    -0.153 C  
ENDBRANCH  27  31
ENDBRANCH  24  25
ENDBRANCH  12  24
TORSDOF 5
ENDMDL
MODEL      187
REMARK 921   NORMALIZED FREE ENERGY PREDICTED BY IDOCK:    9.64 KCAL/MOL
REMARK 922        TOTAL FREE ENERGY PREDICTED BY IDOCK:   11.67 KCAL/MOL
REMARK 923 INTER-LIGAND FREE ENERGY PREDICTED BY IDOCK:    9.14 KCAL/MOL
REMARK 924 INTRA-LIGAND FREE ENERGY PREDICTED BY IDOCK:    2.53 KCAL/MOL
REMARK 927      BINDING AFFINITY PREDICTED BY RF-SCORE:    0.00 PKD
ROOT
HETATM    1  C   UNL     1      -8.980   8.709  72.716  1.00  0.00    -0.069 C  
HETATM    2  C   UNL     1      -8.078   9.808  72.747  1.00  0.00     3.649 C  
HETATM    3  C   UNL     1      -8.837   9.781  71.450  1.00  0.00     1.234 C  
HETATM    4  C   UNL     1     -10.412   8.461  71.359  1.00  0.00    -0.224 C  
HETATM    5  C   UNL     1     -10.358   9.707  71.907  1.00  0.00     0.738 C  
HETATM    6  C   UNL     1      -7.505   6.515  67.835  1.00  0.00    -0.094 A  
HETATM    7  C   UNL     1     -10.342   9.951  70.003  1.00  0.00    -0.320 C  
HETATM    8  C   UNL     1      -8.202   7.483  71.615  1.00  0.00    -0.108 C  
HETATM    9  C   UNL     1     -11.213  10.584  72.765  1.00  0.00     6.129 C  
HETATM   10  C   UNL     1      -9.401   8.632  69.209  1.00  0.00    -0.153 C  
HETATM   11  C   UNL     1      -6.758   5.542  67.149  1.00  0.00    -0.059 A  
HETATM   12  C   UNL     1      -5.910   4.691  67.854  1.00  0.00    -0.022 A  
HETATM   13  C   UNL     1      -6.765   7.164  72.076  1.00  0.00    -0.056 C  
HETATM   14  C   UNL     1      -8.104   7.821  69.973  1.00  0.00    -0.118 C  
HETATM   15  C   UNL     1      -7.426   6.649  69.233  1.00  0.00    -0.095 A  
HETATM   16  C   UNL     1      -6.511   5.810  69.924  1.00  0.00    -0.038 A  
HETATM   17  C   UNL     1      -5.775   4.831  69.228  1.00  0.00    -0.016 A  
HETATM   18  C   UNL     1      -6.250   5.894  71.409  1.00  0.00    -0.043 C  
ENDROOT
BRANCH   4  19
HETATM   19  O   UNL     1     -11.945   8.637  71.129  1.00  0.00    -0.290 OA 
HETATM   20  O   UNL     1     -13.260   8.908  72.996  1.00  0.00    -0.312 OA 
HETATM   21  O   UNL     1     -14.328   6.887  72.545  1.00  0.00     0.112 OA 
HETATM   22  O   UNL     1     -14.164   8.461  70.788  1.00  0.00     0.099 OA 
HETATM   23  P   UNL     1     -13.203   7.714  71.877  1.00  0.00    -0.136 P  
ENDBRANCH   4  19
BRANCH  12  24
HETATM   24  O   UNL     1      -5.139   3.761  67.132  1.00  0.00    -0.007 OA 
BRANCH  24  25
HETATM   25  C   UNL     1      -5.829   2.653  66.632  1.00  0.00    -0.023 C  
HETATM   26  O   UNL     1      -5.425   1.497  66.655  1.00  0.00    -0.012 OA 
HETATM   27  N   UNL     1      -7.122   2.988  66.248  1.00  0.00    -0.057 N  
BRANCH  27  28
HETATM   28  C   UNL     1      -7.335   4.071  65.281  1.00  0.00    -0.072 C  
HETATM   29 CL   UNL     1      -8.235   4.986  62.882  1.00  0.00    -0.096 Cl 
HETATM   30  C   UNL     1      -8.007   3.611  63.992  1.00  0.00    -0.085 C  
ENDBRANCH  27  28
BRANCH  27  31
HETATM   31  C   UNL     1      -8.153   1.953  66.376  1.00  0.00    -0.080 C  
HETATM   32 CL   UNL     1      -8.931   3.038  68.787  1.00  0.00    -0.171 Cl 
HETATM   33  C   UNL     1      -8.502   1.589  67.830  1.00  0.00    -0.069 C  
ENDBRANCH  27  31
ENDBRANCH  24  25
ENDBRANCH  12  24
TORSDOF 5
ENDMDL
MODEL      188
REMARK 921   NORMALIZED FREE ENERGY PREDICTED BY IDOCK:    9.85 KCAL/MOL
REMARK 922        TOTAL FREE ENERGY PREDICTED BY IDOCK:   11.94 KCAL/MOL
REMARK 923 INTER-LIGAND FREE ENERGY PREDICTED BY IDOCK:   10.90 KCAL/MOL
REMARK 924 INTRA-LIGAND FREE ENERGY PREDICTED BY IDOCK:    1.04 KCAL/MOL
REMARK 927      BINDING AFFINITY PREDICTED BY RF-SCORE:    0.00 PKD
ROOT
HETATM    1  C   UNL     1     -11.944  12.198  66.831  1.00  0.00    -0.164 C  
HETATM    2  C   UNL     1     -12.966  12.600  65.927  1.00  0.00     1.108 C  
HETATM    3  C   UNL     1     -11.667  12.388  65.200  1.00  0.00    -0.430 C  
HETATM    4  C   UNL     1     -10.166  11.492  66.286  1.00  0.00    -0.230 C  
HETATM    5  C   UNL     1     -11.225  10.926  65.642  1.00  0.00     0.189 C  
HETATM    6  C   UNL     1      -8.052  15.905  65.447  1.00  0.00     2.911 A  
HETATM    7  C   UNL     1     -10.006  11.506  64.277  1.00  0.00    -0.312 C  
HETATM    8  C   UNL     1     -10.902  13.674  67.062  1.00  0.00    -0.291 C  
HETATM    9  C   UNL     1     -11.877   9.584  65.540  1.00  0.00     6.749 C  
HETATM   10  C   UNL     1      -9.212  13.052  64.759  1.00  0.00     1.029 C  
HETATM   11  C   UNL     1      -7.420  17.127  65.738  1.00  0.00     0.269 A  
HETATM   12  C   UNL     1      -7.887  17.920  66.783  1.00  0.00    -0.232 A  
HETATM   13  C   UNL     1     -11.752  14.884  67.500  1.00  0.00    -0.328 C  
HETATM   14  C   UNL     1      -9.957  14.205  65.779  1.00  0.00    -0.331 C  
HETATM   15  C   UNL     1      -9.152  15.452  66.198  1.00  0.00    -0.339 A  
HETATM   16  C   UNL     1      -9.647  16.305  67.220  1.00  0.00    -0.231 A  
HETATM   17  C   UNL     1      -9.000  17.522  67.510  1.00  0.00    -0.230 A  
HETATM   18  C   UNL     1     -10.870  15.999  68.051  1.00  0.00    -0.335 C  
ENDROOT
BRANCH   4  19
HETATM   19  O   UNL     1      -9.361  10.169  66.110  1.00  0.00    -0.159 OA 
HETATM   20  O   UNL     1      -8.914   8.952  68.009  1.00  0.00    -0.139 OA 
HETATM   21  O   UNL     1      -6.633   9.333  67.726  1.00  0.00    -0.062 OA 
HETATM   22  O   UNL     1      -7.852   8.514  65.871  1.00  0.00    -0.094 OA 
HETATM   23  P   UNL     1      -7.921   9.727  66.963  1.00  0.00    -0.105 P  
ENDBRANCH   4  19
BRANCH  12  24
HETATM   24  O   UNL     1      -7.263  19.160  67.016  1.00  0.00    -0.204 OA 
BRANCH  24  25
HETATM   25  C   UNL     1      -6.430  19.224  68.136  1.00  0.00    -0.224 C  
HETATM   26  O   UNL     1      -5.319  18.716  68.221  1.00  0.00    -0.174 OA 
HETATM   27  N   UNL     1      -6.938  20.083  69.103  1.00  0.00    -0.267 N  
BRANCH  27  28
HETATM   28  C   UNL     1      -8.297  19.875  69.617  1.00  0.00     0.602 C  
HETATM   29 CL   UNL     1     -10.278  18.254  70.536  1.00  0.00     1.570 Cl 
HETATM   30  C   UNL     1      -8.619  18.414  69.909  1.00  0.00     1.513 C  
ENDBRANCH  27  28
BRANCH  27  31
HETATM   31  C   UNL     1      -5.973  20.796  69.946  1.00  0.00    -0.049 C  
HETATM   32 CL   UNL     1      -5.715  18.557  71.530  1.00  0.00     0.140 Cl 
HETATM   33  C   UNL     1      -5.949  20.325  71.411  1.00  0.00    -0.248 C  
ENDBRANCH  27  31
ENDBRANCH  24  25
ENDBRANCH  12  24
TORSDOF 5
ENDMDL
MODEL      189
REMARK 921   NORMALIZED FREE ENERGY PREDICTED BY IDOCK:   11.58 KCAL/MOL
REMARK 922        TOTAL FREE ENERGY PREDICTED BY IDOCK:   14.18 KCAL/MOL
REMARK 923 INTER-LIGAND FREE ENERGY PREDICTED BY IDOCK:   14.50 KCAL/MOL
REMARK 924 INTRA-LIGAND FREE ENERGY PREDICTED BY IDOCK:   -0.32 KCAL/MOL
REMARK 927      BINDING AFFINITY PREDICTED BY RF-SCORE:    0.00 PKD
ROOT
HETATM    1  C   UNL     1     -11.456   4.608  65.716  1.00  0.00     1.225 C  
HETATM    2  C   UNL     1     -12.556   4.926  64.872  1.00  0.00     5.130 C  
HETATM    3  C   UNL     1     -11.270   4.923  64.092  1.00  0.00     1.525 C  
HETATM    4  C   UNL     1      -9.627   4.168  65.071  1.00  0.00    -0.180 C  
HETATM    5  C   UNL     1     -10.630   3.507  64.428  1.00  0.00    -0.101 C  
HETATM    6  C   UNL     1      -8.122   8.857  64.436  1.00  0.00    -0.153 A  
HETATM    7  C   UNL     1      -9.550   4.316  63.062  1.00  0.00    -0.106 C  
HETATM    8  C   UNL     1     -10.600   6.190  66.003  1.00  0.00     0.438 C  
HETATM    9  C   UNL     1     -11.112   2.101  64.266  1.00  0.00     0.905 C  
HETATM   10  C   UNL     1      -8.939   5.921  63.613  1.00  0.00     0.611 C  
HETATM   11  C   UNL     1      -7.638  10.131  64.780  1.00  0.00    -0.139 A  
HETATM   12  C   UNL     1      -8.160  10.797  65.887  1.00  0.00    -0.148 A  
HETATM   13  C   UNL     1     -11.579   7.254  66.542  1.00  0.00     2.451 C  
HETATM   14  C   UNL     1      -9.782   6.909  64.725  1.00  0.00     2.427 C  
HETATM   15  C   UNL     1      -9.124   8.224  65.193  1.00  0.00     0.165 A  
HETATM   16  C   UNL     1      -9.683   8.947  66.281  1.00  0.00    -0.345 A  
HETATM   17  C   UNL     1      -9.183  10.219  66.624  1.00  0.00    -0.179 A  
HETATM   18  C   UNL     1     -10.822   8.440  67.131  1.00  0.00    -0.072 C  
ENDROOT
BRANCH   4  19
HETATM   19  O   UNL     1      -8.668   2.971  64.788  1.00  0.00    -0.099 OA 
HETATM   20  O   UNL     1      -7.054   2.525  66.364  1.00  0.00    -0.051 OA 
HETATM   21  O   UNL     1      -5.391   3.064  64.825  1.00  0.00    -0.008 OA 
HETATM   22  O   UNL     1      -7.059   1.529  64.150  1.00  0.00    -0.040 OA 
HETATM   23  P   UNL     1      -6.939   3.020  64.808  1.00  0.00    -0.051 P  
ENDBRANCH   4  19
BRANCH  12  24
HETATM   24  O   UNL     1      -7.688  12.092  66.175  1.00  0.00     0.289 OA 
BRANCH  24  25
HETATM   25  C   UNL     1      -8.526  12.885  66.963  1.00  0.00    -0.142 C  
HETATM   26  O   UNL     1      -9.469  13.548  66.549  1.00  0.00    -0.268 OA 
HETATM   27  N   UNL     1      -8.272  12.707  68.318  1.00  0.00    -0.164 N  
BRANCH  27  28
HETATM   28  C   UNL     1      -6.914  12.910  68.835  1.00  0.00    -0.084 C  
HETATM   29 CL   UNL     1      -5.200  13.696  70.796  1.00  0.00    -0.111 Cl 
HETATM   30  C   UNL     1      -6.882  13.491  70.244  1.00  0.00     0.559 C  
ENDBRANCH  27  28
BRANCH  27  31
HETATM   31  C   UNL     1      -9.402  12.858  69.241  1.00  0.00     0.918 C  
HETATM   32 CL   UNL     1      -9.086  10.240  70.043  1.00  0.00    -0.028 Cl 
HETATM   33  C   UNL     1     -10.175  11.554  69.508  1.00  0.00     0.331 C  
ENDBRANCH  27  31
ENDBRANCH  24  25
ENDBRANCH  12  24
TORSDOF 5
ENDMDL
MODEL      190
REMARK 921   NORMALIZED FREE ENERGY PREDICTED BY IDOCK:   12.37 KCAL/MOL
REMARK 922        TOTAL FREE ENERGY PREDICTED BY IDOCK:   15.20 KCAL/MOL
REMARK 923 INTER-LIGAND FREE ENERGY PREDICTED BY IDOCK:   13.08 KCAL/MOL
REMARK 924 INTRA-LIGAND FREE ENERGY PREDICTED BY IDOCK:    2.12 KCAL/MOL
REMARK 927      BINDING AFFINITY PREDICTED BY RF-SCORE:    0.00 PKD
ROOT
HETATM    1  C   UNL     1      -7.149   8.197  70.164  1.00  0.00    -0.048 C  
HETATM    2  C   UNL     1      -5.904   7.657  70.591  1.00  0.00    -0.030 C  
HETATM    3  C   UNL     1      -6.627   8.299  71.742  1.00  0.00    -0.064 C  
HETATM    4  C   UNL     1      -8.578   8.843  71.387  1.00  0.00    -0.172 C  
HETATM    5  C   UNL     1      -8.065   7.623  71.708  1.00  0.00    -0.112 C  
HETATM    6  C   UNL     1      -6.615  13.327  72.217  1.00  0.00     3.532 A  
HETATM    7  C   UNL     1      -7.970   8.687  73.302  1.00  0.00     0.057 C  
HETATM    8  C   UNL     1      -6.885   9.998  70.082  1.00  0.00    -0.137 C  
HETATM    9  C   UNL     1      -8.531   6.204  71.783  1.00  0.00    -0.129 C  
HETATM   10  C   UNL     1      -7.587  10.401  72.892  1.00  0.00     6.569 C  
HETATM   11  C   UNL     1      -6.284  14.672  71.977  1.00  0.00     0.609 A  
HETATM   12  C   UNL     1      -5.807  15.059  70.727  1.00  0.00    -0.062 A  
HETATM   13  C   UNL     1      -5.665  10.335  69.200  1.00  0.00    -0.037 C  
HETATM   14  C   UNL     1      -6.677  10.850  71.515  1.00  0.00     2.350 C  
HETATM   15  C   UNL     1      -6.484  12.351  71.212  1.00  0.00     2.279 A  
HETATM   16  C   UNL     1      -5.940  12.757  69.965  1.00  0.00    -0.142 A  
HETATM   17  C   UNL     1      -5.622  14.110  69.732  1.00  0.00    -0.101 A  
HETATM   18  C   UNL     1      -5.659  11.812  68.822  1.00  0.00    -0.049 C  
ENDROOT
BRANCH   4  19
HETATM   19  O   UNL     1      -9.939   8.430  72.029  1.00  0.00    -0.227 OA 
HETATM   20  O   UNL     1     -11.581   7.673  70.609  1.00  0.00    -0.285 OA 
HETATM   21  O   UNL     1     -12.904   9.513  71.145  1.00  0.00    -0.321 OA 
HETATM   22  O   UNL     1     -11.996   8.253  72.929  1.00  0.00    -0.316 OA 
HETATM   23  P   UNL     1     -11.504   9.002  71.562  1.00  0.00    -0.387 P  
ENDBRANCH   4  19
BRANCH  12  24
HETATM   24  O   UNL     1      -5.438  16.404  70.536  1.00  0.00    -0.183 OA 
BRANCH  24  25
HETATM   25  C   UNL     1      -6.453  17.260  70.103  1.00  0.00     0.377 C  
HETATM   26  O   UNL     1      -6.814  18.280  70.677  1.00  0.00     1.148 OA 
HETATM   27  N   UNL     1      -6.908  16.913  68.836  1.00  0.00    -0.196 N  
BRANCH  27  28
HETATM   28  C   UNL     1      -7.390  15.549  68.586  1.00  0.00    -0.125 C  
HETATM   29 CL   UNL     1      -7.702  13.389  66.963  1.00  0.00     0.020 Cl 
HETATM   30  C   UNL     1      -7.094  15.049  67.176  1.00  0.00     0.045 C  
ENDBRANCH  27  28
BRANCH  27  31
HETATM   31  C   UNL     1      -7.394  17.995  67.974  1.00  0.00    -0.232 C  
HETATM   32 CL   UNL     1      -9.929  17.666  69.003  1.00  0.00    -0.301 Cl 
HETATM   33  C   UNL     1      -8.874  17.863  67.573  1.00  0.00    -0.248 C  
ENDBRANCH  27  31
ENDBRANCH  24  25
ENDBRANCH  12  24
TORSDOF 5
ENDMDL
MODEL      191
REMARK 921   NORMALIZED FREE ENERGY PREDICTED BY IDOCK:   12.40 KCAL/MOL
REMARK 922        TOTAL FREE ENERGY PREDICTED BY IDOCK:   15.24 KCAL/MOL
REMARK 923 INTER-LIGAND FREE ENERGY PREDICTED BY IDOCK:    8.33 KCAL/MOL
REMARK 924 INTRA-LIGAND FREE ENERGY PREDICTED BY IDOCK:    6.91 KCAL/MOL
REMARK 927      BINDING AFFINITY PREDICTED BY RF-SCORE:    0.00 PKD
ROOT
HETATM    1  C   UNL     1     -10.632  12.284  65.013  1.00  0.00    -0.322 C  
HETATM    2  C   UNL     1     -11.483  11.255  64.524  1.00  0.00     0.005 C  
HETATM    3  C   UNL     1     -12.076  11.899  65.747  1.00  0.00     0.183 C  
HETATM    4  C   UNL     1     -11.149  13.616  66.397  1.00  0.00    -0.303 C  
HETATM    5  C   UNL     1     -12.062  13.450  65.398  1.00  0.00    -0.457 C  
HETATM    6  C   UNL     1     -10.308  10.694  70.321  1.00  0.00     0.263 A  
HETATM    7  C   UNL     1     -13.019  13.241  67.049  1.00  0.00     1.675 C  
HETATM    8  C   UNL     1      -9.827  11.580  66.488  1.00  0.00    -0.228 C  
HETATM    9  C   UNL     1     -12.654  14.255  64.287  1.00  0.00    -0.154 C  
HETATM   10  C   UNL     1     -11.986  12.413  68.274  1.00  0.00    -0.270 C  
HETATM   11  C   UNL     1      -9.576  10.023  71.317  1.00  0.00     1.406 A  
HETATM   12  C   UNL     1      -8.401   9.353  70.983  1.00  0.00     0.034 A  
HETATM   13  C   UNL     1      -9.141  10.240  66.152  1.00  0.00    -0.181 C  
HETATM   14  C   UNL     1     -10.756  11.300  67.859  1.00  0.00    -0.250 C  
HETATM   15  C   UNL     1      -9.875  10.717  68.983  1.00  0.00    -0.208 A  
HETATM   16  C   UNL     1      -8.706   9.979  68.656  1.00  0.00    -0.127 A  
HETATM   17  C   UNL     1      -7.975   9.318  69.663  1.00  0.00    -0.096 A  
HETATM   18  C   UNL     1      -8.167   9.836  67.254  1.00  0.00    -0.117 C  
ENDROOT
BRANCH   4  19
HETATM   19  O   UNL     1     -11.630  15.089  66.579  1.00  0.00    -0.302 OA 
HETATM   20  O   UNL     1     -11.282  16.058  68.635  1.00  0.00    -0.327 OA 
HETATM   21  O   UNL     1     -13.584  16.206  68.962  1.00  0.00     2.257 OA 
HETATM   22  O   UNL     1     -12.705  17.036  66.930  1.00  0.00     4.168 OA 
HETATM   23  P   UNL     1     -12.661  15.679  67.837  1.00  0.00     2.854 P  
ENDBRANCH   4  19
BRANCH  12  24
HETATM   24  O   UNL     1      -7.719   8.649  71.993  1.00  0.00    -0.230 OA 
BRANCH  24  25
HETATM   25  C   UNL     1      -8.291   7.437  72.386  1.00  0.00    -0.105 C  
HETATM   26  O   UNL     1      -8.540   7.112  73.540  1.00  0.00    -0.126 OA 
HETATM   27  N   UNL     1      -8.710   6.692  71.289  1.00  0.00    -0.130 N  
BRANCH  27  28
HETATM   28  C   UNL     1      -7.754   6.366  70.225  1.00  0.00    -0.098 C  
HETATM   29 CL   UNL     1      -5.213   6.205  69.267  1.00  0.00    -0.004 Cl 
HETATM   30  C   UNL     1      -6.303   6.636  70.608  1.00  0.00    -0.040 C  
ENDBRANCH  27  28
BRANCH  27  31
HETATM   31  C   UNL     1      -9.878   5.823  71.471  1.00  0.00    -0.169 C  
HETATM   32 CL   UNL     1      -9.343   5.684  74.171  1.00  0.00    -0.133 Cl 
HETATM   33  C   UNL     1      -9.752   4.840  72.649  1.00  0.00    -0.141 C  
ENDBRANCH  27  31
ENDBRANCH  24  25
ENDBRANCH  12  24
TORSDOF 5
ENDMDL
MODEL      192
REMARK 921   NORMALIZED FREE ENERGY PREDICTED BY IDOCK:   14.76 KCAL/MOL
REMARK 922        TOTAL FREE ENERGY PREDICTED BY IDOCK:   18.29 KCAL/MOL
REMARK 923 INTER-LIGAND FREE ENERGY PREDICTED BY IDOCK:   13.84 KCAL/MOL
REMARK 924 INTRA-LIGAND FREE ENERGY PREDICTED BY IDOCK:    4.45 KCAL/MOL
REMARK 927      BINDING AFFINITY PREDICTED BY RF-SCORE:    0.00 PKD
ROOT
HETATM    1  C   UNL     1     -11.515  11.385  65.934  1.00  0.00     0.027 C  
HETATM    2  C   UNL     1     -12.734  10.959  65.340  1.00  0.00     5.182 C  
HETATM    3  C   UNL     1     -12.897  11.125  66.825  1.00  0.00     5.748 C  
HETATM    4  C   UNL     1     -11.339  12.046  67.803  1.00  0.00    -0.303 C  
HETATM    5  C   UNL     1     -12.367  12.598  67.099  1.00  0.00     0.294 C  
HETATM    6  C   UNL     1     -11.129   7.575  69.952  1.00  0.00    -0.185 A  
HETATM    7  C   UNL     1     -13.122  11.946  68.739  1.00  0.00     2.923 C  
HETATM    8  C   UNL     1     -10.843   9.907  66.760  1.00  0.00    -0.085 C  
HETATM    9  C   UNL     1     -12.762  13.942  66.576  1.00  0.00    -0.074 C  
HETATM   10  C   UNL     1     -12.314  10.412  69.236  1.00  0.00     0.217 C  
HETATM   11  C   UNL     1     -10.572   6.359  70.385  1.00  0.00    -0.294 A  
HETATM   12  C   UNL     1      -9.770   5.616  69.522  1.00  0.00    -0.154 A  
HETATM   13  C   UNL     1     -10.735   8.727  65.773  1.00  0.00     1.961 C  
HETATM   14  C   UNL     1     -11.631   9.312  68.118  1.00  0.00     1.079 C  
HETATM   15  C   UNL     1     -10.888   8.073  68.659  1.00  0.00     0.035 A  
HETATM   16  C   UNL     1     -10.115   7.270  67.778  1.00  0.00    -0.225 A  
HETATM   17  C   UNL     1      -9.553   6.058  68.225  1.00  0.00    -0.126 A  
HETATM   18  C   UNL     1      -9.844   7.626  66.336  1.00  0.00    -0.174 C  
ENDROOT
BRANCH   4  19
HETATM   19  O   UNL     1     -11.228  13.350  68.649  1.00  0.00    -0.240 OA 
HETATM   20  O   UNL     1     -11.761  15.328  67.603  1.00  0.00    -0.308 OA 
HETATM   21  O   UNL     1      -9.559  16.051  67.834  1.00  0.00    -0.217 OA 
HETATM   22  O   UNL     1     -10.653  15.223  69.760  1.00  0.00    -0.256 OA 
HETATM   23  P   UNL     1     -10.347  14.776  68.219  1.00  0.00    -0.248 P  
ENDBRANCH   4  19
BRANCH  12  24
HETATM   24  O   UNL     1      -9.268   4.379  69.969  1.00  0.00    -0.106 OA 
BRANCH  24  25
HETATM   25  C   UNL     1      -8.754   4.362  71.268  1.00  0.00    -0.107 C  
HETATM   26  O   UNL     1      -9.336   3.928  72.255  1.00  0.00    -0.114 OA 
HETATM   27  N   UNL     1      -7.419   4.746  71.294  1.00  0.00    -0.074 N  
BRANCH  27  28
HETATM   28  C   UNL     1      -7.022   6.036  70.716  1.00  0.00    -0.067 C  
HETATM   29 CL   UNL     1      -6.533   8.702  70.941  1.00  0.00    -0.042 Cl 
HETATM   30  C   UNL     1      -7.034   7.181  71.722  1.00  0.00    -0.064 C  
ENDBRANCH  27  28
BRANCH  27  31
HETATM   31  C   UNL     1      -6.566   4.153  72.330  1.00  0.00    -0.022 C  
HETATM   32 CL   UNL     1      -7.637   5.882  74.189  1.00  0.00    -0.091 Cl 
HETATM   33  C   UNL     1      -6.190   5.121  73.465  1.00  0.00    -0.051 C  
ENDBRANCH  27  31
ENDBRANCH  24  25
ENDBRANCH  12  24
TORSDOF 5
ENDMDL
MODEL      193
REMARK 921   NORMALIZED FREE ENERGY PREDICTED BY IDOCK:   15.73 KCAL/MOL
REMARK 922        TOTAL FREE ENERGY PREDICTED BY IDOCK:   19.54 KCAL/MOL
REMARK 923 INTER-LIGAND FREE ENERGY PREDICTED BY IDOCK:    9.27 KCAL/MOL
REMARK 924 INTRA-LIGAND FREE ENERGY PREDICTED BY IDOCK:   10.28 KCAL/MOL
REMARK 927      BINDING AFFINITY PREDICTED BY RF-SCORE:    0.00 PKD
ROOT
HETATM    1  C   UNL     1      -8.681  16.603  68.780  1.00  0.00    -0.260 C  
HETATM    2  C   UNL     1      -9.380  16.811  67.560  1.00  0.00    -0.231 C  
HETATM    3  C   UNL     1     -10.298  16.245  68.607  1.00  0.00    -0.263 C  
HETATM    4  C   UNL     1      -9.547  16.186  70.522  1.00  0.00     1.447 C  
HETATM    5  C   UNL     1     -10.107  17.227  69.844  1.00  0.00     0.441 C  
HETATM    6  C   UNL     1     -10.109  11.320  69.708  1.00  0.00     0.544 A  
HETATM    7  C   UNL     1     -11.542  16.028  70.279  1.00  0.00    -0.335 C  
HETATM    8  C   UNL     1      -8.411  14.804  68.876  1.00  0.00    -0.159 C  
HETATM    9  C   UNL     1     -10.285  18.701  70.018  1.00  0.00     1.060 C  
HETATM   10  C   UNL     1     -10.983  14.316  70.179  1.00  0.00     0.081 C  
HETATM   11  C   UNL     1      -9.757   9.962  69.617  1.00  0.00    -0.252 A  
HETATM   12  C   UNL     1      -8.567   9.593  68.994  1.00  0.00    -0.133 A  
HETATM   13  C   UNL     1      -7.715  14.284  67.602  1.00  0.00    -0.190 C  
HETATM   14  C   UNL     1      -9.735  13.801  69.129  1.00  0.00     0.263 C  
HETATM   15  C   UNL     1      -9.278  12.329  69.189  1.00  0.00     0.593 A  
HETATM   16  C   UNL     1      -8.099  11.926  68.507  1.00  0.00    -0.130 A  
HETATM   17  C   UNL     1      -7.750  10.563  68.430  1.00  0.00    -0.104 A  
HETATM   18  C   UNL     1      -7.154  12.883  67.822  1.00  0.00    -0.137 C  
ENDROOT
BRANCH   4  19
HETATM   19  O   UNL     1      -9.995  16.832  71.868  1.00  0.00     4.497 OA 
HETATM   20  O   UNL     1     -11.300  15.552  73.263  1.00  0.00    -0.109 OA 
HETATM   21  O   UNL     1     -13.070  17.042  72.987  1.00  0.00     1.056 OA 
HETATM   22  O   UNL     1     -10.961  17.935  73.578  1.00  0.00     1.381 OA 
HETATM   23  P   UNL     1     -11.618  16.943  72.459  1.00  0.00     1.423 P  
ENDBRANCH   4  19
BRANCH  12  24
HETATM   24  O   UNL     1      -8.268   8.222  68.875  1.00  0.00    -0.114 OA 
BRANCH  24  25
HETATM   25  C   UNL     1      -7.591   7.843  67.714  1.00  0.00    -0.109 C  
HETATM   26  O   UNL     1      -6.421   7.484  67.660  1.00  0.00    -0.053 OA 
HETATM   27  N   UNL     1      -8.453   7.756  66.626  1.00  0.00    -0.124 N  
BRANCH  27  28
HETATM   28  C   UNL     1      -9.277   8.914  66.259  1.00  0.00    -0.207 C  
HETATM   29 CL   UNL     1     -11.224  10.729  66.815  1.00  0.00    -0.161 Cl 
HETATM   30  C   UNL     1     -10.275   9.316  67.339  1.00  0.00    -0.243 C  
ENDBRANCH  27  28
BRANCH  27  31
HETATM   31  C   UNL     1      -8.134   6.768  65.591  1.00  0.00    -0.122 C  
HETATM   32 CL   UNL     1      -5.509   7.605  65.610  1.00  0.00    -0.029 Cl 
HETATM   33  C   UNL     1      -6.968   7.173  64.672  1.00  0.00    -0.051 C  
ENDBRANCH  27  31
ENDBRANCH  24  25
ENDBRANCH  12  24
TORSDOF 5
ENDMDL
MODEL      194
REMARK 921   NORMALIZED FREE ENERGY PREDICTED BY IDOCK:   16.33 KCAL/MOL
REMARK 922        TOTAL FREE ENERGY PREDICTED BY IDOCK:   20.31 KCAL/MOL
REMARK 923 INTER-LIGAND FREE ENERGY PREDICTED BY IDOCK:   12.32 KCAL/MOL
REMARK 924 INTRA-LIGAND FREE ENERGY PREDICTED BY IDOCK:    7.99 KCAL/MOL
REMARK 927      BINDING AFFINITY PREDICTED BY RF-SCORE:    0.00 PKD
ROOT
HETATM    1  C   UNL     1      -6.951  14.316  66.979  1.00  0.00     0.634 C  
HETATM    2  C   UNL     1      -6.550  14.243  65.617  1.00  0.00     9.321 C  
HETATM    3  C   UNL     1      -7.990  13.841  65.768  1.00  0.00     3.377 C  
HETATM    4  C   UNL     1      -8.834  14.196  67.610  1.00  0.00    -0.194 C  
HETATM    5  C   UNL     1      -8.637  15.053  66.569  1.00  0.00    -0.179 C  
HETATM    6  C   UNL     1      -9.139   9.242  67.509  1.00  0.00    -0.133 A  
HETATM    7  C   UNL     1     -10.066  13.883  66.046  1.00  0.00    -0.324 C  
HETATM    8  C   UNL     1      -7.013  12.587  67.551  1.00  0.00    -0.149 C  
HETATM    9  C   UNL     1      -8.735  16.521  66.301  1.00  0.00    -0.369 C  
HETATM   10  C   UNL     1      -9.779  12.219  66.678  1.00  0.00    -0.229 C  
HETATM   11  C   UNL     1      -8.966   7.914  67.937  1.00  0.00    -0.129 A  
HETATM   12  C   UNL     1      -7.732   7.498  68.431  1.00  0.00    -0.120 A  
HETATM   13  C   UNL     1      -5.676  11.870  67.279  1.00  0.00    -0.128 C  
HETATM   14  C   UNL     1      -8.216  11.580  66.951  1.00  0.00    -0.167 C  
HETATM   15  C   UNL     1      -8.089  10.176  67.576  1.00  0.00    -0.113 A  
HETATM   16  C   UNL     1      -6.824   9.714  68.029  1.00  0.00    -0.073 A  
HETATM   17  C   UNL     1      -6.664   8.384  68.464  1.00  0.00    -0.063 A  
HETATM   18  C   UNL     1      -5.583  10.572  68.074  1.00  0.00    -0.040 C  
ENDROOT
BRANCH   4  19
HETATM   19  O   UNL     1     -10.037  15.066  68.087  1.00  0.00    -0.217 OA 
HETATM   20  O   UNL     1      -9.903  15.976  70.194  1.00  0.00    -0.020 OA 
HETATM   21  O   UNL     1     -11.717  14.683  70.876  1.00  0.00    -0.298 OA 
HETATM   22  O   UNL     1     -11.949  15.945  68.889  1.00  0.00    -0.370 OA 
HETATM   23  P   UNL     1     -10.924  14.864  69.559  1.00  0.00    -0.261 P  
ENDBRANCH   4  19
BRANCH  12  24
HETATM   24  O   UNL     1      -7.578   6.149  68.805  1.00  0.00    -0.088 OA 
BRANCH  24  25
HETATM   25  C   UNL     1      -7.135   5.924  70.111  1.00  0.00    -0.071 C  
HETATM   26  O   UNL     1      -7.407   4.944  70.792  1.00  0.00    -0.060 OA 
HETATM   27  N   UNL     1      -6.196   6.872  70.501  1.00  0.00    -0.027 N  
BRANCH  27  28
HETATM   28  C   UNL     1      -6.530   8.299  70.425  1.00  0.00    -0.036 C  
HETATM   29 CL   UNL     1      -7.397  10.611  71.565  1.00  0.00     2.893 Cl 
HETATM   30  C   UNL     1      -7.025   8.879  71.745  1.00  0.00    -0.013 C  
ENDBRANCH  27  28
BRANCH  27  31
HETATM   31  C   UNL     1      -5.162   6.446  71.451  1.00  0.00    -0.022 C  
HETATM   32 CL   UNL     1      -5.250   3.903  70.392  1.00  0.00    -0.004 Cl 
HETATM   33  C   UNL     1      -5.237   4.958  71.836  1.00  0.00    -0.004 C  
ENDBRANCH  27  31
ENDBRANCH  24  25
ENDBRANCH  12  24
TORSDOF 5
ENDMDL
MODEL      195
REMARK 921   NORMALIZED FREE ENERGY PREDICTED BY IDOCK:   18.07 KCAL/MOL
REMARK 922        TOTAL FREE ENERGY PREDICTED BY IDOCK:   22.57 KCAL/MOL
REMARK 923 INTER-LIGAND FREE ENERGY PREDICTED BY IDOCK:   13.98 KCAL/MOL
REMARK 924 INTRA-LIGAND FREE ENERGY PREDICTED BY IDOCK:    8.59 KCAL/MOL
REMARK 927      BINDING AFFINITY PREDICTED BY RF-SCORE:    0.00 PKD
ROOT
HETATM    1  C   UNL     1      -5.723  11.569  65.828  1.00  0.00     0.527 C  
HETATM    2  C   UNL     1      -6.099  11.893  64.495  1.00  0.00     4.130 C  
HETATM    3  C   UNL     1      -7.315  11.660  65.348  1.00  0.00     1.326 C  
HETATM    4  C   UNL     1      -6.976  11.503  67.371  1.00  0.00    -0.111 C  
HETATM    5  C   UNL     1      -7.087  12.618  66.596  1.00  0.00     0.698 C  
HETATM    6  C   UNL     1      -8.720   6.942  66.474  1.00  0.00    -0.137 A  
HETATM    7  C   UNL     1      -8.855  11.887  66.750  1.00  0.00    -0.193 C  
HETATM    8  C   UNL     1      -5.991   9.773  65.977  1.00  0.00    -0.064 C  
HETATM    9  C   UNL     1      -6.874  14.092  66.730  1.00  0.00     1.568 C  
HETATM   10  C   UNL     1      -8.790  10.084  66.763  1.00  0.00    -0.144 C  
HETATM   11  C   UNL     1      -8.752   5.536  66.455  1.00  0.00    -0.119 A  
HETATM   12  C   UNL     1      -7.620   4.820  66.073  1.00  0.00    -0.090 A  
HETATM   13  C   UNL     1      -5.246   9.012  64.862  1.00  0.00    -0.038 C  
HETATM   14  C   UNL     1      -7.565   9.189  65.973  1.00  0.00    -0.095 C  
HETATM   15  C   UNL     1      -7.558   7.653  66.123  1.00  0.00    -0.088 A  
HETATM   16  C   UNL     1      -6.435   6.904  65.680  1.00  0.00    -0.050 A  
HETATM   17  C   UNL     1      -6.475   5.496  65.674  1.00  0.00    -0.040 A  
HETATM   18  C   UNL     1      -5.151   7.526  65.188  1.00  0.00    -0.028 C  
ENDROOT
BRANCH   4  19
HETATM   19  O   UNL     1      -7.465  12.322  68.605  1.00  0.00    -0.111 OA 
HETATM   20  O   UNL     1      -6.142  14.073  69.292  1.00  0.00    -0.089 OA 
HETATM   21  O   UNL     1      -5.725  12.977  71.306  1.00  0.00    -0.336 OA 
HETATM   22  O   UNL     1      -7.977  13.196  70.617  1.00  0.00     3.496 OA 
HETATM   23  P   UNL     1      -6.546  12.668  70.030  1.00  0.00     0.599 P  
ENDBRANCH   4  19
BRANCH  12  24
HETATM   24  O   UNL     1      -7.700   3.416  66.017  1.00  0.00    -0.080 OA 
BRANCH  24  25
HETATM   25  C   UNL     1      -8.598   2.893  65.083  1.00  0.00    -0.104 C  
HETATM   26  O   UNL     1      -8.295   2.206  64.116  1.00  0.00    -0.080 OA 
HETATM   27  N   UNL     1      -9.917   3.100  65.472  1.00  0.00     0.172 N  
BRANCH  27  28
HETATM   28  C   UNL     1     -10.382   4.461  65.767  1.00  0.00    -0.217 C  
HETATM   29 CL   UNL     1     -11.464   6.299  67.454  1.00  0.00    -0.018 Cl 
HETATM   30  C   UNL     1     -10.933   4.621  67.179  1.00  0.00     1.285 C  
ENDBRANCH  27  28
BRANCH  27  31
HETATM   31  C   UNL     1     -10.906   2.096  65.065  1.00  0.00     2.087 C  
HETATM   32 CL   UNL     1      -9.994   2.262  62.470  1.00  0.00    -0.088 Cl 
HETATM   33  C   UNL     1     -11.374   2.231  63.606  1.00  0.00     0.414 C  
ENDBRANCH  27  31
ENDBRANCH  24  25
ENDBRANCH  12  24
TORSDOF 5
ENDMDL
MODEL      196
REMARK 921   NORMALIZED FREE ENERGY PREDICTED BY IDOCK:   25.33 KCAL/MOL
REMARK 922        TOTAL FREE ENERGY PREDICTED BY IDOCK:   31.95 KCAL/MOL
REMARK 923 INTER-LIGAND FREE ENERGY PREDICTED BY IDOCK:   31.94 KCAL/MOL
REMARK 924 INTRA-LIGAND FREE ENERGY PREDICTED BY IDOCK:    0.02 KCAL/MOL
REMARK 927      BINDING AFFINITY PREDICTED BY RF-SCORE:    0.00 PKD
ROOT
HETATM    1  C   UNL     1     -12.109   5.124  65.458  1.00  0.00     2.989 C  
HETATM    2  C   UNL     1     -12.212   5.240  64.045  1.00  0.00     5.334 C  
HETATM    3  C   UNL     1     -10.795   4.948  64.451  1.00  0.00     0.931 C  
HETATM    4  C   UNL     1     -10.514   4.427  66.421  1.00  0.00     0.076 C  
HETATM    5  C   UNL     1     -10.925   3.660  65.373  1.00  0.00     1.151 C  
HETATM    6  C   UNL     1      -7.909   8.652  66.310  1.00  0.00    -0.102 A  
HETATM    7  C   UNL     1      -9.053   3.985  65.104  1.00  0.00    -0.139 C  
HETATM    8  C   UNL     1     -11.333   6.677  66.009  1.00  0.00     2.317 C  
HETATM    9  C   UNL     1     -11.487   2.292  65.148  1.00  0.00     4.679 C  
HETATM   10  C   UNL     1      -8.620   5.648  65.650  1.00  0.00    -0.150 C  
HETATM   11  C   UNL     1      -7.503   9.946  66.682  1.00  0.00    -0.099 A  
HETATM   12  C   UNL     1      -8.457  10.928  66.937  1.00  0.00    -0.135 A  
HETATM   13  C   UNL     1     -12.117   7.899  65.488  1.00  0.00    11.861 C  
HETATM   14  C   UNL     1      -9.721   6.956  65.625  1.00  0.00     0.668 C  
HETATM   15  C   UNL     1      -9.270   8.316  66.198  1.00  0.00    -0.250 A  
HETATM   16  C   UNL     1     -10.223   9.348  66.405  1.00  0.00    -0.300 A  
HETATM   17  C   UNL     1      -9.806  10.639  66.787  1.00  0.00    -0.240 A  
HETATM   18  C   UNL     1     -11.712   9.165  66.235  1.00  0.00     4.795 C  
ENDROOT
BRANCH   4  19
HETATM   19  O   UNL     1      -9.949   3.153  67.121  1.00  0.00     0.210 OA 
HETATM   20  O   UNL     1      -9.996   3.112  69.420  1.00  0.00     0.169 OA 
HETATM   21  O   UNL     1      -7.667   3.087  69.474  1.00  0.00    -0.044 OA 
HETATM   22  O   UNL     1      -8.753   1.508  68.089  1.00  0.00    -0.066 OA 
HETATM   23  P   UNL     1      -8.745   3.118  68.363  1.00  0.00    -0.133 P  
ENDBRANCH   4  19
BRANCH  12  24
HETATM   24  O   UNL     1      -8.016  12.226  67.258  1.00  0.00    -0.163 OA 
BRANCH  24  25
HETATM   25  C   UNL     1      -8.781  13.275  66.742  1.00  0.00    -0.080 C  
HETATM   26  O   UNL     1      -9.425  13.238  65.701  1.00  0.00    -0.064 OA 
HETATM   27  N   UNL     1      -8.867  14.333  67.640  1.00  0.00    -0.185 N  
BRANCH  27  28
HETATM   28  C   UNL     1      -7.640  14.942  68.165  1.00  0.00    -0.113 C  
HETATM   29 CL   UNL     1      -6.307  17.021  69.305  1.00  0.00    -0.217 Cl 
HETATM   30  C   UNL     1      -7.840  16.364  68.680  1.00  0.00    -0.211 C  
ENDBRANCH  27  28
BRANCH  27  31
HETATM   31  C   UNL     1     -10.093  15.138  67.618  1.00  0.00    -0.231 C  
HETATM   32 CL   UNL     1     -11.024  13.767  69.820  1.00  0.00    -0.026 Cl 
HETATM   33  C   UNL     1     -11.330  14.416  68.182  1.00  0.00    -0.294 C  
ENDBRANCH  27  31
ENDBRANCH  24  25
ENDBRANCH  12  24
TORSDOF 5
ENDMDL
MODEL      197
REMARK 921   NORMALIZED FREE ENERGY PREDICTED BY IDOCK:   27.58 KCAL/MOL
REMARK 922        TOTAL FREE ENERGY PREDICTED BY IDOCK:   34.86 KCAL/MOL
REMARK 923 INTER-LIGAND FREE ENERGY PREDICTED BY IDOCK:   26.68 KCAL/MOL
REMARK 924 INTRA-LIGAND FREE ENERGY PREDICTED BY IDOCK:    8.18 KCAL/MOL
REMARK 927      BINDING AFFINITY PREDICTED BY RF-SCORE:    0.00 PKD
ROOT
HETATM    1  C   UNL     1      -7.150   8.832  72.898  1.00  0.00     0.115 C  
HETATM    2  C   UNL     1      -5.980   9.639  72.953  1.00  0.00     0.437 C  
HETATM    3  C   UNL     1      -6.826  10.011  71.767  1.00  0.00     1.171 C  
HETATM    4  C   UNL     1      -8.706   9.179  71.709  1.00  0.00     0.240 C  
HETATM    5  C   UNL     1      -8.263  10.269  72.397  1.00  0.00     6.471 C  
HETATM    6  C   UNL     1      -6.765   7.105  67.637  1.00  0.00    -0.064 A  
HETATM    7  C   UNL     1      -8.343  10.788  70.550  1.00  0.00     2.112 C  
HETATM    8  C   UNL     1      -6.840   7.630  71.566  1.00  0.00    -0.049 C  
HETATM    9  C   UNL     1      -8.765  11.196  73.457  1.00  0.00    18.139 C  
HETATM   10  C   UNL     1      -7.876   9.407  69.488  1.00  0.00    -0.091 C  
HETATM   11  C   UNL     1      -6.378   6.086  66.748  1.00  0.00    -0.041 A  
HETATM   12  C   UNL     1      -5.741   4.946  67.231  1.00  0.00    -0.017 A  
HETATM   13  C   UNL     1      -5.513   6.879  71.801  1.00  0.00    -0.036 C  
HETATM   14  C   UNL     1      -6.793   8.178  69.978  1.00  0.00    -0.040 C  
HETATM   15  C   UNL     1      -6.532   6.997  69.021  1.00  0.00    -0.036 A  
HETATM   16  C   UNL     1      -5.829   5.852  69.483  1.00  0.00    -0.020 A  
HETATM   17  C   UNL     1      -5.455   4.833  68.584  1.00  0.00    -0.012 A  
HETATM   18  C   UNL     1      -5.428   5.636  70.922  1.00  0.00    -0.009 C  
ENDROOT
BRANCH   4  19
HETATM   19  O   UNL     1     -10.144   9.783  71.696  1.00  0.00     0.143 OA 
HETATM   20  O   UNL     1     -11.775   8.584  70.604  1.00  0.00    -0.249 OA 
HETATM   21  O   UNL     1     -12.002  10.300  69.045  1.00  0.00    -0.068 OA 
HETATM   22  O   UNL     1     -12.079  10.878  71.337  1.00  0.00    -0.278 OA 
HETATM   23  P   UNL     1     -11.125  10.056  70.296  1.00  0.00    -0.347 P  
ENDBRANCH   4  19
BRANCH  12  24
HETATM   24  O   UNL     1      -5.323   3.968  66.309  1.00  0.00    -0.012 OA 
BRANCH  24  25
HETATM   25  C   UNL     1      -6.319   3.444  65.481  1.00  0.00    -0.032 C  
HETATM   26  O   UNL     1      -6.128   2.695  64.531  1.00  0.00    -0.017 OA 
HETATM   27  N   UNL     1      -7.589   3.736  65.963  1.00  0.00    -0.087 N  
BRANCH  27  28
HETATM   28  C   UNL     1      -7.965   5.132  66.220  1.00  0.00    -0.104 C  
HETATM   29 CL   UNL     1      -8.753   7.588  65.356  1.00  0.00    -0.072 Cl 
HETATM   30  C   UNL     1      -8.300   5.913  64.954  1.00  0.00    -0.115 C  
ENDBRANCH  27  28
BRANCH  27  31
HETATM   31  C   UNL     1      -8.653   2.764  65.692  1.00  0.00    -0.107 C  
HETATM   32 CL   UNL     1      -8.835   2.224  68.389  1.00  0.00    -0.132 Cl 
HETATM   33  C   UNL     1      -8.728   1.613  66.712  1.00  0.00    -0.115 C  
ENDBRANCH  27  31
ENDBRANCH  24  25
ENDBRANCH  12  24
TORSDOF 5
ENDMDL
MODEL      198
REMARK 921   NORMALIZED FREE ENERGY PREDICTED BY IDOCK:   27.66 KCAL/MOL
REMARK 922        TOTAL FREE ENERGY PREDICTED BY IDOCK:   34.96 KCAL/MOL
REMARK 923 INTER-LIGAND FREE ENERGY PREDICTED BY IDOCK:   31.95 KCAL/MOL
REMARK 924 INTRA-LIGAND FREE ENERGY PREDICTED BY IDOCK:    3.01 KCAL/MOL
REMARK 927      BINDING AFFINITY PREDICTED BY RF-SCORE:    0.00 PKD
ROOT
HETATM    1  C   UNL     1     -11.497  10.925  68.567  1.00  0.00    -0.380 C  
HETATM    2  C   UNL     1     -12.806  10.786  69.104  1.00  0.00     1.006 C  
HETATM    3  C   UNL     1     -11.814   9.992  69.908  1.00  0.00    -0.141 C  
HETATM    4  C   UNL     1      -9.831  10.332  69.479  1.00  0.00    -0.220 C  
HETATM    5  C   UNL     1     -10.683  11.051  70.262  1.00  0.00     0.335 C  
HETATM    6  C   UNL     1     -10.151   5.556  68.161  1.00  0.00    -0.221 A  
HETATM    7  C   UNL     1     -10.285   9.442  71.230  1.00  0.00    -0.340 C  
HETATM    8  C   UNL     1     -11.168   9.359  67.697  1.00  0.00     0.271 C  
HETATM    9  C   UNL     1     -10.698  12.367  70.973  1.00  0.00     4.528 C  
HETATM   10  C   UNL     1     -10.125   8.050  70.095  1.00  0.00    -0.194 C  
HETATM   11  C   UNL     1     -10.047   4.417  67.342  1.00  0.00    -0.081 A  
HETATM   12  C   UNL     1     -10.482   4.468  66.020  1.00  0.00    -0.198 A  
HETATM   13  C   UNL     1     -12.285   9.049  66.680  1.00  0.00     8.189 C  
HETATM   14  C   UNL     1     -10.959   7.960  68.604  1.00  0.00     0.140 C  
HETATM   15  C   UNL     1     -10.680   6.764  67.671  1.00  0.00    -0.357 A  
HETATM   16  C   UNL     1     -11.172   6.775  66.338  1.00  0.00     0.880 A  
HETATM   17  C   UNL     1     -11.053   5.632  65.524  1.00  0.00     1.361 A  
HETATM   18  C   UNL     1     -11.846   7.966  65.702  1.00  0.00     9.279 C  
ENDROOT
BRANCH   4  19
HETATM   19  O   UNL     1      -8.628  10.854  70.321  1.00  0.00     0.877 OA 
HETATM   20  O   UNL     1      -8.514  13.120  70.695  1.00  0.00     4.736 OA 
HETATM   21  O   UNL     1      -6.546  13.234  69.455  1.00  0.00    -0.109 OA 
HETATM   22  O   UNL     1      -6.677  11.603  71.163  1.00  0.00     1.088 OA 
HETATM   23  P   UNL     1      -7.529  12.110  69.864  1.00  0.00     1.945 P  
ENDBRANCH   4  19
BRANCH  12  24
HETATM   24  O   UNL     1     -10.410   3.297  65.243  1.00  0.00     0.225 OA 
BRANCH  24  25
HETATM   25  C   UNL     1      -9.583   3.360  64.119  1.00  0.00    -0.146 C  
HETATM   26  O   UNL     1      -9.802   2.811  63.047  1.00  0.00    -0.092 OA 
HETATM   27  N   UNL     1      -8.545   4.268  64.299  1.00  0.00    -0.115 N  
BRANCH  27  28
HETATM   28  C   UNL     1      -7.652   4.130  65.456  1.00  0.00    -0.085 C  
HETATM   29 CL   UNL     1      -5.172   4.159  66.571  1.00  0.00    -0.008 Cl 
HETATM   30  C   UNL     1      -6.180   4.334  65.114  1.00  0.00    -0.027 C  
ENDBRANCH  27  28
BRANCH  27  31
HETATM   31  C   UNL     1      -8.047   4.966  63.110  1.00  0.00    -0.095 C  
HETATM   32 CL   UNL     1      -7.295   7.097  64.687  1.00  0.00    -0.073 Cl 
HETATM   33  C   UNL     1      -8.107   6.501  63.210  1.00  0.00    -0.024 C  
ENDBRANCH  27  31
ENDBRANCH  24  25
ENDBRANCH  12  24
TORSDOF 5
ENDMDL
MODEL      199
REMARK 921   NORMALIZED FREE ENERGY PREDICTED BY IDOCK:   28.58 KCAL/MOL
REMARK 922        TOTAL FREE ENERGY PREDICTED BY IDOCK:   36.15 KCAL/MOL
REMARK 923 INTER-LIGAND FREE ENERGY PREDICTED BY IDOCK:   33.69 KCAL/MOL
REMARK 924 INTRA-LIGAND FREE ENERGY PREDICTED BY IDOCK:    2.46 KCAL/MOL
REMARK 927      BINDING AFFINITY PREDICTED BY RF-SCORE:    0.00 PKD
ROOT
HETATM    1  C   UNL     1      -9.641   8.770  72.966  1.00  0.00     0.376 C  
HETATM    2  C   UNL     1      -8.382   9.257  73.412  1.00  0.00     1.930 C  
HETATM    3  C   UNL     1      -8.811   9.965  72.157  1.00  0.00     3.768 C  
HETATM    4  C   UNL     1     -10.747   9.627  71.552  1.00  0.00    -0.067 C  
HETATM    5  C   UNL     1     -10.274  10.483  72.500  1.00  0.00     8.347 C  
HETATM    6  C   UNL     1      -8.325   7.663  67.689  1.00  0.00    -0.118 A  
HETATM    7  C   UNL     1      -9.785  11.230  70.801  1.00  0.00     4.352 C  
HETATM    8  C   UNL     1      -9.264   7.702  71.540  1.00  0.00    -0.156 C  
HETATM    9  C   UNL     1     -10.822  11.366  73.575  1.00  0.00    17.777 C  
HETATM   10  C   UNL     1      -9.362   9.919  69.637  1.00  0.00    -0.247 C  
HETATM   11  C   UNL     1      -7.947   6.699  66.737  1.00  0.00    -0.108 A  
HETATM   12  C   UNL     1      -7.699   5.388  67.136  1.00  0.00    -0.096 A  
HETATM   13  C   UNL     1      -8.221   6.630  71.917  1.00  0.00    -0.103 C  
HETATM   14  C   UNL     1      -8.712   8.414  70.122  1.00  0.00    -0.136 C  
HETATM   15  C   UNL     1      -8.470   7.332  69.049  1.00  0.00    -0.129 A  
HETATM   16  C   UNL     1      -8.155   6.003  69.441  1.00  0.00    -0.111 A  
HETATM   17  C   UNL     1      -7.788   5.043  68.477  1.00  0.00    -0.082 A  
HETATM   18  C   UNL     1      -8.178   5.521  70.871  1.00  0.00    -0.118 C  
ENDROOT
BRANCH   4  19
HETATM   19  O   UNL     1     -11.981  10.557  71.339  1.00  0.00    -0.330 OA 
HETATM   20  O   UNL     1     -12.697  10.869  69.176  1.00  0.00    -0.262 OA 
HETATM   21  O   UNL     1     -12.139  13.126  69.308  1.00  0.00    -0.289 OA 
HETATM   22  O   UNL     1     -13.471  12.219  71.038  1.00  0.00     0.264 OA 
HETATM   23  P   UNL     1     -12.064  11.913  70.267  1.00  0.00    -0.167 P  
ENDBRANCH   4  19
BRANCH  12  24
HETATM   24  O   UNL     1      -7.275   4.459  66.167  1.00  0.00    -0.073 OA 
BRANCH  24  25
HETATM   25  C   UNL     1      -6.332   3.521  66.592  1.00  0.00    -0.032 C  
HETATM   26  O   UNL     1      -5.157   3.760  66.843  1.00  0.00    -0.007 OA 
HETATM   27  N   UNL     1      -6.922   2.292  66.865  1.00  0.00    -0.043 N  
BRANCH  27  28
HETATM   28  C   UNL     1      -7.723   1.625  65.831  1.00  0.00    -0.067 C  
HETATM   29 CL   UNL     1      -9.594   1.681  63.857  1.00  0.00    -0.125 Cl 
HETATM   30  C   UNL     1      -8.670   2.568  65.096  1.00  0.00    -0.114 C  
ENDBRANCH  27  28
BRANCH  27  31
HETATM   31  C   UNL     1      -6.312   1.470  67.915  1.00  0.00    -0.025 C  
HETATM   32 CL   UNL     1      -8.595   1.733  69.436  1.00  0.00    -0.084 Cl 
HETATM   33  C   UNL     1      -6.811   1.792  69.335  1.00  0.00    -0.033 C  
ENDBRANCH  27  31
ENDBRANCH  24  25
ENDBRANCH  12  24
TORSDOF 5
ENDMDL
MODEL      200
REMARK 921   NORMALIZED FREE ENERGY PREDICTED BY IDOCK:   30.86 KCAL/MOL
REMARK 922        TOTAL FREE ENERGY PREDICTED BY IDOCK:   39.09 KCAL/MOL
REMARK 923 INTER-LIGAND FREE ENERGY PREDICTED BY IDOCK:   28.16 KCAL/MOL
REMARK 924 INTRA-LIGAND FREE ENERGY PREDICTED BY IDOCK:   10.94 KCAL/MOL
REMARK 927      BINDING AFFINITY PREDICTED BY RF-SCORE:    0.00 PKD
ROOT
HETATM    1  C   UNL     1      -9.000  17.196  67.936  1.00  0.00    -0.230 C  
HETATM    2  C   UNL     1      -9.896  17.152  66.832  1.00  0.00    -0.285 C  
HETATM    3  C   UNL     1     -10.636  16.955  68.126  1.00  0.00    -0.360 C  
HETATM    4  C   UNL     1      -9.559  17.311  69.841  1.00  0.00     0.978 C  
HETATM    5  C   UNL     1     -10.182  18.195  69.012  1.00  0.00    -0.237 C  
HETATM    6  C   UNL     1     -10.483  12.470  70.442  1.00  0.00     2.857 A  
HETATM    7  C   UNL     1     -11.570  17.281  69.972  1.00  0.00     1.876 C  
HETATM    8  C   UNL     1      -8.802  15.462  68.459  1.00  0.00    -0.183 C  
HETATM    9  C   UNL     1     -10.257  19.675  68.816  1.00  0.00    -0.460 C  
HETATM   10  C   UNL     1     -11.119  15.556  70.239  1.00  0.00    -0.345 C  
HETATM   11  C   UNL     1     -10.217  11.107  70.658  1.00  0.00     2.314 A  
HETATM   12  C   UNL     1      -9.176  10.485  69.972  1.00  0.00     0.457 A  
HETATM   13  C   UNL     1      -8.369  14.576  67.273  1.00  0.00    -0.232 C  
HETATM   14  C   UNL     1     -10.104  14.681  69.177  1.00  0.00    -0.178 C  
HETATM   15  C   UNL     1      -9.712  13.236  69.549  1.00  0.00     1.127 A  
HETATM   16  C   UNL     1      -8.694  12.567  68.817  1.00  0.00     0.158 A  
HETATM   17  C   UNL     1      -8.429  11.203  69.048  1.00  0.00    -0.044 A  
HETATM   18  C   UNL     1      -7.844  13.231  67.762  1.00  0.00    -0.157 C  
ENDROOT
BRANCH   4  19
HETATM   19  O   UNL     1      -9.729  18.315  71.023  1.00  0.00     3.409 OA 
HETATM   20  O   UNL     1      -8.181  20.006  71.193  1.00  0.00     1.394 OA 
HETATM   21  O   UNL     1      -7.432  19.129  73.216  1.00  0.00     3.685 OA 
HETATM   22  O   UNL     1      -9.758  19.469  72.957  1.00  0.00     2.639 OA 
HETATM   23  P   UNL     1      -8.516  18.744  72.181  1.00  0.00    11.693 P  
ENDBRANCH   4  19
BRANCH  12  24
HETATM   24  O   UNL     1      -8.967   9.108  70.173  1.00  0.00    -0.164 OA 
BRANCH  24  25
HETATM   25  C   UNL     1      -8.549   8.384  69.054  1.00  0.00    -0.131 C  
HETATM   26  O   UNL     1      -7.467   7.823  68.937  1.00  0.00    -0.090 OA 
HETATM   27  N   UNL     1      -9.579   8.225  68.134  1.00  0.00    -0.147 N  
BRANCH  27  28
HETATM   28  C   UNL     1     -10.279   9.407  67.617  1.00  0.00    -0.227 C  
HETATM   29 CL   UNL     1     -11.763  11.656  67.992  1.00  0.00    -0.374 Cl 
HETATM   30  C   UNL     1     -10.947  10.241  68.704  1.00  0.00    -0.244 C  
ENDBRANCH  27  28
BRANCH  27  31
HETATM   31  C   UNL     1      -9.577   7.003  67.323  1.00  0.00    -0.141 C  
HETATM   32 CL   UNL     1      -6.876   7.313  66.878  1.00  0.00    -0.067 Cl 
HETATM   33  C   UNL     1      -8.505   6.983  66.219  1.00  0.00    -0.134 C  
ENDBRANCH  27  31
ENDBRANCH  24  25
ENDBRANCH  12  24
TORSDOF 5
ENDMDL
MODEL      201
REMARK 921   NORMALIZED FREE ENERGY PREDICTED BY IDOCK:   33.78 KCAL/MOL
REMARK 922        TOTAL FREE ENERGY PREDICTED BY IDOCK:   42.87 KCAL/MOL
REMARK 923 INTER-LIGAND FREE ENERGY PREDICTED BY IDOCK:   35.07 KCAL/MOL
REMARK 924 INTRA-LIGAND FREE ENERGY PREDICTED BY IDOCK:    7.80 KCAL/MOL
REMARK 927      BINDING AFFINITY PREDICTED BY RF-SCORE:    0.00 PKD
ROOT
HETATM    1  C   UNL     1      -7.974   3.988  65.532  1.00  0.00    -0.093 C  
HETATM    2  C   UNL     1      -7.764   2.592  65.696  1.00  0.00    -0.077 C  
HETATM    3  C   UNL     1      -9.180   2.960  66.041  1.00  0.00    -0.101 C  
HETATM    4  C   UNL     1      -9.755   4.873  65.552  1.00  0.00    -0.112 C  
HETATM    5  C   UNL     1      -9.681   3.764  64.764  1.00  0.00    -0.184 C  
HETATM    6  C   UNL     1     -10.196   5.121  70.491  1.00  0.00    -0.330 A  
HETATM    7  C   UNL     1     -11.197   3.512  65.913  1.00  0.00     3.342 C  
HETATM    8  C   UNL     1      -8.001   4.670  67.221  1.00  0.00    -0.101 C  
HETATM    9  C   UNL     1      -9.778   3.422  63.312  1.00  0.00    -0.117 C  
HETATM   10  C   UNL     1     -10.868   4.201  67.547  1.00  0.00     2.066 C  
HETATM   11  C   UNL     1     -10.000   5.603  71.797  1.00  0.00    -0.222 A  
HETATM   12  C   UNL     1      -8.721   5.952  72.224  1.00  0.00    -0.128 A  
HETATM   13  C   UNL     1      -6.731   4.265  67.997  1.00  0.00    -0.047 C  
HETATM   14  C   UNL     1      -9.299   4.300  68.220  1.00  0.00    -0.207 C  
HETATM   15  C   UNL     1      -9.124   4.989  69.590  1.00  0.00    -0.151 A  
HETATM   16  C   UNL     1      -7.821   5.294  70.067  1.00  0.00    -0.080 A  
HETATM   17  C   UNL     1      -7.637   5.786  71.374  1.00  0.00    -0.105 A  
HETATM   18  C   UNL     1      -6.564   5.119  69.249  1.00  0.00    -0.047 C  
ENDROOT
BRANCH   4  19
HETATM   19  O   UNL     1     -10.860   5.453  64.616  1.00  0.00     1.441 OA 
HETATM   20  O   UNL     1     -12.440   6.818  65.580  1.00  0.00     6.563 OA 
HETATM   21  O   UNL     1     -14.098   5.257  65.091  1.00  0.00     6.612 OA 
HETATM   22  O   UNL     1     -12.655   5.916  63.337  1.00  0.00     6.583 OA 
HETATM   23  P   UNL     1     -12.569   5.350  64.867  1.00  0.00     8.374 P  
ENDBRANCH   4  19
BRANCH  12  24
HETATM   24  O   UNL     1      -8.551   6.384  73.553  1.00  0.00    -0.123 OA 
BRANCH  24  25
HETATM   25  C   UNL     1      -8.774   7.743  73.787  1.00  0.00    -0.262 C  
HETATM   26  O   UNL     1      -8.034   8.484  74.422  1.00  0.00    -0.328 OA 
HETATM   27  N   UNL     1      -9.864   8.213  73.064  1.00  0.00    -0.276 N  
BRANCH  27  28
HETATM   28  C   UNL     1     -11.169   7.556  73.207  1.00  0.00    -0.149 C  
HETATM   29 CL   UNL     1     -13.278   6.187  72.170  1.00  0.00     0.215 Cl 
HETATM   30  C   UNL     1     -11.701   6.972  71.903  1.00  0.00    -0.296 C  
ENDBRANCH  27  28
BRANCH  27  31
HETATM   31  C   UNL     1      -9.831   9.613  72.627  1.00  0.00     3.457 C  
HETATM   32 CL   UNL     1     -11.381   8.959  70.443  1.00  0.00    -0.259 Cl 
HETATM   33  C   UNL     1      -9.947   9.799  71.103  1.00  0.00     0.214 C  
ENDBRANCH  27  31
ENDBRANCH  24  25
ENDBRANCH  12  24
TORSDOF 5
ENDMDL
MODEL      202
REMARK 921   NORMALIZED FREE ENERGY PREDICTED BY IDOCK:   47.02 KCAL/MOL
REMARK 922        TOTAL FREE ENERGY PREDICTED BY IDOCK:   59.98 KCAL/MOL
REMARK 923 INTER-LIGAND FREE ENERGY PREDICTED BY IDOCK:   53.89 KCAL/MOL
REMARK 924 INTRA-LIGAND FREE ENERGY PREDICTED BY IDOCK:    6.09 KCAL/MOL
REMARK 927      BINDING AFFINITY PREDICTED BY RF-SCORE:    0.00 PKD
ROOT
HETATM    1  C   UNL     1      -8.996   8.971  70.254  1.00  0.00    -0.221 C  
HETATM    2  C   UNL     1      -7.735   8.936  70.910  1.00  0.00    -0.139 C  
HETATM    3  C   UNL     1      -8.717   9.764  71.691  1.00  0.00     1.757 C  
HETATM    4  C   UNL     1     -10.675   9.660  71.069  1.00  0.00    -0.323 C  
HETATM    5  C   UNL     1      -9.971   8.801  71.858  1.00  0.00    -0.401 C  
HETATM    6  C   UNL     1      -9.788  14.465  70.187  1.00  0.00     0.995 A  
HETATM    7  C   UNL     1     -10.304  10.365  72.921  1.00  0.00     9.148 C  
HETATM    8  C   UNL     1      -9.095  10.624  69.495  1.00  0.00     0.016 C  
HETATM    9  C   UNL     1     -10.145   7.441  72.455  1.00  0.00    -0.237 C  
HETATM   10  C   UNL     1     -10.226  11.848  71.897  1.00  0.00    12.158 C  
HETATM   11  C   UNL     1      -9.709  15.666  69.461  1.00  0.00    -0.287 A  
HETATM   12  C   UNL     1      -9.160  15.670  68.181  1.00  0.00    -0.181 A  
HETATM   13  C   UNL     1      -7.864  10.894  68.605  1.00  0.00    -0.126 C  
HETATM   14  C   UNL     1      -9.254  11.964  70.494  1.00  0.00     5.682 C  
HETATM   15  C   UNL     1      -9.332  13.249  69.645  1.00  0.00     1.710 A  
HETATM   16  C   UNL     1      -8.723  13.288  68.362  1.00  0.00    -0.126 A  
HETATM   17  C   UNL     1      -8.658  14.496  67.639  1.00  0.00    -0.184 A  
HETATM   18  C   UNL     1      -8.108  12.086  67.687  1.00  0.00    -0.155 C  
ENDROOT
BRANCH   4  19
HETATM   19  O   UNL     1     -11.995   9.200  71.760  1.00  0.00    -0.335 OA 
HETATM   20  O   UNL     1     -11.810   7.652  73.450  1.00  0.00     0.074 OA 
HETATM   21  O   UNL     1     -12.989   6.103  72.171  1.00  0.00    -0.042 OA 
HETATM   22  O   UNL     1     -13.928   8.258  72.432  1.00  0.00    -0.264 OA 
HETATM   23  P   UNL     1     -12.520   7.565  71.977  1.00  0.00    -0.169 P  
ENDBRANCH   4  19
BRANCH  12  24
HETATM   24  O   UNL     1      -9.050  16.898  67.501  1.00  0.00    -0.219 OA 
BRANCH  24  25
HETATM   25  C   UNL     1      -9.772  17.964  68.045  1.00  0.00    -0.303 C  
HETATM   26  O   UNL     1     -10.144  18.047  69.208  1.00  0.00    -0.282 OA 
HETATM   27  N   UNL     1      -9.879  19.018  67.145  1.00  0.00    -0.312 N  
BRANCH  27  28
HETATM   28  C   UNL     1     -10.445  18.781  65.812  1.00  0.00    -0.271 C  
HETATM   29 CL   UNL     1     -10.163  18.217  63.166  1.00  0.00    15.037 Cl 
HETATM   30  C   UNL     1      -9.391  18.503  64.746  1.00  0.00     4.507 C  
ENDBRANCH  27  28
BRANCH  27  31
HETATM   31  C   UNL     1      -9.944  20.374  67.701  1.00  0.00    -0.374 C  
HETATM   32 CL   UNL     1     -12.694  20.293  67.559  1.00  0.00     3.818 Cl 
HETATM   33  C   UNL     1     -11.174  21.181  67.249  1.00  0.00     3.936 C  
ENDBRANCH  27  31
ENDBRANCH  24  25
ENDBRANCH  12  24
TORSDOF 5
ENDMDL
MODEL      203
REMARK 921   NORMALIZED FREE ENERGY PREDICTED BY IDOCK:   48.14 KCAL/MOL
REMARK 922        TOTAL FREE ENERGY PREDICTED BY IDOCK:   61.42 KCAL/MOL
REMARK 923 INTER-LIGAND FREE ENERGY PREDICTED BY IDOCK:   52.96 KCAL/MOL
REMARK 924 INTRA-LIGAND FREE ENERGY PREDICTED BY IDOCK:    8.46 KCAL/MOL
REMARK 927      BINDING AFFINITY PREDICTED BY RF-SCORE:    0.00 PKD
ROOT
HETATM    1  C   UNL     1     -11.523  10.740  72.873  1.00  0.00     6.935 C  
HETATM    2  C   UNL     1     -10.564  11.349  73.727  1.00  0.00    20.865 C  
HETATM    3  C   UNL     1     -10.426  11.864  72.321  1.00  0.00    13.030 C  
HETATM    4  C   UNL     1     -11.934  11.342  71.023  1.00  0.00    -0.055 C  
HETATM    5  C   UNL     1     -11.897  12.340  71.950  1.00  0.00     2.241 C  
HETATM    6  C   UNL     1      -8.126   9.031  68.830  1.00  0.00    -0.104 A  
HETATM    7  C   UNL     1     -10.739  12.886  70.520  1.00  0.00     2.477 C  
HETATM    8  C   UNL     1     -10.588   9.518  71.898  1.00  0.00     0.247 C  
HETATM    9  C   UNL     1     -12.841  13.323  72.565  1.00  0.00    -0.129 C  
HETATM   10  C   UNL     1      -9.874  11.460  69.833  1.00  0.00     1.174 C  
HETATM   11  C   UNL     1      -7.389   7.974  68.267  1.00  0.00    -0.095 A  
HETATM   12  C   UNL     1      -7.336   6.741  68.913  1.00  0.00    -0.094 A  
HETATM   13  C   UNL     1      -9.803   8.563  72.820  1.00  0.00    -0.213 C  
HETATM   14  C   UNL     1      -9.492  10.069  70.751  1.00  0.00     0.490 C  
HETATM   15  C   UNL     1      -8.828   8.872  70.039  1.00  0.00    -0.165 A  
HETATM   16  C   UNL     1      -8.711   7.625  70.710  1.00  0.00    -0.139 A  
HETATM   17  C   UNL     1      -7.978   6.570  70.131  1.00  0.00    -0.112 A  
HETATM   18  C   UNL     1      -9.331   7.332  72.054  1.00  0.00    -0.150 C  
ENDROOT
BRANCH   4  19
HETATM   19  O   UNL     1     -12.962  12.167  70.189  1.00  0.00     0.297 OA 
HETATM   20  O   UNL     1     -12.158  13.293  68.352  1.00  0.00    -0.333 OA 
HETATM   21  O   UNL     1     -12.689  15.326  69.356  1.00  0.00     0.011 OA 
HETATM   22  O   UNL     1     -14.372  13.667  69.274  1.00  0.00     6.207 OA 
HETATM   23  P   UNL     1     -12.817  13.834  69.749  1.00  0.00     0.920 P  
ENDBRANCH   4  19
BRANCH  12  24
HETATM   24  O   UNL     1      -6.549   5.720  68.348  1.00  0.00    -0.048 OA 
BRANCH  24  25
HETATM   25  C   UNL     1      -6.718   4.446  68.895  1.00  0.00    -0.046 C  
HETATM   26  O   UNL     1      -7.376   3.542  68.396  1.00  0.00    -0.050 OA 
HETATM   27  N   UNL     1      -5.906   4.256  70.008  1.00  0.00    -0.017 N  
BRANCH  27  28
HETATM   28  C   UNL     1      -5.984   5.196  71.132  1.00  0.00    -0.021 C  
HETATM   29 CL   UNL     1      -6.463   5.747  73.752  1.00  0.00    -0.072 Cl 
HETATM   30  C   UNL     1      -6.403   4.541  72.443  1.00  0.00    -0.022 C  
ENDBRANCH  27  28
BRANCH  27  31
HETATM   31  C   UNL     1      -5.423   2.896  70.266  1.00  0.00    -0.016 C  
HETATM   32 CL   UNL     1      -7.433   2.542  72.117  1.00  0.00    -0.043 Cl 
HETATM   33  C   UNL     1      -5.703   2.389  71.692  1.00  0.00    -0.009 C  
ENDBRANCH  27  31
ENDBRANCH  24  25
ENDBRANCH  12  24
TORSDOF 5
ENDMDL
MODEL      204
REMARK 921   NORMALIZED FREE ENERGY PREDICTED BY IDOCK:   49.33 KCAL/MOL
REMARK 922        TOTAL FREE ENERGY PREDICTED BY IDOCK:   62.96 KCAL/MOL
REMARK 923 INTER-LIGAND FREE ENERGY PREDICTED BY IDOCK:   59.62 KCAL/MOL
REMARK 924 INTRA-LIGAND FREE ENERGY PREDICTED BY IDOCK:    3.35 KCAL/MOL
REMARK 927      BINDING AFFINITY PREDICTED BY RF-SCORE:    0.00 PKD
ROOT
HETATM    1  C   UNL     1     -12.808   5.284  65.404  1.00  0.00     6.358 C  
HETATM    2  C   UNL     1     -13.230   6.067  64.294  1.00  0.00     9.871 C  
HETATM    3  C   UNL     1     -11.741   5.862  64.265  1.00  0.00     7.102 C  
HETATM    4  C   UNL     1     -10.996   4.488  65.602  1.00  0.00     0.173 C  
HETATM    5  C   UNL     1     -11.576   4.285  64.385  1.00  0.00     1.121 C  
HETATM    6  C   UNL     1      -8.776   8.585  67.314  1.00  0.00    -0.133 A  
HETATM    7  C   UNL     1      -9.836   5.020  64.042  1.00  0.00     0.644 C  
HETATM    8  C   UNL     1     -12.038   6.464  66.557  1.00  0.00     3.315 C  
HETATM    9  C   UNL     1     -12.078   3.138  63.569  1.00  0.00     3.348 C  
HETATM   10  C   UNL     1      -9.408   6.237  65.302  1.00  0.00     0.464 C  
HETATM   11  C   UNL     1      -8.387   9.570  68.239  1.00  0.00    -0.118 A  
HETATM   12  C   UNL     1      -9.326  10.113  69.112  1.00  0.00    -0.197 A  
HETATM   13  C   UNL     1     -13.000   7.626  66.879  1.00  0.00    13.579 C  
HETATM   14  C   UNL     1     -10.575   7.171  66.132  1.00  0.00     0.897 C  
HETATM   15  C   UNL     1     -10.102   8.120  67.253  1.00  0.00    -0.309 A  
HETATM   16  C   UNL     1     -11.054   8.730  68.113  1.00  0.00     0.245 A  
HETATM   17  C   UNL     1     -10.652   9.709  69.043  1.00  0.00    -0.237 A  
HETATM   18  C   UNL     1     -12.527   8.401  68.104  1.00  0.00     6.609 C  
ENDROOT
BRANCH   4  19
HETATM   19  O   UNL     1     -10.205   3.154  65.437  1.00  0.00     0.247 OA 
HETATM   20  O   UNL     1      -9.730   1.974  67.352  1.00  0.00     0.054 OA 
HETATM   21  O   UNL     1      -7.452   2.329  67.015  1.00  0.00    -0.059 OA 
HETATM   22  O   UNL     1      -8.715   1.481  65.203  1.00  0.00    -0.100 OA 
HETATM   23  P   UNL     1      -8.752   2.718  66.270  1.00  0.00    -0.139 P  
ENDBRANCH   4  19
BRANCH  12  24
HETATM   24  O   UNL     1      -8.916  11.133  69.991  1.00  0.00     0.996 OA 
BRANCH  24  25
HETATM   25  C   UNL     1      -9.615  12.339  69.897  1.00  0.00     2.528 C  
HETATM   26  O   UNL     1     -10.624  12.624  70.530  1.00  0.00     2.077 OA 
HETATM   27  N   UNL     1      -8.934  13.264  69.115  1.00  0.00     0.496 N  
BRANCH  27  28
HETATM   28  C   UNL     1      -8.545  12.911  67.745  1.00  0.00    -0.185 C  
HETATM   29 CL   UNL     1      -7.159  11.374  65.979  1.00  0.00     0.136 Cl 
HETATM   30  C   UNL     1      -7.569  11.741  67.673  1.00  0.00    -0.132 C  
ENDBRANCH  27  28
BRANCH  27  31
HETATM   31  C   UNL     1      -9.098  14.682  69.451  1.00  0.00     0.135 C  
HETATM   32 CL   UNL     1      -6.365  14.934  69.692  1.00  0.00    -0.130 Cl 
HETATM   33  C   UNL     1      -7.993  15.245  70.362  1.00  0.00     0.961 C  
ENDBRANCH  27  31
ENDBRANCH  24  25
ENDBRANCH  12  24
TORSDOF 5
ENDMDL
MODEL      205
REMARK 921   NORMALIZED FREE ENERGY PREDICTED BY IDOCK:   75.17 KCAL/MOL
REMARK 922        TOTAL FREE ENERGY PREDICTED BY IDOCK:   96.36 KCAL/MOL
REMARK 923 INTER-LIGAND FREE ENERGY PREDICTED BY IDOCK:   93.01 KCAL/MOL
REMARK 924 INTRA-LIGAND FREE ENERGY PREDICTED BY IDOCK:    3.35 KCAL/MOL
REMARK 927      BINDING AFFINITY PREDICTED BY RF-SCORE:    0.00 PKD
ROOT
HETATM    1  C   UNL     1      -9.375  17.403  65.964  1.00  0.00    -0.101 C  
HETATM    2  C   UNL     1      -9.538  16.827  64.674  1.00  0.00     3.168 C  
HETATM    3  C   UNL     1     -10.793  16.672  65.487  1.00  0.00    -0.170 C  
HETATM    4  C   UNL     1     -10.855  17.726  67.253  1.00  0.00    -0.155 C  
HETATM    5  C   UNL     1     -11.105  18.151  65.982  1.00  0.00     0.509 C  
HETATM    6  C   UNL     1     -11.045  13.101  69.049  1.00  0.00    -0.282 A  
HETATM    7  C   UNL     1     -12.594  17.050  66.489  1.00  0.00     5.293 C  
HETATM    8  C   UNL     1      -9.162  15.990  67.094  1.00  0.00    -0.221 C  
HETATM    9  C   UNL     1     -11.339  19.442  65.266  1.00  0.00     1.100 C  
HETATM   10  C   UNL     1     -12.038  15.675  67.516  1.00  0.00     0.605 C  
HETATM   11  C   UNL     1     -10.683  11.986  69.825  1.00  0.00     0.442 A  
HETATM   12  C   UNL     1      -9.344  11.619  69.933  1.00  0.00     2.009 A  
HETATM   13  C   UNL     1      -8.020  15.071  66.616  1.00  0.00     0.164 C  
HETATM   14  C   UNL     1     -10.477  14.988  67.391  1.00  0.00    -0.257 C  
HETATM   15  C   UNL     1     -10.078  13.873  68.380  1.00  0.00    -0.237 A  
HETATM   16  C   UNL     1      -8.725  13.446  68.457  1.00  0.00    -0.071 A  
HETATM   17  C   UNL     1      -8.373  12.333  69.245  1.00  0.00     0.738 A  
HETATM   18  C   UNL     1      -7.589  14.117  67.724  1.00  0.00    -0.175 C  
ENDROOT
BRANCH   4  19
HETATM   19  O   UNL     1     -11.798  18.841  67.802  1.00  0.00     1.198 OA 
HETATM   20  O   UNL     1     -11.844  19.146  70.080  1.00  0.00     6.462 OA 
HETATM   21  O   UNL     1     -14.075  18.477  70.132  1.00  0.00    22.110 OA 
HETATM   22  O   UNL     1     -13.463  20.147  68.574  1.00  0.00     5.470 OA 
HETATM   23  P   UNL     1     -12.999  18.649  69.032  1.00  0.00    16.765 P  
ENDBRANCH   4  19
BRANCH  12  24
HETATM   24  O   UNL     1      -9.020  10.469  70.677  1.00  0.00     0.838 OA 
BRANCH  24  25
HETATM   25  C   UNL     1      -8.444  10.693  71.929  1.00  0.00     7.804 C  
HETATM   26  O   UNL     1      -8.911  10.326  73.000  1.00  0.00     6.547 OA 
HETATM   27  N   UNL     1      -7.172  11.242  71.814  1.00  0.00     5.426 N  
BRANCH  27  28
HETATM   28  C   UNL     1      -6.983  12.481  71.051  1.00  0.00     3.553 C  
HETATM   29 CL   UNL     1      -6.147  15.063  70.861  1.00  0.00     0.022 Cl 
HETATM   30  C   UNL     1      -6.348  13.605  71.864  1.00  0.00     1.433 C  
ENDBRANCH  27  28
BRANCH  27  31
HETATM   31  C   UNL     1      -6.196  10.907  72.857  1.00  0.00     2.887 C  
HETATM   32 CL   UNL     1      -5.322   8.777  71.343  1.00  0.00    -0.034 Cl 
HETATM   33  C   UNL     1      -5.844   9.411  72.931  1.00  0.00     0.168 C  
ENDBRANCH  27  31
ENDBRANCH  24  25
ENDBRANCH  12  24
TORSDOF 5
ENDMDL
MODEL      206
REMARK 921   NORMALIZED FREE ENERGY PREDICTED BY IDOCK:   98.08 KCAL/MOL
REMARK 922        TOTAL FREE ENERGY PREDICTED BY IDOCK:  125.97 KCAL/MOL
REMARK 923 INTER-LIGAND FREE ENERGY PREDICTED BY IDOCK:   82.36 KCAL/MOL
REMARK 924 INTRA-LIGAND FREE ENERGY PREDICTED BY IDOCK:   43.61 KCAL/MOL
REMARK 927      BINDING AFFINITY PREDICTED BY RF-SCORE:    0.00 PKD
ROOT
HETATM    1  C   UNL     1      -6.954  12.181  63.514  1.00  0.00     5.263 C  
HETATM    2  C   UNL     1      -7.767  11.955  62.369  1.00  0.00     1.402 C  
HETATM    3  C   UNL     1      -8.427  12.929  63.305  1.00  0.00     5.838 C  
HETATM    4  C   UNL     1      -7.258  13.624  64.848  1.00  0.00    12.960 C  
HETATM    5  C   UNL     1      -7.308  14.032  63.549  1.00  0.00    20.543 C  
HETATM    6  C   UNL     1     -10.736  11.234  67.464  1.00  0.00    -0.275 A  
HETATM    7  C   UNL     1      -8.923  14.659  64.377  1.00  0.00     5.433 C  
HETATM    8  C   UNL     1      -7.750  11.244  64.858  1.00  0.00     0.830 C  
HETATM    9  C   UNL     1      -6.539  14.931  62.634  1.00  0.00    22.691 C  
HETATM   10  C   UNL     1      -9.518  13.457  65.583  1.00  0.00     0.100 C  
HETATM   11  C   UNL     1     -11.280  10.331  68.394  1.00  0.00    -0.284 A  
HETATM   12  C   UNL     1     -10.810   9.021  68.448  1.00  0.00    -0.011 A  
HETATM   13  C   UNL     1      -7.952   9.769  64.455  1.00  0.00    -0.144 C  
HETATM   14  C   UNL     1      -9.230  11.777  65.447  1.00  0.00    -0.023 C  
HETATM   15  C   UNL     1      -9.710  10.849  66.583  1.00  0.00    -0.222 A  
HETATM   16  C   UNL     1      -9.287   9.493  66.616  1.00  0.00    -0.207 A  
HETATM   17  C   UNL     1      -9.832   8.599  67.558  1.00  0.00    -0.234 A  
HETATM   18  C   UNL     1      -8.261   8.910  65.676  1.00  0.00    -0.126 C  
ENDROOT
BRANCH   4  19
HETATM   19  O   UNL     1      -6.773  15.046  65.267  1.00  0.00     8.331 OA 
HETATM   20  O   UNL     1      -7.543  15.869  67.271  1.00  0.00    -0.163 OA 
HETATM   21  O   UNL     1      -8.681  17.562  66.147  1.00  0.00    -0.438 OA 
HETATM   22  O   UNL     1      -6.397  17.237  65.627  1.00  0.00     0.020 OA 
HETATM   23  P   UNL     1      -7.780  16.374  65.732  1.00  0.00     2.213 P  
ENDBRANCH   4  19
BRANCH  12  24
HETATM   24  O   UNL     1     -11.410   8.129  69.356  1.00  0.00     0.126 OA 
BRANCH  24  25
HETATM   25  C   UNL     1     -10.611   7.715  70.425  1.00  0.00    -0.230 C  
HETATM   26  O   UNL     1     -10.933   7.751  71.606  1.00  0.00    -0.230 OA 
HETATM   27  N   UNL     1      -9.450   7.091  69.982  1.00  0.00    -0.161 N  
BRANCH  27  28
HETATM   28  C   UNL     1      -8.557   7.793  69.053  1.00  0.00    -0.135 C  
HETATM   29 CL   UNL     1      -8.129   9.241  66.791  1.00  0.00    -0.111 Cl 
HETATM   30  C   UNL     1      -9.282   8.403  67.858  1.00  0.00    -0.135 C  
ENDBRANCH  27  28
BRANCH  27  31
HETATM   31  C   UNL     1      -8.887   6.036  70.830  1.00  0.00    -0.135 C  
HETATM   32 CL   UNL     1      -6.579   7.513  71.121  1.00  0.00    -0.039 Cl 
HETATM   33  C   UNL     1      -7.352   5.938  70.777  1.00  0.00    -0.085 C  
ENDBRANCH  27  31
ENDBRANCH  24  25
ENDBRANCH  12  24
TORSDOF 5
ENDMDL
