MODEL        1
REMARK 921   NORMALIZED FREE ENERGY PREDICTED BY IDOCK:   -7.21 KCAL/MOL
REMARK 922        TOTAL FREE ENERGY PREDICTED BY IDOCK:   -9.56 KCAL/MOL
REMARK 923 INTER-LIGAND FREE ENERGY PREDICTED BY IDOCK:   -8.90 KCAL/MOL
REMARK 924 INTRA-LIGAND FREE ENERGY PREDICTED BY IDOCK:   -0.66 KCAL/MOL
REMARK 927      BINDING AFFINITY PREDICTED BY RF-SCORE:    0.00 PKD
ROOT
HETATM    1  C   UNL     1     -11.883  15.205  67.256  1.00  0.00    -0.072 C  
HETATM    2  C   UNL     1     -10.651  15.801  67.649  1.00  0.00    -0.301 C  
HETATM    3  C   UNL     1     -10.371  14.454  67.068  1.00  0.00    -0.263 C  
HETATM    4  C   UNL     1     -12.063  13.651  66.285  1.00  0.00    -0.434 C  
HETATM    5  O   UNL     1     -12.420  12.547  65.455  1.00  0.00    -0.630 OA 
HETATM    6  C   UNL     1     -11.332  14.552  65.555  1.00  0.00    -0.335 C  
HETATM    7  C   UNL     1     -10.238  13.056  65.382  1.00  0.00    -0.301 C  
HETATM    8  C   UNL     1     -11.696  15.330  64.339  1.00  0.00    -0.289 C  
HETATM    9  H   UNL     1     -13.212  12.172  65.088  1.00  0.00     0.000 HD 
HETATM   10  C   UNL     1     -10.448  11.918  66.781  1.00  0.00    -0.253 C  
HETATM   11  C   UNL     1     -11.090  12.412  68.323  1.00  0.00    -0.283 C  
HETATM   12  C   UNL     1     -11.498  11.335  69.336  1.00  0.00    -0.370 A  
HETATM   13  C   UNL     1     -11.047  10.007  69.216  1.00  0.00    -0.248 A  
HETATM   14  C   UNL     1     -11.220   9.084  70.258  1.00  0.00    -0.232 A  
HETATM   15  C   UNL     1     -11.854   9.487  71.434  1.00  0.00    -0.389 A  
HETATM   16  C   UNL     1     -12.296  10.796  71.579  1.00  0.00    -0.381 A  
HETATM   17  C   UNL     1     -12.044  14.242  69.937  1.00  0.00    -0.404 C  
HETATM   18  C   UNL     1     -12.111  11.734  70.553  1.00  0.00    -0.439 A  
HETATM   19  C   UNL     1     -12.130  13.797  68.484  1.00  0.00    -0.327 C  
HETATM   20  C   UNL     1     -12.596  13.139  70.836  1.00  0.00    -0.377 C  
ENDROOT
BRANCH  15  21
HETATM   21  O   UNL     1     -11.947   8.583  72.509  1.00  0.00    -0.389 OA 
BRANCH  21  22
HETATM   22  C   UNL     1     -12.242   7.261  72.184  1.00  0.00    -0.223 C  
HETATM   23  O   UNL     1     -13.244   6.878  71.587  1.00  0.00    -0.354 OA 
HETATM   24  N   UNL     1     -11.204   6.395  72.506  1.00  0.00    -0.264 N  
BRANCH  24  25
HETATM   25  C   UNL     1     -10.901   5.343  71.537  1.00  0.00    -0.148 C  
HETATM   26 CL   UNL     1      -9.760   4.370  69.281  1.00  0.00    -0.261 Cl 
HETATM   27  C   UNL     1     -10.069   5.772  70.338  1.00  0.00    -0.210 C  
ENDBRANCH  24  25
BRANCH  24  28
HETATM   28  C   UNL     1     -10.475   6.499  73.773  1.00  0.00    -0.315 C  
HETATM   29 CL   UNL     1      -8.632   8.348  72.942  1.00  0.00    -0.267 Cl 
HETATM   30  C   UNL     1      -8.976   6.764  73.669  1.00  0.00    -0.141 C  
ENDBRANCH  24  28
ENDBRANCH  21  22
ENDBRANCH  15  21
TORSDOF 4
ENDMDL
MODEL        2
REMARK 921   NORMALIZED FREE ENERGY PREDICTED BY IDOCK:   -7.13 KCAL/MOL
REMARK 922        TOTAL FREE ENERGY PREDICTED BY IDOCK:   -9.46 KCAL/MOL
REMARK 923 INTER-LIGAND FREE ENERGY PREDICTED BY IDOCK:   -8.88 KCAL/MOL
REMARK 924 INTRA-LIGAND FREE ENERGY PREDICTED BY IDOCK:   -0.58 KCAL/MOL
REMARK 927      BINDING AFFINITY PREDICTED BY RF-SCORE:    0.00 PKD
ROOT
HETATM    1  C   UNL     1     -11.863   7.511  72.303  1.00  0.00    -0.331 C  
HETATM    2  C   UNL     1     -12.943   6.908  71.598  1.00  0.00    -0.359 C  
HETATM    3  C   UNL     1     -11.849   7.215  70.630  1.00  0.00    -0.334 C  
HETATM    4  C   UNL     1     -10.196   7.870  71.610  1.00  0.00    -0.192 C  
HETATM    5  O   UNL     1      -8.824   8.125  71.311  1.00  0.00    -0.130 OA 
HETATM    6  C   UNL     1     -10.442   6.526  71.507  1.00  0.00    -0.245 C  
HETATM    7  C   UNL     1      -9.860   6.866  69.772  1.00  0.00    -0.177 C  
HETATM    8  C   UNL     1      -9.861   5.378  72.257  1.00  0.00    -0.199 C  
HETATM    9  H   UNL     1      -8.051   8.431  71.769  1.00  0.00     0.000 HD 
HETATM   10  C   UNL     1     -10.159   8.593  69.300  1.00  0.00    -0.203 C  
HETATM   11  C   UNL     1     -11.339   9.605  70.087  1.00  0.00    -0.275 C  
HETATM   12  C   UNL     1     -11.318  11.115  69.820  1.00  0.00    -0.354 A  
HETATM   13  C   UNL     1     -10.635  11.654  68.713  1.00  0.00    -0.241 A  
HETATM   14  C   UNL     1     -10.808  12.993  68.334  1.00  0.00    -0.280 A  
HETATM   15  C   UNL     1     -11.672  13.808  69.068  1.00  0.00    -0.331 A  
HETATM   16  C   UNL     1     -12.365  13.294  70.157  1.00  0.00    -0.306 A  
HETATM   17  C   UNL     1     -13.222   9.982  71.869  1.00  0.00    -0.557 C  
HETATM   18  C   UNL     1     -12.215  11.951  70.534  1.00  0.00    -0.426 A  
HETATM   19  C   UNL     1     -11.870   9.302  71.715  1.00  0.00    -0.454 C  
HETATM   20  C   UNL     1     -13.050  11.490  71.709  1.00  0.00    -0.503 C  
ENDROOT
BRANCH  15  21
HETATM   21  O   UNL     1     -11.909  15.125  68.633  1.00  0.00    -0.339 OA 
BRANCH  21  22
HETATM   22  C   UNL     1     -11.113  16.119  69.198  1.00  0.00    -0.329 C  
HETATM   23  O   UNL     1     -11.040  16.382  70.394  1.00  0.00    -0.356 OA 
HETATM   24  N   UNL     1     -10.290  16.731  68.261  1.00  0.00    -0.301 N  
BRANCH  24  25
HETATM   25  C   UNL     1      -8.920  17.022  68.679  1.00  0.00    -0.267 C  
HETATM   26 CL   UNL     1      -6.820  18.666  69.155  1.00  0.00    -0.299 Cl 
HETATM   27  C   UNL     1      -8.496  18.480  68.575  1.00  0.00    -0.329 C  
ENDBRANCH  24  25
BRANCH  24  28
HETATM   28  C   UNL     1     -10.780  17.110  66.932  1.00  0.00    -0.121 C  
HETATM   29 CL   UNL     1     -10.018  14.819  65.636  1.00  0.00    -0.372 Cl 
HETATM   30  C   UNL     1      -9.974  16.591  65.743  1.00  0.00    -0.274 C  
ENDBRANCH  24  28
ENDBRANCH  21  22
ENDBRANCH  15  21
TORSDOF 4
ENDMDL
MODEL        3
REMARK 921   NORMALIZED FREE ENERGY PREDICTED BY IDOCK:   -7.08 KCAL/MOL
REMARK 922        TOTAL FREE ENERGY PREDICTED BY IDOCK:   -9.40 KCAL/MOL
REMARK 923 INTER-LIGAND FREE ENERGY PREDICTED BY IDOCK:   -9.03 KCAL/MOL
REMARK 924 INTRA-LIGAND FREE ENERGY PREDICTED BY IDOCK:   -0.37 KCAL/MOL
REMARK 927      BINDING AFFINITY PREDICTED BY RF-SCORE:    0.00 PKD
ROOT
HETATM    1  C   UNL     1     -11.178   7.373  71.891  1.00  0.00    -0.282 C  
HETATM    2  C   UNL     1     -12.448   6.772  71.660  1.00  0.00    -0.398 C  
HETATM    3  C   UNL     1     -11.682   6.787  70.378  1.00  0.00    -0.418 C  
HETATM    4  C   UNL     1      -9.782   7.425  70.693  1.00  0.00    -0.175 C  
HETATM    5  O   UNL     1      -8.552   7.477  69.970  1.00  0.00    -0.136 OA 
HETATM    6  C   UNL     1     -10.112   6.118  70.937  1.00  0.00    -0.237 C  
HETATM    7  C   UNL     1     -10.063   6.082  69.076  1.00  0.00    -0.223 C  
HETATM    8  C   UNL     1      -9.389   5.066  71.702  1.00  0.00    -0.188 C  
HETATM    9  H   UNL     1      -7.663   7.775  70.117  1.00  0.00     0.000 HD 
HETATM   10  C   UNL     1     -10.406   7.721  68.373  1.00  0.00    -0.231 C  
HETATM   11  C   UNL     1     -11.244   8.975  69.245  1.00  0.00     0.151 C  
HETATM   12  C   UNL     1     -11.231  10.403  68.686  1.00  0.00    -0.305 A  
HETATM   13  C   UNL     1     -10.887  10.662  67.346  1.00  0.00    -0.353 A  
HETATM   14  C   UNL     1     -11.101  11.924  66.772  1.00  0.00    -0.359 A  
HETATM   15  C   UNL     1     -11.662  12.943  67.544  1.00  0.00    -0.367 A  
HETATM   16  C   UNL     1     -12.021  12.705  68.865  1.00  0.00    -0.284 A  
HETATM   17  C   UNL     1     -12.483   9.859  71.378  1.00  0.00    -0.495 C  
HETATM   18  C   UNL     1     -11.830  11.442  69.445  1.00  0.00    -0.419 A  
HETATM   19  C   UNL     1     -11.274   9.022  70.984  1.00  0.00    -0.361 C  
HETATM   20  C   UNL     1     -12.294  11.287  70.877  1.00  0.00    -0.490 C  
ENDROOT
BRANCH  15  21
HETATM   21  O   UNL     1     -11.955  14.180  66.940  1.00  0.00    -0.413 OA 
BRANCH  21  22
HETATM   22  C   UNL     1     -10.869  14.911  66.464  1.00  0.00    -0.322 C  
HETATM   23  O   UNL     1     -10.189  14.626  65.484  1.00  0.00    -0.324 OA 
HETATM   24  N   UNL     1     -10.691  16.102  67.158  1.00  0.00    -0.295 N  
BRANCH  24  25
HETATM   25  C   UNL     1     -10.344  17.280  66.365  1.00  0.00    -0.316 C  
HETATM   26 CL   UNL     1     -10.002  19.940  65.983  1.00  0.00    -0.558 Cl 
HETATM   27  C   UNL     1     -10.499  18.618  67.072  1.00  0.00    -0.407 C  
ENDBRANCH  24  25
BRANCH  24  28
HETATM   28  C   UNL     1     -10.801  16.170  68.618  1.00  0.00    -0.311 C  
HETATM   29 CL   UNL     1      -8.120  16.387  69.140  1.00  0.00    -0.231 Cl 
HETATM   30  C   UNL     1      -9.658  15.542  69.410  1.00  0.00    -0.279 C  
ENDBRANCH  24  28
ENDBRANCH  21  22
ENDBRANCH  15  21
TORSDOF 4
ENDMDL
MODEL        4
REMARK 921   NORMALIZED FREE ENERGY PREDICTED BY IDOCK:   -6.99 KCAL/MOL
REMARK 922        TOTAL FREE ENERGY PREDICTED BY IDOCK:   -9.28 KCAL/MOL
REMARK 923 INTER-LIGAND FREE ENERGY PREDICTED BY IDOCK:   -8.53 KCAL/MOL
REMARK 924 INTRA-LIGAND FREE ENERGY PREDICTED BY IDOCK:   -0.75 KCAL/MOL
REMARK 927      BINDING AFFINITY PREDICTED BY RF-SCORE:    0.00 PKD
ROOT
HETATM    1  C   UNL     1     -10.724   6.910  73.507  1.00  0.00    -0.342 C  
HETATM    2  C   UNL     1     -11.259   5.811  72.777  1.00  0.00    -0.336 C  
HETATM    3  C   UNL     1     -10.081   6.353  72.037  1.00  0.00    -0.197 C  
HETATM    4  C   UNL     1      -9.142   7.775  73.139  1.00  0.00    -0.222 C  
HETATM    5  O   UNL     1      -7.912   8.499  73.100  1.00  0.00    -0.354 OA 
HETATM    6  C   UNL     1      -8.882   6.449  73.370  1.00  0.00    -0.130 C  
HETATM    7  C   UNL     1      -7.925   6.680  71.789  1.00  0.00    -0.103 C  
HETATM    8  C   UNL     1      -8.224   5.782  74.526  1.00  0.00    -0.109 C  
HETATM    9  H   UNL     1      -7.473   9.164  73.616  1.00  0.00     0.000 HD 
HETATM   10  C   UNL     1      -8.614   8.031  70.791  1.00  0.00    -0.129 C  
HETATM   11  C   UNL     1     -10.247   8.609  70.967  1.00  0.00    -0.278 C  
HETATM   12  C   UNL     1     -10.644   9.928  70.293  1.00  0.00    -0.359 A  
HETATM   13  C   UNL     1      -9.864  10.490  69.264  1.00  0.00    -0.225 A  
HETATM   14  C   UNL     1     -10.341  11.558  68.491  1.00  0.00    -0.224 A  
HETATM   15  C   UNL     1     -11.612  12.077  68.747  1.00  0.00    -0.311 A  
HETATM   16  C   UNL     1     -12.403  11.530  69.749  1.00  0.00    -0.220 A  
HETATM   17  C   UNL     1     -12.612   8.514  72.091  1.00  0.00    -0.431 C  
HETATM   18  C   UNL     1     -11.946  10.450  70.517  1.00  0.00    -0.427 A  
HETATM   19  C   UNL     1     -11.136   8.414  72.449  1.00  0.00    -0.431 C  
HETATM   20  C   UNL     1     -12.908   9.910  71.552  1.00  0.00    -0.522 C  
ENDROOT
BRANCH  15  21
HETATM   21  O   UNL     1     -12.121  13.089  67.913  1.00  0.00    -0.321 OA 
BRANCH  21  22
HETATM   22  C   UNL     1     -11.393  14.276  67.861  1.00  0.00    -0.297 C  
HETATM   23  O   UNL     1     -11.128  14.995  68.821  1.00  0.00    -0.239 OA 
HETATM   24  N   UNL     1     -10.874  14.522  66.596  1.00  0.00    -0.305 N  
BRANCH  24  25
HETATM   25  C   UNL     1      -9.510  15.045  66.535  1.00  0.00    -0.282 C  
HETATM   26 CL   UNL     1      -7.666  16.985  66.115  1.00  0.00    -0.342 Cl 
HETATM   27  C   UNL     1      -9.382  16.498  66.102  1.00  0.00    -0.304 C  
ENDBRANCH  24  25
BRANCH  24  28
HETATM   28  C   UNL     1     -11.667  14.312  65.381  1.00  0.00    -0.354 C  
HETATM   29 CL   UNL     1     -10.956  11.698  64.972  1.00  0.00    -0.350 Cl 
HETATM   30  C   UNL     1     -11.076  13.356  64.348  1.00  0.00    -0.388 C  
ENDBRANCH  24  28
ENDBRANCH  21  22
ENDBRANCH  15  21
TORSDOF 4
ENDMDL
MODEL        5
REMARK 921   NORMALIZED FREE ENERGY PREDICTED BY IDOCK:   -6.96 KCAL/MOL
REMARK 922        TOTAL FREE ENERGY PREDICTED BY IDOCK:   -9.25 KCAL/MOL
REMARK 923 INTER-LIGAND FREE ENERGY PREDICTED BY IDOCK:   -8.93 KCAL/MOL
REMARK 924 INTRA-LIGAND FREE ENERGY PREDICTED BY IDOCK:   -0.32 KCAL/MOL
REMARK 927      BINDING AFFINITY PREDICTED BY RF-SCORE:    0.00 PKD
ROOT
HETATM    1  C   UNL     1      -9.373   6.386  67.609  1.00  0.00    -0.117 C  
HETATM    2  C   UNL     1      -7.995   6.632  67.870  1.00  0.00    -0.113 C  
HETATM    3  C   UNL     1      -8.807   7.217  68.978  1.00  0.00    -0.131 C  
HETATM    4  C   UNL     1     -10.760   6.703  68.777  1.00  0.00    -0.258 C  
HETATM    5  O   UNL     1     -11.953   6.763  69.558  1.00  0.00    -0.634 OA 
HETATM    6  C   UNL     1      -9.879   5.828  69.357  1.00  0.00    -0.219 C  
HETATM    7  C   UNL     1     -10.078   7.039  70.757  1.00  0.00    -0.205 C  
HETATM    8  C   UNL     1     -10.008   4.371  69.633  1.00  0.00    -0.209 C  
HETATM    9  H   UNL     1     -12.867   6.523  69.464  1.00  0.00     0.000 HD 
HETATM   10  C   UNL     1     -10.538   8.686  70.147  1.00  0.00    -0.235 C  
HETATM   11  C   UNL     1     -10.243   9.213  68.513  1.00  0.00    -0.223 C  
HETATM   12  C   UNL     1     -10.919  10.496  68.014  1.00  0.00    -0.345 A  
HETATM   13  C   UNL     1     -11.462  11.435  68.912  1.00  0.00    -0.363 A  
HETATM   14  C   UNL     1     -11.864  12.707  68.478  1.00  0.00    -0.342 A  
HETATM   15  C   UNL     1     -11.726  13.048  67.131  1.00  0.00    -0.382 A  
HETATM   16  C   UNL     1     -11.181  12.141  66.230  1.00  0.00    -0.382 A  
HETATM   17  C   UNL     1      -9.314   8.805  66.097  1.00  0.00    -0.297 C  
HETATM   18  C   UNL     1     -10.758  10.873  66.655  1.00  0.00    -0.289 A  
HETATM   19  C   UNL     1     -10.078   8.085  67.200  1.00  0.00    -0.334 C  
HETATM   20  C   UNL     1     -10.144   9.984  65.596  1.00  0.00    -0.321 C  
ENDROOT
BRANCH  15  21
HETATM   21  O   UNL     1     -12.048  14.353  66.717  1.00  0.00    -0.424 OA 
BRANCH  21  22
HETATM   22  C   UNL     1     -10.995  15.133  66.244  1.00  0.00    -0.335 C  
HETATM   23  O   UNL     1     -10.428  14.990  65.164  1.00  0.00    -0.373 OA 
HETATM   24  N   UNL     1     -10.709  16.200  67.085  1.00  0.00    -0.295 N  
BRANCH  24  25
HETATM   25  C   UNL     1     -10.409  17.480  66.446  1.00  0.00    -0.334 C  
HETATM   26 CL   UNL     1     -10.130  20.175  66.411  1.00  0.00    -0.582 Cl 
HETATM   27  C   UNL     1     -10.568  18.710  67.328  1.00  0.00    -0.430 C  
ENDBRANCH  24  25
BRANCH  24  28
HETATM   28  C   UNL     1     -10.666  16.047  68.542  1.00  0.00    -0.287 C  
HETATM   29 CL   UNL     1      -7.980  16.496  68.842  1.00  0.00    -0.234 Cl 
HETATM   30  C   UNL     1      -9.386  15.448  69.120  1.00  0.00    -0.246 C  
ENDBRANCH  24  28
ENDBRANCH  21  22
ENDBRANCH  15  21
TORSDOF 4
ENDMDL
MODEL        6
REMARK 921   NORMALIZED FREE ENERGY PREDICTED BY IDOCK:   -6.91 KCAL/MOL
REMARK 922        TOTAL FREE ENERGY PREDICTED BY IDOCK:   -9.19 KCAL/MOL
REMARK 923 INTER-LIGAND FREE ENERGY PREDICTED BY IDOCK:   -8.99 KCAL/MOL
REMARK 924 INTRA-LIGAND FREE ENERGY PREDICTED BY IDOCK:   -0.20 KCAL/MOL
REMARK 927      BINDING AFFINITY PREDICTED BY RF-SCORE:    0.00 PKD
ROOT
HETATM    1  C   UNL     1      -9.464  18.637  65.978  1.00  0.00    -0.051 C  
HETATM    2  C   UNL     1     -10.716  19.261  65.712  1.00  0.00    -0.417 C  
HETATM    3  C   UNL     1     -10.622  18.973  67.174  1.00  0.00    -0.545 C  
HETATM    4  C   UNL     1      -8.770  18.290  67.646  1.00  0.00    -0.256 C  
HETATM    5  O   UNL     1      -8.007  18.038  68.826  1.00  0.00    -0.299 OA 
HETATM    6  C   UNL     1      -8.991  19.637  67.527  1.00  0.00    -0.383 C  
HETATM    7  C   UNL     1      -9.802  19.337  69.176  1.00  0.00    -0.398 C  
HETATM    8  C   UNL     1      -8.030  20.764  67.385  1.00  0.00    -0.264 C  
HETATM    9  H   UNL     1      -7.141  17.718  69.047  1.00  0.00     0.000 HD 
HETATM   10  C   UNL     1     -10.378  17.622  69.327  1.00  0.00    -0.105 C  
HETATM   11  C   UNL     1     -10.686  16.596  67.954  1.00  0.00    -0.344 C  
HETATM   12  C   UNL     1     -10.888  15.093  68.181  1.00  0.00    -0.266 A  
HETATM   13  C   UNL     1     -11.188  14.578  69.457  1.00  0.00    -0.300 A  
HETATM   14  C   UNL     1     -11.603  13.249  69.625  1.00  0.00    -0.329 A  
HETATM   15  C   UNL     1     -11.718  12.419  68.508  1.00  0.00    -0.326 A  
HETATM   16  C   UNL     1     -11.438  12.910  67.238  1.00  0.00    -0.388 A  
HETATM   17  C   UNL     1     -10.783  16.182  65.368  1.00  0.00    -0.374 C  
HETATM   18  C   UNL     1     -11.041  14.242  67.055  1.00  0.00    -0.317 A  
HETATM   19  C   UNL     1      -9.915  16.861  66.417  1.00  0.00    -0.321 C  
HETATM   20  C   UNL     1     -10.802  14.678  65.626  1.00  0.00    -0.335 C  
ENDROOT
BRANCH  15  21
HETATM   21  O   UNL     1     -12.218  11.114  68.670  1.00  0.00    -0.582 OA 
BRANCH  21  22
HETATM   22  C   UNL     1     -12.065  10.543  69.931  1.00  0.00    -0.245 C  
HETATM   23  O   UNL     1     -12.856  10.645  70.864  1.00  0.00    -0.363 OA 
HETATM   24  N   UNL     1     -10.949   9.719  70.005  1.00  0.00    -0.260 N  
BRANCH  24  25
HETATM   25  C   UNL     1     -11.105   8.463  70.737  1.00  0.00    -0.258 C  
HETATM   26 CL   UNL     1     -10.790   6.846  72.887  1.00  0.00    -0.293 Cl 
HETATM   27  C   UNL     1     -10.477   8.425  72.122  1.00  0.00    -0.326 C  
ENDBRANCH  24  25
BRANCH  24  28
HETATM   28  C   UNL     1      -9.662  10.104  69.418  1.00  0.00    -0.229 C  
HETATM   29 CL   UNL     1      -9.967   8.765  67.047  1.00  0.00    -0.279 Cl 
HETATM   30  C   UNL     1      -9.001   9.075  68.505  1.00  0.00    -0.133 C  
ENDBRANCH  24  28
ENDBRANCH  21  22
ENDBRANCH  15  21
TORSDOF 4
ENDMDL
MODEL        7
REMARK 921   NORMALIZED FREE ENERGY PREDICTED BY IDOCK:   -6.87 KCAL/MOL
REMARK 922        TOTAL FREE ENERGY PREDICTED BY IDOCK:   -9.13 KCAL/MOL
REMARK 923 INTER-LIGAND FREE ENERGY PREDICTED BY IDOCK:   -8.78 KCAL/MOL
REMARK 924 INTRA-LIGAND FREE ENERGY PREDICTED BY IDOCK:   -0.35 KCAL/MOL
REMARK 927      BINDING AFFINITY PREDICTED BY RF-SCORE:    0.00 PKD
ROOT
HETATM    1  C   UNL     1      -9.106  18.992  65.970  1.00  0.00    -0.062 C  
HETATM    2  C   UNL     1     -10.319  19.701  65.740  1.00  0.00    -0.506 C  
HETATM    3  C   UNL     1     -10.225  19.367  67.192  1.00  0.00    -0.521 C  
HETATM    4  C   UNL     1      -8.415  18.554  67.619  1.00  0.00    -0.263 C  
HETATM    5  O   UNL     1      -7.655  18.222  68.780  1.00  0.00    -0.298 OA 
HETATM    6  C   UNL     1      -8.551  19.916  67.539  1.00  0.00    -0.393 C  
HETATM    7  C   UNL     1      -9.358  19.622  69.191  1.00  0.00    -0.213 C  
HETATM    8  C   UNL     1      -7.521  20.983  67.413  1.00  0.00    -0.264 C  
HETATM    9  H   UNL     1      -6.808  17.842  68.980  1.00  0.00     0.000 HD 
HETATM   10  C   UNL     1     -10.041  17.944  69.304  1.00  0.00    -0.115 C  
HETATM   11  C   UNL     1     -10.431  16.978  67.908  1.00  0.00    -0.354 C  
HETATM   12  C   UNL     1     -10.725  15.485  68.098  1.00  0.00    -0.282 A  
HETATM   13  C   UNL     1     -11.042  14.955  69.363  1.00  0.00    -0.296 A  
HETATM   14  C   UNL     1     -11.539  13.650  69.501  1.00  0.00    -0.361 A  
HETATM   15  C   UNL     1     -11.720  12.861  68.364  1.00  0.00    -0.345 A  
HETATM   16  C   UNL     1     -11.426  13.368  67.104  1.00  0.00    -0.373 A  
HETATM   17  C   UNL     1     -10.587  16.643  65.314  1.00  0.00    -0.224 C  
HETATM   18  C   UNL     1     -10.947  14.677  66.951  1.00  0.00    -0.324 A  
HETATM   19  C   UNL     1      -9.664  17.236  66.369  1.00  0.00    -0.303 C  
HETATM   20  C   UNL     1     -10.699  15.137  65.531  1.00  0.00    -0.379 C  
ENDROOT
BRANCH  15  21
HETATM   21  O   UNL     1     -12.301  11.586  68.498  1.00  0.00    -0.459 OA 
BRANCH  21  22
HETATM   22  C   UNL     1     -11.431  10.534  68.777  1.00  0.00    -0.224 C  
HETATM   23  O   UNL     1     -10.573  10.096  68.017  1.00  0.00    -0.198 OA 
HETATM   24  N   UNL     1     -11.549  10.086  70.087  1.00  0.00    -0.262 N  
BRANCH  24  25
HETATM   25  C   UNL     1     -10.306   9.762  70.786  1.00  0.00    -0.228 C  
HETATM   26 CL   UNL     1      -8.725   8.204  72.339  1.00  0.00    -0.228 Cl 
HETATM   27  C   UNL     1     -10.319   8.467  71.584  1.00  0.00    -0.243 C  
ENDBRANCH  24  25
BRANCH  24  28
HETATM   28  C   UNL     1     -12.855   9.901  70.727  1.00  0.00    -0.216 C  
HETATM   29 CL   UNL     1     -13.024  12.394  71.852  1.00  0.00    -0.451 Cl 
HETATM   30  C   UNL     1     -13.065  10.630  72.052  1.00  0.00    -0.396 C  
ENDBRANCH  24  28
ENDBRANCH  21  22
ENDBRANCH  15  21
TORSDOF 4
ENDMDL
MODEL        8
REMARK 921   NORMALIZED FREE ENERGY PREDICTED BY IDOCK:   -6.86 KCAL/MOL
REMARK 922        TOTAL FREE ENERGY PREDICTED BY IDOCK:   -9.12 KCAL/MOL
REMARK 923 INTER-LIGAND FREE ENERGY PREDICTED BY IDOCK:   -8.66 KCAL/MOL
REMARK 924 INTRA-LIGAND FREE ENERGY PREDICTED BY IDOCK:   -0.46 KCAL/MOL
REMARK 927      BINDING AFFINITY PREDICTED BY RF-SCORE:    0.00 PKD
ROOT
HETATM    1  C   UNL     1     -11.875  15.197  67.134  1.00  0.00    -0.052 C  
HETATM    2  C   UNL     1     -10.606  15.762  67.445  1.00  0.00    -0.313 C  
HETATM    3  C   UNL     1     -10.397  14.420  66.825  1.00  0.00    -0.273 C  
HETATM    4  C   UNL     1     -12.157  13.664  66.156  1.00  0.00    -0.436 C  
HETATM    5  O   UNL     1     -12.598  12.581  65.337  1.00  0.00    -0.656 OA 
HETATM    6  C   UNL     1     -11.464  14.563  65.388  1.00  0.00    -0.348 C  
HETATM    7  C   UNL     1     -10.416  13.048  65.113  1.00  0.00    -0.335 C  
HETATM    8  C   UNL     1     -11.899  15.367  64.214  1.00  0.00    -0.207 C  
HETATM    9  H   UNL     1     -13.421  12.228  65.024  1.00  0.00     0.000 HD 
HETATM   10  C   UNL     1     -10.548  11.891  66.506  1.00  0.00    -0.278 C  
HETATM   11  C   UNL     1     -11.065  12.372  68.098  1.00  0.00    -0.288 C  
HETATM   12  C   UNL     1     -11.420  11.287  69.122  1.00  0.00    -0.364 A  
HETATM   13  C   UNL     1     -11.007   9.952  68.949  1.00  0.00    -0.214 A  
HETATM   14  C   UNL     1     -11.123   9.015  69.986  1.00  0.00    -0.197 A  
HETATM   15  C   UNL     1     -11.661   9.411  71.212  1.00  0.00    -0.364 A  
HETATM   16  C   UNL     1     -12.063  10.726  71.409  1.00  0.00    -0.297 A  
HETATM   17  C   UNL     1     -11.860  14.193  69.806  1.00  0.00    -0.381 C  
HETATM   18  C   UNL     1     -11.935  11.678  70.386  1.00  0.00    -0.448 A  
HETATM   19  C   UNL     1     -12.061  13.774  68.356  1.00  0.00    -0.324 C  
HETATM   20  C   UNL     1     -12.368  13.087  70.725  1.00  0.00    -0.394 C  
ENDROOT
BRANCH  15  21
HETATM   21  O   UNL     1     -11.694   8.492  72.276  1.00  0.00    -0.351 OA 
BRANCH  21  22
HETATM   22  C   UNL     1     -12.004   7.174  71.949  1.00  0.00    -0.307 C  
HETATM   23  O   UNL     1     -13.109   6.763  71.607  1.00  0.00    -0.328 OA 
HETATM   24  N   UNL     1     -10.881   6.356  71.930  1.00  0.00    -0.231 N  
BRANCH  24  25
HETATM   25  C   UNL     1     -10.795   5.380  70.846  1.00  0.00    -0.120 C  
HETATM   26 CL   UNL     1      -9.484   3.629  69.248  1.00  0.00    -0.252 Cl 
HETATM   27  C   UNL     1      -9.406   4.827  70.566  1.00  0.00    -0.154 C  
ENDBRANCH  24  25
BRANCH  24  28
HETATM   28  C   UNL     1      -9.850   6.435  72.969  1.00  0.00    -0.165 C  
HETATM   29 CL   UNL     1     -10.646   4.231  74.389  1.00  0.00    -0.291 Cl 
HETATM   30  C   UNL     1     -10.260   5.964  74.362  1.00  0.00    -0.291 C  
ENDBRANCH  24  28
ENDBRANCH  21  22
ENDBRANCH  15  21
TORSDOF 4
ENDMDL
MODEL        9
REMARK 921   NORMALIZED FREE ENERGY PREDICTED BY IDOCK:   -6.85 KCAL/MOL
REMARK 922        TOTAL FREE ENERGY PREDICTED BY IDOCK:   -9.12 KCAL/MOL
REMARK 923 INTER-LIGAND FREE ENERGY PREDICTED BY IDOCK:   -8.54 KCAL/MOL
REMARK 924 INTRA-LIGAND FREE ENERGY PREDICTED BY IDOCK:   -0.58 KCAL/MOL
REMARK 927      BINDING AFFINITY PREDICTED BY RF-SCORE:    0.00 PKD
ROOT
HETATM    1  C   UNL     1      -9.555   4.793  71.320  1.00  0.00    -0.232 C  
HETATM    2  C   UNL     1      -8.186   5.090  71.576  1.00  0.00    -0.114 C  
HETATM    3  C   UNL     1      -9.038   6.006  72.392  1.00  0.00    -0.136 C  
HETATM    4  C   UNL     1     -10.993   5.481  72.240  1.00  0.00    -0.239 C  
HETATM    5  O   UNL     1     -12.225   5.801  72.887  1.00  0.00    -0.536 OA 
HETATM    6  C   UNL     1     -10.175   4.822  73.120  1.00  0.00    -0.216 C  
HETATM    7  C   UNL     1     -10.411   6.415  74.054  1.00  0.00    -0.286 C  
HETATM    8  C   UNL     1     -10.366   3.528  73.831  1.00  0.00    -0.236 C  
HETATM    9  H   UNL     1     -13.139   5.556  72.816  1.00  0.00     0.000 HD 
HETATM   10  C   UNL     1     -10.783   7.792  72.929  1.00  0.00    -0.446 C  
HETATM   11  C   UNL     1     -10.381   7.773  71.235  1.00  0.00    -0.222 C  
HETATM   12  C   UNL     1     -10.986   8.842  70.316  1.00  0.00    -0.255 A  
HETATM   13  C   UNL     1     -11.547  10.023  70.838  1.00  0.00    -0.463 A  
HETATM   14  C   UNL     1     -11.883  11.099  70.002  1.00  0.00    -0.441 A  
HETATM   15  C   UNL     1     -11.660  10.995  68.628  1.00  0.00    -0.316 A  
HETATM   16  C   UNL     1     -11.096   9.844  68.094  1.00  0.00    -0.215 A  
HETATM   17  C   UNL     1      -9.334   6.611  69.132  1.00  0.00    -0.134 C  
HETATM   18  C   UNL     1     -10.738   8.769  68.921  1.00  0.00    -0.114 A  
HETATM   19  C   UNL     1     -10.180   6.286  70.355  1.00  0.00    -0.248 C  
HETATM   20  C   UNL     1     -10.096   7.583  68.236  1.00  0.00    -0.209 C  
ENDROOT
BRANCH  15  21
HETATM   21  O   UNL     1     -11.916  12.108  67.805  1.00  0.00    -0.506 OA 
BRANCH  21  22
HETATM   22  C   UNL     1     -10.867  12.536  66.995  1.00  0.00    -0.254 C  
HETATM   23  O   UNL     1      -9.773  12.927  67.389  1.00  0.00    -0.195 OA 
HETATM   24  N   UNL     1     -11.140  12.364  65.644  1.00  0.00    -0.295 N  
BRANCH  24  25
HETATM   25  C   UNL     1     -10.045  11.874  64.808  1.00  0.00    -0.262 C  
HETATM   26 CL   UNL     1      -8.933  11.109  62.459  1.00  0.00    -0.365 Cl 
HETATM   27  C   UNL     1     -10.379  11.671  63.338  1.00  0.00    -0.435 C  
ENDBRANCH  24  25
BRANCH  24  28
HETATM   28  C   UNL     1     -12.447  12.698  65.070  1.00  0.00    -0.487 C  
HETATM   29 CL   UNL     1     -11.834  15.262  64.325  1.00  0.00    -0.334 Cl 
HETATM   30  C   UNL     1     -12.895  14.150  65.214  1.00  0.00    -0.344 C  
ENDBRANCH  24  28
ENDBRANCH  21  22
ENDBRANCH  15  21
TORSDOF 4
ENDMDL
MODEL       10
REMARK 921   NORMALIZED FREE ENERGY PREDICTED BY IDOCK:   -6.85 KCAL/MOL
REMARK 922        TOTAL FREE ENERGY PREDICTED BY IDOCK:   -9.11 KCAL/MOL
REMARK 923 INTER-LIGAND FREE ENERGY PREDICTED BY IDOCK:   -8.99 KCAL/MOL
REMARK 924 INTRA-LIGAND FREE ENERGY PREDICTED BY IDOCK:   -0.12 KCAL/MOL
REMARK 927      BINDING AFFINITY PREDICTED BY RF-SCORE:    0.00 PKD
ROOT
HETATM    1  C   UNL     1     -11.358  16.195  68.285  1.00  0.00    -0.316 C  
HETATM    2  C   UNL     1     -10.152  16.580  68.938  1.00  0.00    -0.266 C  
HETATM    3  C   UNL     1      -9.911  15.310  68.190  1.00  0.00    -0.221 C  
HETATM    4  C   UNL     1     -11.528  14.832  67.060  1.00  0.00    -0.353 C  
HETATM    5  O   UNL     1     -11.853  13.911  66.020  1.00  0.00    -0.356 OA 
HETATM    6  C   UNL     1     -10.612  15.740  66.594  1.00  0.00    -0.307 C  
HETATM    7  C   UNL     1      -9.648  14.168  66.335  1.00  0.00    -0.310 C  
HETATM    8  C   UNL     1     -10.709  16.724  65.482  1.00  0.00    -0.206 C  
HETATM    9  H   UNL     1     -12.610  13.687  65.491  1.00  0.00     0.000 HD 
HETATM   10  C   UNL     1     -10.178  12.869  67.488  1.00  0.00    -0.213 C  
HETATM   11  C   UNL     1     -11.004  13.203  68.985  1.00  0.00    -0.241 C  
HETATM   12  C   UNL     1     -11.662  12.044  69.744  1.00  0.00    -0.390 A  
HETATM   13  C   UNL     1     -11.324  10.705  69.474  1.00  0.00    -0.342 A  
HETATM   14  C   UNL     1     -11.742   9.665  70.317  1.00  0.00    -0.213 A  
HETATM   15  C   UNL     1     -12.510   9.963  71.444  1.00  0.00    -0.398 A  
HETATM   16  C   UNL     1     -12.845  11.279  71.737  1.00  0.00    -0.466 A  
HETATM   17  C   UNL     1     -12.023  14.875  70.726  1.00  0.00    -0.372 C  
HETATM   18  C   UNL     1     -12.417  12.329  70.912  1.00  0.00    -0.371 A  
HETATM   19  C   UNL     1     -11.922  14.661  69.223  1.00  0.00    -0.337 C  
HETATM   20  C   UNL     1     -12.807  13.724  71.349  1.00  0.00    -0.449 C  
ENDROOT
BRANCH  15  21
HETATM   21  O   UNL     1     -12.853   8.928  72.334  1.00  0.00    -0.392 OA 
BRANCH  21  22
HETATM   22  C   UNL     1     -13.005   7.658  71.781  1.00  0.00    -0.328 C  
HETATM   23  O   UNL     1     -13.996   7.253  71.182  1.00  0.00    -0.325 OA 
HETATM   24  N   UNL     1     -11.843   6.902  71.871  1.00  0.00    -0.301 N  
BRANCH  24  25
HETATM   25  C   UNL     1     -11.491   6.095  70.704  1.00  0.00    -0.261 C  
HETATM   26 CL   UNL     1     -10.581   5.741  68.177  1.00  0.00    -0.283 Cl 
HETATM   27  C   UNL     1     -11.000   6.871  69.491  1.00  0.00    -0.250 C  
ENDBRANCH  24  25
BRANCH  24  28
HETATM   28  C   UNL     1     -11.030   6.875  73.091  1.00  0.00    -0.263 C  
HETATM   29 CL   UNL     1      -9.136   8.674  72.263  1.00  0.00    -0.312 Cl 
HETATM   30  C   UNL     1      -9.527   7.064  72.904  1.00  0.00    -0.146 C  
ENDBRANCH  24  28
ENDBRANCH  21  22
ENDBRANCH  15  21
TORSDOF 4
ENDMDL
MODEL       11
REMARK 921   NORMALIZED FREE ENERGY PREDICTED BY IDOCK:   -6.83 KCAL/MOL
REMARK 922        TOTAL FREE ENERGY PREDICTED BY IDOCK:   -9.08 KCAL/MOL
REMARK 923 INTER-LIGAND FREE ENERGY PREDICTED BY IDOCK:   -8.52 KCAL/MOL
REMARK 924 INTRA-LIGAND FREE ENERGY PREDICTED BY IDOCK:   -0.56 KCAL/MOL
REMARK 927      BINDING AFFINITY PREDICTED BY RF-SCORE:    0.00 PKD
ROOT
HETATM    1  C   UNL     1     -10.593   5.482  70.514  1.00  0.00    -0.339 C  
HETATM    2  C   UNL     1      -9.190   5.372  70.729  1.00  0.00    -0.183 C  
HETATM    3  C   UNL     1      -9.694   6.583  71.443  1.00  0.00    -0.184 C  
HETATM    4  C   UNL     1     -11.720   6.667  71.360  1.00  0.00    -0.324 C  
HETATM    5  O   UNL     1     -12.771   7.411  71.973  1.00  0.00    -0.428 OA 
HETATM    6  C   UNL     1     -11.106   5.883  72.303  1.00  0.00    -0.330 C  
HETATM    7  C   UNL     1     -10.814   7.560  73.057  1.00  0.00    -0.445 C  
HETATM    8  C   UNL     1     -11.652   4.790  73.152  1.00  0.00    -0.288 C  
HETATM    9  H   UNL     1     -13.719   7.451  71.934  1.00  0.00     0.000 HD 
HETATM   10  C   UNL     1     -10.794   8.861  71.791  1.00  0.00    -0.436 C  
HETATM   11  C   UNL     1     -10.482   8.546  70.106  1.00  0.00    -0.226 C  
HETATM   12  C   UNL     1     -10.770   9.648  69.079  1.00  0.00    -0.232 A  
HETATM   13  C   UNL     1     -10.927  10.992  69.470  1.00  0.00    -0.297 A  
HETATM   14  C   UNL     1     -10.953  12.026  68.523  1.00  0.00    -0.280 A  
HETATM   15  C   UNL     1     -10.824  11.719  67.168  1.00  0.00    -0.258 A  
HETATM   16  C   UNL     1     -10.656  10.401  66.760  1.00  0.00    -0.270 A  
HETATM   17  C   UNL     1      -9.916   6.910  68.138  1.00  0.00    -0.170 C  
HETATM   18  C   UNL     1     -10.609   9.360  67.699  1.00  0.00    -0.333 A  
HETATM   19  C   UNL     1     -10.774   6.986  69.394  1.00  0.00    -0.259 C  
HETATM   20  C   UNL     1     -10.382   7.970  67.145  1.00  0.00    -0.395 C  
ENDROOT
BRANCH  15  21
HETATM   21  O   UNL     1     -10.763  12.765  66.229  1.00  0.00    -0.265 OA 
BRANCH  21  22
HETATM   22  C   UNL     1     -11.504  13.907  66.524  1.00  0.00    -0.348 C  
HETATM   23  O   UNL     1     -12.729  13.971  66.577  1.00  0.00    -0.310 OA 
HETATM   24  N   UNL     1     -10.698  14.982  66.880  1.00  0.00    -0.302 N  
BRANCH  24  25
HETATM   25  C   UNL     1     -11.160  15.810  67.993  1.00  0.00    -0.337 C  
HETATM   26 CL   UNL     1     -11.522  16.375  70.617  1.00  0.00    -0.298 Cl 
HETATM   27  C   UNL     1     -10.939  15.229  69.382  1.00  0.00    -0.271 C  
ENDBRANCH  24  25
BRANCH  24  28
HETATM   28  C   UNL     1      -9.467  15.300  66.152  1.00  0.00    -0.326 C  
HETATM   29 CL   UNL     1      -7.771  13.811  67.705  1.00  0.00    -0.151 Cl 
HETATM   30  C   UNL     1      -8.191  15.380  66.986  1.00  0.00    -0.236 C  
ENDBRANCH  24  28
ENDBRANCH  21  22
ENDBRANCH  15  21
TORSDOF 4
ENDMDL
MODEL       12
REMARK 921   NORMALIZED FREE ENERGY PREDICTED BY IDOCK:   -6.80 KCAL/MOL
REMARK 922        TOTAL FREE ENERGY PREDICTED BY IDOCK:   -9.05 KCAL/MOL
REMARK 923 INTER-LIGAND FREE ENERGY PREDICTED BY IDOCK:   -8.51 KCAL/MOL
REMARK 924 INTRA-LIGAND FREE ENERGY PREDICTED BY IDOCK:   -0.54 KCAL/MOL
REMARK 927      BINDING AFFINITY PREDICTED BY RF-SCORE:    0.00 PKD
ROOT
HETATM    1  C   UNL     1     -10.909  17.793  68.201  1.00  0.00    -0.193 C  
HETATM    2  C   UNL     1      -9.981  18.063  69.247  1.00  0.00    -0.095 C  
HETATM    3  C   UNL     1      -9.281  17.308  68.165  1.00  0.00    -0.267 C  
HETATM    4  C   UNL     1     -10.493  17.092  66.551  1.00  0.00    -0.255 C  
HETATM    5  O   UNL     1     -10.375  16.673  65.192  1.00  0.00    -0.630 OA 
HETATM    6  C   UNL     1      -9.794  18.258  66.730  1.00  0.00    -0.344 C  
HETATM    7  C   UNL     1      -8.409  17.152  66.158  1.00  0.00    -0.258 C  
HETATM    8  C   UNL     1      -9.966  19.593  66.096  1.00  0.00    -0.554 C  
HETATM    9  H   UNL     1     -10.942  16.572  64.437  1.00  0.00     0.000 HD 
HETATM   10  C   UNL     1      -8.752  15.411  66.540  1.00  0.00    -0.335 C  
HETATM   11  C   UNL     1      -9.877  14.909  67.772  1.00  0.00    -0.217 C  
HETATM   12  C   UNL     1     -10.313  13.440  67.825  1.00  0.00    -0.241 A  
HETATM   13  C   UNL     1      -9.583  12.434  67.164  1.00  0.00    -0.206 A  
HETATM   14  C   UNL     1      -9.838  11.076  67.402  1.00  0.00    -0.197 A  
HETATM   15  C   UNL     1     -10.836  10.713  68.308  1.00  0.00    -0.241 A  
HETATM   16  C   UNL     1     -11.561  11.689  68.980  1.00  0.00    -0.379 A  
HETATM   17  C   UNL     1     -11.590  15.450  69.679  1.00  0.00    -0.344 C  
HETATM   18  C   UNL     1     -11.303  13.051  68.765  1.00  0.00    -0.332 A  
HETATM   19  C   UNL     1     -11.184  15.932  68.294  1.00  0.00    -0.354 C  
HETATM   20  C   UNL     1     -12.125  14.024  69.581  1.00  0.00    -0.408 C  
ENDROOT
BRANCH  15  21
HETATM   21  O   UNL     1     -11.030   9.352  68.608  1.00  0.00    -0.150 OA 
BRANCH  21  22
HETATM   22  C   UNL     1     -10.073   8.755  69.427  1.00  0.00    -0.203 C  
HETATM   23  O   UNL     1      -8.908   8.528  69.117  1.00  0.00    -0.140 OA 
HETATM   24  N   UNL     1     -10.544   8.538  70.716  1.00  0.00    -0.201 N  
BRANCH  24  25
HETATM   25  C   UNL     1      -9.617   8.818  71.811  1.00  0.00    -0.301 C  
HETATM   26 CL   UNL     1      -8.136   8.141  73.976  1.00  0.00    -0.297 Cl 
HETATM   27  C   UNL     1      -9.303   7.642  72.724  1.00  0.00    -0.182 C  
ENDBRANCH  24  25
BRANCH  24  28
HETATM   28  C   UNL     1     -11.889   8.012  70.970  1.00  0.00    -0.263 C  
HETATM   29 CL   UNL     1     -13.043  10.390  71.691  1.00  0.00    -0.535 Cl 
HETATM   30  C   UNL     1     -12.682   8.695  72.080  1.00  0.00    -0.392 C  
ENDBRANCH  24  28
ENDBRANCH  21  22
ENDBRANCH  15  21
TORSDOF 4
ENDMDL
MODEL       13
REMARK 921   NORMALIZED FREE ENERGY PREDICTED BY IDOCK:   -6.78 KCAL/MOL
REMARK 922        TOTAL FREE ENERGY PREDICTED BY IDOCK:   -9.03 KCAL/MOL
REMARK 923 INTER-LIGAND FREE ENERGY PREDICTED BY IDOCK:   -8.45 KCAL/MOL
REMARK 924 INTRA-LIGAND FREE ENERGY PREDICTED BY IDOCK:   -0.58 KCAL/MOL
REMARK 927      BINDING AFFINITY PREDICTED BY RF-SCORE:    0.00 PKD
ROOT
HETATM    1  C   UNL     1      -6.540  17.786  67.580  1.00  0.00    -0.191 C  
HETATM    2  C   UNL     1      -6.043  17.592  66.260  1.00  0.00    -0.257 C  
HETATM    3  C   UNL     1      -7.492  17.945  66.183  1.00  0.00    -0.315 C  
HETATM    4  C   UNL     1      -8.199  18.453  68.016  1.00  0.00    -0.271 C  
HETATM    5  O   UNL     1      -9.373  19.048  68.567  1.00  0.00    -0.341 OA 
HETATM    6  C   UNL     1      -7.530  19.380  67.261  1.00  0.00    -0.254 C  
HETATM    7  C   UNL     1      -9.158  19.362  66.357  1.00  0.00    -0.397 C  
HETATM    8  C   UNL     1      -6.927  20.685  67.646  1.00  0.00    -0.376 C  
HETATM    9  H   UNL     1      -9.704  19.286  69.424  1.00  0.00     0.000 HD 
HETATM   10  C   UNL     1     -10.012  17.773  66.564  1.00  0.00    -0.346 C  
HETATM   11  C   UNL     1      -9.191  16.302  67.005  1.00  0.00    -0.230 C  
HETATM   12  C   UNL     1     -10.025  15.088  67.435  1.00  0.00    -0.226 A  
HETATM   13  C   UNL     1     -11.400  15.004  67.146  1.00  0.00    -0.323 A  
HETATM   14  C   UNL     1     -12.108  13.806  67.324  1.00  0.00    -0.393 A  
HETATM   15  C   UNL     1     -11.438  12.677  67.801  1.00  0.00    -0.322 A  
HETATM   16  C   UNL     1     -10.079  12.735  68.081  1.00  0.00    -0.239 A  
HETATM   17  C   UNL     1      -7.014  14.972  67.603  1.00  0.00    -0.205 C  
HETATM   18  C   UNL     1      -9.356  13.921  67.889  1.00  0.00    -0.208 A  
HETATM   19  C   UNL     1      -7.681  16.315  67.868  1.00  0.00    -0.151 C  
HETATM   20  C   UNL     1      -7.874  13.857  68.188  1.00  0.00    -0.147 C  
ENDROOT
BRANCH  15  21
HETATM   21  O   UNL     1     -12.132  11.457  67.895  1.00  0.00    -0.646 OA 
BRANCH  21  22
HETATM   22  C   UNL     1     -11.426  10.381  68.429  1.00  0.00    -0.155 C  
HETATM   23  O   UNL     1     -10.663   9.647  67.808  1.00  0.00    -0.258 OA 
HETATM   24  N   UNL     1     -11.578  10.282  69.807  1.00  0.00    -0.244 N  
BRANCH  24  25
HETATM   25  C   UNL     1     -10.383   9.948  70.579  1.00  0.00    -0.232 C  
HETATM   26 CL   UNL     1      -8.961   8.452  72.333  1.00  0.00    -0.296 Cl 
HETATM   27  C   UNL     1     -10.509   8.742  71.498  1.00  0.00    -0.303 C  
ENDBRANCH  24  25
BRANCH  24  28
HETATM   28  C   UNL     1     -12.881  10.459  70.455  1.00  0.00    -0.254 C  
HETATM   29 CL   UNL     1     -12.580  13.110  71.082  1.00  0.00    -0.446 Cl 
HETATM   30  C   UNL     1     -12.928  11.451  71.614  1.00  0.00    -0.418 C  
ENDBRANCH  24  28
ENDBRANCH  21  22
ENDBRANCH  15  21
TORSDOF 4
ENDMDL
MODEL       14
REMARK 921   NORMALIZED FREE ENERGY PREDICTED BY IDOCK:   -6.76 KCAL/MOL
REMARK 922        TOTAL FREE ENERGY PREDICTED BY IDOCK:   -9.00 KCAL/MOL
REMARK 923 INTER-LIGAND FREE ENERGY PREDICTED BY IDOCK:   -8.18 KCAL/MOL
REMARK 924 INTRA-LIGAND FREE ENERGY PREDICTED BY IDOCK:   -0.82 KCAL/MOL
REMARK 927      BINDING AFFINITY PREDICTED BY RF-SCORE:    0.00 PKD
ROOT
HETATM    1  C   UNL     1      -9.823   5.349  70.658  1.00  0.00    -0.254 C  
HETATM    2  C   UNL     1      -8.451   5.601  70.945  1.00  0.00    -0.125 C  
HETATM    3  C   UNL     1      -9.294   6.401  71.883  1.00  0.00    -0.154 C  
HETATM    4  C   UNL     1     -11.252   5.912  71.672  1.00  0.00    -0.237 C  
HETATM    5  O   UNL     1     -12.479   6.146  72.363  1.00  0.00    -0.542 OA 
HETATM    6  C   UNL     1     -10.433   5.134  72.448  1.00  0.00    -0.272 C  
HETATM    7  C   UNL     1     -10.656   6.586  73.593  1.00  0.00    -0.306 C  
HETATM    8  C   UNL     1     -10.628   3.756  72.976  1.00  0.00    -0.253 C  
HETATM    9  H   UNL     1     -13.395   5.918  72.264  1.00  0.00     0.000 HD 
HETATM   10  C   UNL     1     -11.025   8.105  72.671  1.00  0.00    -0.440 C  
HETATM   11  C   UNL     1     -10.632   8.316  70.987  1.00  0.00    -0.243 C  
HETATM   12  C   UNL     1     -11.235   9.505  70.227  1.00  0.00    -0.307 A  
HETATM   13  C   UNL     1     -11.786  10.606  70.909  1.00  0.00    -0.433 A  
HETATM   14  C   UNL     1     -12.119  11.788  70.231  1.00  0.00    -0.426 A  
HETATM   15  C   UNL     1     -11.904  11.873  68.854  1.00  0.00    -0.307 A  
HETATM   16  C   UNL     1     -11.349  10.803  68.164  1.00  0.00    -0.377 A  
HETATM   17  C   UNL     1      -9.602   7.449  68.739  1.00  0.00    -0.147 C  
HETATM   18  C   UNL     1     -10.994   9.623  68.834  1.00  0.00    -0.153 A  
HETATM   19  C   UNL     1     -10.444   6.963  69.910  1.00  0.00    -0.239 C  
HETATM   20  C   UNL     1     -10.362   8.539  67.989  1.00  0.00    -0.272 C  
ENDROOT
BRANCH  15  21
HETATM   21  O   UNL     1     -12.158  13.089  68.193  1.00  0.00    -0.307 OA 
BRANCH  21  22
HETATM   22  C   UNL     1     -11.099  13.992  68.125  1.00  0.00    -0.260 C  
HETATM   23  O   UNL     1     -10.663  14.655  69.062  1.00  0.00    -0.237 OA 
HETATM   24  N   UNL     1     -10.481  13.987  66.881  1.00  0.00    -0.274 N  
BRANCH  24  25
HETATM   25  C   UNL     1      -9.021  14.064  66.870  1.00  0.00    -0.227 C  
HETATM   26 CL   UNL     1      -6.532  13.108  67.350  1.00  0.00    -0.149 Cl 
HETATM   27  C   UNL     1      -8.295  12.872  67.476  1.00  0.00    -0.183 C  
ENDBRANCH  24  25
BRANCH  24  28
HETATM   28  C   UNL     1     -11.252  13.952  65.635  1.00  0.00    -0.306 C  
HETATM   29 CL   UNL     1     -10.485  11.444  64.843  1.00  0.00    -0.344 Cl 
HETATM   30  C   UNL     1     -10.629  13.176  64.477  1.00  0.00    -0.406 C  
ENDBRANCH  24  28
ENDBRANCH  21  22
ENDBRANCH  15  21
TORSDOF 4
ENDMDL
MODEL       15
REMARK 921   NORMALIZED FREE ENERGY PREDICTED BY IDOCK:   -6.76 KCAL/MOL
REMARK 922        TOTAL FREE ENERGY PREDICTED BY IDOCK:   -9.00 KCAL/MOL
REMARK 923 INTER-LIGAND FREE ENERGY PREDICTED BY IDOCK:   -8.37 KCAL/MOL
REMARK 924 INTRA-LIGAND FREE ENERGY PREDICTED BY IDOCK:   -0.63 KCAL/MOL
REMARK 927      BINDING AFFINITY PREDICTED BY RF-SCORE:    0.00 PKD
ROOT
HETATM    1  C   UNL     1     -10.660  12.898  64.358  1.00  0.00    -0.418 C  
HETATM    2  C   UNL     1     -11.877  12.439  63.780  1.00  0.00    -0.587 C  
HETATM    3  C   UNL     1     -12.148  12.894  65.176  1.00  0.00    -0.489 C  
HETATM    4  C   UNL     1     -10.498  13.767  65.973  1.00  0.00    -0.297 C  
HETATM    5  O   UNL     1     -10.167  14.545  67.123  1.00  0.00    -0.256 OA 
HETATM    6  C   UNL     1     -11.328  14.491  65.157  1.00  0.00    -0.366 C  
HETATM    7  C   UNL     1     -12.368  14.456  66.702  1.00  0.00    -0.245 C  
HETATM    8  C   UNL     1     -11.106  15.788  64.461  1.00  0.00    -0.293 C  
HETATM    9  H   UNL     1      -9.395  14.953  67.496  1.00  0.00     0.000 HD 
HETATM   10  C   UNL     1     -11.986  13.004  67.722  1.00  0.00    -0.344 C  
HETATM   11  C   UNL     1     -11.234  11.566  67.090  1.00  0.00    -0.365 C  
HETATM   12  C   UNL     1     -10.693  10.518  68.071  1.00  0.00    -0.287 A  
HETATM   13  C   UNL     1     -11.095  10.502  69.420  1.00  0.00    -0.310 A  
HETATM   14  C   UNL     1     -10.791   9.416  70.255  1.00  0.00    -0.303 A  
HETATM   15  C   UNL     1     -10.075   8.334  69.741  1.00  0.00    -0.197 A  
HETATM   16  C   UNL     1      -9.680   8.324  68.409  1.00  0.00    -0.170 A  
HETATM   17  C   UNL     1     -10.223  10.180  65.109  1.00  0.00    -0.233 C  
HETATM   18  C   UNL     1      -9.994   9.394  67.559  1.00  0.00    -0.250 A  
HETATM   19  C   UNL     1     -10.246  11.599  65.659  1.00  0.00    -0.284 C  
HETATM   20  C   UNL     1      -9.548   9.258  66.120  1.00  0.00    -0.327 C  
ENDROOT
BRANCH  15  21
HETATM   21  O   UNL     1      -9.849   7.210  70.557  1.00  0.00    -0.180 OA 
BRANCH  21  22
HETATM   22  C   UNL     1     -10.980   6.574  71.065  1.00  0.00    -0.265 C  
HETATM   23  O   UNL     1     -11.908   6.125  70.399  1.00  0.00    -0.242 OA 
HETATM   24  N   UNL     1     -10.905   6.384  72.439  1.00  0.00    -0.225 N  
BRANCH  24  25
HETATM   25  C   UNL     1     -11.382   5.101  72.953  1.00  0.00    -0.282 C  
HETATM   26 CL   UNL     1     -11.125   2.468  73.539  1.00  0.00    -0.304 Cl 
HETATM   27  C   UNL     1     -10.405   3.941  72.837  1.00  0.00    -0.168 C  
ENDBRANCH  24  25
BRANCH  24  28
HETATM   28  C   UNL     1     -10.413   7.431  73.340  1.00  0.00    -0.368 C  
HETATM   29 CL   UNL     1      -7.766   6.730  73.246  1.00  0.00    -0.090 Cl 
HETATM   30  C   UNL     1      -9.218   7.062  74.214  1.00  0.00    -0.225 C  
ENDBRANCH  24  28
ENDBRANCH  21  22
ENDBRANCH  15  21
TORSDOF 4
ENDMDL
MODEL       16
REMARK 921   NORMALIZED FREE ENERGY PREDICTED BY IDOCK:   -6.73 KCAL/MOL
REMARK 922        TOTAL FREE ENERGY PREDICTED BY IDOCK:   -8.96 KCAL/MOL
REMARK 923 INTER-LIGAND FREE ENERGY PREDICTED BY IDOCK:   -8.37 KCAL/MOL
REMARK 924 INTRA-LIGAND FREE ENERGY PREDICTED BY IDOCK:   -0.60 KCAL/MOL
REMARK 927      BINDING AFFINITY PREDICTED BY RF-SCORE:    0.00 PKD
ROOT
HETATM    1  C   UNL     1     -10.255  14.270  67.152  1.00  0.00    -0.254 C  
HETATM    2  C   UNL     1     -11.358  14.274  66.251  1.00  0.00    -0.347 C  
HETATM    3  C   UNL     1     -11.868  14.483  67.639  1.00  0.00    -0.395 C  
HETATM    4  C   UNL     1     -10.325  14.710  68.937  1.00  0.00    -0.245 C  
HETATM    5  O   UNL     1     -10.138  15.118  70.293  1.00  0.00    -0.501 OA 
HETATM    6  C   UNL     1     -10.758  15.779  68.197  1.00  0.00    -0.285 C  
HETATM    7  C   UNL     1     -12.134  15.694  69.449  1.00  0.00    -0.287 C  
HETATM    8  C   UNL     1     -10.107  17.089  67.921  1.00  0.00    -0.306 C  
HETATM    9  H   UNL     1      -9.416  15.224  70.900  1.00  0.00     0.000 HD 
HETATM   10  C   UNL     1     -12.327  14.013  70.107  1.00  0.00    -0.409 C  
HETATM   11  C   UNL     1     -11.753  12.593  69.276  1.00  0.00    -0.379 C  
HETATM   12  C   UNL     1     -11.701  11.261  70.033  1.00  0.00    -0.428 A  
HETATM   13  C   UNL     1     -12.421  11.068  71.228  1.00  0.00    -0.475 A  
HETATM   14  C   UNL     1     -12.565   9.792  71.792  1.00  0.00    -0.506 A  
HETATM   15  C   UNL     1     -11.983   8.692  71.159  1.00  0.00    -0.279 A  
HETATM   16  C   UNL     1     -11.279   8.858  69.973  1.00  0.00    -0.120 A  
HETATM   17  C   UNL     1     -10.589  11.437  67.234  1.00  0.00    -0.264 C  
HETATM   18  C   UNL     1     -11.144  10.126  69.389  1.00  0.00    -0.288 A  
HETATM   19  C   UNL     1     -10.455  12.666  68.121  1.00  0.00    -0.239 C  
HETATM   20  C   UNL     1     -10.391  10.181  68.077  1.00  0.00    -0.227 C  
ENDROOT
BRANCH  15  21
HETATM   21  O   UNL     1     -12.204   7.404  71.680  1.00  0.00    -0.299 OA 
BRANCH  21  22
HETATM   22  C   UNL     1     -11.256   6.929  72.584  1.00  0.00    -0.260 C  
HETATM   23  O   UNL     1     -10.900   7.498  73.611  1.00  0.00    -0.329 OA 
HETATM   24  N   UNL     1     -10.820   5.648  72.267  1.00  0.00    -0.232 N  
BRANCH  24  25
HETATM   25  C   UNL     1     -10.644   4.718  73.380  1.00  0.00    -0.232 C  
HETATM   26 CL   UNL     1     -10.440   2.250  74.478  1.00  0.00    -0.186 Cl 
HETATM   27  C   UNL     1     -10.709   3.241  73.021  1.00  0.00    -0.125 C  
ENDBRANCH  24  25
BRANCH  24  28
HETATM   28  C   UNL     1     -10.508   5.257  70.889  1.00  0.00    -0.215 C  
HETATM   29 CL   UNL     1      -7.795   5.046  71.214  1.00  0.00    -0.098 Cl 
HETATM   30  C   UNL     1      -9.171   5.746  70.336  1.00  0.00    -0.153 C  
ENDBRANCH  24  28
ENDBRANCH  21  22
ENDBRANCH  15  21
TORSDOF 4
ENDMDL
MODEL       17
REMARK 921   NORMALIZED FREE ENERGY PREDICTED BY IDOCK:   -6.70 KCAL/MOL
REMARK 922        TOTAL FREE ENERGY PREDICTED BY IDOCK:   -8.92 KCAL/MOL
REMARK 923 INTER-LIGAND FREE ENERGY PREDICTED BY IDOCK:   -8.72 KCAL/MOL
REMARK 924 INTRA-LIGAND FREE ENERGY PREDICTED BY IDOCK:   -0.20 KCAL/MOL
REMARK 927      BINDING AFFINITY PREDICTED BY RF-SCORE:    0.00 PKD
ROOT
HETATM    1  C   UNL     1     -10.004  13.877  66.064  1.00  0.00    -0.325 C  
HETATM    2  C   UNL     1     -11.160  13.943  65.236  1.00  0.00    -0.318 C  
HETATM    3  C   UNL     1     -11.458  14.620  66.533  1.00  0.00    -0.354 C  
HETATM    4  C   UNL     1      -9.780  14.754  67.667  1.00  0.00    -0.213 C  
HETATM    5  O   UNL     1      -9.359  15.424  68.854  1.00  0.00    -0.191 OA 
HETATM    6  C   UNL     1     -10.015  15.677  66.682  1.00  0.00    -0.269 C  
HETATM    7  C   UNL     1     -11.232  16.273  67.959  1.00  0.00    -0.260 C  
HETATM    8  C   UNL     1      -9.098  16.658  66.040  1.00  0.00    -0.259 C  
HETATM    9  H   UNL     1      -8.574  15.487  69.385  1.00  0.00     0.000 HD 
HETATM   10  C   UNL     1     -11.758  14.921  69.051  1.00  0.00    -0.347 C  
HETATM   11  C   UNL     1     -11.636  13.240  68.614  1.00  0.00    -0.362 C  
HETATM   12  C   UNL     1     -11.831  12.174  69.699  1.00  0.00    -0.391 A  
HETATM   13  C   UNL     1     -12.447  12.483  70.927  1.00  0.00    -0.361 A  
HETATM   14  C   UNL     1     -12.838  11.473  71.818  1.00  0.00    -0.441 A  
HETATM   15  C   UNL     1     -12.609  10.137  71.484  1.00  0.00    -0.434 A  
HETATM   16  C   UNL     1     -12.013   9.809  70.273  1.00  0.00    -0.156 A  
HETATM   17  C   UNL     1     -11.006  11.345  66.917  1.00  0.00    -0.355 C  
HETATM   18  C   UNL     1     -11.635  10.809  69.364  1.00  0.00    -0.380 A  
HETATM   19  C   UNL     1     -10.486  12.678  67.436  1.00  0.00    -0.233 C  
HETATM   20  C   UNL     1     -11.033  10.334  68.060  1.00  0.00    -0.345 C  
ENDROOT
BRANCH  15  21
HETATM   21  O   UNL     1     -13.081   9.124  72.340  1.00  0.00    -0.420 OA 
BRANCH  21  22
HETATM   22  C   UNL     1     -13.244   7.861  71.777  1.00  0.00    -0.329 C  
HETATM   23  O   UNL     1     -14.229   7.479  71.151  1.00  0.00    -0.348 OA 
HETATM   24  N   UNL     1     -12.100   7.081  71.890  1.00  0.00    -0.314 N  
BRANCH  24  25
HETATM   25  C   UNL     1     -11.736   6.273  70.727  1.00  0.00    -0.220 C  
HETATM   26 CL   UNL     1     -10.617   5.884  68.291  1.00  0.00    -0.290 Cl 
HETATM   27  C   UNL     1     -11.019   7.015  69.609  1.00  0.00    -0.236 C  
ENDBRANCH  24  25
BRANCH  24  28
HETATM   28  C   UNL     1     -11.318   7.031  73.128  1.00  0.00    -0.059 C  
HETATM   29 CL   UNL     1      -9.324   8.731  72.326  1.00  0.00    -0.318 Cl 
HETATM   30  C   UNL     1      -9.803   7.149  72.974  1.00  0.00    -0.195 C  
ENDBRANCH  24  28
ENDBRANCH  21  22
ENDBRANCH  15  21
TORSDOF 4
ENDMDL
MODEL       18
REMARK 921   NORMALIZED FREE ENERGY PREDICTED BY IDOCK:   -6.69 KCAL/MOL
REMARK 922        TOTAL FREE ENERGY PREDICTED BY IDOCK:   -8.92 KCAL/MOL
REMARK 923 INTER-LIGAND FREE ENERGY PREDICTED BY IDOCK:   -8.16 KCAL/MOL
REMARK 924 INTRA-LIGAND FREE ENERGY PREDICTED BY IDOCK:   -0.76 KCAL/MOL
REMARK 927      BINDING AFFINITY PREDICTED BY RF-SCORE:    0.00 PKD
ROOT
HETATM    1  C   UNL     1     -10.504  13.168  64.364  1.00  0.00    -0.427 C  
HETATM    2  C   UNL     1     -11.755  12.865  63.756  1.00  0.00    -0.557 C  
HETATM    3  C   UNL     1     -11.970  13.082  65.218  1.00  0.00    -0.446 C  
HETATM    4  C   UNL     1     -10.263  13.736  66.098  1.00  0.00    -0.301 C  
HETATM    5  O   UNL     1      -9.868  14.289  67.353  1.00  0.00    -0.230 OA 
HETATM    6  C   UNL     1     -11.079  14.624  65.447  1.00  0.00    -0.349 C  
HETATM    7  C   UNL     1     -12.080  14.363  66.995  1.00  0.00    -0.374 C  
HETATM    8  C   UNL     1     -10.817  16.012  64.977  1.00  0.00    -0.421 C  
HETATM    9  H   UNL     1      -9.069  14.596  67.765  1.00  0.00     0.000 HD 
HETATM   10  C   UNL     1     -11.739  12.742  67.738  1.00  0.00    -0.412 C  
HETATM   11  C   UNL     1     -11.069  11.406  66.843  1.00  0.00    -0.356 C  
HETATM   12  C   UNL     1     -10.551  10.184  67.611  1.00  0.00    -0.316 A  
HETATM   13  C   UNL     1     -10.918   9.949  68.950  1.00  0.00    -0.214 A  
HETATM   14  C   UNL     1     -10.643   8.725  69.575  1.00  0.00    -0.224 A  
HETATM   15  C   UNL     1      -9.990   7.720  68.859  1.00  0.00    -0.182 A  
HETATM   16  C   UNL     1      -9.629   7.925  67.533  1.00  0.00    -0.190 A  
HETATM   17  C   UNL     1     -10.171  10.346  64.621  1.00  0.00    -0.305 C  
HETATM   18  C   UNL     1      -9.916   9.139  66.891  1.00  0.00    -0.304 A  
HETATM   19  C   UNL     1     -10.116  11.648  65.408  1.00  0.00    -0.299 C  
HETATM   20  C   UNL     1      -9.513   9.236  65.436  1.00  0.00    -0.281 C  
ENDROOT
BRANCH  15  21
HETATM   21  O   UNL     1      -9.794   6.464  69.462  1.00  0.00    -0.151 OA 
BRANCH  21  22
HETATM   22  C   UNL     1      -8.677   6.336  70.284  1.00  0.00    -0.142 C  
HETATM   23  O   UNL     1      -7.529   6.649  69.983  1.00  0.00    -0.089 OA 
HETATM   24  N   UNL     1      -9.009   5.916  71.565  1.00  0.00    -0.143 N  
BRANCH  24  25
HETATM   25  C   UNL     1      -8.304   6.559  72.673  1.00  0.00    -0.117 C  
HETATM   26 CL   UNL     1      -7.900   8.542  74.474  1.00  0.00    -0.261 Cl 
HETATM   27  C   UNL     1      -8.843   7.917  73.096  1.00  0.00    -0.233 C  
ENDBRANCH  24  25
BRANCH  24  28
HETATM   28  C   UNL     1      -9.986   4.848  71.800  1.00  0.00    -0.190 C  
HETATM   29 CL   UNL     1     -12.186   6.464  72.048  1.00  0.00    -0.374 Cl 
HETATM   30  C   UNL     1     -11.150   5.191  72.726  1.00  0.00    -0.266 C  
ENDBRANCH  24  28
ENDBRANCH  21  22
ENDBRANCH  15  21
TORSDOF 4
ENDMDL
MODEL       19
REMARK 921   NORMALIZED FREE ENERGY PREDICTED BY IDOCK:   -6.69 KCAL/MOL
REMARK 922        TOTAL FREE ENERGY PREDICTED BY IDOCK:   -8.92 KCAL/MOL
REMARK 923 INTER-LIGAND FREE ENERGY PREDICTED BY IDOCK:   -8.65 KCAL/MOL
REMARK 924 INTRA-LIGAND FREE ENERGY PREDICTED BY IDOCK:   -0.26 KCAL/MOL
REMARK 927      BINDING AFFINITY PREDICTED BY RF-SCORE:    0.00 PKD
ROOT
HETATM    1  C   UNL     1     -11.578   7.300  72.171  1.00  0.00    -0.324 C  
HETATM    2  C   UNL     1     -12.868   6.868  71.751  1.00  0.00    -0.349 C  
HETATM    3  C   UNL     1     -11.887   6.584  70.662  1.00  0.00    -0.398 C  
HETATM    4  C   UNL     1      -9.996   6.972  71.290  1.00  0.00    -0.189 C  
HETATM    5  O   UNL     1      -8.664   6.735  70.835  1.00  0.00    -0.139 OA 
HETATM    6  C   UNL     1     -10.588   5.776  71.604  1.00  0.00    -0.302 C  
HETATM    7  C   UNL     1     -10.202   5.466  69.809  1.00  0.00    -0.348 C  
HETATM    8  C   UNL     1     -10.215   4.750  72.614  1.00  0.00    -0.242 C  
HETATM    9  H   UNL     1      -7.779   6.916  71.129  1.00  0.00     0.000 HD 
HETATM   10  C   UNL     1     -10.117   7.020  68.873  1.00  0.00    -0.174 C  
HETATM   11  C   UNL     1     -10.871   8.496  69.407  1.00  0.00    -0.103 C  
HETATM   12  C   UNL     1     -10.507   9.812  68.708  1.00  0.00    -0.240 A  
HETATM   13  C   UNL     1      -9.880   9.822  67.447  1.00  0.00    -0.219 A  
HETATM   14  C   UNL     1      -9.760  11.006  66.704  1.00  0.00    -0.226 A  
HETATM   15  C   UNL     1     -10.269  12.197  67.225  1.00  0.00    -0.202 A  
HETATM   16  C   UNL     1     -10.902  12.207  68.462  1.00  0.00    -0.267 A  
HETATM   17  C   UNL     1     -12.312   9.852  71.126  1.00  0.00    -0.466 C  
HETATM   18  C   UNL     1     -11.045  11.027  69.206  1.00  0.00    -0.312 A  
HETATM   19  C   UNL     1     -11.215   8.797  71.086  1.00  0.00    -0.339 C  
HETATM   20  C   UNL     1     -11.787  11.150  70.519  1.00  0.00    -0.448 C  
ENDROOT
BRANCH  15  21
HETATM   21  O   UNL     1     -10.225  13.364  66.440  1.00  0.00    -0.280 OA 
BRANCH  21  22
HETATM   22  C   UNL     1     -11.215  14.313  66.683  1.00  0.00    -0.334 C  
HETATM   23  O   UNL     1     -12.373  14.259  66.279  1.00  0.00    -0.443 OA 
HETATM   24  N   UNL     1     -10.789  15.307  67.556  1.00  0.00    -0.297 N  
BRANCH  24  25
HETATM   25  C   UNL     1     -11.748  15.751  68.566  1.00  0.00    -0.319 C  
HETATM   26 CL   UNL     1     -12.849  15.748  71.041  1.00  0.00    -0.500 Cl 
HETATM   27  C   UNL     1     -11.640  15.068  69.921  1.00  0.00    -0.293 C  
ENDBRANCH  24  25
BRANCH  24  28
HETATM   28  C   UNL     1      -9.461  15.917  67.444  1.00  0.00    -0.219 C  
HETATM   29 CL   UNL     1     -10.299  18.382  66.590  1.00  0.00    -0.401 Cl 
HETATM   30  C   UNL     1      -9.283  16.948  66.333  1.00  0.00    -0.279 C  
ENDBRANCH  24  28
ENDBRANCH  21  22
ENDBRANCH  15  21
TORSDOF 4
ENDMDL
MODEL       20
REMARK 921   NORMALIZED FREE ENERGY PREDICTED BY IDOCK:   -6.65 KCAL/MOL
REMARK 922        TOTAL FREE ENERGY PREDICTED BY IDOCK:   -8.86 KCAL/MOL
REMARK 923 INTER-LIGAND FREE ENERGY PREDICTED BY IDOCK:   -8.49 KCAL/MOL
REMARK 924 INTRA-LIGAND FREE ENERGY PREDICTED BY IDOCK:   -0.37 KCAL/MOL
REMARK 927      BINDING AFFINITY PREDICTED BY RF-SCORE:    0.00 PKD
ROOT
HETATM    1  C   UNL     1     -12.071   7.776  72.325  1.00  0.00    -0.332 C  
HETATM    2  C   UNL     1     -13.295   7.302  71.773  1.00  0.00    -0.367 C  
HETATM    3  C   UNL     1     -12.165   6.821  70.923  1.00  0.00    -0.386 C  
HETATM    4  C   UNL     1     -10.385   7.276  71.784  1.00  0.00    -0.196 C  
HETATM    5  O   UNL     1      -9.009   6.943  71.602  1.00  0.00    -0.136 OA 
HETATM    6  C   UNL     1     -11.073   6.161  72.187  1.00  0.00    -0.321 C  
HETATM    7  C   UNL     1     -10.417   5.546  70.556  1.00  0.00    -0.347 C  
HETATM    8  C   UNL     1     -10.913   5.314  73.400  1.00  0.00    -0.372 C  
HETATM    9  H   UNL     1      -8.175   7.156  72.005  1.00  0.00     0.000 HD 
HETATM   10  C   UNL     1     -10.113   6.918  69.406  1.00  0.00    -0.176 C  
HETATM   11  C   UNL     1     -10.876   8.476  69.559  1.00  0.00    -0.134 C  
HETATM   12  C   UNL     1     -10.345   9.648  68.724  1.00  0.00    -0.233 A  
HETATM   13  C   UNL     1      -9.524   9.434  67.600  1.00  0.00    -0.154 A  
HETATM   14  C   UNL     1      -9.233  10.473  66.704  1.00  0.00    -0.177 A  
HETATM   15  C   UNL     1      -9.765  11.744  66.931  1.00  0.00    -0.198 A  
HETATM   16  C   UNL     1     -10.588  11.974  68.027  1.00  0.00    -0.233 A  
HETATM   17  C   UNL     1     -12.512  10.127  70.769  1.00  0.00    -0.417 C  
HETATM   18  C   UNL     1     -10.902  10.939  68.920  1.00  0.00    -0.262 A  
HETATM   19  C   UNL     1     -11.472   9.062  71.085  1.00  0.00    -0.376 C  
HETATM   20  C   UNL     1     -11.838  11.294  70.053  1.00  0.00    -0.448 C  
ENDROOT
BRANCH  15  21
HETATM   21  O   UNL     1      -9.543  12.761  65.984  1.00  0.00    -0.246 OA 
BRANCH  21  22
HETATM   22  C   UNL     1      -9.449  14.060  66.478  1.00  0.00    -0.279 C  
HETATM   23  O   UNL     1      -8.548  14.489  67.192  1.00  0.00    -0.201 OA 
HETATM   24  N   UNL     1     -10.443  14.889  65.974  1.00  0.00    -0.301 N  
BRANCH  24  25
HETATM   25  C   UNL     1     -10.043  16.245  65.603  1.00  0.00    -0.312 C  
HETATM   26 CL   UNL     1      -9.819  18.913  66.015  1.00  0.00    -0.317 Cl 
HETATM   27  C   UNL     1     -10.407  17.335  66.600  1.00  0.00    -0.305 C  
ENDBRANCH  24  25
BRANCH  24  28
HETATM   28  C   UNL     1     -11.836  14.446  65.861  1.00  0.00    -0.367 C  
HETATM   29 CL   UNL     1     -11.539  13.021  63.539  1.00  0.00    -0.511 Cl 
HETATM   30  C   UNL     1     -12.382  14.297  64.443  1.00  0.00    -0.391 C  
ENDBRANCH  24  28
ENDBRANCH  21  22
ENDBRANCH  15  21
TORSDOF 4
ENDMDL
MODEL       21
REMARK 921   NORMALIZED FREE ENERGY PREDICTED BY IDOCK:   -6.62 KCAL/MOL
REMARK 922        TOTAL FREE ENERGY PREDICTED BY IDOCK:   -8.82 KCAL/MOL
REMARK 923 INTER-LIGAND FREE ENERGY PREDICTED BY IDOCK:   -8.50 KCAL/MOL
REMARK 924 INTRA-LIGAND FREE ENERGY PREDICTED BY IDOCK:   -0.32 KCAL/MOL
REMARK 927      BINDING AFFINITY PREDICTED BY RF-SCORE:    0.00 PKD
ROOT
HETATM    1  C   UNL     1     -10.093   5.864  70.346  1.00  0.00    -0.259 C  
HETATM    2  C   UNL     1      -8.698   6.053  70.561  1.00  0.00    -0.138 C  
HETATM    3  C   UNL     1      -9.453   6.970  71.466  1.00  0.00    -0.155 C  
HETATM    4  C   UNL     1     -11.444   6.586  71.366  1.00  0.00    -0.309 C  
HETATM    5  O   UNL     1     -12.625   6.945  72.083  1.00  0.00    -0.503 OA 
HETATM    6  C   UNL     1     -10.639   5.820  72.169  1.00  0.00    -0.268 C  
HETATM    7  C   UNL     1     -10.730   7.363  73.206  1.00  0.00    -0.441 C  
HETATM    8  C   UNL     1     -10.891   4.499  72.808  1.00  0.00    -0.239 C  
HETATM    9  H   UNL     1     -13.556   6.765  72.036  1.00  0.00     0.000 HD 
HETATM   10  C   UNL     1     -11.049   8.829  72.184  1.00  0.00    -0.406 C  
HETATM   11  C   UNL     1     -10.716   8.891  70.476  1.00  0.00    -0.271 C  
HETATM   12  C   UNL     1     -11.281  10.054  69.651  1.00  0.00    -0.285 A  
HETATM   13  C   UNL     1     -11.739  11.234  70.266  1.00  0.00    -0.415 A  
HETATM   14  C   UNL     1     -12.032  12.380  69.512  1.00  0.00    -0.324 A  
HETATM   15  C   UNL     1     -11.870  12.350  68.126  1.00  0.00    -0.315 A  
HETATM   16  C   UNL     1     -11.407  11.199  67.499  1.00  0.00    -0.351 A  
HETATM   17  C   UNL     1      -9.832   7.798  68.264  1.00  0.00    -0.185 C  
HETATM   18  C   UNL     1     -11.092  10.053  68.244  1.00  0.00    -0.247 A  
HETATM   19  C   UNL     1     -10.651   7.453  69.500  1.00  0.00    -0.244 C  
HETATM   20  C   UNL     1     -10.559   8.873  67.462  1.00  0.00    -0.307 C  
ENDROOT
BRANCH  15  21
HETATM   21  O   UNL     1     -12.081  13.526  67.384  1.00  0.00    -0.369 OA 
BRANCH  21  22
HETATM   22  C   UNL     1     -11.186  14.570  67.607  1.00  0.00    -0.322 C  
HETATM   23  O   UNL     1     -11.316  15.456  68.446  1.00  0.00    -0.306 OA 
HETATM   24  N   UNL     1     -10.031  14.447  66.844  1.00  0.00    -0.256 N  
BRANCH  24  25
HETATM   25  C   UNL     1      -8.768  14.771  67.505  1.00  0.00    -0.186 C  
HETATM   26 CL   UNL     1      -6.345  15.972  67.665  1.00  0.00    -0.170 Cl 
HETATM   27  C   UNL     1      -7.812  15.643  66.705  1.00  0.00    -0.176 C  
ENDBRANCH  24  25
BRANCH  24  28
HETATM   28  C   UNL     1     -10.075  14.055  65.432  1.00  0.00    -0.319 C  
HETATM   29 CL   UNL     1     -11.353  16.296  64.509  1.00  0.00    -0.371 Cl 
HETATM   30  C   UNL     1     -11.292  14.526  64.640  1.00  0.00    -0.370 C  
ENDBRANCH  24  28
ENDBRANCH  21  22
ENDBRANCH  15  21
TORSDOF 4
ENDMDL
MODEL       22
REMARK 921   NORMALIZED FREE ENERGY PREDICTED BY IDOCK:   -6.60 KCAL/MOL
REMARK 922        TOTAL FREE ENERGY PREDICTED BY IDOCK:   -8.80 KCAL/MOL
REMARK 923 INTER-LIGAND FREE ENERGY PREDICTED BY IDOCK:   -7.97 KCAL/MOL
REMARK 924 INTRA-LIGAND FREE ENERGY PREDICTED BY IDOCK:   -0.83 KCAL/MOL
REMARK 927      BINDING AFFINITY PREDICTED BY RF-SCORE:    0.00 PKD
ROOT
HETATM    1  C   UNL     1     -11.564  14.100  66.924  1.00  0.00    -0.410 C  
HETATM    2  C   UNL     1     -10.256  14.627  67.115  1.00  0.00    -0.256 C  
HETATM    3  C   UNL     1     -10.197  13.558  66.074  1.00  0.00    -0.308 C  
HETATM    4  C   UNL     1     -12.066  12.925  65.599  1.00  0.00    -0.458 C  
HETATM    5  O   UNL     1     -12.684  12.118  64.597  1.00  0.00    -0.479 OA 
HETATM    6  C   UNL     1     -11.561  14.061  65.021  1.00  0.00    -0.351 C  
HETATM    7  C   UNL     1     -10.608  12.780  64.065  1.00  0.00    -0.446 C  
HETATM    8  C   UNL     1     -12.249  15.156  64.283  1.00  0.00    -0.257 C  
HETATM    9  H   UNL     1     -13.558  11.822  64.374  1.00  0.00     0.000 HD 
HETATM   10  C   UNL     1     -10.424  11.245  65.017  1.00  0.00    -0.359 C  
HETATM   11  C   UNL     1     -10.566  11.177  66.752  1.00  0.00    -0.311 C  
HETATM   12  C   UNL     1     -10.683   9.809  67.434  1.00  0.00    -0.314 A  
HETATM   13  C   UNL     1     -10.324   8.623  66.765  1.00  0.00    -0.336 A  
HETATM   14  C   UNL     1     -10.205   7.407  67.454  1.00  0.00    -0.315 A  
HETATM   15  C   UNL     1     -10.449   7.370  68.828  1.00  0.00    -0.199 A  
HETATM   16  C   UNL     1     -10.792   8.531  69.511  1.00  0.00    -0.134 A  
HETATM   17  C   UNL     1     -10.948  12.328  69.075  1.00  0.00    -0.250 C  
HETATM   18  C   UNL     1     -10.896   9.756  68.836  1.00  0.00    -0.220 A  
HETATM   19  C   UNL     1     -11.473  12.361  67.646  1.00  0.00    -0.399 C  
HETATM   20  C   UNL     1     -11.237  10.960  69.687  1.00  0.00    -0.348 C  
ENDROOT
BRANCH  15  21
HETATM   21  O   UNL     1     -10.243   6.168  69.530  1.00  0.00    -0.173 OA 
BRANCH  21  22
HETATM   22  C   UNL     1      -9.067   6.075  70.271  1.00  0.00    -0.151 C  
HETATM   23  O   UNL     1      -7.937   6.301  69.849  1.00  0.00    -0.110 OA 
HETATM   24  N   UNL     1      -9.309   5.808  71.613  1.00  0.00    -0.146 N  
BRANCH  24  25
HETATM   25  C   UNL     1      -8.490   6.529  72.585  1.00  0.00    -0.121 C  
HETATM   26 CL   UNL     1      -7.859   8.670  74.121  1.00  0.00    -0.121 Cl 
HETATM   27  C   UNL     1      -8.937   7.950  72.897  1.00  0.00    -0.213 C  
ENDBRANCH  24  25
BRANCH  24  28
HETATM   28  C   UNL     1     -10.303   4.818  72.037  1.00  0.00    -0.179 C  
HETATM   29 CL   UNL     1     -12.463   6.505  72.044  1.00  0.00    -0.337 Cl 
HETATM   30  C   UNL     1     -11.442   5.338  72.911  1.00  0.00    -0.270 C  
ENDBRANCH  24  28
ENDBRANCH  21  22
ENDBRANCH  15  21
TORSDOF 4
ENDMDL
MODEL       23
REMARK 921   NORMALIZED FREE ENERGY PREDICTED BY IDOCK:   -6.57 KCAL/MOL
REMARK 922        TOTAL FREE ENERGY PREDICTED BY IDOCK:   -8.76 KCAL/MOL
REMARK 923 INTER-LIGAND FREE ENERGY PREDICTED BY IDOCK:   -8.17 KCAL/MOL
REMARK 924 INTRA-LIGAND FREE ENERGY PREDICTED BY IDOCK:   -0.59 KCAL/MOL
REMARK 927      BINDING AFFINITY PREDICTED BY RF-SCORE:    0.00 PKD
ROOT
HETATM    1  C   UNL     1      -9.315   6.473  67.446  1.00  0.00    -0.125 C  
HETATM    2  C   UNL     1      -7.933   6.714  67.690  1.00  0.00    -0.115 C  
HETATM    3  C   UNL     1      -8.719   7.182  68.870  1.00  0.00    -0.128 C  
HETATM    4  C   UNL     1     -10.671   6.661  68.675  1.00  0.00    -0.254 C  
HETATM    5  O   UNL     1     -11.842   6.631  69.492  1.00  0.00    -0.658 OA 
HETATM    6  C   UNL     1      -9.764   5.749  69.148  1.00  0.00    -0.189 C  
HETATM    7  C   UNL     1      -9.937   6.822  70.659  1.00  0.00    -0.201 C  
HETATM    8  C   UNL     1      -9.867   4.271  69.291  1.00  0.00    -0.180 C  
HETATM    9  H   UNL     1     -12.755   6.387  69.401  1.00  0.00     0.000 HD 
HETATM   10  C   UNL     1     -10.434   8.512  70.217  1.00  0.00    -0.233 C  
HETATM   11  C   UNL     1     -10.192   9.191  68.632  1.00  0.00    -0.225 C  
HETATM   12  C   UNL     1     -10.897  10.505  68.272  1.00  0.00    -0.293 A  
HETATM   13  C   UNL     1     -11.426  11.350  69.268  1.00  0.00    -0.370 A  
HETATM   14  C   UNL     1     -11.855  12.650  68.965  1.00  0.00    -0.341 A  
HETATM   15  C   UNL     1     -11.760  13.116  67.652  1.00  0.00    -0.369 A  
HETATM   16  C   UNL     1     -11.230  12.304  66.657  1.00  0.00    -0.367 A  
HETATM   17  C   UNL     1      -9.328   9.022  66.164  1.00  0.00    -0.294 C  
HETATM   18  C   UNL     1     -10.780  11.008  66.950  1.00  0.00    -0.325 A  
HETATM   19  C   UNL     1     -10.051   8.192  67.215  1.00  0.00    -0.309 C  
HETATM   20  C   UNL     1     -10.186  10.230  65.797  1.00  0.00    -0.289 C  
ENDROOT
BRANCH  15  21
HETATM   21  O   UNL     1     -12.110  14.449  67.369  1.00  0.00    -0.397 OA 
BRANCH  21  22
HETATM   22  C   UNL     1     -11.458  15.432  68.111  1.00  0.00    -0.343 C  
HETATM   23  O   UNL     1     -11.875  15.939  69.148  1.00  0.00    -0.389 OA 
HETATM   24  N   UNL     1     -10.192  15.715  67.614  1.00  0.00    -0.256 N  
BRANCH  24  25
HETATM   25  C   UNL     1      -9.128  15.912  68.598  1.00  0.00    -0.206 C  
HETATM   26 CL   UNL     1      -6.780  16.948  69.465  1.00  0.00    -0.219 Cl 
HETATM   27  C   UNL     1      -7.964  16.779  68.142  1.00  0.00    -0.181 C  
ENDBRANCH  24  25
BRANCH  24  28
HETATM   28  C   UNL     1      -9.938  15.853  66.177  1.00  0.00    -0.314 C  
HETATM   29 CL   UNL     1     -10.356  18.557  66.028  1.00  0.00    -0.446 Cl 
HETATM   30  C   UNL     1     -10.747  16.924  65.450  1.00  0.00    -0.150 C  
ENDBRANCH  24  28
ENDBRANCH  21  22
ENDBRANCH  15  21
TORSDOF 4
ENDMDL
MODEL       24
REMARK 921   NORMALIZED FREE ENERGY PREDICTED BY IDOCK:   -6.56 KCAL/MOL
REMARK 922        TOTAL FREE ENERGY PREDICTED BY IDOCK:   -8.75 KCAL/MOL
REMARK 923 INTER-LIGAND FREE ENERGY PREDICTED BY IDOCK:   -7.95 KCAL/MOL
REMARK 924 INTRA-LIGAND FREE ENERGY PREDICTED BY IDOCK:   -0.80 KCAL/MOL
REMARK 927      BINDING AFFINITY PREDICTED BY RF-SCORE:    0.00 PKD
ROOT
HETATM    1  C   UNL     1     -10.941   7.984  72.932  1.00  0.00    -0.398 C  
HETATM    2  C   UNL     1     -11.630   6.841  72.435  1.00  0.00    -0.284 C  
HETATM    3  C   UNL     1     -10.350   6.995  71.683  1.00  0.00    -0.216 C  
HETATM    4  C   UNL     1      -9.221   8.473  72.497  1.00  0.00    -0.233 C  
HETATM    5  O   UNL     1      -7.885   8.962  72.388  1.00  0.00    -0.368 OA 
HETATM    6  C   UNL     1      -9.203   7.217  73.047  1.00  0.00    -0.190 C  
HETATM    7  C   UNL     1      -8.162   6.907  71.534  1.00  0.00    -0.110 C  
HETATM    8  C   UNL     1      -8.713   6.752  74.373  1.00  0.00    -0.195 C  
HETATM    9  H   UNL     1      -7.357   9.653  72.769  1.00  0.00     0.000 HD 
HETATM   10  C   UNL     1      -8.570   8.071  70.201  1.00  0.00    -0.130 C  
HETATM   11  C   UNL     1     -10.084   8.926  70.113  1.00  0.00    -0.212 C  
HETATM   12  C   UNL     1     -10.223  10.091  69.125  1.00  0.00    -0.224 A  
HETATM   13  C   UNL     1      -9.319  10.258  68.058  1.00  0.00    -0.145 A  
HETATM   14  C   UNL     1      -9.576  11.171  67.025  1.00  0.00    -0.201 A  
HETATM   15  C   UNL     1     -10.746  11.931  67.056  1.00  0.00    -0.240 A  
HETATM   16  C   UNL     1     -11.658  11.773  68.092  1.00  0.00    -0.391 A  
HETATM   17  C   UNL     1     -12.471   9.479  71.043  1.00  0.00    -0.347 C  
HETATM   18  C   UNL     1     -11.422  10.850  69.121  1.00  0.00    -0.373 A  
HETATM   19  C   UNL     1     -11.049   9.236  71.527  1.00  0.00    -0.443 C  
HETATM   20  C   UNL     1     -12.501  10.734  70.176  1.00  0.00    -0.357 C  
ENDROOT
BRANCH  15  21
HETATM   21  O   UNL     1     -11.042  12.781  65.974  1.00  0.00    -0.274 OA 
BRANCH  21  22
HETATM   22  C   UNL     1     -11.586  14.023  66.291  1.00  0.00    -0.369 C  
HETATM   23  O   UNL     1     -12.782  14.302  66.289  1.00  0.00    -0.360 OA 
HETATM   24  N   UNL     1     -10.626  14.921  66.741  1.00  0.00    -0.298 N  
BRANCH  24  25
HETATM   25  C   UNL     1     -10.997  15.770  67.871  1.00  0.00    -0.324 C  
HETATM   26 CL   UNL     1     -11.503  16.251  70.489  1.00  0.00    -0.350 Cl 
HETATM   27  C   UNL     1     -11.077  15.072  69.221  1.00  0.00    -0.272 C  
ENDBRANCH  24  25
BRANCH  24  28
HETATM   28  C   UNL     1      -9.319  15.046  66.090  1.00  0.00    -0.292 C  
HETATM   29 CL   UNL     1      -7.848  13.858  68.073  1.00  0.00    -0.138 Cl 
HETATM   30  C   UNL     1      -8.122  15.257  67.014  1.00  0.00    -0.218 C  
ENDBRANCH  24  28
ENDBRANCH  21  22
ENDBRANCH  15  21
TORSDOF 4
ENDMDL
MODEL       25
REMARK 921   NORMALIZED FREE ENERGY PREDICTED BY IDOCK:   -6.52 KCAL/MOL
REMARK 922        TOTAL FREE ENERGY PREDICTED BY IDOCK:   -8.71 KCAL/MOL
REMARK 923 INTER-LIGAND FREE ENERGY PREDICTED BY IDOCK:   -8.11 KCAL/MOL
REMARK 924 INTRA-LIGAND FREE ENERGY PREDICTED BY IDOCK:   -0.60 KCAL/MOL
REMARK 927      BINDING AFFINITY PREDICTED BY RF-SCORE:    0.00 PKD
ROOT
HETATM    1  C   UNL     1     -11.204  16.585  68.276  1.00  0.00    -0.265 C  
HETATM    2  C   UNL     1     -10.075  16.996  69.039  1.00  0.00    -0.290 C  
HETATM    3  C   UNL     1      -9.682  15.837  68.184  1.00  0.00    -0.211 C  
HETATM    4  C   UNL     1     -11.185  15.351  66.911  1.00  0.00    -0.214 C  
HETATM    5  O   UNL     1     -11.370  14.522  65.764  1.00  0.00    -0.328 OA 
HETATM    6  C   UNL     1     -10.329  16.375  66.598  1.00  0.00    -0.292 C  
HETATM    7  C   UNL     1      -9.216  14.925  66.244  1.00  0.00    -0.301 C  
HETATM    8  C   UNL     1     -10.451  17.461  65.588  1.00  0.00    -0.173 C  
HETATM    9  H   UNL     1     -12.073  14.294  65.168  1.00  0.00     0.000 HD 
HETATM   10  C   UNL     1      -9.693  13.471  67.223  1.00  0.00    -0.236 C  
HETATM   11  C   UNL     1     -10.625  13.575  68.690  1.00  0.00    -0.259 C  
HETATM   12  C   UNL     1     -11.220  12.292  69.284  1.00  0.00    -0.275 A  
HETATM   13  C   UNL     1     -10.750  11.021  68.902  1.00  0.00    -0.249 A  
HETATM   14  C   UNL     1     -11.120   9.867  69.607  1.00  0.00    -0.279 A  
HETATM   15  C   UNL     1     -11.973   9.978  70.707  1.00  0.00    -0.335 A  
HETATM   16  C   UNL     1     -12.438  11.224  71.109  1.00  0.00    -0.479 A  
HETATM   17  C   UNL     1     -11.883  14.963  70.523  1.00  0.00    -0.358 C  
HETATM   18  C   UNL     1     -12.060  12.388  70.424  1.00  0.00    -0.381 A  
HETATM   19  C   UNL     1     -11.681  14.919  69.015  1.00  0.00    -0.347 C  
HETATM   20  C   UNL     1     -12.596  13.691  70.974  1.00  0.00    -0.441 C  
ENDROOT
BRANCH  15  21
HETATM   21  O   UNL     1     -12.271   8.830  71.464  1.00  0.00    -0.301 OA 
BRANCH  21  22
HETATM   22  C   UNL     1     -11.186   8.139  71.998  1.00  0.00    -0.310 C  
HETATM   23  O   UNL     1     -10.226   8.647  72.569  1.00  0.00    -0.290 OA 
HETATM   24  N   UNL     1     -11.350   6.762  71.925  1.00  0.00    -0.258 N  
BRANCH  24  25
HETATM   25  C   UNL     1     -10.928   5.986  73.090  1.00  0.00    -0.239 C  
HETATM   26 CL   UNL     1     -10.300   3.692  74.387  1.00  0.00    -0.233 Cl 
HETATM   27  C   UNL     1     -10.864   4.479  72.890  1.00  0.00    -0.199 C  
ENDBRANCH  24  25
BRANCH  24  28
HETATM   28  C   UNL     1     -11.880   6.108  70.724  1.00  0.00     0.006 C  
HETATM   29 CL   UNL     1      -9.469   5.311  69.694  1.00  0.00    -0.179 Cl 
HETATM   30  C   UNL     1     -11.003   6.179  69.476  1.00  0.00    -0.393 C  
ENDBRANCH  24  28
ENDBRANCH  21  22
ENDBRANCH  15  21
TORSDOF 4
ENDMDL
MODEL       26
REMARK 921   NORMALIZED FREE ENERGY PREDICTED BY IDOCK:   -6.52 KCAL/MOL
REMARK 922        TOTAL FREE ENERGY PREDICTED BY IDOCK:   -8.70 KCAL/MOL
REMARK 923 INTER-LIGAND FREE ENERGY PREDICTED BY IDOCK:   -8.06 KCAL/MOL
REMARK 924 INTRA-LIGAND FREE ENERGY PREDICTED BY IDOCK:   -0.63 KCAL/MOL
REMARK 927      BINDING AFFINITY PREDICTED BY RF-SCORE:    0.00 PKD
ROOT
HETATM    1  C   UNL     1     -10.657  14.154  66.628  1.00  0.00    -0.278 C  
HETATM    2  C   UNL     1     -11.929  14.103  65.989  1.00  0.00    -0.427 C  
HETATM    3  C   UNL     1     -12.134  14.149  67.468  1.00  0.00    -0.363 C  
HETATM    4  C   UNL     1     -10.367  14.448  68.421  1.00  0.00    -0.244 C  
HETATM    5  O   UNL     1      -9.920  14.771  69.738  1.00  0.00    -0.430 OA 
HETATM    6  C   UNL     1     -11.051  15.515  67.899  1.00  0.00    -0.321 C  
HETATM    7  C   UNL     1     -12.099  15.184  69.402  1.00  0.00    -0.293 C  
HETATM    8  C   UNL     1     -10.601  16.906  67.619  1.00  0.00    -0.325 C  
HETATM    9  H   UNL     1      -9.094  14.911  70.184  1.00  0.00     0.000 HD 
HETATM   10  C   UNL     1     -11.984  13.447  69.919  1.00  0.00    -0.408 C  
HETATM   11  C   UNL     1     -11.483  12.166  68.849  1.00  0.00    -0.350 C  
HETATM   12  C   UNL     1     -11.141  10.795  69.444  1.00  0.00    -0.324 A  
HETATM   13  C   UNL     1     -11.555  10.434  70.740  1.00  0.00    -0.450 A  
HETATM   14  C   UNL     1     -11.452   9.111  71.194  1.00  0.00    -0.388 A  
HETATM   15  C   UNL     1     -10.927   8.133  70.347  1.00  0.00    -0.247 A  
HETATM   16  C   UNL     1     -10.524   8.465  69.059  1.00  0.00    -0.216 A  
HETATM   17  C   UNL     1     -10.703  11.303  66.501  1.00  0.00    -0.323 C  
HETATM   18  C   UNL     1     -10.640   9.780  68.587  1.00  0.00    -0.249 A  
HETATM   19  C   UNL     1     -10.487  12.470  67.456  1.00  0.00    -0.231 C  
HETATM   20  C   UNL     1     -10.207  10.017  67.156  1.00  0.00    -0.284 C  
ENDROOT
BRANCH  15  21
HETATM   21  O   UNL     1     -10.907   6.793  70.774  1.00  0.00    -0.232 OA 
BRANCH  21  22
HETATM   22  C   UNL     1      -9.704   6.327  71.301  1.00  0.00    -0.174 C  
HETATM   23  O   UNL     1      -8.688   6.084  70.657  1.00  0.00    -0.135 OA 
HETATM   24  N   UNL     1      -9.723   6.272  72.689  1.00  0.00    -0.159 N  
BRANCH  24  25
HETATM   25  C   UNL     1      -8.512   6.710  73.381  1.00  0.00    -0.118 C  
HETATM   26 CL   UNL     1      -6.902   8.564  74.526  1.00  0.00    -0.205 Cl 
HETATM   27  C   UNL     1      -8.411   8.205  73.647  1.00  0.00    -0.243 C  
ENDBRANCH  24  25
BRANCH  24  28
HETATM   28  C   UNL     1     -10.880   5.757  73.427  1.00  0.00    -0.260 C  
HETATM   29 CL   UNL     1      -9.831   3.294  74.011  1.00  0.00    -0.140 Cl 
HETATM   30  C   UNL     1     -11.145   4.259  73.306  1.00  0.00    -0.249 C  
ENDBRANCH  24  28
ENDBRANCH  21  22
ENDBRANCH  15  21
TORSDOF 4
ENDMDL
MODEL       27
REMARK 921   NORMALIZED FREE ENERGY PREDICTED BY IDOCK:   -6.51 KCAL/MOL
REMARK 922        TOTAL FREE ENERGY PREDICTED BY IDOCK:   -8.70 KCAL/MOL
REMARK 923 INTER-LIGAND FREE ENERGY PREDICTED BY IDOCK:   -8.08 KCAL/MOL
REMARK 924 INTRA-LIGAND FREE ENERGY PREDICTED BY IDOCK:   -0.62 KCAL/MOL
REMARK 927      BINDING AFFINITY PREDICTED BY RF-SCORE:    0.00 PKD
ROOT
HETATM    1  C   UNL     1      -6.797  18.107  67.256  1.00  0.00    -0.206 C  
HETATM    2  C   UNL     1      -6.585  17.936  65.859  1.00  0.00    -0.304 C  
HETATM    3  C   UNL     1      -8.029  18.237  66.093  1.00  0.00    -0.219 C  
HETATM    4  C   UNL     1      -8.349  18.710  68.041  1.00  0.00    -0.277 C  
HETATM    5  O   UNL     1      -9.400  19.261  68.834  1.00  0.00    -0.375 OA 
HETATM    6  C   UNL     1      -7.887  19.665  67.172  1.00  0.00    -0.300 C  
HETATM    7  C   UNL     1      -9.667  19.593  66.632  1.00  0.00    -0.494 C  
HETATM    8  C   UNL     1      -7.262  20.989  67.437  1.00  0.00    -0.354 C  
HETATM    9  H   UNL     1      -9.550  19.482  69.745  1.00  0.00     0.000 HD 
HETATM   10  C   UNL     1     -10.403  17.973  66.995  1.00  0.00    -0.377 C  
HETATM   11  C   UNL     1      -9.458  16.530  67.236  1.00  0.00    -0.237 C  
HETATM   12  C   UNL     1     -10.140  15.285  67.817  1.00  0.00    -0.230 A  
HETATM   13  C   UNL     1     -11.542  15.152  67.823  1.00  0.00    -0.303 A  
HETATM   14  C   UNL     1     -12.154  13.929  68.132  1.00  0.00    -0.317 A  
HETATM   15  C   UNL     1     -11.361  12.823  68.443  1.00  0.00    -0.295 A  
HETATM   16  C   UNL     1      -9.976  12.928  68.431  1.00  0.00    -0.211 A  
HETATM   17  C   UNL     1      -7.159  15.277  67.344  1.00  0.00    -0.223 C  
HETATM   18  C   UNL     1      -9.350  14.141  68.105  1.00  0.00    -0.206 A  
HETATM   19  C   UNL     1      -7.801  16.593  67.760  1.00  0.00    -0.175 C  
HETATM   20  C   UNL     1      -7.838  14.129  68.084  1.00  0.00    -0.142 C  
ENDROOT
BRANCH  15  21
HETATM   21  O   UNL     1     -11.976  11.578  68.667  1.00  0.00    -0.424 OA 
BRANCH  21  22
HETATM   22  C   UNL     1     -11.962  11.104  69.977  1.00  0.00    -0.367 C  
HETATM   23  O   UNL     1     -12.408  11.695  70.956  1.00  0.00    -0.360 OA 
HETATM   24  N   UNL     1     -11.485   9.802  70.062  1.00  0.00    -0.216 N  
BRANCH  24  25
HETATM   25  C   UNL     1     -12.184   8.903  70.978  1.00  0.00    -0.203 C  
HETATM   26 CL   UNL     1     -12.748   6.480  72.050  1.00  0.00    -0.275 Cl 
HETATM   27  C   UNL     1     -11.842   7.427  70.842  1.00  0.00    -0.290 C  
ENDBRANCH  24  25
BRANCH  24  28
HETATM   28  C   UNL     1     -10.310   9.358  69.305  1.00  0.00    -0.208 C  
HETATM   29 CL   UNL     1      -8.678   8.917  71.461  1.00  0.00    -0.269 Cl 
HETATM   30  C   UNL     1      -8.950   9.717  69.899  1.00  0.00    -0.221 C  
ENDBRANCH  24  28
ENDBRANCH  21  22
ENDBRANCH  15  21
TORSDOF 4
ENDMDL
MODEL       28
REMARK 921   NORMALIZED FREE ENERGY PREDICTED BY IDOCK:   -6.51 KCAL/MOL
REMARK 922        TOTAL FREE ENERGY PREDICTED BY IDOCK:   -8.69 KCAL/MOL
REMARK 923 INTER-LIGAND FREE ENERGY PREDICTED BY IDOCK:   -7.86 KCAL/MOL
REMARK 924 INTRA-LIGAND FREE ENERGY PREDICTED BY IDOCK:   -0.83 KCAL/MOL
REMARK 927      BINDING AFFINITY PREDICTED BY RF-SCORE:    0.00 PKD
ROOT
HETATM    1  C   UNL     1      -9.407   7.189  69.653  1.00  0.00    -0.149 C  
HETATM    2  C   UNL     1      -8.214   7.442  70.387  1.00  0.00    -0.121 C  
HETATM    3  C   UNL     1      -9.386   7.837  71.224  1.00  0.00    -0.171 C  
HETATM    4  C   UNL     1     -11.119   7.291  70.321  1.00  0.00    -0.266 C  
HETATM    5  O   UNL     1     -12.503   7.200  70.661  1.00  0.00    -0.585 OA 
HETATM    6  C   UNL     1     -10.410   6.372  71.050  1.00  0.00    -0.247 C  
HETATM    7  C   UNL     1     -11.149   7.365  72.441  1.00  0.00    -0.331 C  
HETATM    8  C   UNL     1     -10.506   4.888  71.086  1.00  0.00    -0.161 C  
HETATM    9  H   UNL     1     -13.314   6.944  70.238  1.00  0.00     0.000 HD 
HETATM   10  C   UNL     1     -11.513   9.066  71.919  1.00  0.00    -0.440 C  
HETATM   11  C   UNL     1     -10.745   9.829  70.555  1.00  0.00    -0.381 C  
HETATM   12  C   UNL     1     -11.319  11.146  70.020  1.00  0.00    -0.326 A  
HETATM   13  C   UNL     1     -12.198  11.930  70.793  1.00  0.00    -0.401 A  
HETATM   14  C   UNL     1     -12.535  13.236  70.409  1.00  0.00    -0.295 A  
HETATM   15  C   UNL     1     -11.993  13.769  69.238  1.00  0.00    -0.352 A  
HETATM   16  C   UNL     1     -11.115  13.018  68.467  1.00  0.00    -0.298 A  
HETATM   17  C   UNL     1      -9.050   9.799  68.556  1.00  0.00    -0.128 C  
HETATM   18  C   UNL     1     -10.754  11.718  68.850  1.00  0.00    -0.241 A  
HETATM   19  C   UNL     1     -10.072   8.905  69.244  1.00  0.00    -0.205 C  
HETATM   20  C   UNL     1      -9.761  11.009  67.956  1.00  0.00    -0.181 C  
ENDROOT
BRANCH  15  21
HETATM   21  O   UNL     1     -12.264  15.108  68.904  1.00  0.00    -0.223 OA 
BRANCH  21  22
HETATM   22  C   UNL     1     -11.378  16.064  69.396  1.00  0.00    -0.355 C  
HETATM   23  O   UNL     1     -11.322  16.455  70.558  1.00  0.00    -0.363 OA 
HETATM   24  N   UNL     1     -10.450  16.463  68.443  1.00  0.00    -0.281 N  
BRANCH  24  25
HETATM   25  C   UNL     1      -9.073  16.642  68.899  1.00  0.00    -0.238 C  
HETATM   26 CL   UNL     1      -6.658  15.754  69.747  1.00  0.00    -0.178 Cl 
HETATM   27  C   UNL     1      -8.324  15.364  69.247  1.00  0.00    -0.254 C  
ENDBRANCH  24  25
BRANCH  24  28
HETATM   28  C   UNL     1     -10.836  16.737  67.055  1.00  0.00    -0.066 C  
HETATM   29 CL   UNL     1      -9.478  14.647  65.917  1.00  0.00    -0.288 Cl 
HETATM   30  C   UNL     1      -9.801  16.392  65.987  1.00  0.00    -0.335 C  
ENDBRANCH  24  28
ENDBRANCH  21  22
ENDBRANCH  15  21
TORSDOF 4
ENDMDL
MODEL       29
REMARK 921   NORMALIZED FREE ENERGY PREDICTED BY IDOCK:   -6.50 KCAL/MOL
REMARK 922        TOTAL FREE ENERGY PREDICTED BY IDOCK:   -8.68 KCAL/MOL
REMARK 923 INTER-LIGAND FREE ENERGY PREDICTED BY IDOCK:   -8.16 KCAL/MOL
REMARK 924 INTRA-LIGAND FREE ENERGY PREDICTED BY IDOCK:   -0.52 KCAL/MOL
REMARK 927      BINDING AFFINITY PREDICTED BY RF-SCORE:    0.00 PKD
ROOT
HETATM    1  C   UNL     1     -10.794  12.866  64.144  1.00  0.00    -0.445 C  
HETATM    2  C   UNL     1     -12.032  12.276  63.760  1.00  0.00    -0.609 C  
HETATM    3  C   UNL     1     -12.136  12.735  65.177  1.00  0.00    -0.498 C  
HETATM    4  C   UNL     1     -10.481  13.784  65.707  1.00  0.00    -0.299 C  
HETATM    5  O   UNL     1     -10.062  14.618  66.787  1.00  0.00    -0.256 OA 
HETATM    6  C   UNL     1     -11.493  14.404  65.021  1.00  0.00    -0.372 C  
HETATM    7  C   UNL     1     -12.281  14.304  66.705  1.00  0.00    -0.411 C  
HETATM    8  C   UNL     1     -11.509  15.699  64.288  1.00  0.00    -0.199 C  
HETATM    9  H   UNL     1      -9.288  15.109  67.036  1.00  0.00     0.000 HD 
HETATM   10  C   UNL     1     -11.607  12.920  67.669  1.00  0.00    -0.406 C  
HETATM   11  C   UNL     1     -10.816  11.549  66.942  1.00  0.00    -0.331 C  
HETATM   12  C   UNL     1     -10.032  10.583  67.839  1.00  0.00    -0.193 A  
HETATM   13  C   UNL     1     -10.223  10.559  69.234  1.00  0.00    -0.245 A  
HETATM   14  C   UNL     1      -9.691   9.529  70.022  1.00  0.00    -0.271 A  
HETATM   15  C   UNL     1      -8.954   8.510  69.415  1.00  0.00    -0.149 A  
HETATM   16  C   UNL     1      -8.764   8.508  68.039  1.00  0.00    -0.142 A  
HETATM   17  C   UNL     1      -9.979  10.222  64.843  1.00  0.00    -0.393 C  
HETATM   18  C   UNL     1      -9.307   9.522  67.237  1.00  0.00    -0.161 A  
HETATM   19  C   UNL     1     -10.061  11.645  65.378  1.00  0.00    -0.299 C  
HETATM   20  C   UNL     1      -9.070   9.395  65.748  1.00  0.00    -0.249 C  
ENDROOT
BRANCH  15  21
HETATM   21  O   UNL     1      -8.497   7.434  70.197  1.00  0.00    -0.134 OA 
BRANCH  21  22
HETATM   22  C   UNL     1      -9.265   7.105  71.312  1.00  0.00    -0.151 C  
HETATM   23  O   UNL     1      -9.100   7.540  72.448  1.00  0.00    -0.128 OA 
HETATM   24  N   UNL     1     -10.350   6.300  70.986  1.00  0.00    -0.205 N  
BRANCH  24  25
HETATM   25  C   UNL     1     -11.616   6.601  71.651  1.00  0.00    -0.304 C  
HETATM   26 CL   UNL     1     -14.086   7.703  71.793  1.00  0.00    -0.495 Cl 
HETATM   27  C   UNL     1     -12.587   7.464  70.859  1.00  0.00    -0.148 C  
ENDBRANCH  24  25
BRANCH  24  28
HETATM   28  C   UNL     1     -10.225   5.175  70.054  1.00  0.00    -0.284 C  
HETATM   29 CL   UNL     1      -9.925   3.214  71.945  1.00  0.00    -0.235 Cl 
HETATM   30  C   UNL     1      -9.311   4.034  70.494  1.00  0.00    -0.150 C  
ENDBRANCH  24  28
ENDBRANCH  21  22
ENDBRANCH  15  21
TORSDOF 4
ENDMDL
MODEL       30
REMARK 921   NORMALIZED FREE ENERGY PREDICTED BY IDOCK:   -6.49 KCAL/MOL
REMARK 922        TOTAL FREE ENERGY PREDICTED BY IDOCK:   -8.67 KCAL/MOL
REMARK 923 INTER-LIGAND FREE ENERGY PREDICTED BY IDOCK:   -8.20 KCAL/MOL
REMARK 924 INTRA-LIGAND FREE ENERGY PREDICTED BY IDOCK:   -0.47 KCAL/MOL
REMARK 927      BINDING AFFINITY PREDICTED BY RF-SCORE:    0.00 PKD
ROOT
HETATM    1  C   UNL     1      -9.829   5.074  70.739  1.00  0.00    -0.279 C  
HETATM    2  C   UNL     1      -8.453   5.282  71.038  1.00  0.00    -0.122 C  
HETATM    3  C   UNL     1      -9.280   6.061  72.007  1.00  0.00    -0.151 C  
HETATM    4  C   UNL     1     -11.248   5.627  71.772  1.00  0.00    -0.158 C  
HETATM    5  O   UNL     1     -12.471   5.861  72.470  1.00  0.00    -0.515 OA 
HETATM    6  C   UNL     1     -10.450   4.799  72.517  1.00  0.00    -0.264 C  
HETATM    7  C   UNL     1     -10.642   6.207  73.721  1.00  0.00    -0.261 C  
HETATM    8  C   UNL     1     -10.678   3.406  72.988  1.00  0.00    -0.229 C  
HETATM    9  H   UNL     1     -13.392   5.658  72.360  1.00  0.00     0.000 HD 
HETATM   10  C   UNL     1     -10.973   7.771  72.861  1.00  0.00    -0.467 C  
HETATM   11  C   UNL     1     -10.571   8.043  71.188  1.00  0.00    -0.235 C  
HETATM   12  C   UNL     1     -11.144   9.275  70.477  1.00  0.00    -0.317 A  
HETATM   13  C   UNL     1     -11.672  10.360  71.202  1.00  0.00    -0.387 A  
HETATM   14  C   UNL     1     -11.976  11.576  70.573  1.00  0.00    -0.439 A  
HETATM   15  C   UNL     1     -11.754  11.713  69.201  1.00  0.00    -0.326 A  
HETATM   16  C   UNL     1     -11.223  10.659  68.468  1.00  0.00    -0.342 A  
HETATM   17  C   UNL     1      -9.555   7.245  68.908  1.00  0.00    -0.143 C  
HETATM   18  C   UNL     1     -10.896   9.444  69.090  1.00  0.00    -0.176 A  
HETATM   19  C   UNL     1     -10.411   6.731  70.057  1.00  0.00    -0.241 C  
HETATM   20  C   UNL     1     -10.287   8.382  68.202  1.00  0.00    -0.255 C  
ENDROOT
BRANCH  15  21
HETATM   21  O   UNL     1     -11.978  12.960  68.590  1.00  0.00    -0.313 OA 
BRANCH  21  22
HETATM   22  C   UNL     1     -11.072  13.973  68.897  1.00  0.00    -0.268 C  
HETATM   23  O   UNL     1      -9.849  13.875  68.855  1.00  0.00    -0.158 OA 
HETATM   24  N   UNL     1     -11.702  15.185  69.151  1.00  0.00    -0.311 N  
BRANCH  24  25
HETATM   25  C   UNL     1     -11.070  16.383  68.600  1.00  0.00    -0.352 C  
HETATM   26 CL   UNL     1     -10.028  17.880  66.597  1.00  0.00    -0.337 Cl 
HETATM   27  C   UNL     1     -10.756  16.336  67.112  1.00  0.00    -0.247 C  
ENDBRANCH  24  25
BRANCH  24  28
HETATM   28  C   UNL     1     -12.915  15.270  69.968  1.00  0.00     0.009 C  
HETATM   29 CL   UNL     1     -11.733  16.321  72.205  1.00  0.00    -0.579 Cl 
HETATM   30  C   UNL     1     -12.735  15.053  71.468  1.00  0.00    -0.340 C  
ENDBRANCH  24  28
ENDBRANCH  21  22
ENDBRANCH  15  21
TORSDOF 4
ENDMDL
MODEL       31
REMARK 921   NORMALIZED FREE ENERGY PREDICTED BY IDOCK:   -6.48 KCAL/MOL
REMARK 922        TOTAL FREE ENERGY PREDICTED BY IDOCK:   -8.66 KCAL/MOL
REMARK 923 INTER-LIGAND FREE ENERGY PREDICTED BY IDOCK:   -8.01 KCAL/MOL
REMARK 924 INTRA-LIGAND FREE ENERGY PREDICTED BY IDOCK:   -0.65 KCAL/MOL
REMARK 927      BINDING AFFINITY PREDICTED BY RF-SCORE:    0.00 PKD
ROOT
HETATM    1  C   UNL     1      -9.425   7.114  71.973  1.00  0.00    -0.151 C  
HETATM    2  C   UNL     1      -9.136   7.774  73.201  1.00  0.00    -0.280 C  
HETATM    3  C   UNL     1     -10.508   8.162  72.757  1.00  0.00    -0.385 C  
HETATM    4  C   UNL     1     -11.062   7.079  71.133  1.00  0.00    -0.258 C  
HETATM    5  O   UNL     1     -12.253   6.832  70.385  1.00  0.00    -0.581 OA 
HETATM    6  C   UNL     1     -11.193   6.544  72.388  1.00  0.00    -0.310 C  
HETATM    7  C   UNL     1     -12.630   7.728  72.406  1.00  0.00    -0.105 C  
HETATM    8  C   UNL     1     -11.408   5.135  72.819  1.00  0.00    -0.311 C  
HETATM    9  H   UNL     1     -12.512   6.325  69.625  1.00  0.00     0.000 HD 
HETATM   10  C   UNL     1     -12.353   9.122  71.275  1.00  0.00    -0.382 C  
HETATM   11  C   UNL     1     -10.771   9.606  70.731  1.00  0.00    -0.401 C  
HETATM   12  C   UNL     1     -10.659  10.596  69.565  1.00  0.00    -0.265 A  
HETATM   13  C   UNL     1     -11.753  11.387  69.166  1.00  0.00    -0.410 A  
HETATM   14  C   UNL     1     -11.592  12.451  68.267  1.00  0.00    -0.384 A  
HETATM   15  C   UNL     1     -10.324  12.731  67.755  1.00  0.00    -0.221 A  
HETATM   16  C   UNL     1      -9.228  11.971  68.144  1.00  0.00    -0.195 A  
HETATM   17  C   UNL     1      -8.164   9.339  70.708  1.00  0.00    -0.210 C  
HETATM   18  C   UNL     1      -9.372  10.916  69.057  1.00  0.00    -0.144 A  
HETATM   19  C   UNL     1      -9.432   8.497  70.693  1.00  0.00    -0.203 C  
HETATM   20  C   UNL     1      -8.105  10.184  69.439  1.00  0.00    -0.163 C  
ENDROOT
BRANCH  15  21
HETATM   21  O   UNL     1     -10.151  13.852  66.923  1.00  0.00    -0.252 OA 
BRANCH  21  22
HETATM   22  C   UNL     1     -10.777  15.029  67.328  1.00  0.00    -0.298 C  
HETATM   23  O   UNL     1     -11.890  15.406  66.973  1.00  0.00    -0.046 OA 
HETATM   24  N   UNL     1     -10.050  15.705  68.299  1.00  0.00    -0.216 N  
BRANCH  24  25
HETATM   25  C   UNL     1     -10.810  16.295  69.400  1.00  0.00    -0.331 C  
HETATM   26 CL   UNL     1     -11.996  16.250  71.835  1.00  0.00    -0.554 Cl 
HETATM   27  C   UNL     1     -11.098  15.369  70.572  1.00  0.00    -0.335 C  
ENDBRANCH  24  25
BRANCH  24  28
HETATM   28  C   UNL     1      -8.595  15.862  68.206  1.00  0.00    -0.176 C  
HETATM   29 CL   UNL     1      -8.597  18.487  67.420  1.00  0.00    -0.261 Cl 
HETATM   30  C   UNL     1      -8.087  16.812  67.124  1.00  0.00    -0.183 C  
ENDBRANCH  24  28
ENDBRANCH  21  22
ENDBRANCH  15  21
TORSDOF 4
ENDMDL
MODEL       32
REMARK 921   NORMALIZED FREE ENERGY PREDICTED BY IDOCK:   -6.43 KCAL/MOL
REMARK 922        TOTAL FREE ENERGY PREDICTED BY IDOCK:   -8.59 KCAL/MOL
REMARK 923 INTER-LIGAND FREE ENERGY PREDICTED BY IDOCK:   -7.99 KCAL/MOL
REMARK 924 INTRA-LIGAND FREE ENERGY PREDICTED BY IDOCK:   -0.60 KCAL/MOL
REMARK 927      BINDING AFFINITY PREDICTED BY RF-SCORE:    0.00 PKD
ROOT
HETATM    1  C   UNL     1     -10.417   6.420  73.224  1.00  0.00    -0.275 C  
HETATM    2  C   UNL     1     -11.406   5.455  72.881  1.00  0.00    -0.365 C  
HETATM    3  C   UNL     1     -10.456   5.598  71.738  1.00  0.00    -0.284 C  
HETATM    4  C   UNL     1      -8.898   6.792  72.254  1.00  0.00    -0.131 C  
HETATM    5  O   UNL     1      -7.622   7.150  71.724  1.00  0.00    -0.085 OA 
HETATM    6  C   UNL     1      -8.889   5.468  72.606  1.00  0.00    -0.123 C  
HETATM    7  C   UNL     1      -8.497   5.307  70.793  1.00  0.00    -0.123 C  
HETATM    8  C   UNL     1      -8.053   4.738  73.598  1.00  0.00    -0.106 C  
HETATM    9  H   UNL     1      -6.893   7.709  71.965  1.00  0.00     0.000 HD 
HETATM   10  C   UNL     1      -9.150   6.713  69.848  1.00  0.00    -0.143 C  
HETATM   11  C   UNL     1     -10.447   7.725  70.420  1.00  0.00    -0.221 C  
HETATM   12  C   UNL     1     -10.733   9.046  69.695  1.00  0.00    -0.228 A  
HETATM   13  C   UNL     1     -10.238   9.294  68.400  1.00  0.00    -0.231 A  
HETATM   14  C   UNL     1     -10.688  10.388  67.648  1.00  0.00    -0.335 A  
HETATM   15  C   UNL     1     -11.641  11.251  68.193  1.00  0.00    -0.289 A  
HETATM   16  C   UNL     1     -12.151  11.019  69.463  1.00  0.00    -0.400 A  
HETATM   17  C   UNL     1     -12.248   8.362  72.214  1.00  0.00    -0.449 C  
HETATM   18  C   UNL     1     -11.724   9.917  70.219  1.00  0.00    -0.286 A  
HETATM   19  C   UNL     1     -10.803   7.893  72.114  1.00  0.00    -0.327 C  
HETATM   20  C   UNL     1     -12.377   9.740  71.572  1.00  0.00    -0.495 C  
ENDROOT
BRANCH  15  21
HETATM   21  O   UNL     1     -12.153  12.296  67.402  1.00  0.00    -0.533 OA 
BRANCH  21  22
HETATM   22  C   UNL     1     -11.725  13.583  67.720  1.00  0.00    -0.359 C  
HETATM   23  O   UNL     1     -12.201  14.298  68.596  1.00  0.00    -0.291 OA 
HETATM   24  N   UNL     1     -10.592  13.953  67.007  1.00  0.00    -0.278 N  
BRANCH  24  25
HETATM   25  C   UNL     1      -9.561  14.684  67.742  1.00  0.00    -0.213 C  
HETATM   26 CL   UNL     1      -7.118  15.820  68.023  1.00  0.00    -0.123 Cl 
HETATM   27  C   UNL     1      -8.244  14.884  67.006  1.00  0.00    -0.196 C  
ENDBRANCH  24  25
BRANCH  24  28
HETATM   28  C   UNL     1     -10.450  13.666  65.576  1.00  0.00    -0.306 C  
HETATM   29 CL   UNL     1     -11.170  16.150  64.670  1.00  0.00    -0.411 Cl 
HETATM   30  C   UNL     1     -11.418  14.391  64.644  1.00  0.00    -0.387 C  
ENDBRANCH  24  28
ENDBRANCH  21  22
ENDBRANCH  15  21
TORSDOF 4
ENDMDL
MODEL       33
REMARK 921   NORMALIZED FREE ENERGY PREDICTED BY IDOCK:   -6.43 KCAL/MOL
REMARK 922        TOTAL FREE ENERGY PREDICTED BY IDOCK:   -8.59 KCAL/MOL
REMARK 923 INTER-LIGAND FREE ENERGY PREDICTED BY IDOCK:   -8.26 KCAL/MOL
REMARK 924 INTRA-LIGAND FREE ENERGY PREDICTED BY IDOCK:   -0.33 KCAL/MOL
REMARK 927      BINDING AFFINITY PREDICTED BY RF-SCORE:    0.00 PKD
ROOT
HETATM    1  C   UNL     1     -10.764  18.167  68.167  1.00  0.00    -0.242 C  
HETATM    2  C   UNL     1      -9.794  18.498  69.155  1.00  0.00    -0.213 C  
HETATM    3  C   UNL     1      -9.169  17.584  68.153  1.00  0.00    -0.277 C  
HETATM    4  C   UNL     1     -10.435  17.258  66.601  1.00  0.00    -0.257 C  
HETATM    5  O   UNL     1     -10.379  16.679  65.297  1.00  0.00    -0.609 OA 
HETATM    6  C   UNL     1      -9.666  18.392  66.629  1.00  0.00    -0.342 C  
HETATM    7  C   UNL     1      -8.363  17.147  66.160  1.00  0.00    -0.258 C  
HETATM    8  C   UNL     1      -9.779  19.654  65.848  1.00  0.00    -0.311 C  
HETATM    9  H   UNL     1     -10.972  16.527  64.571  1.00  0.00     0.000 HD 
HETATM   10  C   UNL     1      -8.795  15.484  66.748  1.00  0.00    -0.297 C  
HETATM   11  C   UNL     1      -9.912  15.196  68.053  1.00  0.00    -0.221 C  
HETATM   12  C   UNL     1     -10.431  13.771  68.285  1.00  0.00    -0.251 A  
HETATM   13  C   UNL     1      -9.777  12.654  67.731  1.00  0.00    -0.206 A  
HETATM   14  C   UNL     1     -10.103  11.350  68.130  1.00  0.00    -0.200 A  
HETATM   15  C   UNL     1     -11.096  11.154  69.092  1.00  0.00    -0.248 A  
HETATM   16  C   UNL     1     -11.745  12.243  69.661  1.00  0.00    -0.386 A  
HETATM   17  C   UNL     1     -11.539  16.053  69.920  1.00  0.00    -0.301 C  
HETATM   18  C   UNL     1     -11.414  13.553  69.285  1.00  0.00    -0.345 A  
HETATM   19  C   UNL     1     -11.143  16.348  68.480  1.00  0.00    -0.357 C  
HETATM   20  C   UNL     1     -12.157  14.661  69.999  1.00  0.00    -0.383 C  
ENDROOT
BRANCH  15  21
HETATM   21  O   UNL     1     -11.358   9.851  69.552  1.00  0.00    -0.209 OA 
BRANCH  21  22
HETATM   22  C   UNL     1     -11.284   9.652  70.929  1.00  0.00    -0.352 C  
HETATM   23  O   UNL     1     -12.136   9.989  71.747  1.00  0.00    -0.373 OA 
HETATM   24  N   UNL     1     -10.172   8.905  71.296  1.00  0.00    -0.262 N  
BRANCH  24  25
HETATM   25  C   UNL     1     -10.369   7.896  72.334  1.00  0.00    -0.270 C  
HETATM   26 CL   UNL     1     -11.065   5.437  73.235  1.00  0.00    -0.350 Cl 
HETATM   27  C   UNL     1     -10.920   6.560  71.858  1.00  0.00    -0.250 C  
ENDBRANCH  24  25
BRANCH  24  28
HETATM   28  C   UNL     1      -8.851   9.144  70.705  1.00  0.00    -0.232 C  
HETATM   29 CL   UNL     1      -9.165   7.510  68.527  1.00  0.00    -0.143 Cl 
HETATM   30  C   UNL     1      -8.223   7.968  69.961  1.00  0.00    -0.118 C  
ENDBRANCH  24  28
ENDBRANCH  21  22
ENDBRANCH  15  21
TORSDOF 4
ENDMDL
MODEL       34
REMARK 921   NORMALIZED FREE ENERGY PREDICTED BY IDOCK:   -6.39 KCAL/MOL
REMARK 922        TOTAL FREE ENERGY PREDICTED BY IDOCK:   -8.55 KCAL/MOL
REMARK 923 INTER-LIGAND FREE ENERGY PREDICTED BY IDOCK:   -8.00 KCAL/MOL
REMARK 924 INTRA-LIGAND FREE ENERGY PREDICTED BY IDOCK:   -0.55 KCAL/MOL
REMARK 927      BINDING AFFINITY PREDICTED BY RF-SCORE:    0.00 PKD
ROOT
HETATM    1  C   UNL     1     -11.605  11.064  70.412  1.00  0.00    -0.389 C  
HETATM    2  C   UNL     1     -12.981  10.861  70.110  1.00  0.00    -0.032 C  
HETATM    3  C   UNL     1     -12.189  10.737  68.851  1.00  0.00     0.035 C  
HETATM    4  C   UNL     1     -10.201  10.794  69.254  1.00  0.00    -0.194 C  
HETATM    5  O   UNL     1      -8.976  10.541  68.565  1.00  0.00    -0.134 OA 
HETATM    6  C   UNL     1     -10.893   9.620  69.397  1.00  0.00    -0.239 C  
HETATM    7  C   UNL     1     -10.778   9.686  67.539  1.00  0.00    -0.321 C  
HETATM    8  C   UNL     1     -10.526   8.362  70.103  1.00  0.00    -0.230 C  
HETATM    9  H   UNL     1      -8.046  10.567  68.753  1.00  0.00     0.000 HD 
HETATM   10  C   UNL     1     -10.619  11.394  66.947  1.00  0.00    -0.292 C  
HETATM   11  C   UNL     1     -11.109  12.778  67.885  1.00  0.00    -0.281 C  
HETATM   12  C   UNL     1     -10.674  14.176  67.429  1.00  0.00    -0.284 A  
HETATM   13  C   UNL     1     -10.215  14.409  66.118  1.00  0.00    -0.317 A  
HETATM   14  C   UNL     1     -10.043  15.713  65.630  1.00  0.00    -0.395 A  
HETATM   15  C   UNL     1     -10.329  16.799  66.459  1.00  0.00    -0.301 A  
HETATM   16  C   UNL     1     -10.795  16.592  67.751  1.00  0.00    -0.292 A  
HETATM   17  C   UNL     1     -12.140  13.843  70.046  1.00  0.00    -0.411 C  
HETATM   18  C   UNL     1     -10.989  15.294  68.245  1.00  0.00    -0.276 A  
HETATM   19  C   UNL     1     -11.198  12.726  69.621  1.00  0.00    -0.072 C  
HETATM   20  C   UNL     1     -11.538  15.188  69.651  1.00  0.00    -0.335 C  
ENDROOT
BRANCH  15  21
HETATM   21  O   UNL     1     -10.239  18.103  65.937  1.00  0.00    -0.548 OA 
BRANCH  21  22
HETATM   22  C   UNL     1      -9.702  19.074  66.780  1.00  0.00    -0.330 C  
HETATM   23  O   UNL     1     -10.324  20.001  67.289  1.00  0.00    -0.421 OA 
HETATM   24  N   UNL     1      -8.374  18.820  67.097  1.00  0.00    -0.266 N  
BRANCH  24  25
HETATM   25  C   UNL     1      -7.971  19.060  68.482  1.00  0.00    -0.346 C  
HETATM   26 CL   UNL     1      -6.472  20.233  70.410  1.00  0.00    -0.300 Cl 
HETATM   27  C   UNL     1      -6.810  20.025  68.672  1.00  0.00    -0.301 C  
ENDBRANCH  24  25
BRANCH  24  28
HETATM   28  C   UNL     1      -7.408  18.376  66.087  1.00  0.00    -0.255 C  
HETATM   29 CL   UNL     1      -6.925  15.901  67.159  1.00  0.00    -0.242 Cl 
HETATM   30  C   UNL     1      -6.294  17.456  66.579  1.00  0.00    -0.225 C  
ENDBRANCH  24  28
ENDBRANCH  21  22
ENDBRANCH  15  21
TORSDOF 4
ENDMDL
MODEL       35
REMARK 921   NORMALIZED FREE ENERGY PREDICTED BY IDOCK:   -6.38 KCAL/MOL
REMARK 922        TOTAL FREE ENERGY PREDICTED BY IDOCK:   -8.53 KCAL/MOL
REMARK 923 INTER-LIGAND FREE ENERGY PREDICTED BY IDOCK:   -7.75 KCAL/MOL
REMARK 924 INTRA-LIGAND FREE ENERGY PREDICTED BY IDOCK:   -0.78 KCAL/MOL
REMARK 927      BINDING AFFINITY PREDICTED BY RF-SCORE:    0.00 PKD
ROOT
HETATM    1  C   UNL     1      -7.496   7.054  72.303  1.00  0.00    -0.086 C  
HETATM    2  C   UNL     1      -6.977   7.954  73.278  1.00  0.00    -0.114 C  
HETATM    3  C   UNL     1      -8.460   7.876  73.435  1.00  0.00    -0.273 C  
HETATM    4  C   UNL     1      -9.230   6.442  72.223  1.00  0.00    -0.139 C  
HETATM    5  O   UNL     1     -10.474   5.764  72.048  1.00  0.00    -0.205 OA 
HETATM    6  C   UNL     1      -8.690   6.096  73.434  1.00  0.00    -0.125 C  
HETATM    7  C   UNL     1     -10.300   6.830  74.014  1.00  0.00    -0.377 C  
HETATM    8  C   UNL     1      -8.267   4.768  73.958  1.00  0.00    -0.104 C  
HETATM    9  H   UNL     1     -10.834   5.093  71.481  1.00  0.00     0.000 HD 
HETATM   10  C   UNL     1     -10.935   8.050  72.828  1.00  0.00    -0.449 C  
HETATM   11  C   UNL     1      -9.926   8.857  71.660  1.00  0.00    -0.397 C  
HETATM   12  C   UNL     1     -10.591   9.643  70.523  1.00  0.00    -0.369 A  
HETATM   13  C   UNL     1     -11.942  10.032  70.593  1.00  0.00    -0.401 A  
HETATM   14  C   UNL     1     -12.485  10.945  69.677  1.00  0.00    -0.198 A  
HETATM   15  C   UNL     1     -11.671  11.476  68.674  1.00  0.00    -0.326 A  
HETATM   16  C   UNL     1     -10.332  11.116  68.594  1.00  0.00    -0.219 A  
HETATM   17  C   UNL     1      -7.591   9.312  70.561  1.00  0.00    -0.147 C  
HETATM   18  C   UNL     1      -9.773  10.219  69.516  1.00  0.00    -0.235 A  
HETATM   19  C   UNL     1      -8.432   8.164  71.101  1.00  0.00    -0.146 C  
HETATM   20  C   UNL     1      -8.296   9.930  69.357  1.00  0.00    -0.158 C  
ENDROOT
BRANCH  15  21
HETATM   21  O   UNL     1     -12.196  12.456  67.812  1.00  0.00    -0.395 OA 
BRANCH  21  22
HETATM   22  C   UNL     1     -11.562  13.697  67.824  1.00  0.00    -0.338 C  
HETATM   23  O   UNL     1     -11.468  14.443  68.794  1.00  0.00    -0.257 OA 
HETATM   24  N   UNL     1     -10.920  13.973  66.623  1.00  0.00    -0.297 N  
BRANCH  24  25
HETATM   25  C   UNL     1      -9.603  14.602  66.710  1.00  0.00    -0.253 C  
HETATM   26 CL   UNL     1      -7.837  16.612  66.291  1.00  0.00    -0.347 Cl 
HETATM   27  C   UNL     1      -9.486  15.974  66.064  1.00  0.00    -0.349 C  
ENDBRANCH  24  25
BRANCH  24  28
HETATM   28  C   UNL     1     -11.546  13.689  65.328  1.00  0.00    -0.320 C  
HETATM   29 CL   UNL     1     -10.377  11.244  64.926  1.00  0.00    -0.341 Cl 
HETATM   30  C   UNL     1     -10.709  12.886  64.336  1.00  0.00    -0.386 C  
ENDBRANCH  24  28
ENDBRANCH  21  22
ENDBRANCH  15  21
TORSDOF 4
ENDMDL
MODEL       36
REMARK 921   NORMALIZED FREE ENERGY PREDICTED BY IDOCK:   -6.37 KCAL/MOL
REMARK 922        TOTAL FREE ENERGY PREDICTED BY IDOCK:   -8.52 KCAL/MOL
REMARK 923 INTER-LIGAND FREE ENERGY PREDICTED BY IDOCK:   -8.39 KCAL/MOL
REMARK 924 INTRA-LIGAND FREE ENERGY PREDICTED BY IDOCK:   -0.13 KCAL/MOL
REMARK 927      BINDING AFFINITY PREDICTED BY RF-SCORE:    0.00 PKD
ROOT
HETATM    1  C   UNL     1     -10.648   5.227  70.557  1.00  0.00    -0.272 C  
HETATM    2  C   UNL     1      -9.273   4.872  70.667  1.00  0.00    -0.189 C  
HETATM    3  C   UNL     1      -9.494   6.166  71.378  1.00  0.00    -0.170 C  
HETATM    4  C   UNL     1     -11.473   6.610  71.448  1.00  0.00    -0.301 C  
HETATM    5  O   UNL     1     -12.323   7.542  72.116  1.00  0.00    -0.385 OA 
HETATM    6  C   UNL     1     -10.934   5.747  72.366  1.00  0.00    -0.308 C  
HETATM    7  C   UNL     1     -10.288   7.358  73.040  1.00  0.00    -0.356 C  
HETATM    8  C   UNL     1     -11.593   4.785  73.290  1.00  0.00    -0.286 C  
HETATM    9  H   UNL     1     -13.249   7.750  72.149  1.00  0.00     0.000 HD 
HETATM   10  C   UNL     1     -10.142   8.611  71.734  1.00  0.00    -0.380 C  
HETATM   11  C   UNL     1     -10.029   8.214  70.042  1.00  0.00    -0.192 C  
HETATM   12  C   UNL     1     -10.200   9.331  69.005  1.00  0.00    -0.217 A  
HETATM   13  C   UNL     1     -10.084  10.688  69.363  1.00  0.00    -0.199 A  
HETATM   14  C   UNL     1     -10.004  11.692  68.388  1.00  0.00    -0.201 A  
HETATM   15  C   UNL     1     -10.043  11.342  67.037  1.00  0.00    -0.208 A  
HETATM   16  C   UNL     1     -10.145  10.009  66.661  1.00  0.00    -0.289 A  
HETATM   17  C   UNL     1      -9.925   6.468  68.091  1.00  0.00    -0.145 C  
HETATM   18  C   UNL     1     -10.206   8.993  67.626  1.00  0.00    -0.300 A  
HETATM   19  C   UNL     1     -10.650   6.719  69.405  1.00  0.00    -0.265 C  
HETATM   20  C   UNL     1     -10.275   7.576  67.102  1.00  0.00    -0.350 C  
ENDROOT
BRANCH  15  21
HETATM   21  O   UNL     1      -9.875  12.344  66.063  1.00  0.00    -0.251 OA 
BRANCH  21  22
HETATM   22  C   UNL     1      -9.619  13.630  66.533  1.00  0.00    -0.286 C  
HETATM   23  O   UNL     1      -8.550  14.025  66.988  1.00  0.00    -0.213 OA 
HETATM   24  N   UNL     1     -10.689  14.491  66.323  1.00  0.00    -0.303 N  
BRANCH  24  25
HETATM   25  C   UNL     1     -10.367  15.845  65.878  1.00  0.00    -0.365 C  
HETATM   26 CL   UNL     1     -10.019  18.507  66.245  1.00  0.00    -0.381 Cl 
HETATM   27  C   UNL     1     -10.480  16.930  66.939  1.00  0.00    -0.271 C  
ENDBRANCH  24  25
BRANCH  24  28
HETATM   28  C   UNL     1     -12.073  14.079  66.576  1.00  0.00    -0.459 C  
HETATM   29 CL   UNL     1     -12.390  12.575  64.308  1.00  0.00    -0.524 Cl 
HETATM   30  C   UNL     1     -12.959  13.899  65.346  1.00  0.00    -0.326 C  
ENDBRANCH  24  28
ENDBRANCH  21  22
ENDBRANCH  15  21
TORSDOF 4
ENDMDL
MODEL       37
REMARK 921   NORMALIZED FREE ENERGY PREDICTED BY IDOCK:   -6.35 KCAL/MOL
REMARK 922        TOTAL FREE ENERGY PREDICTED BY IDOCK:   -8.49 KCAL/MOL
REMARK 923 INTER-LIGAND FREE ENERGY PREDICTED BY IDOCK:   -8.38 KCAL/MOL
REMARK 924 INTRA-LIGAND FREE ENERGY PREDICTED BY IDOCK:   -0.11 KCAL/MOL
REMARK 927      BINDING AFFINITY PREDICTED BY RF-SCORE:    0.00 PKD
ROOT
HETATM    1  C   UNL     1      -9.476  16.281  66.017  1.00  0.00    -0.369 C  
HETATM    2  C   UNL     1     -10.657  16.796  65.411  1.00  0.00    -0.218 C  
HETATM    3  C   UNL     1     -10.767  16.954  66.892  1.00  0.00    -0.130 C  
HETATM    4  C   UNL     1      -9.022  16.443  67.793  1.00  0.00    -0.198 C  
HETATM    5  O   UNL     1      -8.432  16.553  69.088  1.00  0.00    -0.232 OA 
HETATM    6  C   UNL     1      -9.173  17.695  67.255  1.00  0.00    -0.241 C  
HETATM    7  C   UNL     1     -10.204  17.894  68.792  1.00  0.00    -0.362 C  
HETATM    8  C   UNL     1      -8.157  18.731  66.922  1.00  0.00    -0.267 C  
HETATM    9  H   UNL     1      -7.615  16.314  69.510  1.00  0.00     0.000 HD 
HETATM   10  C   UNL     1     -10.862  16.300  69.358  1.00  0.00    -0.331 C  
HETATM   11  C   UNL     1     -11.027  14.913  68.317  1.00  0.00    -0.268 C  
HETATM   12  C   UNL     1     -11.315  13.544  68.945  1.00  0.00    -0.332 A  
HETATM   13  C   UNL     1     -11.801  13.429  70.262  1.00  0.00    -0.316 A  
HETATM   14  C   UNL     1     -12.286  12.208  70.753  1.00  0.00    -0.391 A  
HETATM   15  C   UNL     1     -12.285  11.085  69.924  1.00  0.00    -0.336 A  
HETATM   16  C   UNL     1     -11.822  11.179  68.617  1.00  0.00    -0.357 A  
HETATM   17  C   UNL     1     -10.799  13.753  65.979  1.00  0.00    -0.282 C  
HETATM   18  C   UNL     1     -11.352  12.399  68.108  1.00  0.00    -0.341 A  
HETATM   19  C   UNL     1     -10.050  14.714  66.892  1.00  0.00    -0.255 C  
HETATM   20  C   UNL     1     -10.910  12.392  66.661  1.00  0.00    -0.281 C  
ENDROOT
BRANCH  15  21
HETATM   21  O   UNL     1     -12.853   9.886  70.391  1.00  0.00    -0.115 OA 
BRANCH  21  22
HETATM   22  C   UNL     1     -12.503   9.495  71.682  1.00  0.00    -0.391 C  
HETATM   23  O   UNL     1     -13.208   9.611  72.680  1.00  0.00    -0.296 OA 
HETATM   24  N   UNL     1     -11.284   8.830  71.719  1.00  0.00    -0.315 N  
BRANCH  24  25
HETATM   25  C   UNL     1     -11.197   7.663  72.594  1.00  0.00    -0.366 C  
HETATM   26 CL   UNL     1     -11.554   5.047  73.201  1.00  0.00    -0.373 Cl 
HETATM   27  C   UNL     1     -11.772   6.372  72.029  1.00  0.00    -0.329 C  
ENDBRANCH  24  25
BRANCH  24  28
HETATM   28  C   UNL     1     -10.124   9.299  70.955  1.00  0.00    -0.302 C  
HETATM   29 CL   UNL     1     -10.505   7.698  68.764  1.00  0.00    -0.219 Cl 
HETATM   30  C   UNL     1      -9.439   8.264  70.067  1.00  0.00    -0.167 C  
ENDBRANCH  24  28
ENDBRANCH  21  22
ENDBRANCH  15  21
TORSDOF 4
ENDMDL
MODEL       38
REMARK 921   NORMALIZED FREE ENERGY PREDICTED BY IDOCK:   -6.32 KCAL/MOL
REMARK 922        TOTAL FREE ENERGY PREDICTED BY IDOCK:   -8.45 KCAL/MOL
REMARK 923 INTER-LIGAND FREE ENERGY PREDICTED BY IDOCK:   -7.86 KCAL/MOL
REMARK 924 INTRA-LIGAND FREE ENERGY PREDICTED BY IDOCK:   -0.59 KCAL/MOL
REMARK 927      BINDING AFFINITY PREDICTED BY RF-SCORE:    0.00 PKD
ROOT
HETATM    1  C   UNL     1     -10.115   6.718  70.112  1.00  0.00    -0.195 C  
HETATM    2  C   UNL     1     -11.398   6.109  70.012  1.00  0.00    -0.443 C  
HETATM    3  C   UNL     1     -10.933   6.480  68.643  1.00  0.00    -0.363 C  
HETATM    4  C   UNL     1      -9.018   7.147  68.698  1.00  0.00    -0.131 C  
HETATM    5  O   UNL     1      -7.978   7.451  67.767  1.00  0.00    -0.115 OA 
HETATM    6  C   UNL     1      -9.272   5.801  68.673  1.00  0.00    -0.125 C  
HETATM    7  C   UNL     1      -9.634   6.216  66.894  1.00  0.00    -0.164 C  
HETATM    8  C   UNL     1      -8.386   4.645  68.983  1.00  0.00    -0.085 C  
HETATM    9  H   UNL     1      -7.082   7.763  67.793  1.00  0.00     0.000 HD 
HETATM   10  C   UNL     1     -10.141   7.950  66.710  1.00  0.00    -0.352 C  
HETATM   11  C   UNL     1     -10.780   8.900  68.023  1.00  0.00    -0.168 C  
HETATM   12  C   UNL     1     -10.906  10.419  67.847  1.00  0.00    -0.331 A  
HETATM   13  C   UNL     1     -10.869  11.014  66.571  1.00  0.00    -0.269 A  
HETATM   14  C   UNL     1     -11.218  12.360  66.388  1.00  0.00    -0.365 A  
HETATM   15  C   UNL     1     -11.606  13.125  67.489  1.00  0.00    -0.352 A  
HETATM   16  C   UNL     1     -11.662  12.554  68.754  1.00  0.00    -0.371 A  
HETATM   17  C   UNL     1     -11.528   9.164  70.520  1.00  0.00    -0.271 C  
HETATM   18  C   UNL     1     -11.334  11.204  68.949  1.00  0.00    -0.344 A  
HETATM   19  C   UNL     1     -10.426   8.527  69.684  1.00  0.00    -0.221 C  
HETATM   20  C   UNL     1     -11.469  10.680  70.361  1.00  0.00    -0.422 C  
ENDROOT
BRANCH  15  21
HETATM   21  O   UNL     1     -12.039  14.449  67.288  1.00  0.00    -0.406 OA 
BRANCH  21  22
HETATM   22  C   UNL     1     -11.451  15.423  68.090  1.00  0.00    -0.343 C  
HETATM   23  O   UNL     1     -11.888  15.824  69.165  1.00  0.00    -0.381 OA 
HETATM   24  N   UNL     1     -10.216  15.833  67.603  1.00  0.00    -0.261 N  
BRANCH  24  25
HETATM   25  C   UNL     1      -9.155  16.040  68.587  1.00  0.00    -0.213 C  
HETATM   26 CL   UNL     1      -6.829  15.410  69.825  1.00  0.00    -0.179 Cl 
HETATM   27  C   UNL     1      -8.055  14.990  68.599  1.00  0.00    -0.153 C  
ENDBRANCH  24  25
BRANCH  24  28
HETATM   28  C   UNL     1      -9.994  16.090  66.177  1.00  0.00    -0.325 C  
HETATM   29 CL   UNL     1     -10.557  18.771  66.234  1.00  0.00    -0.461 Cl 
HETATM   30  C   UNL     1     -10.871  17.167  65.541  1.00  0.00    -0.055 C  
ENDBRANCH  24  28
ENDBRANCH  21  22
ENDBRANCH  15  21
TORSDOF 4
ENDMDL
MODEL       39
REMARK 921   NORMALIZED FREE ENERGY PREDICTED BY IDOCK:   -6.30 KCAL/MOL
REMARK 922        TOTAL FREE ENERGY PREDICTED BY IDOCK:   -8.43 KCAL/MOL
REMARK 923 INTER-LIGAND FREE ENERGY PREDICTED BY IDOCK:   -7.93 KCAL/MOL
REMARK 924 INTRA-LIGAND FREE ENERGY PREDICTED BY IDOCK:   -0.50 KCAL/MOL
REMARK 927      BINDING AFFINITY PREDICTED BY RF-SCORE:    0.00 PKD
ROOT
HETATM    1  C   UNL     1     -10.674  12.789  64.501  1.00  0.00    -0.380 C  
HETATM    2  C   UNL     1     -11.893  12.316  63.938  1.00  0.00    -0.553 C  
HETATM    3  C   UNL     1     -12.166  12.836  65.311  1.00  0.00    -0.535 C  
HETATM    4  C   UNL     1     -10.511  13.727  66.076  1.00  0.00    -0.297 C  
HETATM    5  O   UNL     1     -10.177  14.553  67.191  1.00  0.00    -0.256 OA 
HETATM    6  C   UNL     1     -11.330  14.422  65.224  1.00  0.00    -0.346 C  
HETATM    7  C   UNL     1     -12.377  14.467  66.763  1.00  0.00    -0.204 C  
HETATM    8  C   UNL     1     -11.091  15.684  64.472  1.00  0.00    -0.303 C  
HETATM    9  H   UNL     1      -9.403  14.970  67.549  1.00  0.00     0.000 HD 
HETATM   10  C   UNL     1     -12.015  13.058  67.850  1.00  0.00    -0.338 C  
HETATM   11  C   UNL     1     -11.274  11.586  67.287  1.00  0.00    -0.365 C  
HETATM   12  C   UNL     1     -10.748  10.578  68.317  1.00  0.00    -0.270 A  
HETATM   13  C   UNL     1     -11.156  10.626  69.663  1.00  0.00    -0.342 A  
HETATM   14  C   UNL     1     -10.868   9.577  70.548  1.00  0.00    -0.352 A  
HETATM   15  C   UNL     1     -10.160   8.465  70.086  1.00  0.00    -0.191 A  
HETATM   16  C   UNL     1      -9.759   8.392  68.758  1.00  0.00    -0.168 A  
HETATM   17  C   UNL     1     -10.268  10.103  65.375  1.00  0.00    -0.281 C  
HETATM   18  C   UNL     1     -10.058   9.426  67.859  1.00  0.00    -0.239 A  
HETATM   19  C   UNL     1     -10.279  11.545  65.861  1.00  0.00    -0.286 C  
HETATM   20  C   UNL     1      -9.607   9.220  66.430  1.00  0.00    -0.301 C  
ENDROOT
BRANCH  15  21
HETATM   21  O   UNL     1      -9.949   7.377  70.953  1.00  0.00    -0.185 OA 
BRANCH  21  22
HETATM   22  C   UNL     1     -10.571   6.179  70.608  1.00  0.00    -0.249 C  
HETATM   23  O   UNL     1     -11.677   6.071  70.088  1.00  0.00    -0.217 OA 
HETATM   24  N   UNL     1      -9.744   5.080  70.807  1.00  0.00    -0.182 N  
BRANCH  24  25
HETATM   25  C   UNL     1      -9.772   4.041  69.779  1.00  0.00    -0.184 C  
HETATM   26 CL   UNL     1      -9.257   3.048  67.312  1.00  0.00    -0.212 Cl 
HETATM   27  C   UNL     1      -9.178   4.431  68.433  1.00  0.00    -0.137 C  
ENDBRANCH  24  25
BRANCH  24  28
HETATM   28  C   UNL     1      -8.917   4.942  72.009  1.00  0.00    -0.131 C  
HETATM   29 CL   UNL     1     -10.691   3.441  73.460  1.00  0.00    -0.285 Cl 
HETATM   30  C   UNL     1      -9.664   4.884  73.339  1.00  0.00    -0.140 C  
ENDBRANCH  24  28
ENDBRANCH  21  22
ENDBRANCH  15  21
TORSDOF 4
ENDMDL
MODEL       40
REMARK 921   NORMALIZED FREE ENERGY PREDICTED BY IDOCK:   -6.28 KCAL/MOL
REMARK 922        TOTAL FREE ENERGY PREDICTED BY IDOCK:   -8.41 KCAL/MOL
REMARK 923 INTER-LIGAND FREE ENERGY PREDICTED BY IDOCK:   -7.89 KCAL/MOL
REMARK 924 INTRA-LIGAND FREE ENERGY PREDICTED BY IDOCK:   -0.51 KCAL/MOL
REMARK 927      BINDING AFFINITY PREDICTED BY RF-SCORE:    0.00 PKD
ROOT
HETATM    1  C   UNL     1      -9.069  19.559  66.439  1.00  0.00    -0.417 C  
HETATM    2  C   UNL     1     -10.042  19.878  67.428  1.00  0.00    -0.567 C  
HETATM    3  C   UNL     1      -8.992  19.015  68.046  1.00  0.00    -0.348 C  
HETATM    4  C   UNL     1      -7.464  18.713  66.746  1.00  0.00    -0.225 C  
HETATM    5  O   UNL     1      -6.139  18.183  66.780  1.00  0.00    -0.148 OA 
HETATM    6  C   UNL     1      -7.511  19.864  67.490  1.00  0.00    -0.314 C  
HETATM    7  C   UNL     1      -6.964  18.667  68.808  1.00  0.00    -0.311 C  
HETATM    8  C   UNL     1      -6.779  21.149  67.327  1.00  0.00    -0.420 C  
HETATM    9  H   UNL     1      -5.424  18.042  66.171  1.00  0.00     0.000 HD 
HETATM   10  C   UNL     1      -7.504  16.976  68.430  1.00  0.00    -0.213 C  
HETATM   11  C   UNL     1      -8.827  16.615  67.356  1.00  0.00    -0.198 C  
HETATM   12  C   UNL     1      -9.022  15.171  66.877  1.00  0.00    -0.277 A  
HETATM   13  C   UNL     1      -8.410  14.090  67.540  1.00  0.00    -0.200 A  
HETATM   14  C   UNL     1      -8.771  12.765  67.255  1.00  0.00    -0.200 A  
HETATM   15  C   UNL     1      -9.751  12.512  66.294  1.00  0.00    -0.254 A  
HETATM   16  C   UNL     1     -10.376  13.564  65.636  1.00  0.00    -0.303 A  
HETATM   17  C   UNL     1     -10.766  17.367  65.762  1.00  0.00    -0.120 C  
HETATM   18  C   UNL     1     -10.038  14.894  65.926  1.00  0.00    -0.348 A  
HETATM   19  C   UNL     1      -9.327  17.722  66.111  1.00  0.00    -0.153 C  
HETATM   20  C   UNL     1     -10.811  15.958  65.178  1.00  0.00    -0.438 C  
ENDROOT
BRANCH  15  21
HETATM   21  O   UNL     1     -10.172  11.187  66.074  1.00  0.00    -0.234 OA 
BRANCH  21  22
HETATM   22  C   UNL     1     -10.609  10.481  67.192  1.00  0.00    -0.264 C  
HETATM   23  O   UNL     1     -11.592  10.757  67.873  1.00  0.00    -0.504 OA 
HETATM   24  N   UNL     1      -9.871   9.324  67.407  1.00  0.00    -0.167 N  
BRANCH  24  25
HETATM   25  C   UNL     1     -10.617   8.132  67.808  1.00  0.00    -0.165 C  
HETATM   26 CL   UNL     1     -11.379   6.218  69.566  1.00  0.00    -0.497 Cl 
HETATM   27  C   UNL     1     -10.370   7.649  69.229  1.00  0.00    -0.217 C  
ENDBRANCH  24  25
BRANCH  24  28
HETATM   28  C   UNL     1      -8.410   9.304  67.283  1.00  0.00    -0.125 C  
HETATM   29 CL   UNL     1      -8.315   8.685  64.615  1.00  0.00    -0.168 Cl 
HETATM   30  C   UNL     1      -7.832   8.307  66.282  1.00  0.00    -0.098 C  
ENDBRANCH  24  28
ENDBRANCH  21  22
ENDBRANCH  15  21
TORSDOF 4
ENDMDL
MODEL       41
REMARK 921   NORMALIZED FREE ENERGY PREDICTED BY IDOCK:   -6.20 KCAL/MOL
REMARK 922        TOTAL FREE ENERGY PREDICTED BY IDOCK:   -8.31 KCAL/MOL
REMARK 923 INTER-LIGAND FREE ENERGY PREDICTED BY IDOCK:   -7.71 KCAL/MOL
REMARK 924 INTRA-LIGAND FREE ENERGY PREDICTED BY IDOCK:   -0.60 KCAL/MOL
REMARK 927      BINDING AFFINITY PREDICTED BY RF-SCORE:    0.00 PKD
ROOT
HETATM    1  C   UNL     1     -11.987  14.704  66.992  1.00  0.00    -0.301 C  
HETATM    2  C   UNL     1     -10.732  15.317  67.271  1.00  0.00    -0.311 C  
HETATM    3  C   UNL     1     -10.494  14.064  66.494  1.00  0.00    -0.281 C  
HETATM    4  C   UNL     1     -12.255  13.267  65.874  1.00  0.00    -0.441 C  
HETATM    5  O   UNL     1     -12.694  12.249  64.976  1.00  0.00    -0.581 OA 
HETATM    6  C   UNL     1     -11.677  14.285  65.161  1.00  0.00    -0.368 C  
HETATM    7  C   UNL     1     -10.567  12.881  64.648  1.00  0.00    -0.384 C  
HETATM    8  C   UNL     1     -12.250  15.177  64.117  1.00  0.00    -0.182 C  
HETATM    9  H   UNL     1     -13.517  11.876  64.685  1.00  0.00     0.000 HD 
HETATM   10  C   UNL     1     -10.522  11.578  65.911  1.00  0.00    -0.303 C  
HETATM   11  C   UNL     1     -10.940  11.854  67.580  1.00  0.00    -0.299 C  
HETATM   12  C   UNL     1     -11.150  10.647  68.502  1.00  0.00    -0.318 A  
HETATM   13  C   UNL     1     -10.674   9.368  68.154  1.00  0.00    -0.230 A  
HETATM   14  C   UNL     1     -10.653   8.322  69.088  1.00  0.00    -0.179 A  
HETATM   15  C   UNL     1     -11.115   8.551  70.386  1.00  0.00    -0.231 A  
HETATM   16  C   UNL     1     -11.577   9.808  70.754  1.00  0.00    -0.417 A  
HETATM   17  C   UNL     1     -11.704  13.430  69.529  1.00  0.00    -0.385 C  
HETATM   18  C   UNL     1     -11.585  10.867  69.834  1.00  0.00    -0.410 A  
HETATM   19  C   UNL     1     -11.993  13.152  68.060  1.00  0.00    -0.345 C  
HETATM   20  C   UNL     1     -12.072  12.201  70.356  1.00  0.00    -0.395 C  
ENDROOT
BRANCH  15  21
HETATM   21  O   UNL     1     -11.011   7.524  71.343  1.00  0.00    -0.230 OA 
BRANCH  21  22
HETATM   22  C   UNL     1      -9.723   7.109  71.670  1.00  0.00    -0.159 C  
HETATM   23  O   UNL     1      -8.809   7.838  72.042  1.00  0.00    -0.119 OA 
HETATM   24  N   UNL     1      -9.593   5.725  71.648  1.00  0.00    -0.152 N  
BRANCH  24  25
HETATM   25  C   UNL     1      -8.807   5.121  72.722  1.00  0.00    -0.118 C  
HETATM   26 CL   UNL     1      -8.260   3.197  74.549  1.00  0.00    -0.068 Cl 
HETATM   27  C   UNL     1      -9.351   3.815  73.281  1.00  0.00    -0.105 C  
ENDBRANCH  24  25
BRANCH  24  28
HETATM   28  C   UNL     1     -10.177   4.911  70.578  1.00  0.00    -0.218 C  
HETATM   29 CL   UNL     1      -7.813   4.103  69.452  1.00  0.00    -0.057 Cl 
HETATM   30  C   UNL     1      -9.403   4.871  69.263  1.00  0.00    -0.128 C  
ENDBRANCH  24  28
ENDBRANCH  21  22
ENDBRANCH  15  21
TORSDOF 4
ENDMDL
MODEL       42
REMARK 921   NORMALIZED FREE ENERGY PREDICTED BY IDOCK:   -6.20 KCAL/MOL
REMARK 922        TOTAL FREE ENERGY PREDICTED BY IDOCK:   -8.31 KCAL/MOL
REMARK 923 INTER-LIGAND FREE ENERGY PREDICTED BY IDOCK:   -7.95 KCAL/MOL
REMARK 924 INTRA-LIGAND FREE ENERGY PREDICTED BY IDOCK:   -0.35 KCAL/MOL
REMARK 927      BINDING AFFINITY PREDICTED BY RF-SCORE:    0.00 PKD
ROOT
HETATM    1  C   UNL     1     -11.510  15.979  68.473  1.00  0.00    -0.357 C  
HETATM    2  C   UNL     1     -10.476  16.477  69.316  1.00  0.00    -0.326 C  
HETATM    3  C   UNL     1      -9.909  15.412  68.436  1.00  0.00    -0.215 C  
HETATM    4  C   UNL     1     -11.280  14.822  67.060  1.00  0.00    -0.345 C  
HETATM    5  O   UNL     1     -11.309  14.034  65.871  1.00  0.00    -0.309 OA 
HETATM    6  C   UNL     1     -10.532  15.950  66.840  1.00  0.00    -0.309 C  
HETATM    7  C   UNL     1      -9.244  14.653  66.488  1.00  0.00    -0.294 C  
HETATM    8  C   UNL     1     -10.726  17.063  65.871  1.00  0.00    -0.140 C  
HETATM    9  H   UNL     1     -11.950  13.758  65.227  1.00  0.00     0.000 HD 
HETATM   10  C   UNL     1      -9.599  13.110  67.376  1.00  0.00    -0.219 C  
HETATM   11  C   UNL     1     -10.612  13.037  68.792  1.00  0.00    -0.218 C  
HETATM   12  C   UNL     1     -11.084  11.668  69.297  1.00  0.00    -0.291 A  
HETATM   13  C   UNL     1     -10.452  10.478  68.888  1.00  0.00    -0.226 A  
HETATM   14  C   UNL     1     -10.723   9.256  69.522  1.00  0.00    -0.236 A  
HETATM   15  C   UNL     1     -11.638   9.218  70.576  1.00  0.00    -0.217 A  
HETATM   16  C   UNL     1     -12.264  10.382  71.003  1.00  0.00    -0.498 A  
HETATM   17  C   UNL     1     -12.112  14.184  70.608  1.00  0.00    -0.421 C  
HETATM   18  C   UNL     1     -11.987  11.613  70.390  1.00  0.00    -0.448 A  
HETATM   19  C   UNL     1     -11.830  14.236  69.113  1.00  0.00    -0.368 C  
HETATM   20  C   UNL     1     -12.696  12.820  70.964  1.00  0.00    -0.331 C  
ENDROOT
BRANCH  15  21
HETATM   21  O   UNL     1     -11.840   8.008  71.265  1.00  0.00    -0.288 OA 
BRANCH  21  22
HETATM   22  C   UNL     1     -11.312   6.862  70.676  1.00  0.00    -0.320 C  
HETATM   23  O   UNL     1     -11.743   6.313  69.666  1.00  0.00    -0.382 OA 
HETATM   24  N   UNL     1     -10.138   6.445  71.292  1.00  0.00    -0.186 N  
BRANCH  24  25
HETATM   25  C   UNL     1      -9.065   5.981  70.416  1.00  0.00    -0.149 C  
HETATM   26 CL   UNL     1      -6.694   6.234  69.129  1.00  0.00    -0.054 Cl 
HETATM   27  C   UNL     1      -7.930   6.968  70.184  1.00  0.00    -0.114 C  
ENDBRANCH  24  25
BRANCH  24  28
HETATM   28  C   UNL     1      -9.994   6.429  72.751  1.00  0.00    -0.172 C  
HETATM   29 CL   UNL     1     -10.306   3.727  73.082  1.00  0.00    -0.225 Cl 
HETATM   30  C   UNL     1     -10.812   5.378  73.497  1.00  0.00    -0.293 C  
ENDBRANCH  24  28
ENDBRANCH  21  22
ENDBRANCH  15  21
TORSDOF 4
ENDMDL
MODEL       43
REMARK 921   NORMALIZED FREE ENERGY PREDICTED BY IDOCK:   -6.17 KCAL/MOL
REMARK 922        TOTAL FREE ENERGY PREDICTED BY IDOCK:   -8.27 KCAL/MOL
REMARK 923 INTER-LIGAND FREE ENERGY PREDICTED BY IDOCK:   -7.85 KCAL/MOL
REMARK 924 INTRA-LIGAND FREE ENERGY PREDICTED BY IDOCK:   -0.43 KCAL/MOL
REMARK 927      BINDING AFFINITY PREDICTED BY RF-SCORE:    0.00 PKD
ROOT
HETATM    1  C   UNL     1     -11.123  17.551  68.009  1.00  0.00     0.016 C  
HETATM    2  C   UNL     1     -10.274  17.964  69.075  1.00  0.00    -0.274 C  
HETATM    3  C   UNL     1      -9.442  17.305  68.024  1.00  0.00    -0.271 C  
HETATM    4  C   UNL     1     -10.563  16.896  66.383  1.00  0.00    -0.183 C  
HETATM    5  O   UNL     1     -10.347  16.481  65.034  1.00  0.00    -0.622 OA 
HETATM    6  C   UNL     1     -10.044  18.152  66.560  1.00  0.00    -0.389 C  
HETATM    7  C   UNL     1      -8.498  17.250  66.044  1.00  0.00    -0.136 C  
HETATM    8  C   UNL     1     -10.387  19.441  65.900  1.00  0.00    -0.536 C  
HETATM    9  H   UNL     1     -10.871  16.290  64.266  1.00  0.00     0.000 HD 
HETATM   10  C   UNL     1      -8.599  15.483  66.446  1.00  0.00    -0.292 C  
HETATM   11  C   UNL     1      -9.676  14.840  67.656  1.00  0.00    -0.213 C  
HETATM   12  C   UNL     1      -9.898  13.324  67.721  1.00  0.00    -0.224 A  
HETATM   13  C   UNL     1      -9.011  12.426  67.098  1.00  0.00    -0.195 A  
HETATM   14  C   UNL     1      -9.076  11.048  67.351  1.00  0.00    -0.143 A  
HETATM   15  C   UNL     1     -10.038  10.557  68.235  1.00  0.00    -0.160 A  
HETATM   16  C   UNL     1     -10.915  11.427  68.871  1.00  0.00    -0.276 A  
HETATM   17  C   UNL     1     -11.503  15.153  69.507  1.00  0.00    -0.314 C  
HETATM   18  C   UNL     1     -10.848  12.809  68.641  1.00  0.00    -0.284 A  
HETATM   19  C   UNL     1     -11.130  15.670  68.125  1.00  0.00    -0.330 C  
HETATM   20  C   UNL     1     -11.825  13.664  69.418  1.00  0.00    -0.392 C  
ENDROOT
BRANCH  15  21
HETATM   21  O   UNL     1     -10.043   9.186  68.554  1.00  0.00    -0.178 OA 
BRANCH  21  22
HETATM   22  C   UNL     1     -10.088   8.863  69.908  1.00  0.00    -0.195 C  
HETATM   23  O   UNL     1      -9.449   9.418  70.797  1.00  0.00    -0.258 OA 
HETATM   24  N   UNL     1     -11.045   7.896  70.188  1.00  0.00    -0.238 N  
BRANCH  24  25
HETATM   25  C   UNL     1     -11.839   8.088  71.401  1.00  0.00    -0.295 C  
HETATM   26 CL   UNL     1     -13.910   9.113  72.815  1.00  0.00    -0.406 Cl 
HETATM   27  C   UNL     1     -13.034   9.019  71.264  1.00  0.00    -0.230 C  
ENDBRANCH  24  25
BRANCH  24  28
HETATM   28  C   UNL     1     -11.225   6.717  69.337  1.00  0.00    -0.299 C  
HETATM   29 CL   UNL     1     -10.260   4.874  71.121  1.00  0.00    -0.281 Cl 
HETATM   30  C   UNL     1     -10.195   5.602  69.502  1.00  0.00    -0.250 C  
ENDBRANCH  24  28
ENDBRANCH  21  22
ENDBRANCH  15  21
TORSDOF 4
ENDMDL
MODEL       44
REMARK 921   NORMALIZED FREE ENERGY PREDICTED BY IDOCK:   -6.16 KCAL/MOL
REMARK 922        TOTAL FREE ENERGY PREDICTED BY IDOCK:   -8.25 KCAL/MOL
REMARK 923 INTER-LIGAND FREE ENERGY PREDICTED BY IDOCK:   -7.39 KCAL/MOL
REMARK 924 INTRA-LIGAND FREE ENERGY PREDICTED BY IDOCK:   -0.87 KCAL/MOL
REMARK 927      BINDING AFFINITY PREDICTED BY RF-SCORE:    0.00 PKD
ROOT
HETATM    1  C   UNL     1     -10.738  12.988  64.040  1.00  0.00    -0.387 C  
HETATM    2  C   UNL     1     -11.956  12.496  63.490  1.00  0.00    -0.629 C  
HETATM    3  C   UNL     1     -12.178  12.835  64.927  1.00  0.00    -0.519 C  
HETATM    4  C   UNL     1     -10.541  13.749  65.704  1.00  0.00    -0.298 C  
HETATM    5  O   UNL     1     -10.194  14.463  66.890  1.00  0.00    -0.260 OA 
HETATM    6  C   UNL     1     -11.453  14.477  64.986  1.00  0.00    -0.382 C  
HETATM    7  C   UNL     1     -12.405  14.269  66.572  1.00  0.00    -0.345 C  
HETATM    8  C   UNL     1     -11.344  15.830  64.376  1.00  0.00    -0.274 C  
HETATM    9  H   UNL     1      -9.428  14.891  67.254  1.00  0.00     0.000 HD 
HETATM   10  C   UNL     1     -11.887  12.775  67.464  1.00  0.00    -0.402 C  
HETATM   11  C   UNL     1     -11.088  11.434  66.691  1.00  0.00    -0.333 C  
HETATM   12  C   UNL     1     -10.435  10.355  67.565  1.00  0.00    -0.292 A  
HETATM   13  C   UNL     1     -10.763  10.219  68.928  1.00  0.00    -0.256 A  
HETATM   14  C   UNL     1     -10.353   9.098  69.665  1.00  0.00    -0.226 A  
HETATM   15  C   UNL     1      -9.604   8.101  69.038  1.00  0.00    -0.156 A  
HETATM   16  C   UNL     1      -9.281   8.209  67.692  1.00  0.00    -0.150 A  
HETATM   17  C   UNL     1     -10.105  10.255  64.567  1.00  0.00    -0.286 C  
HETATM   18  C   UNL     1      -9.701   9.315  66.938  1.00  0.00    -0.248 A  
HETATM   19  C   UNL     1     -10.180  11.628  65.220  1.00  0.00    -0.316 C  
HETATM   20  C   UNL     1      -9.325   9.308  65.473  1.00  0.00    -0.303 C  
ENDROOT
BRANCH  15  21
HETATM   21  O   UNL     1      -9.271   6.938  69.758  1.00  0.00    -0.147 OA 
BRANCH  21  22
HETATM   22  C   UNL     1      -9.923   5.766  69.381  1.00  0.00    -0.187 C  
HETATM   23  O   UNL     1     -11.139   5.621  69.295  1.00  0.00    -0.274 OA 
HETATM   24  N   UNL     1      -9.037   4.773  68.985  1.00  0.00    -0.108 N  
BRANCH  24  25
HETATM   25  C   UNL     1      -9.416   3.980  67.817  1.00  0.00    -0.178 C  
HETATM   26 CL   UNL     1      -9.779   3.582  65.162  1.00  0.00    -0.157 Cl 
HETATM   27  C   UNL     1      -9.320   4.694  66.477  1.00  0.00    -0.149 C  
ENDBRANCH  24  25
BRANCH  24  28
HETATM   28  C   UNL     1      -7.801   4.499  69.725  1.00  0.00    -0.057 C  
HETATM   29 CL   UNL     1      -6.227   6.326  68.424  1.00  0.00    -0.030 Cl 
HETATM   30  C   UNL     1      -6.499   4.649  68.942  1.00  0.00    -0.036 C  
ENDBRANCH  24  28
ENDBRANCH  21  22
ENDBRANCH  15  21
TORSDOF 4
ENDMDL
MODEL       45
REMARK 921   NORMALIZED FREE ENERGY PREDICTED BY IDOCK:   -6.11 KCAL/MOL
REMARK 922        TOTAL FREE ENERGY PREDICTED BY IDOCK:   -8.20 KCAL/MOL
REMARK 923 INTER-LIGAND FREE ENERGY PREDICTED BY IDOCK:   -7.67 KCAL/MOL
REMARK 924 INTRA-LIGAND FREE ENERGY PREDICTED BY IDOCK:   -0.52 KCAL/MOL
REMARK 927      BINDING AFFINITY PREDICTED BY RF-SCORE:    0.00 PKD
ROOT
HETATM    1  C   UNL     1     -10.352   6.557  70.429  1.00  0.00    -0.237 C  
HETATM    2  C   UNL     1     -11.762   6.363  70.478  1.00  0.00    -0.385 C  
HETATM    3  C   UNL     1     -11.312   6.267  69.058  1.00  0.00    -0.319 C  
HETATM    4  C   UNL     1      -9.286   6.311  68.949  1.00  0.00    -0.128 C  
HETATM    5  O   UNL     1      -8.277   6.072  67.969  1.00  0.00    -0.111 OA 
HETATM    6  C   UNL     1      -9.930   5.136  69.236  1.00  0.00    -0.280 C  
HETATM    7  C   UNL     1     -10.285   5.244  67.411  1.00  0.00    -0.240 C  
HETATM    8  C   UNL     1      -9.406   3.861  69.799  1.00  0.00    -0.242 C  
HETATM    9  H   UNL     1      -7.329   6.093  67.918  1.00  0.00     0.000 HD 
HETATM   10  C   UNL     1     -10.267   6.966  66.835  1.00  0.00    -0.310 C  
HETATM   11  C   UNL     1     -10.495   8.328  67.897  1.00  0.00    -0.259 C  
HETATM   12  C   UNL     1     -10.178   9.736  67.377  1.00  0.00    -0.284 A  
HETATM   13  C   UNL     1     -10.062   9.999  65.998  1.00  0.00    -0.318 A  
HETATM   14  C   UNL     1     -10.009  11.313  65.511  1.00  0.00    -0.293 A  
HETATM   15  C   UNL     1     -10.069  12.380  66.409  1.00  0.00    -0.236 A  
HETATM   16  C   UNL     1     -10.196  12.144  67.772  1.00  0.00    -0.207 A  
HETATM   17  C   UNL     1     -10.942   9.345  70.270  1.00  0.00    -0.305 C  
HETATM   18  C   UNL     1     -10.270  10.835  68.270  1.00  0.00    -0.187 A  
HETATM   19  C   UNL     1     -10.144   8.236  69.598  1.00  0.00    -0.199 C  
HETATM   20  C   UNL     1     -10.448  10.698  69.766  1.00  0.00    -0.189 C  
ENDROOT
BRANCH  15  21
HETATM   21  O   UNL     1     -10.104  13.696  65.910  1.00  0.00    -0.298 OA 
BRANCH  21  22
HETATM   22  C   UNL     1      -9.384  14.650  66.626  1.00  0.00    -0.271 C  
HETATM   23  O   UNL     1      -8.178  14.616  66.851  1.00  0.00    -0.190 OA 
HETATM   24  N   UNL     1     -10.164  15.746  66.976  1.00  0.00    -0.274 N  
BRANCH  24  25
HETATM   25  C   UNL     1      -9.542  17.063  66.852  1.00  0.00    -0.257 C  
HETATM   26 CL   UNL     1      -9.571  19.732  66.393  1.00  0.00    -0.474 Cl 
HETATM   27  C   UNL     1     -10.477  18.198  66.463  1.00  0.00    -0.341 C  
ENDBRANCH  24  25
BRANCH  24  28
HETATM   28  C   UNL     1     -11.529  15.592  67.487  1.00  0.00    -0.183 C  
HETATM   29 CL   UNL     1     -11.032  16.488  70.028  1.00  0.00    -0.325 Cl 
HETATM   30  C   UNL     1     -11.659  15.214  68.960  1.00  0.00    -0.330 C  
ENDBRANCH  24  28
ENDBRANCH  21  22
ENDBRANCH  15  21
TORSDOF 4
ENDMDL
MODEL       46
REMARK 921   NORMALIZED FREE ENERGY PREDICTED BY IDOCK:   -6.10 KCAL/MOL
REMARK 922        TOTAL FREE ENERGY PREDICTED BY IDOCK:   -8.19 KCAL/MOL
REMARK 923 INTER-LIGAND FREE ENERGY PREDICTED BY IDOCK:   -7.46 KCAL/MOL
REMARK 924 INTRA-LIGAND FREE ENERGY PREDICTED BY IDOCK:   -0.73 KCAL/MOL
REMARK 927      BINDING AFFINITY PREDICTED BY RF-SCORE:    0.00 PKD
ROOT
HETATM    1  C   UNL     1      -9.984   6.411  70.247  1.00  0.00    -0.199 C  
HETATM    2  C   UNL     1     -11.382   6.268  70.474  1.00  0.00    -0.428 C  
HETATM    3  C   UNL     1     -11.137   6.324  69.003  1.00  0.00    -0.446 C  
HETATM    4  C   UNL     1      -9.146   6.303  68.612  1.00  0.00    -0.126 C  
HETATM    5  O   UNL     1      -8.294   6.143  67.477  1.00  0.00    -0.109 OA 
HETATM    6  C   UNL     1      -9.808   5.127  68.853  1.00  0.00    -0.241 C  
HETATM    7  C   UNL     1     -10.403   5.467  67.121  1.00  0.00    -0.288 C  
HETATM    8  C   UNL     1      -9.283   3.775  69.188  1.00  0.00    -0.226 C  
HETATM    9  H   UNL     1      -7.363   6.133  67.294  1.00  0.00     0.000 HD 
HETATM   10  C   UNL     1     -10.369   7.243  66.747  1.00  0.00    -0.311 C  
HETATM   11  C   UNL     1     -10.374   8.476  67.977  1.00  0.00    -0.272 C  
HETATM   12  C   UNL     1     -10.054   9.922  67.579  1.00  0.00    -0.244 A  
HETATM   13  C   UNL     1     -10.113  10.344  66.237  1.00  0.00    -0.292 A  
HETATM   14  C   UNL     1     -10.054  11.703  65.899  1.00  0.00    -0.267 A  
HETATM   15  C   UNL     1      -9.932  12.658  66.911  1.00  0.00    -0.230 A  
HETATM   16  C   UNL     1      -9.885  12.265  68.243  1.00  0.00    -0.217 A  
HETATM   17  C   UNL     1     -10.434   9.218  70.489  1.00  0.00    -0.312 C  
HETATM   18  C   UNL     1      -9.961  10.910  68.595  1.00  0.00    -0.196 A  
HETATM   19  C   UNL     1      -9.799   8.168  69.590  1.00  0.00    -0.184 C  
HETATM   20  C   UNL     1      -9.940  10.602  70.076  1.00  0.00     0.254 C  
ENDROOT
BRANCH  15  21
HETATM   21  O   UNL     1      -9.962  14.023  66.574  1.00  0.00    -0.268 OA 
BRANCH  21  22
HETATM   22  C   UNL     1     -11.087  14.738  66.978  1.00  0.00    -0.333 C  
HETATM   23  O   UNL     1     -12.253  14.392  66.810  1.00  0.00    -0.420 OA 
HETATM   24  N   UNL     1     -10.757  15.865  67.721  1.00  0.00    -0.312 N  
BRANCH  24  25
HETATM   25  C   UNL     1     -11.592  16.153  68.885  1.00  0.00    -0.298 C  
HETATM   26 CL   UNL     1     -12.321  15.886  71.481  1.00  0.00    -0.497 Cl 
HETATM   27  C   UNL     1     -11.236  15.394  70.155  1.00  0.00    -0.302 C  
ENDBRANCH  24  25
BRANCH  24  28
HETATM   28  C   UNL     1      -9.655  16.751  67.334  1.00  0.00    -0.236 C  
HETATM   29 CL   UNL     1      -7.802  15.756  69.090  1.00  0.00    -0.213 Cl 
HETATM   30  C   UNL     1      -8.691  17.152  68.447  1.00  0.00    -0.246 C  
ENDBRANCH  24  28
ENDBRANCH  21  22
ENDBRANCH  15  21
TORSDOF 4
ENDMDL
MODEL       47
REMARK 921   NORMALIZED FREE ENERGY PREDICTED BY IDOCK:   -6.07 KCAL/MOL
REMARK 922        TOTAL FREE ENERGY PREDICTED BY IDOCK:   -8.15 KCAL/MOL
REMARK 923 INTER-LIGAND FREE ENERGY PREDICTED BY IDOCK:   -7.45 KCAL/MOL
REMARK 924 INTRA-LIGAND FREE ENERGY PREDICTED BY IDOCK:   -0.69 KCAL/MOL
REMARK 927      BINDING AFFINITY PREDICTED BY RF-SCORE:    0.00 PKD
ROOT
HETATM    1  C   UNL     1     -11.676  13.082  67.402  1.00  0.00    -0.427 C  
HETATM    2  C   UNL     1     -11.041  14.185  68.041  1.00  0.00    -0.285 C  
HETATM    3  C   UNL     1     -10.022  13.125  67.783  1.00  0.00    -0.227 C  
HETATM    4  C   UNL     1     -10.820  11.624  66.675  1.00  0.00    -0.283 C  
HETATM    5  O   UNL     1     -10.357  10.480  65.959  1.00  0.00    -0.248 OA 
HETATM    6  C   UNL     1     -10.366  12.762  66.059  1.00  0.00    -0.291 C  
HETATM    7  C   UNL     1      -8.736  11.950  66.449  1.00  0.00    -0.118 C  
HETATM    8  C   UNL     1     -10.610  13.278  64.685  1.00  0.00    -0.421 C  
HETATM    9  H   UNL     1     -10.730   9.778  65.440  1.00  0.00     0.000 HD 
HETATM   10  C   UNL     1      -8.873  10.847  67.885  1.00  0.00    -0.134 C  
HETATM   11  C   UNL     1     -10.137  10.985  69.075  1.00  0.00    -0.197 C  
HETATM   12  C   UNL     1     -10.339   9.843  70.079  1.00  0.00    -0.320 A  
HETATM   13  C   UNL     1      -9.337   8.880  70.304  1.00  0.00    -0.208 A  
HETATM   14  C   UNL     1      -9.420   7.983  71.380  1.00  0.00    -0.194 A  
HETATM   15  C   UNL     1     -10.516   8.045  72.242  1.00  0.00    -0.279 A  
HETATM   16  C   UNL     1     -11.509   8.996  72.046  1.00  0.00    -0.408 A  
HETATM   17  C   UNL     1     -12.274  12.158  70.035  1.00  0.00    -0.270 C  
HETATM   18  C   UNL     1     -11.429   9.911  70.986  1.00  0.00    -0.466 A  
HETATM   19  C   UNL     1     -11.668  11.724  68.708  1.00  0.00    -0.389 C  
HETATM   20  C   UNL     1     -12.546  10.926  70.893  1.00  0.00    -0.494 C  
ENDROOT
BRANCH  15  21
HETATM   21  O   UNL     1     -10.551   7.203  73.369  1.00  0.00    -0.325 OA 
BRANCH  21  22
HETATM   22  C   UNL     1     -10.922   5.879  73.144  1.00  0.00    -0.253 C  
HETATM   23  O   UNL     1     -12.005   5.505  72.704  1.00  0.00    -0.245 OA 
HETATM   24  N   UNL     1      -9.874   4.994  73.361  1.00  0.00    -0.144 N  
BRANCH  24  25
HETATM   25  C   UNL     1      -9.732   3.896  72.406  1.00  0.00    -0.149 C  
HETATM   26 CL   UNL     1      -9.366   2.857  69.931  1.00  0.00    -0.222 Cl 
HETATM   27  C   UNL     1      -9.561   4.306  70.951  1.00  0.00    -0.183 C  
ENDBRANCH  24  25
BRANCH  24  28
HETATM   28  C   UNL     1      -8.977   5.124  74.513  1.00  0.00    -0.113 C  
HETATM   29 CL   UNL     1      -6.925   6.373  73.195  1.00  0.00    -0.074 Cl 
HETATM   30  C   UNL     1      -7.482   5.033  74.218  1.00  0.00    -0.086 C  
ENDBRANCH  24  28
ENDBRANCH  21  22
ENDBRANCH  15  21
TORSDOF 4
ENDMDL
MODEL       48
REMARK 921   NORMALIZED FREE ENERGY PREDICTED BY IDOCK:   -6.07 KCAL/MOL
REMARK 922        TOTAL FREE ENERGY PREDICTED BY IDOCK:   -8.14 KCAL/MOL
REMARK 923 INTER-LIGAND FREE ENERGY PREDICTED BY IDOCK:   -7.45 KCAL/MOL
REMARK 924 INTRA-LIGAND FREE ENERGY PREDICTED BY IDOCK:   -0.70 KCAL/MOL
REMARK 927      BINDING AFFINITY PREDICTED BY RF-SCORE:    0.00 PKD
ROOT
HETATM    1  C   UNL     1     -11.944  14.664  66.854  1.00  0.00    -0.294 C  
HETATM    2  C   UNL     1     -10.669  15.252  67.093  1.00  0.00    -0.316 C  
HETATM    3  C   UNL     1     -10.494  14.068  66.199  1.00  0.00    -0.297 C  
HETATM    4  C   UNL     1     -12.298  13.324  65.643  1.00  0.00    -0.465 C  
HETATM    5  O   UNL     1     -12.805  12.384  64.696  1.00  0.00    -0.714 OA 
HETATM    6  C   UNL     1     -11.767  14.398  64.977  1.00  0.00    -0.389 C  
HETATM    7  C   UNL     1     -10.704  13.043  64.271  1.00  0.00    -0.430 C  
HETATM    8  C   UNL     1     -12.408  15.374  64.054  1.00  0.00     0.093 C  
HETATM    9  H   UNL     1     -13.649  12.036  64.435  1.00  0.00     0.000 HD 
HETATM   10  C   UNL     1     -10.575  11.639  65.415  1.00  0.00    -0.331 C  
HETATM   11  C   UNL     1     -10.872  11.775  67.126  1.00  0.00    -0.303 C  
HETATM   12  C   UNL     1     -11.022  10.495  67.957  1.00  0.00    -0.345 A  
HETATM   13  C   UNL     1     -10.579   9.249  67.472  1.00  0.00    -0.329 A  
HETATM   14  C   UNL     1     -10.497   8.129  68.312  1.00  0.00    -0.210 A  
HETATM   15  C   UNL     1     -10.865   8.249  69.653  1.00  0.00    -0.150 A  
HETATM   16  C   UNL     1     -11.293   9.471  70.156  1.00  0.00    -0.241 A  
HETATM   17  C   UNL     1     -11.488  13.182  69.249  1.00  0.00    -0.348 C  
HETATM   18  C   UNL     1     -11.361  10.603  69.331  1.00  0.00    -0.348 A  
HETATM   19  C   UNL     1     -11.882  13.028  67.787  1.00  0.00    -0.395 C  
HETATM   20  C   UNL     1     -11.803  11.889  69.996  1.00  0.00    -0.407 C  
ENDROOT
BRANCH  15  21
HETATM   21  O   UNL     1     -10.698   7.147  70.512  1.00  0.00    -0.227 OA 
BRANCH  21  22
HETATM   22  C   UNL     1      -9.804   6.163  70.094  1.00  0.00    -0.171 C  
HETATM   23  O   UNL     1     -10.107   5.113  69.535  1.00  0.00    -0.210 OA 
HETATM   24  N   UNL     1      -8.480   6.546  70.267  1.00  0.00    -0.134 N  
BRANCH  24  25
HETATM   25  C   UNL     1      -7.550   6.205  69.192  1.00  0.00    -0.095 C  
HETATM   26 CL   UNL     1      -5.515   4.795  68.093  1.00  0.00    -0.015 Cl 
HETATM   27  C   UNL     1      -6.543   5.112  69.515  1.00  0.00    -0.043 C  
ENDBRANCH  24  25
BRANCH  24  28
HETATM   28  C   UNL     1      -8.023   7.220  71.486  1.00  0.00    -0.100 C  
HETATM   29 CL   UNL     1      -7.682   9.704  70.381  1.00  0.00    -0.173 Cl 
HETATM   30  C   UNL     1      -7.005   8.341  71.296  1.00  0.00    -0.061 C  
ENDBRANCH  24  28
ENDBRANCH  21  22
ENDBRANCH  15  21
TORSDOF 4
ENDMDL
MODEL       49
REMARK 921   NORMALIZED FREE ENERGY PREDICTED BY IDOCK:   -6.03 KCAL/MOL
REMARK 922        TOTAL FREE ENERGY PREDICTED BY IDOCK:   -8.10 KCAL/MOL
REMARK 923 INTER-LIGAND FREE ENERGY PREDICTED BY IDOCK:   -7.76 KCAL/MOL
REMARK 924 INTRA-LIGAND FREE ENERGY PREDICTED BY IDOCK:   -0.33 KCAL/MOL
REMARK 927      BINDING AFFINITY PREDICTED BY RF-SCORE:    0.00 PKD
ROOT
HETATM    1  C   UNL     1     -11.053   7.988  70.673  1.00  0.00    -0.266 C  
HETATM    2  C   UNL     1     -10.081   8.142  71.702  1.00  0.00    -0.259 C  
HETATM    3  C   UNL     1     -11.284   8.953  72.052  1.00  0.00    -0.422 C  
HETATM    4  C   UNL     1     -12.788   8.598  70.737  1.00  0.00     0.292 C  
HETATM    5  O   UNL     1     -14.183   8.880  70.627  1.00  0.00    -0.385 OA 
HETATM    6  C   UNL     1     -12.579   7.739  71.784  1.00  0.00    -0.356 C  
HETATM    7  C   UNL     1     -13.371   9.153  72.700  1.00  0.00    -0.382 C  
HETATM    8  C   UNL     1     -13.078   6.355  72.011  1.00  0.00     0.133 C  
HETATM    9  H   UNL     1     -14.887   8.714  70.012  1.00  0.00     0.000 HD 
HETATM   10  C   UNL     1     -13.107  10.729  71.839  1.00  0.00    -0.557 C  
HETATM   11  C   UNL     1     -11.821  10.985  70.692  1.00  0.00    -0.434 C  
HETATM   12  C   UNL     1     -11.852  12.239  69.810  1.00  0.00    -0.388 A  
HETATM   13  C   UNL     1     -12.661  13.344  70.134  1.00  0.00    -0.024 A  
HETATM   14  C   UNL     1     -12.516  14.571  69.471  1.00  0.00    -0.162 A  
HETATM   15  C   UNL     1     -11.554  14.699  68.467  1.00  0.00    -0.317 A  
HETATM   16  C   UNL     1     -10.736  13.625  68.139  1.00  0.00    -0.260 A  
HETATM   17  C   UNL     1      -9.721  10.148  69.367  1.00  0.00    -0.247 C  
HETATM   18  C   UNL     1     -10.858  12.399  68.809  1.00  0.00    -0.263 A  
HETATM   19  C   UNL     1     -11.093   9.668  69.819  1.00  0.00    -0.247 C  
HETATM   20  C   UNL     1      -9.889  11.313  68.396  1.00  0.00    -0.200 C  
ENDROOT
BRANCH  15  21
HETATM   21  O   UNL     1     -11.353  15.955  67.865  1.00  0.00    -0.330 OA 
BRANCH  21  22
HETATM   22  C   UNL     1     -10.594  16.874  68.586  1.00  0.00    -0.360 C  
HETATM   23  O   UNL     1     -10.616  17.020  69.805  1.00  0.00    -0.237 OA 
HETATM   24  N   UNL     1      -9.691  17.558  67.782  1.00  0.00    -0.267 N  
BRANCH  24  25
HETATM   25  C   UNL     1      -8.356  17.781  68.335  1.00  0.00    -0.295 C  
HETATM   26 CL   UNL     1      -5.696  18.261  68.150  1.00  0.00    -0.165 Cl 
HETATM   27  C   UNL     1      -7.243  17.965  67.314  1.00  0.00    -0.184 C  
ENDBRANCH  24  25
BRANCH  24  28
HETATM   28  C   UNL     1     -10.065  18.072  66.461  1.00  0.00    -0.379 C  
HETATM   29 CL   UNL     1      -9.835  20.734  67.066  1.00  0.00    -0.482 Cl 
HETATM   30  C   UNL     1     -10.823  19.397  66.443  1.00  0.00    -0.322 C  
ENDBRANCH  24  28
ENDBRANCH  21  22
ENDBRANCH  15  21
TORSDOF 4
ENDMDL
MODEL       50
REMARK 921   NORMALIZED FREE ENERGY PREDICTED BY IDOCK:   -6.02 KCAL/MOL
REMARK 922        TOTAL FREE ENERGY PREDICTED BY IDOCK:   -8.09 KCAL/MOL
REMARK 923 INTER-LIGAND FREE ENERGY PREDICTED BY IDOCK:   -7.31 KCAL/MOL
REMARK 924 INTRA-LIGAND FREE ENERGY PREDICTED BY IDOCK:   -0.78 KCAL/MOL
REMARK 927      BINDING AFFINITY PREDICTED BY RF-SCORE:    0.00 PKD
ROOT
HETATM    1  C   UNL     1      -8.875  19.917  66.417  1.00  0.00    -0.420 C  
HETATM    2  C   UNL     1      -9.898  20.398  67.283  1.00  0.00    -0.597 C  
HETATM    3  C   UNL     1      -9.042  19.434  68.036  1.00  0.00    -0.382 C  
HETATM    4  C   UNL     1      -7.436  18.887  66.923  1.00  0.00    -0.223 C  
HETATM    5  O   UNL     1      -6.203  18.194  67.117  1.00  0.00    -0.159 OA 
HETATM    6  C   UNL     1      -7.412  20.064  67.625  1.00  0.00    -0.327 C  
HETATM    7  C   UNL     1      -7.169  18.863  69.027  1.00  0.00    -0.328 C  
HETATM    8  C   UNL     1      -6.504  21.238  67.510  1.00  0.00    -0.391 C  
HETATM    9  H   UNL     1      -5.452  17.938  66.596  1.00  0.00     0.000 HD 
HETATM   10  C   UNL     1      -7.883  17.239  68.638  1.00  0.00    -0.272 C  
HETATM   11  C   UNL     1      -9.119  17.006  67.434  1.00  0.00    -0.225 C  
HETATM   12  C   UNL     1      -9.449  15.580  66.975  1.00  0.00    -0.238 A  
HETATM   13  C   UNL     1      -9.059  14.458  67.731  1.00  0.00    -0.192 A  
HETATM   14  C   UNL     1      -9.557  13.179  67.444  1.00  0.00    -0.219 A  
HETATM   15  C   UNL     1     -10.454  13.014  66.387  1.00  0.00    -0.276 A  
HETATM   16  C   UNL     1     -10.862  14.109  65.636  1.00  0.00    -0.306 A  
HETATM   17  C   UNL     1     -10.762  17.933  65.615  1.00  0.00    -0.055 C  
HETATM   18  C   UNL     1     -10.386  15.396  65.925  1.00  0.00    -0.359 A  
HETATM   19  C   UNL     1      -9.335  18.115  66.111  1.00  0.00    -0.147 C  
HETATM   20  C   UNL     1     -10.929  16.518  65.068  1.00  0.00    -0.222 C  
ENDROOT
BRANCH  15  21
HETATM   21  O   UNL     1     -11.019  11.745  66.158  1.00  0.00    -0.288 OA 
BRANCH  21  22
HETATM   22  C   UNL     1     -10.280  10.872  65.362  1.00  0.00    -0.277 C  
HETATM   23  O   UNL     1     -10.001  11.045  64.179  1.00  0.00    -0.271 OA 
HETATM   24  N   UNL     1      -9.770   9.802  66.087  1.00  0.00    -0.226 N  
BRANCH  24  25
HETATM   25  C   UNL     1      -8.402   9.390  65.777  1.00  0.00    -0.122 C  
HETATM   26 CL   UNL     1      -5.710   9.694  65.785  1.00  0.00    -0.049 Cl 
HETATM   27  C   UNL     1      -7.310  10.361  66.201  1.00  0.00    -0.131 C  
ENDBRANCH  24  25
BRANCH  24  28
HETATM   28  C   UNL     1     -10.575   9.089  67.083  1.00  0.00    -0.220 C  
HETATM   29 CL   UNL     1      -9.455  10.246  69.300  1.00  0.00    -0.220 Cl 
HETATM   30  C   UNL     1      -9.884   8.772  68.407  1.00  0.00    -0.171 C  
ENDBRANCH  24  28
ENDBRANCH  21  22
ENDBRANCH  15  21
TORSDOF 4
ENDMDL
MODEL       51
REMARK 921   NORMALIZED FREE ENERGY PREDICTED BY IDOCK:   -5.99 KCAL/MOL
REMARK 922        TOTAL FREE ENERGY PREDICTED BY IDOCK:   -8.06 KCAL/MOL
REMARK 923 INTER-LIGAND FREE ENERGY PREDICTED BY IDOCK:   -8.10 KCAL/MOL
REMARK 924 INTRA-LIGAND FREE ENERGY PREDICTED BY IDOCK:    0.04 KCAL/MOL
REMARK 927      BINDING AFFINITY PREDICTED BY RF-SCORE:    0.00 PKD
ROOT
HETATM    1  C   UNL     1      -9.963   5.570  70.579  1.00  0.00    -0.276 C  
HETATM    2  C   UNL     1      -8.576   5.768  70.834  1.00  0.00    -0.130 C  
HETATM    3  C   UNL     1      -9.362   6.705  71.690  1.00  0.00    -0.149 C  
HETATM    4  C   UNL     1     -11.347   6.315  71.535  1.00  0.00    -0.296 C  
HETATM    5  O   UNL     1     -12.552   6.689  72.204  1.00  0.00    -0.521 OA 
HETATM    6  C   UNL     1     -10.569   5.571  72.383  1.00  0.00    -0.272 C  
HETATM    7  C   UNL     1     -10.695   7.140  73.378  1.00  0.00    -0.410 C  
HETATM    8  C   UNL     1     -10.839   4.267  73.047  1.00  0.00    -0.267 C  
HETATM    9  H   UNL     1     -13.481   6.507  72.132  1.00  0.00     0.000 HD 
HETATM   10  C   UNL     1     -10.983   8.579  72.309  1.00  0.00    -0.426 C  
HETATM   11  C   UNL     1     -10.594   8.598  70.611  1.00  0.00    -0.249 C  
HETATM   12  C   UNL     1     -11.133   9.738  69.739  1.00  0.00    -0.272 A  
HETATM   13  C   UNL     1     -11.613  10.933  70.308  1.00  0.00    -0.426 A  
HETATM   14  C   UNL     1     -11.883  12.059  69.516  1.00  0.00    -0.390 A  
HETATM   15  C   UNL     1     -11.676  11.993  68.137  1.00  0.00    -0.333 A  
HETATM   16  C   UNL     1     -11.191  10.828  67.556  1.00  0.00    -0.346 A  
HETATM   17  C   UNL     1      -9.638   7.451  68.458  1.00  0.00    -0.146 C  
HETATM   18  C   UNL     1     -10.899   9.702  68.339  1.00  0.00    -0.212 A  
HETATM   19  C   UNL     1     -10.496   7.135  69.675  1.00  0.00    -0.241 C  
HETATM   20  C   UNL     1     -10.340   8.504  67.605  1.00  0.00    -0.317 C  
ENDROOT
BRANCH  15  21
HETATM   21  O   UNL     1     -11.864  13.150  67.359  1.00  0.00    -0.355 OA 
BRANCH  21  22
HETATM   22  C   UNL     1     -10.852  13.461  66.454  1.00  0.00    -0.289 C  
HETATM   23  O   UNL     1     -10.872  13.223  65.250  1.00  0.00    -0.288 OA 
HETATM   24  N   UNL     1      -9.829  14.198  67.038  1.00  0.00    -0.252 N  
BRANCH  24  25
HETATM   25  C   UNL     1      -9.276  15.297  66.249  1.00  0.00    -0.315 C  
HETATM   26 CL   UNL     1      -7.785  17.532  65.903  1.00  0.00    -0.225 Cl 
HETATM   27  C   UNL     1      -8.406  16.283  67.014  1.00  0.00    -0.205 C  
ENDBRANCH  24  25
BRANCH  24  28
HETATM   28  C   UNL     1      -9.297  13.866  68.363  1.00  0.00    -0.201 C  
HETATM   29 CL   UNL     1      -6.773  13.183  67.542  1.00  0.00    -0.167 Cl 
HETATM   30  C   UNL     1      -8.259  12.748  68.412  1.00  0.00    -0.128 C  
ENDBRANCH  24  28
ENDBRANCH  21  22
ENDBRANCH  15  21
TORSDOF 4
ENDMDL
MODEL       52
REMARK 921   NORMALIZED FREE ENERGY PREDICTED BY IDOCK:   -5.98 KCAL/MOL
REMARK 922        TOTAL FREE ENERGY PREDICTED BY IDOCK:   -8.04 KCAL/MOL
REMARK 923 INTER-LIGAND FREE ENERGY PREDICTED BY IDOCK:   -7.39 KCAL/MOL
REMARK 924 INTRA-LIGAND FREE ENERGY PREDICTED BY IDOCK:   -0.65 KCAL/MOL
REMARK 927      BINDING AFFINITY PREDICTED BY RF-SCORE:    0.00 PKD
ROOT
HETATM    1  C   UNL     1     -11.248  16.319  68.681  1.00  0.00    -0.354 C  
HETATM    2  C   UNL     1     -10.331  16.466  69.760  1.00  0.00    -0.197 C  
HETATM    3  C   UNL     1      -9.588  15.983  68.558  1.00  0.00    -0.215 C  
HETATM    4  C   UNL     1     -10.800  15.969  66.931  1.00  0.00    -0.203 C  
HETATM    5  O   UNL     1     -10.668  15.818  65.518  1.00  0.00    -0.355 OA 
HETATM    6  C   UNL     1     -10.195  17.135  67.322  1.00  0.00    -0.316 C  
HETATM    7  C   UNL     1      -8.734  16.271  66.558  1.00  0.00    -0.327 C  
HETATM    8  C   UNL     1     -10.483  18.546  66.945  1.00  0.00    -0.434 C  
HETATM    9  H   UNL     1     -11.235  15.812  64.756  1.00  0.00     0.000 HD 
HETATM   10  C   UNL     1      -8.930  14.467  66.612  1.00  0.00    -0.247 C  
HETATM   11  C   UNL     1      -9.993  13.657  67.729  1.00  0.00    -0.235 C  
HETATM   12  C   UNL     1     -10.308  12.173  67.509  1.00  0.00    -0.219 A  
HETATM   13  C   UNL     1      -9.508  11.369  66.675  1.00  0.00    -0.206 A  
HETATM   14  C   UNL     1      -9.649   9.973  66.658  1.00  0.00    -0.234 A  
HETATM   15  C   UNL     1     -10.603   9.370  67.480  1.00  0.00    -0.267 A  
HETATM   16  C   UNL     1     -11.395  10.143  68.320  1.00  0.00    -0.183 A  
HETATM   17  C   UNL     1     -11.718  13.695  69.701  1.00  0.00    -0.383 C  
HETATM   18  C   UNL     1     -11.250  11.537  68.360  1.00  0.00    -0.314 A  
HETATM   19  C   UNL     1     -11.371  14.455  68.429  1.00  0.00    -0.312 C  
HETATM   20  C   UNL     1     -12.137  12.273  69.341  1.00  0.00    -0.234 C  
ENDROOT
BRANCH  15  21
HETATM   21  O   UNL     1     -10.681   7.966  67.524  1.00  0.00    -0.247 OA 
BRANCH  21  22
HETATM   22  C   UNL     1      -9.710   7.313  68.280  1.00  0.00    -0.147 C  
HETATM   23  O   UNL     1      -8.557   7.091  67.924  1.00  0.00    -0.126 OA 
HETATM   24  N   UNL     1     -10.146   7.029  69.568  1.00  0.00    -0.169 N  
BRANCH  24  25
HETATM   25  C   UNL     1      -9.185   7.237  70.650  1.00  0.00    -0.157 C  
HETATM   26 CL   UNL     1      -7.365   6.408  72.477  1.00  0.00    -0.086 Cl 
HETATM   27  C   UNL     1      -8.530   5.978  71.198  1.00  0.00    -0.125 C  
ENDBRANCH  24  25
BRANCH  24  28
HETATM   28  C   UNL     1     -11.490   6.505  69.831  1.00  0.00    -0.403 C  
HETATM   29 CL   UNL     1     -12.341   8.565  71.425  1.00  0.00    -0.329 Cl 
HETATM   30  C   UNL     1     -12.081   6.822  71.202  1.00  0.00    -0.370 C  
ENDBRANCH  24  28
ENDBRANCH  21  22
ENDBRANCH  15  21
TORSDOF 4
ENDMDL
MODEL       53
REMARK 921   NORMALIZED FREE ENERGY PREDICTED BY IDOCK:   -5.97 KCAL/MOL
REMARK 922        TOTAL FREE ENERGY PREDICTED BY IDOCK:   -8.02 KCAL/MOL
REMARK 923 INTER-LIGAND FREE ENERGY PREDICTED BY IDOCK:   -7.42 KCAL/MOL
REMARK 924 INTRA-LIGAND FREE ENERGY PREDICTED BY IDOCK:   -0.60 KCAL/MOL
REMARK 927      BINDING AFFINITY PREDICTED BY RF-SCORE:    0.00 PKD
ROOT
HETATM    1  C   UNL     1      -7.243  17.688  67.469  1.00  0.00    -0.194 C  
HETATM    2  C   UNL     1      -6.766  17.527  66.137  1.00  0.00    -0.298 C  
HETATM    3  C   UNL     1      -8.259  17.545  66.115  1.00  0.00    -0.222 C  
HETATM    4  C   UNL     1      -8.992  17.996  67.953  1.00  0.00    -0.265 C  
HETATM    5  O   UNL     1     -10.249  18.349  68.530  1.00  0.00    -0.375 OA 
HETATM    6  C   UNL     1      -8.577  19.000  67.117  1.00  0.00    -0.298 C  
HETATM    7  C   UNL     1     -10.192  18.567  66.298  1.00  0.00    -0.446 C  
HETATM    8  C   UNL     1      -8.267  20.427  67.404  1.00  0.00    -0.376 C  
HETATM    9  H   UNL     1     -10.592  18.560  69.389  1.00  0.00     0.000 HD 
HETATM   10  C   UNL     1     -10.660  16.844  66.630  1.00  0.00    -0.189 C  
HETATM   11  C   UNL     1      -9.515  15.620  67.105  1.00  0.00    -0.226 C  
HETATM   12  C   UNL     1     -10.039  14.281  67.639  1.00  0.00    -0.229 A  
HETATM   13  C   UNL     1     -11.371  13.877  67.423  1.00  0.00    -0.349 A  
HETATM   14  C   UNL     1     -11.785  12.566  67.698  1.00  0.00    -0.423 A  
HETATM   15  C   UNL     1     -10.863  11.645  68.198  1.00  0.00    -0.217 A  
HETATM   16  C   UNL     1      -9.541  12.019  68.407  1.00  0.00    -0.190 A  
HETATM   17  C   UNL     1      -7.074  14.845  67.661  1.00  0.00    -0.208 C  
HETATM   18  C   UNL     1      -9.109  13.322  68.117  1.00  0.00    -0.207 A  
HETATM   19  C   UNL     1      -8.015  16.020  67.889  1.00  0.00    -0.146 C  
HETATM   20  C   UNL     1      -7.641  13.605  68.346  1.00  0.00    -0.132 C  
ENDROOT
BRANCH  15  21
HETATM   21  O   UNL     1     -11.261  10.309  68.390  1.00  0.00    -0.265 OA 
BRANCH  21  22
HETATM   22  C   UNL     1     -11.196   9.823  69.694  1.00  0.00    -0.178 C  
HETATM   23  O   UNL     1     -11.603  10.405  70.695  1.00  0.00    -0.305 OA 
HETATM   24  N   UNL     1     -10.718   8.519  69.748  1.00  0.00    -0.228 N  
BRANCH  24  25
HETATM   25  C   UNL     1     -11.382   7.613  70.682  1.00  0.00    -0.272 C  
HETATM   26 CL   UNL     1     -11.496   6.063  72.901  1.00  0.00    -0.235 Cl 
HETATM   27  C   UNL     1     -10.529   7.123  71.843  1.00  0.00    -0.197 C  
ENDBRANCH  24  25
BRANCH  24  28
HETATM   28  C   UNL     1      -9.575   8.081  68.942  1.00  0.00    -0.152 C  
HETATM   29 CL   UNL     1     -11.014   6.774  67.011  1.00  0.00    -0.471 Cl 
HETATM   30  C   UNL     1      -9.725   6.738  68.232  1.00  0.00    -0.126 C  
ENDBRANCH  24  28
ENDBRANCH  21  22
ENDBRANCH  15  21
TORSDOF 4
ENDMDL
MODEL       54
REMARK 921   NORMALIZED FREE ENERGY PREDICTED BY IDOCK:   -5.94 KCAL/MOL
REMARK 922        TOTAL FREE ENERGY PREDICTED BY IDOCK:   -7.99 KCAL/MOL
REMARK 923 INTER-LIGAND FREE ENERGY PREDICTED BY IDOCK:   -7.34 KCAL/MOL
REMARK 924 INTRA-LIGAND FREE ENERGY PREDICTED BY IDOCK:   -0.65 KCAL/MOL
REMARK 927      BINDING AFFINITY PREDICTED BY RF-SCORE:    0.00 PKD
ROOT
HETATM    1  C   UNL     1      -7.646  18.674  67.632  1.00  0.00    -0.243 C  
HETATM    2  C   UNL     1      -6.923  18.906  66.428  1.00  0.00    -0.244 C  
HETATM    3  C   UNL     1      -8.266  18.353  66.083  1.00  0.00    -0.181 C  
HETATM    4  C   UNL     1      -9.425  18.213  67.744  1.00  0.00    -0.268 C  
HETATM    5  O   UNL     1     -10.796  17.968  68.056  1.00  0.00    -0.336 OA 
HETATM    6  C   UNL     1      -9.314  19.410  67.086  1.00  0.00    -0.390 C  
HETATM    7  C   UNL     1     -10.447  18.516  65.910  1.00  0.00    -0.379 C  
HETATM    8  C   UNL     1      -9.665  20.788  67.525  1.00  0.00    -0.444 C  
HETATM    9  H   UNL     1     -11.338  17.903  68.833  1.00  0.00     0.000 HD 
HETATM   10  C   UNL     1     -10.226  16.717  66.018  1.00  0.00    -0.366 C  
HETATM   11  C   UNL     1      -8.785  15.971  66.650  1.00  0.00    -0.309 C  
HETATM   12  C   UNL     1      -8.804  14.470  66.968  1.00  0.00    -0.256 A  
HETATM   13  C   UNL     1      -9.798  13.622  66.443  1.00  0.00    -0.302 A  
HETATM   14  C   UNL     1      -9.686  12.227  66.536  1.00  0.00    -0.242 A  
HETATM   15  C   UNL     1      -8.571  11.668  67.163  1.00  0.00    -0.164 A  
HETATM   16  C   UNL     1      -7.572  12.486  67.677  1.00  0.00    -0.145 A  
HETATM   17  C   UNL     1      -6.375  16.119  67.670  1.00  0.00    -0.181 C  
HETATM   18  C   UNL     1      -7.663  13.882  67.574  1.00  0.00    -0.192 A  
HETATM   19  C   UNL     1      -7.735  16.796  67.765  1.00  0.00    -0.180 C  
HETATM   20  C   UNL     1      -6.499  14.671  68.133  1.00  0.00    -0.142 C  
ENDROOT
BRANCH  15  21
HETATM   21  O   UNL     1      -8.420  10.270  67.176  1.00  0.00    -0.125 OA 
BRANCH  21  22
HETATM   22  C   UNL     1      -8.795   9.616  68.348  1.00  0.00    -0.123 C  
HETATM   23  O   UNL     1      -8.095   9.481  69.346  1.00  0.00    -0.099 OA 
HETATM   24  N   UNL     1     -10.126   9.216  68.326  1.00  0.00    -0.183 N  
BRANCH  24  25
HETATM   25  C   UNL     1     -10.886   9.394  69.562  1.00  0.00    -0.213 C  
HETATM   26 CL   UNL     1     -12.439  10.799  71.280  1.00  0.00    -0.494 Cl 
HETATM   27  C   UNL     1     -11.524  10.763  69.750  1.00  0.00    -0.311 C  
ENDBRANCH  24  25
BRANCH  24  28
HETATM   28  C   UNL     1     -10.730   8.604  67.139  1.00  0.00    -0.129 C  
HETATM   29 CL   UNL     1     -11.102   6.109  68.209  1.00  0.00    -0.403 Cl 
HETATM   30  C   UNL     1     -10.429   7.124  66.916  1.00  0.00    -0.294 C  
ENDBRANCH  24  28
ENDBRANCH  21  22
ENDBRANCH  15  21
TORSDOF 4
ENDMDL
MODEL       55
REMARK 921   NORMALIZED FREE ENERGY PREDICTED BY IDOCK:   -5.93 KCAL/MOL
REMARK 922        TOTAL FREE ENERGY PREDICTED BY IDOCK:   -7.98 KCAL/MOL
REMARK 923 INTER-LIGAND FREE ENERGY PREDICTED BY IDOCK:   -7.75 KCAL/MOL
REMARK 924 INTRA-LIGAND FREE ENERGY PREDICTED BY IDOCK:   -0.23 KCAL/MOL
REMARK 927      BINDING AFFINITY PREDICTED BY RF-SCORE:    0.00 PKD
ROOT
HETATM    1  C   UNL     1     -10.464  14.485  67.093  1.00  0.00    -0.267 C  
HETATM    2  C   UNL     1     -11.643  14.460  66.295  1.00  0.00    -0.377 C  
HETATM    3  C   UNL     1     -12.035  14.426  67.735  1.00  0.00    -0.368 C  
HETATM    4  C   UNL     1     -10.409  14.685  68.921  1.00  0.00    -0.245 C  
HETATM    5  O   UNL     1     -10.138  14.939  70.300  1.00  0.00    -0.475 OA 
HETATM    6  C   UNL     1     -11.035  15.773  68.372  1.00  0.00    -0.323 C  
HETATM    7  C   UNL     1     -12.261  15.356  69.710  1.00  0.00    -0.336 C  
HETATM    8  C   UNL     1     -10.572  17.180  68.225  1.00  0.00    -0.375 C  
HETATM    9  H   UNL     1      -9.378  15.061  70.855  1.00  0.00     0.000 HD 
HETATM   10  C   UNL     1     -12.191  13.594  70.145  1.00  0.00    -0.413 C  
HETATM   11  C   UNL     1     -11.540  12.376  69.083  1.00  0.00    -0.369 C  
HETATM   12  C   UNL     1     -11.259  10.977  69.644  1.00  0.00    -0.345 A  
HETATM   13  C   UNL     1     -11.830  10.544  70.857  1.00  0.00    -0.455 A  
HETATM   14  C   UNL     1     -11.768   9.200  71.250  1.00  0.00    -0.396 A  
HETATM   15  C   UNL     1     -11.126   8.272  70.427  1.00  0.00    -0.235 A  
HETATM   16  C   UNL     1     -10.567   8.675  69.221  1.00  0.00    -0.204 A  
HETATM   17  C   UNL     1     -10.455  11.645  66.813  1.00  0.00    -0.265 C  
HETATM   18  C   UNL     1     -10.638  10.013  68.807  1.00  0.00    -0.241 A  
HETATM   19  C   UNL     1     -10.379  12.760  67.847  1.00  0.00    -0.228 C  
HETATM   20  C   UNL     1     -10.030  10.329  67.458  1.00  0.00    -0.226 C  
ENDROOT
BRANCH  15  21
HETATM   21  O   UNL     1     -11.143   6.911  70.783  1.00  0.00    -0.250 OA 
BRANCH  21  22
HETATM   22  C   UNL     1     -10.521   6.031  69.900  1.00  0.00    -0.249 C  
HETATM   23  O   UNL     1     -10.922   5.741  68.777  1.00  0.00    -0.271 OA 
HETATM   24  N   UNL     1      -9.296   5.583  70.379  1.00  0.00    -0.156 N  
BRANCH  24  25
HETATM   25  C   UNL     1      -8.205   5.489  69.410  1.00  0.00    -0.098 C  
HETATM   26 CL   UNL     1      -6.049   4.297  68.283  1.00  0.00    -0.030 Cl 
HETATM   27  C   UNL     1      -7.295   4.279  69.558  1.00  0.00    -0.050 C  
ENDBRANCH  24  25
BRANCH  24  28
HETATM   28  C   UNL     1      -9.112   5.179  71.776  1.00  0.00    -0.138 C  
HETATM   29 CL   UNL     1      -9.988   2.599  71.492  1.00  0.00    -0.190 Cl 
HETATM   30  C   UNL     1     -10.112   4.164  72.322  1.00  0.00    -0.178 C  
ENDBRANCH  24  28
ENDBRANCH  21  22
ENDBRANCH  15  21
TORSDOF 4
ENDMDL
MODEL       56
REMARK 921   NORMALIZED FREE ENERGY PREDICTED BY IDOCK:   -5.89 KCAL/MOL
REMARK 922        TOTAL FREE ENERGY PREDICTED BY IDOCK:   -7.93 KCAL/MOL
REMARK 923 INTER-LIGAND FREE ENERGY PREDICTED BY IDOCK:   -8.47 KCAL/MOL
REMARK 924 INTRA-LIGAND FREE ENERGY PREDICTED BY IDOCK:    0.54 KCAL/MOL
REMARK 927      BINDING AFFINITY PREDICTED BY RF-SCORE:    0.00 PKD
ROOT
HETATM    1  C   UNL     1     -10.716   6.581  73.245  1.00  0.00    -0.300 C  
HETATM    2  C   UNL     1     -11.488   5.626  72.524  1.00  0.00    -0.335 C  
HETATM    3  C   UNL     1     -10.393   6.125  71.641  1.00  0.00    -0.259 C  
HETATM    4  C   UNL     1      -9.127   7.319  72.684  1.00  0.00    -0.139 C  
HETATM    5  O   UNL     1      -7.844   7.917  72.496  1.00  0.00    -0.100 OA 
HETATM    6  C   UNL     1      -8.988   5.957  72.747  1.00  0.00    -0.123 C  
HETATM    7  C   UNL     1      -8.284   6.260  71.050  1.00  0.00    -0.123 C  
HETATM    8  C   UNL     1      -8.232   5.107  73.706  1.00  0.00    -0.109 C  
HETATM    9  H   UNL     1      -7.251   8.476  72.984  1.00  0.00     0.000 HD 
HETATM   10  C   UNL     1      -8.964   7.773  70.312  1.00  0.00    -0.148 C  
HETATM   11  C   UNL     1     -10.468   8.489  70.823  1.00  0.00    -0.239 C  
HETATM   12  C   UNL     1     -10.814   9.906  70.349  1.00  0.00    -0.380 A  
HETATM   13  C   UNL     1     -10.153  10.495  69.254  1.00  0.00    -0.244 A  
HETATM   14  C   UNL     1     -10.623  11.683  68.675  1.00  0.00    -0.236 A  
HETATM   15  C   UNL     1     -11.765  12.295  69.194  1.00  0.00    -0.323 A  
HETATM   16  C   UNL     1     -12.440  11.725  70.266  1.00  0.00    -0.237 A  
HETATM   17  C   UNL     1     -12.612   8.508  72.330  1.00  0.00    -0.438 C  
HETATM   18  C   UNL     1     -11.991  10.527  70.842  1.00  0.00    -0.481 A  
HETATM   19  C   UNL     1     -11.119   8.224  72.414  1.00  0.00    -0.447 C  
HETATM   20  C   UNL     1     -12.827   9.977  71.978  1.00  0.00    -0.484 C  
ENDROOT
BRANCH  15  21
HETATM   21  O   UNL     1     -12.282  13.437  68.556  1.00  0.00    -0.295 OA 
BRANCH  21  22
HETATM   22  C   UNL     1     -11.351  14.356  68.076  1.00  0.00    -0.294 C  
HETATM   23  O   UNL     1     -10.836  14.336  66.962  1.00  0.00    -0.290 OA 
HETATM   24  N   UNL     1     -11.138  15.403  68.964  1.00  0.00    -0.251 N  
BRANCH  24  25
HETATM   25  C   UNL     1     -11.020  16.741  68.387  1.00  0.00    -0.325 C  
HETATM   26 CL   UNL     1     -10.122  18.532  66.563  1.00  0.00    -0.395 Cl 
HETATM   27  C   UNL     1     -10.127  16.852  67.160  1.00  0.00    -0.287 C  
ENDBRANCH  24  25
BRANCH  24  28
HETATM   28  C   UNL     1     -10.994  15.178  70.405  1.00  0.00    -0.238 C  
HETATM   29 CL   UNL     1     -13.657  15.332  71.031  1.00  0.00    -0.507 Cl 
HETATM   30  C   UNL     1     -11.996  15.898  71.304  1.00  0.00    -0.442 C  
ENDBRANCH  24  28
ENDBRANCH  21  22
ENDBRANCH  15  21
TORSDOF 4
ENDMDL
MODEL       57
REMARK 921   NORMALIZED FREE ENERGY PREDICTED BY IDOCK:   -5.88 KCAL/MOL
REMARK 922        TOTAL FREE ENERGY PREDICTED BY IDOCK:   -7.92 KCAL/MOL
REMARK 923 INTER-LIGAND FREE ENERGY PREDICTED BY IDOCK:   -7.41 KCAL/MOL
REMARK 924 INTRA-LIGAND FREE ENERGY PREDICTED BY IDOCK:   -0.51 KCAL/MOL
REMARK 927      BINDING AFFINITY PREDICTED BY RF-SCORE:    0.00 PKD
ROOT
HETATM    1  C   UNL     1     -11.248  16.580  68.507  1.00  0.00    -0.296 C  
HETATM    2  C   UNL     1     -10.430  16.668  69.669  1.00  0.00    -0.237 C  
HETATM    3  C   UNL     1      -9.564  16.363  68.492  1.00  0.00    -0.229 C  
HETATM    4  C   UNL     1     -10.642  16.448  66.775  1.00  0.00    -0.238 C  
HETATM    5  O   UNL     1     -10.389  16.458  65.370  1.00  0.00    -0.535 OA 
HETATM    6  C   UNL     1     -10.152  17.601  67.332  1.00  0.00    -0.331 C  
HETATM    7  C   UNL     1      -8.578  16.915  66.611  1.00  0.00    -0.281 C  
HETATM    8  C   UNL     1     -10.508  19.023  67.077  1.00  0.00    -0.514 C  
HETATM    9  H   UNL     1     -10.894  16.498  64.566  1.00  0.00     0.000 HD 
HETATM   10  C   UNL     1      -8.651  15.107  66.464  1.00  0.00    -0.226 C  
HETATM   11  C   UNL     1      -9.739  14.118  67.399  1.00  0.00    -0.232 C  
HETATM   12  C   UNL     1      -9.932  12.649  67.004  1.00  0.00    -0.220 A  
HETATM   13  C   UNL     1      -9.015  11.989  66.164  1.00  0.00    -0.079 A  
HETATM   14  C   UNL     1      -9.056  10.598  65.993  1.00  0.00    -0.201 A  
HETATM   15  C   UNL     1     -10.026   9.853  66.665  1.00  0.00    -0.217 A  
HETATM   16  C   UNL     1     -10.934  10.481  67.509  1.00  0.00    -0.365 A  
HETATM   17  C   UNL     1     -11.611  13.839  69.211  1.00  0.00    -0.362 C  
HETATM   18  C   UNL     1     -10.890  11.870  67.703  1.00  0.00    -0.271 A  
HETATM   19  C   UNL     1     -11.220  14.751  68.057  1.00  0.00    -0.311 C  
HETATM   20  C   UNL     1     -11.901  12.441  68.674  1.00  0.00    -0.348 C  
ENDROOT
BRANCH  15  21
HETATM   21  O   UNL     1     -10.010   8.449  66.560  1.00  0.00    -0.258 OA 
BRANCH  21  22
HETATM   22  C   UNL     1      -9.255   7.764  67.510  1.00  0.00    -0.132 C  
HETATM   23  O   UNL     1      -8.128   8.073  67.885  1.00  0.00    -0.125 OA 
HETATM   24  N   UNL     1      -9.967   6.728  68.102  1.00  0.00    -0.144 N  
BRANCH  24  25
HETATM   25  C   UNL     1      -9.798   6.554  69.543  1.00  0.00    -0.151 C  
HETATM   26 CL   UNL     1     -10.139   5.244  71.890  1.00  0.00    -0.242 Cl 
HETATM   27  C   UNL     1     -10.472   5.327  70.140  1.00  0.00    -0.268 C  
ENDBRANCH  24  25
BRANCH  24  28
HETATM   28  C   UNL     1     -10.812   5.824  67.317  1.00  0.00    -0.197 C  
HETATM   29 CL   UNL     1      -8.991   3.790  67.084  1.00  0.00    -0.143 Cl 
HETATM   30  C   UNL     1     -10.093   4.941  66.300  1.00  0.00    -0.257 C  
ENDBRANCH  24  28
ENDBRANCH  21  22
ENDBRANCH  15  21
TORSDOF 4
ENDMDL
MODEL       58
REMARK 921   NORMALIZED FREE ENERGY PREDICTED BY IDOCK:   -5.88 KCAL/MOL
REMARK 922        TOTAL FREE ENERGY PREDICTED BY IDOCK:   -7.92 KCAL/MOL
REMARK 923 INTER-LIGAND FREE ENERGY PREDICTED BY IDOCK:   -7.77 KCAL/MOL
REMARK 924 INTRA-LIGAND FREE ENERGY PREDICTED BY IDOCK:   -0.15 KCAL/MOL
REMARK 927      BINDING AFFINITY PREDICTED BY RF-SCORE:    0.00 PKD
ROOT
HETATM    1  C   UNL     1      -9.479  18.819  65.962  1.00  0.00    -0.071 C  
HETATM    2  C   UNL     1     -10.771  19.376  65.744  1.00  0.00    -0.458 C  
HETATM    3  C   UNL     1     -10.636  19.025  67.189  1.00  0.00    -0.545 C  
HETATM    4  C   UNL     1      -8.739  18.436  67.603  1.00  0.00    -0.260 C  
HETATM    5  O   UNL     1      -7.944  18.176  68.760  1.00  0.00    -0.300 OA 
HETATM    6  C   UNL     1      -9.044  19.771  67.552  1.00  0.00    -0.414 C  
HETATM    7  C   UNL     1      -9.808  19.344  69.195  1.00  0.00    -0.425 C  
HETATM    8  C   UNL     1      -8.155  20.961  67.452  1.00  0.00    -0.158 C  
HETATM    9  H   UNL     1      -7.056  17.900  68.954  1.00  0.00     0.000 HD 
HETATM   10  C   UNL     1     -10.276  17.591  69.271  1.00  0.00    -0.180 C  
HETATM   11  C   UNL     1     -10.542  16.614  67.853  1.00  0.00    -0.342 C  
HETATM   12  C   UNL     1     -10.648  15.092  68.010  1.00  0.00    -0.258 A  
HETATM   13  C   UNL     1     -10.897  14.500  69.263  1.00  0.00    -0.270 A  
HETATM   14  C   UNL     1     -11.227  13.141  69.371  1.00  0.00    -0.210 A  
HETATM   15  C   UNL     1     -11.308  12.360  68.217  1.00  0.00    -0.284 A  
HETATM   16  C   UNL     1     -11.080  12.927  66.970  1.00  0.00    -0.309 A  
HETATM   17  C   UNL     1     -10.655  16.318  65.252  1.00  0.00    -0.357 C  
HETATM   18  C   UNL     1     -10.767  14.289  66.846  1.00  0.00    -0.290 A  
HETATM   19  C   UNL     1      -9.814  17.000  66.322  1.00  0.00    -0.310 C  
HETATM   20  C   UNL     1     -10.578  14.806  65.437  1.00  0.00    -0.395 C  
ENDROOT
BRANCH  15  21
HETATM   21  O   UNL     1     -11.725  11.020  68.323  1.00  0.00    -0.461 OA 
BRANCH  21  22
HETATM   22  C   UNL     1     -10.886  10.063  67.757  1.00  0.00    -0.282 C  
HETATM   23  O   UNL     1     -11.115   9.429  66.731  1.00  0.00     0.088 OA 
HETATM   24  N   UNL     1      -9.669   9.971  68.420  1.00  0.00    -0.144 N  
BRANCH  24  25
HETATM   25  C   UNL     1      -8.477   9.819  67.588  1.00  0.00    -0.122 C  
HETATM   26 CL   UNL     1      -6.413  10.753  66.102  1.00  0.00    -0.127 Cl 
HETATM   27  C   UNL     1      -7.872  11.112  67.061  1.00  0.00    -0.142 C  
ENDBRANCH  24  25
BRANCH  24  28
HETATM   28  C   UNL     1      -9.582   9.979  69.883  1.00  0.00    -0.192 C  
HETATM   29 CL   UNL     1     -11.249   7.850  70.324  1.00  0.00    -0.243 Cl 
HETATM   30  C   UNL     1     -10.839   9.549  70.636  1.00  0.00    -0.306 C  
ENDBRANCH  24  28
ENDBRANCH  21  22
ENDBRANCH  15  21
TORSDOF 4
ENDMDL
MODEL       59
REMARK 921   NORMALIZED FREE ENERGY PREDICTED BY IDOCK:   -5.81 KCAL/MOL
REMARK 922        TOTAL FREE ENERGY PREDICTED BY IDOCK:   -7.83 KCAL/MOL
REMARK 923 INTER-LIGAND FREE ENERGY PREDICTED BY IDOCK:   -7.49 KCAL/MOL
REMARK 924 INTRA-LIGAND FREE ENERGY PREDICTED BY IDOCK:   -0.34 KCAL/MOL
REMARK 927      BINDING AFFINITY PREDICTED BY RF-SCORE:    0.00 PKD
ROOT
HETATM    1  C   UNL     1      -9.658   6.783  71.608  1.00  0.00    -0.163 C  
HETATM    2  C   UNL     1      -9.044   7.384  72.743  1.00  0.00    -0.184 C  
HETATM    3  C   UNL     1     -10.369   8.032  72.512  1.00  0.00    -0.374 C  
HETATM    4  C   UNL     1     -11.388   7.067  71.047  1.00  0.00    -0.287 C  
HETATM    5  O   UNL     1     -12.712   7.054  70.514  1.00  0.00    -0.606 OA 
HETATM    6  C   UNL     1     -11.408   6.580  72.328  1.00  0.00    -0.318 C  
HETATM    7  C   UNL     1     -12.563   8.027  72.530  1.00  0.00    -0.143 C  
HETATM    8  C   UNL     1     -11.817   5.247  72.848  1.00  0.00    -0.159 C  
HETATM    9  H   UNL     1     -13.189   6.602  69.829  1.00  0.00     0.000 HD 
HETATM   10  C   UNL     1     -12.213   9.326  71.311  1.00  0.00    -0.410 C  
HETATM   11  C   UNL     1     -10.682   9.482  70.496  1.00  0.00    -0.359 C  
HETATM   12  C   UNL     1     -10.576  10.418  69.286  1.00  0.00    -0.259 A  
HETATM   13  C   UNL     1     -11.547  11.407  69.038  1.00  0.00    -0.383 A  
HETATM   14  C   UNL     1     -11.334  12.410  68.080  1.00  0.00    -0.341 A  
HETATM   15  C   UNL     1     -10.140  12.426  67.357  1.00  0.00    -0.201 A  
HETATM   16  C   UNL     1      -9.163  11.467  67.595  1.00  0.00    -0.171 A  
HETATM   17  C   UNL     1      -8.218   8.701  70.061  1.00  0.00    -0.122 C  
HETATM   18  C   UNL     1      -9.355  10.471  68.563  1.00  0.00    -0.168 A  
HETATM   19  C   UNL     1      -9.610   8.127  70.288  1.00  0.00    -0.171 C  
HETATM   20  C   UNL     1      -8.209   9.504  68.764  1.00  0.00    -0.112 C  
ENDROOT
BRANCH  15  21
HETATM   21  O   UNL     1      -9.895  13.483  66.461  1.00  0.00    -0.276 OA 
BRANCH  21  22
HETATM   22  C   UNL     1      -9.071  14.508  66.921  1.00  0.00    -0.255 C  
HETATM   23  O   UNL     1      -7.948  14.365  67.394  1.00  0.00    -0.182 OA 
HETATM   24  N   UNL     1      -9.609  15.766  66.678  1.00  0.00    -0.233 N  
BRANCH  24  25
HETATM   25  C   UNL     1      -8.683  16.801  66.224  1.00  0.00    -0.307 C  
HETATM   26 CL   UNL     1      -7.821  19.359  65.987  1.00  0.00    -0.314 Cl 
HETATM   27  C   UNL     1      -9.068  18.230  66.578  1.00  0.00    -0.282 C  
ENDBRANCH  24  25
BRANCH  24  28
HETATM   28  C   UNL     1     -11.027  16.057  66.906  1.00  0.00    -0.124 C  
HETATM   29 CL   UNL     1     -10.783  16.852  69.517  1.00  0.00    -0.293 Cl 
HETATM   30  C   UNL     1     -11.551  15.794  68.316  1.00  0.00    -0.298 C  
ENDBRANCH  24  28
ENDBRANCH  21  22
ENDBRANCH  15  21
TORSDOF 4
ENDMDL
MODEL       60
REMARK 921   NORMALIZED FREE ENERGY PREDICTED BY IDOCK:   -5.80 KCAL/MOL
REMARK 922        TOTAL FREE ENERGY PREDICTED BY IDOCK:   -7.81 KCAL/MOL
REMARK 923 INTER-LIGAND FREE ENERGY PREDICTED BY IDOCK:   -7.21 KCAL/MOL
REMARK 924 INTRA-LIGAND FREE ENERGY PREDICTED BY IDOCK:   -0.61 KCAL/MOL
REMARK 927      BINDING AFFINITY PREDICTED BY RF-SCORE:    0.00 PKD
ROOT
HETATM    1  C   UNL     1     -10.542  13.018  64.787  1.00  0.00    -0.380 C  
HETATM    2  C   UNL     1     -11.806  12.751  64.189  1.00  0.00    -0.482 C  
HETATM    3  C   UNL     1     -12.019  13.131  65.617  1.00  0.00    -0.462 C  
HETATM    4  C   UNL     1     -10.276  13.739  66.459  1.00  0.00    -0.284 C  
HETATM    5  O   UNL     1      -9.852  14.385  67.660  1.00  0.00    -0.220 OA 
HETATM    6  C   UNL     1     -11.014  14.616  65.707  1.00  0.00    -0.330 C  
HETATM    7  C   UNL     1     -12.048  14.590  67.255  1.00  0.00    -0.298 C  
HETATM    8  C   UNL     1     -10.639  15.924  65.106  1.00  0.00    -0.421 C  
HETATM    9  H   UNL     1      -9.037  14.669  68.054  1.00  0.00     0.000 HD 
HETATM   10  C   UNL     1     -11.842  13.031  68.163  1.00  0.00    -0.381 C  
HETATM   11  C   UNL     1     -11.268  11.565  67.419  1.00  0.00    -0.367 C  
HETATM   12  C   UNL     1     -10.854  10.390  68.315  1.00  0.00    -0.299 A  
HETATM   13  C   UNL     1     -11.253  10.322  69.664  1.00  0.00    -0.322 A  
HETATM   14  C   UNL     1     -11.081   9.149  70.414  1.00  0.00    -0.293 A  
HETATM   15  C   UNL     1     -10.500   8.030  69.814  1.00  0.00    -0.227 A  
HETATM   16  C   UNL     1     -10.110   8.072  68.481  1.00  0.00    -0.218 A  
HETATM   17  C   UNL     1     -10.432  10.219  65.332  1.00  0.00    -0.125 C  
HETATM   18  C   UNL     1     -10.295   9.232  67.715  1.00  0.00    -0.292 A  
HETATM   19  C   UNL     1     -10.284  11.586  65.985  1.00  0.00    -0.283 C  
HETATM   20  C   UNL     1      -9.870   9.151  66.265  1.00  0.00    -0.359 C  
ENDROOT
BRANCH  15  21
HETATM   21  O   UNL     1     -10.409   6.830  70.543  1.00  0.00    -0.198 OA 
BRANCH  21  22
HETATM   22  C   UNL     1      -9.124   6.370  70.823  1.00  0.00    -0.151 C  
HETATM   23  O   UNL     1      -8.155   7.074  71.091  1.00  0.00    -0.103 OA 
HETATM   24  N   UNL     1      -9.063   4.983  70.890  1.00  0.00    -0.139 N  
BRANCH  24  25
HETATM   25  C   UNL     1      -8.243   4.411  71.956  1.00  0.00    -0.100 C  
HETATM   26 CL   UNL     1      -6.065   3.121  72.922  1.00  0.00    -0.008 Cl 
HETATM   27  C   UNL     1      -6.961   3.728  71.504  1.00  0.00    -0.031 C  
ENDBRANCH  24  25
BRANCH  24  28
HETATM   28  C   UNL     1      -9.751   4.132  69.915  1.00  0.00    -0.210 C  
HETATM   29 CL   UNL     1      -7.763   4.121  68.028  1.00  0.00    -0.071 Cl 
HETATM   30  C   UNL     1      -9.463   4.423  68.444  1.00  0.00    -0.154 C  
ENDBRANCH  24  28
ENDBRANCH  21  22
ENDBRANCH  15  21
TORSDOF 4
ENDMDL
MODEL       61
REMARK 921   NORMALIZED FREE ENERGY PREDICTED BY IDOCK:   -5.78 KCAL/MOL
REMARK 922        TOTAL FREE ENERGY PREDICTED BY IDOCK:   -7.80 KCAL/MOL
REMARK 923 INTER-LIGAND FREE ENERGY PREDICTED BY IDOCK:   -7.25 KCAL/MOL
REMARK 924 INTRA-LIGAND FREE ENERGY PREDICTED BY IDOCK:   -0.55 KCAL/MOL
REMARK 927      BINDING AFFINITY PREDICTED BY RF-SCORE:    0.00 PKD
ROOT
HETATM    1  C   UNL     1     -10.569  12.791  65.063  1.00  0.00    -0.330 C  
HETATM    2  C   UNL     1     -11.830  12.475  64.483  1.00  0.00    -0.448 C  
HETATM    3  C   UNL     1     -12.050  12.961  65.878  1.00  0.00    -0.503 C  
HETATM    4  C   UNL     1     -10.311  13.637  66.677  1.00  0.00    -0.275 C  
HETATM    5  O   UNL     1      -9.894  14.373  67.827  1.00  0.00    -0.217 OA 
HETATM    6  C   UNL     1     -11.050  14.452  65.859  1.00  0.00    -0.319 C  
HETATM    7  C   UNL     1     -12.090  14.539  67.401  1.00  0.00    -0.292 C  
HETATM    8  C   UNL     1     -10.678  15.713  65.162  1.00  0.00    -0.463 C  
HETATM    9  H   UNL     1      -9.081  14.690  68.201  1.00  0.00     0.000 HD 
HETATM   10  C   UNL     1     -11.881  13.054  68.424  1.00  0.00    -0.370 C  
HETATM   11  C   UNL     1     -11.298  11.538  67.795  1.00  0.00    -0.364 C  
HETATM   12  C   UNL     1     -10.884  10.436  68.778  1.00  0.00    -0.269 A  
HETATM   13  C   UNL     1     -11.287  10.467  70.127  1.00  0.00    -0.400 A  
HETATM   14  C   UNL     1     -11.112   9.355  70.963  1.00  0.00    -0.414 A  
HETATM   15  C   UNL     1     -10.525   8.197  70.451  1.00  0.00    -0.215 A  
HETATM   16  C   UNL     1     -10.131   8.140  69.120  1.00  0.00    -0.204 A  
HETATM   17  C   UNL     1     -10.450  10.042  65.817  1.00  0.00    -0.084 C  
HETATM   18  C   UNL     1     -10.318   9.238  68.268  1.00  0.00    -0.257 A  
HETATM   19  C   UNL     1     -10.310  11.455  66.366  1.00  0.00    -0.284 C  
HETATM   20  C   UNL     1      -9.888   9.049  66.830  1.00  0.00    -0.288 C  
ENDROOT
BRANCH  15  21
HETATM   21  O   UNL     1     -10.432   7.055  71.269  1.00  0.00    -0.207 OA 
BRANCH  21  22
HETATM   22  C   UNL     1      -9.956   5.895  70.663  1.00  0.00    -0.189 C  
HETATM   23  O   UNL     1     -10.621   5.119  69.984  1.00  0.00    -0.285 OA 
HETATM   24  N   UNL     1      -8.582   5.751  70.806  1.00  0.00    -0.128 N  
BRANCH  24  25
HETATM   25  C   UNL     1      -7.846   5.269  69.638  1.00  0.00    -0.073 C  
HETATM   26 CL   UNL     1      -6.594   3.372  68.165  1.00  0.00    -0.037 Cl 
HETATM   27  C   UNL     1      -7.446   3.802  69.671  1.00  0.00    -0.052 C  
ENDBRANCH  24  25
BRANCH  24  28
HETATM   28  C   UNL     1      -7.904   6.023  72.077  1.00  0.00    -0.106 C  
HETATM   29 CL   UNL     1      -7.331   8.658  71.585  1.00  0.00    -0.119 Cl 
HETATM   30  C   UNL     1      -6.761   7.035  72.028  1.00  0.00    -0.057 C  
ENDBRANCH  24  28
ENDBRANCH  21  22
ENDBRANCH  15  21
TORSDOF 4
ENDMDL
MODEL       62
REMARK 921   NORMALIZED FREE ENERGY PREDICTED BY IDOCK:   -5.73 KCAL/MOL
REMARK 922        TOTAL FREE ENERGY PREDICTED BY IDOCK:   -7.73 KCAL/MOL
REMARK 923 INTER-LIGAND FREE ENERGY PREDICTED BY IDOCK:   -7.22 KCAL/MOL
REMARK 924 INTRA-LIGAND FREE ENERGY PREDICTED BY IDOCK:   -0.51 KCAL/MOL
REMARK 927      BINDING AFFINITY PREDICTED BY RF-SCORE:    0.00 PKD
ROOT
HETATM    1  C   UNL     1     -11.223   8.524  70.313  1.00  0.00    -0.185 C  
HETATM    2  C   UNL     1     -10.229   8.600  71.329  1.00  0.00    -0.308 C  
HETATM    3  C   UNL     1     -11.225   9.690  71.548  1.00  0.00    -0.377 C  
HETATM    4  C   UNL     1     -12.786   9.495  70.264  1.00  0.00     0.432 C  
HETATM    5  O   UNL     1     -14.088  10.054  70.094  1.00  0.00     0.097 OA 
HETATM    6  C   UNL     1     -12.754   8.758  71.419  1.00  0.00    -0.324 C  
HETATM    7  C   UNL     1     -13.213  10.418  72.127  1.00  0.00    -0.418 C  
HETATM    8  C   UNL     1     -13.537   7.557  71.819  1.00  0.00    -0.397 C  
HETATM    9  H   UNL     1     -14.818   9.962  69.494  1.00  0.00     0.000 HD 
HETATM   10  C   UNL     1     -12.625  11.772  71.069  1.00  0.00    -0.409 C  
HETATM   11  C   UNL     1     -11.327  11.590  69.922  1.00  0.00    -0.267 C  
HETATM   12  C   UNL     1     -11.097  12.693  68.881  1.00  0.00    -0.307 A  
HETATM   13  C   UNL     1     -11.645  13.980  69.043  1.00  0.00    -0.345 A  
HETATM   14  C   UNL     1     -11.247  15.048  68.226  1.00  0.00    -0.309 A  
HETATM   15  C   UNL     1     -10.292  14.831  67.231  1.00  0.00    -0.247 A  
HETATM   16  C   UNL     1      -9.728  13.573  67.062  1.00  0.00    -0.251 A  
HETATM   17  C   UNL     1      -9.472  10.153  68.756  1.00  0.00    -0.171 C  
HETATM   18  C   UNL     1     -10.104  12.501  67.886  1.00  0.00    -0.214 A  
HETATM   19  C   UNL     1     -10.910  10.044  69.244  1.00  0.00    -0.261 C  
HETATM   20  C   UNL     1      -9.396  11.187  67.637  1.00  0.00    -0.169 C  
ENDROOT
BRANCH  15  21
HETATM   21  O   UNL     1      -9.831  15.923  66.472  1.00  0.00    -0.236 OA 
BRANCH  21  22
HETATM   22  C   UNL     1      -8.875  16.739  67.074  1.00  0.00    -0.207 C  
HETATM   23  O   UNL     1      -8.029  16.371  67.883  1.00  0.00    -0.150 OA 
HETATM   24  N   UNL     1      -8.893  18.033  66.569  1.00  0.00    -0.266 N  
BRANCH  24  25
HETATM   25  C   UNL     1      -7.596  18.666  66.336  1.00  0.00    -0.259 C  
HETATM   26 CL   UNL     1      -5.928  20.792  66.140  1.00  0.00    -0.251 Cl 
HETATM   27  C   UNL     1      -7.583  20.186  66.408  1.00  0.00    -0.277 C  
ENDBRANCH  24  25
BRANCH  24  28
HETATM   28  C   UNL     1     -10.147  18.749  66.321  1.00  0.00    -0.409 C  
HETATM   29 CL   UNL     1     -10.215  20.124  68.690  1.00  0.00    -0.465 Cl 
HETATM   30  C   UNL     1     -11.017  19.030  67.544  1.00  0.00    -0.275 C  
ENDBRANCH  24  28
ENDBRANCH  21  22
ENDBRANCH  15  21
TORSDOF 4
ENDMDL
MODEL       63
REMARK 921   NORMALIZED FREE ENERGY PREDICTED BY IDOCK:   -5.70 KCAL/MOL
REMARK 922        TOTAL FREE ENERGY PREDICTED BY IDOCK:   -7.69 KCAL/MOL
REMARK 923 INTER-LIGAND FREE ENERGY PREDICTED BY IDOCK:   -7.43 KCAL/MOL
REMARK 924 INTRA-LIGAND FREE ENERGY PREDICTED BY IDOCK:   -0.26 KCAL/MOL
REMARK 927      BINDING AFFINITY PREDICTED BY RF-SCORE:    0.00 PKD
ROOT
HETATM    1  C   UNL     1      -8.056   5.469  66.191  1.00  0.00    -0.107 C  
HETATM    2  C   UNL     1      -7.063   5.704  67.184  1.00  0.00    -0.074 C  
HETATM    3  C   UNL     1      -8.396   6.093  67.734  1.00  0.00    -0.116 C  
HETATM    4  C   UNL     1      -9.876   5.571  66.447  1.00  0.00    -0.167 C  
HETATM    5  O   UNL     1     -11.300   5.483  66.457  1.00  0.00    -0.516 OA 
HETATM    6  C   UNL     1      -9.356   4.637  67.305  1.00  0.00    -0.159 C  
HETATM    7  C   UNL     1     -10.394   5.614  68.504  1.00  0.00    -0.265 C  
HETATM    8  C   UNL     1      -9.462   3.153  67.295  1.00  0.00    -0.164 C  
HETATM    9  H   UNL     1     -11.993   5.238  65.855  1.00  0.00     0.000 HD 
HETATM   10  C   UNL     1     -10.624   7.324  67.939  1.00  0.00    -0.266 C  
HETATM   11  C   UNL     1      -9.559   8.102  66.801  1.00  0.00    -0.281 C  
HETATM   12  C   UNL     1      -9.992   9.431  66.169  1.00  0.00    -0.351 A  
HETATM   13  C   UNL     1     -11.023  10.208  66.731  1.00  0.00    -0.049 A  
HETATM   14  C   UNL     1     -11.260  11.522  66.300  1.00  0.00    -0.286 A  
HETATM   15  C   UNL     1     -10.461  12.069  65.294  1.00  0.00    -0.284 A  
HETATM   16  C   UNL     1      -9.430  11.325  64.735  1.00  0.00    -0.221 A  
HETATM   17  C   UNL     1      -7.449   8.093  65.248  1.00  0.00    -0.080 C  
HETATM   18  C   UNL     1      -9.171  10.016  65.170  1.00  0.00    -0.273 A  
HETATM   19  C   UNL     1      -8.604   7.194  65.666  1.00  0.00    -0.119 C  
HETATM   20  C   UNL     1      -7.999   9.315  64.519  1.00  0.00    -0.128 C  
ENDROOT
BRANCH  15  21
HETATM   21  O   UNL     1     -10.645  13.415  64.927  1.00  0.00    -0.340 OA 
BRANCH  21  22
HETATM   22  C   UNL     1     -11.598  14.131  65.648  1.00  0.00    -0.339 C  
HETATM   23  O   UNL     1     -12.801  14.160  65.410  1.00  0.00    -0.637 OA 
HETATM   24  N   UNL     1     -11.059  14.739  66.775  1.00  0.00    -0.332 N  
BRANCH  24  25
HETATM   25  C   UNL     1     -11.865  14.696  67.995  1.00  0.00    -0.311 C  
HETATM   26 CL   UNL     1     -12.430  13.856  70.507  1.00  0.00    -0.421 Cl 
HETATM   27  C   UNL     1     -11.361  13.761  69.084  1.00  0.00    -0.281 C  
ENDBRANCH  24  25
BRANCH  24  28
HETATM   28  C   UNL     1      -9.767  15.430  66.739  1.00  0.00    -0.240 C  
HETATM   29 CL   UNL     1     -10.716  17.934  67.319  1.00  0.00    -0.328 Cl 
HETATM   30  C   UNL     1      -9.788  16.872  66.239  1.00  0.00    -0.302 C  
ENDBRANCH  24  28
ENDBRANCH  21  22
ENDBRANCH  15  21
TORSDOF 4
ENDMDL
MODEL       64
REMARK 921   NORMALIZED FREE ENERGY PREDICTED BY IDOCK:   -5.69 KCAL/MOL
REMARK 922        TOTAL FREE ENERGY PREDICTED BY IDOCK:   -7.69 KCAL/MOL
REMARK 923 INTER-LIGAND FREE ENERGY PREDICTED BY IDOCK:   -6.97 KCAL/MOL
REMARK 924 INTRA-LIGAND FREE ENERGY PREDICTED BY IDOCK:   -0.72 KCAL/MOL
REMARK 927      BINDING AFFINITY PREDICTED BY RF-SCORE:    0.00 PKD
ROOT
HETATM    1  C   UNL     1      -9.239   4.824  71.527  1.00  0.00    -0.186 C  
HETATM    2  C   UNL     1      -7.908   5.221  71.839  1.00  0.00    -0.111 C  
HETATM    3  C   UNL     1      -8.859   6.121  72.556  1.00  0.00    -0.124 C  
HETATM    4  C   UNL     1     -10.766   5.466  72.329  1.00  0.00    -0.231 C  
HETATM    5  O   UNL     1     -12.050   5.739  72.891  1.00  0.00    -0.543 OA 
HETATM    6  C   UNL     1      -9.961   4.906  73.286  1.00  0.00    -0.181 C  
HETATM    7  C   UNL     1     -10.346   6.527  74.117  1.00  0.00    -0.351 C  
HETATM    8  C   UNL     1     -10.112   3.641  74.056  1.00  0.00    -0.198 C  
HETATM    9  H   UNL     1     -12.942   5.432  72.785  1.00  0.00     0.000 HD 
HETATM   10  C   UNL     1     -10.737   7.817  72.901  1.00  0.00    -0.446 C  
HETATM   11  C   UNL     1     -10.239   7.736  71.233  1.00  0.00    -0.218 C  
HETATM   12  C   UNL     1     -10.855   8.716  70.227  1.00  0.00    -0.250 A  
HETATM   13  C   UNL     1     -11.516   9.885  70.652  1.00  0.00    -0.411 A  
HETATM   14  C   UNL     1     -11.868  10.892  69.742  1.00  0.00    -0.419 A  
HETATM   15  C   UNL     1     -11.562  10.732  68.389  1.00  0.00    -0.239 A  
HETATM   16  C   UNL     1     -10.899   9.593  67.950  1.00  0.00    -0.272 A  
HETATM   17  C   UNL     1      -9.005   6.538  69.257  1.00  0.00    -0.131 C  
HETATM   18  C   UNL     1     -10.524   8.587  68.853  1.00  0.00    -0.207 A  
HETATM   19  C   UNL     1      -9.898   6.222  70.449  1.00  0.00    -0.207 C  
HETATM   20  C   UNL     1      -9.773   7.411  68.269  1.00  0.00    -0.159 C  
ENDROOT
BRANCH  15  21
HETATM   21  O   UNL     1     -11.839  11.782  67.494  1.00  0.00    -0.577 OA 
BRANCH  21  22
HETATM   22  C   UNL     1     -11.297  13.026  67.810  1.00  0.00    -0.292 C  
HETATM   23  O   UNL     1     -11.899  13.953  68.344  1.00  0.00    -0.340 OA 
HETATM   24  N   UNL     1      -9.931  13.085  67.561  1.00  0.00    -0.209 N  
BRANCH  24  25
HETATM   25  C   UNL     1      -9.111  13.775  68.556  1.00  0.00    -0.133 C  
HETATM   26 CL   UNL     1      -7.688  15.879  69.497  1.00  0.00    -0.193 Cl 
HETATM   27  C   UNL     1      -8.639  15.168  68.167  1.00  0.00    -0.158 C  
ENDBRANCH  24  25
BRANCH  24  28
HETATM   28  C   UNL     1      -9.342  12.525  66.342  1.00  0.00    -0.209 C  
HETATM   29 CL   UNL     1      -7.787  10.631  67.569  1.00  0.00    -0.105 Cl 
HETATM   30  C   UNL     1      -7.909  12.013  66.460  1.00  0.00     0.132 C  
ENDBRANCH  24  28
ENDBRANCH  21  22
ENDBRANCH  15  21
TORSDOF 4
ENDMDL
MODEL       65
REMARK 921   NORMALIZED FREE ENERGY PREDICTED BY IDOCK:   -5.66 KCAL/MOL
REMARK 922        TOTAL FREE ENERGY PREDICTED BY IDOCK:   -7.64 KCAL/MOL
REMARK 923 INTER-LIGAND FREE ENERGY PREDICTED BY IDOCK:   -7.10 KCAL/MOL
REMARK 924 INTRA-LIGAND FREE ENERGY PREDICTED BY IDOCK:   -0.53 KCAL/MOL
REMARK 927      BINDING AFFINITY PREDICTED BY RF-SCORE:    0.00 PKD
ROOT
HETATM    1  C   UNL     1      -9.627   4.037  71.629  1.00  0.00    -0.230 C  
HETATM    2  C   UNL     1      -8.249   4.054  71.988  1.00  0.00    -0.088 C  
HETATM    3  C   UNL     1      -8.930   5.213  72.637  1.00  0.00    -0.129 C  
HETATM    4  C   UNL     1     -10.936   5.114  72.344  1.00  0.00    -0.180 C  
HETATM    5  O   UNL     1     -12.108   5.760  72.841  1.00  0.00    -0.543 OA 
HETATM    6  C   UNL     1     -10.356   4.388  73.352  1.00  0.00    -0.237 C  
HETATM    7  C   UNL     1     -10.295   6.083  74.119  1.00  0.00    -0.301 C  
HETATM    8  C   UNL     1     -10.886   3.249  74.149  1.00  0.00    -0.215 C  
HETATM    9  H   UNL     1     -13.047   5.714  72.704  1.00  0.00     0.000 HD 
HETATM   10  C   UNL     1     -10.261   7.383  72.851  1.00  0.00    -0.310 C  
HETATM   11  C   UNL     1      -9.750   7.099  71.210  1.00  0.00    -0.170 C  
HETATM   12  C   UNL     1     -10.027   8.173  70.151  1.00  0.00    -0.187 A  
HETATM   13  C   UNL     1     -10.344   9.496  70.513  1.00  0.00    -0.350 A  
HETATM   14  C   UNL     1     -10.365  10.525  69.561  1.00  0.00    -0.251 A  
HETATM   15  C   UNL     1     -10.070  10.233  68.228  1.00  0.00    -0.154 A  
HETATM   16  C   UNL     1      -9.742   8.936  67.850  1.00  0.00    -0.190 A  
HETATM   17  C   UNL     1      -8.839   5.524  69.325  1.00  0.00    -0.112 C  
HETATM   18  C   UNL     1      -9.699   7.902  68.797  1.00  0.00    -0.159 A  
HETATM   19  C   UNL     1      -9.825   5.521  70.484  1.00  0.00    -0.254 C  
HETATM   20  C   UNL     1      -9.292   6.540  68.280  1.00  0.00    -0.118 C  
ENDROOT
BRANCH  15  21
HETATM   21  O   UNL     1     -10.006  11.282  67.292  1.00  0.00    -0.180 OA 
BRANCH  21  22
HETATM   22  C   UNL     1     -11.130  12.100  67.200  1.00  0.00    -0.291 C  
HETATM   23  O   UNL     1     -12.210  11.779  66.714  1.00  0.00    -0.376 OA 
HETATM   24  N   UNL     1     -10.947  13.321  67.837  1.00  0.00    -0.242 N  
BRANCH  24  25
HETATM   25  C   UNL     1     -12.075  13.834  68.612  1.00  0.00    -0.298 C  
HETATM   26 CL   UNL     1     -13.260  14.745  70.872  1.00  0.00    -0.421 Cl 
HETATM   27  C   UNL     1     -11.799  14.091  70.086  1.00  0.00    -0.306 C  
ENDBRANCH  24  25
BRANCH  24  28
HETATM   28  C   UNL     1      -9.702  14.083  67.706  1.00  0.00    -0.228 C  
HETATM   29 CL   UNL     1     -10.700  16.073  66.109  1.00  0.00    -0.283 Cl 
HETATM   30  C   UNL     1      -9.488  14.803  66.377  1.00  0.00    -0.301 C  
ENDBRANCH  24  28
ENDBRANCH  21  22
ENDBRANCH  15  21
TORSDOF 4
ENDMDL
MODEL       66
REMARK 921   NORMALIZED FREE ENERGY PREDICTED BY IDOCK:   -5.65 KCAL/MOL
REMARK 922        TOTAL FREE ENERGY PREDICTED BY IDOCK:   -7.63 KCAL/MOL
REMARK 923 INTER-LIGAND FREE ENERGY PREDICTED BY IDOCK:   -7.07 KCAL/MOL
REMARK 924 INTRA-LIGAND FREE ENERGY PREDICTED BY IDOCK:   -0.56 KCAL/MOL
REMARK 927      BINDING AFFINITY PREDICTED BY RF-SCORE:    0.00 PKD
ROOT
HETATM    1  C   UNL     1      -9.256  19.022  66.320  1.00  0.00    -0.307 C  
HETATM    2  C   UNL     1     -10.379  19.366  67.125  1.00  0.00    -0.548 C  
HETATM    3  C   UNL     1      -9.347  18.719  67.988  1.00  0.00    -0.340 C  
HETATM    4  C   UNL     1      -7.636  18.410  66.941  1.00  0.00    -0.218 C  
HETATM    5  O   UNL     1      -6.284  18.039  67.213  1.00  0.00    -0.155 OA 
HETATM    6  C   UNL     1      -7.889  19.641  67.490  1.00  0.00    -0.309 C  
HETATM    7  C   UNL     1      -7.416  18.707  69.031  1.00  0.00    -0.243 C  
HETATM    8  C   UNL     1      -7.263  20.964  67.222  1.00  0.00    -0.408 C  
HETATM    9  H   UNL     1      -5.484  17.895  66.724  1.00  0.00     0.000 HD 
HETATM   10  C   UNL     1      -7.742  16.930  68.853  1.00  0.00    -0.237 C  
HETATM   11  C   UNL     1      -8.870  16.279  67.696  1.00  0.00    -0.195 C  
HETATM   12  C   UNL     1      -8.864  14.770  67.423  1.00  0.00    -0.203 A  
HETATM   13  C   UNL     1      -8.251  13.866  68.311  1.00  0.00    -0.158 A  
HETATM   14  C   UNL     1      -8.446  12.483  68.190  1.00  0.00    -0.180 A  
HETATM   15  C   UNL     1      -9.261  11.992  67.169  1.00  0.00    -0.190 A  
HETATM   16  C   UNL     1      -9.886  12.866  66.288  1.00  0.00    -0.273 A  
HETATM   17  C   UNL     1     -10.638  16.583  65.786  1.00  0.00    -0.307 C  
HETATM   18  C   UNL     1      -9.714  14.253  66.410  1.00  0.00    -0.315 A  
HETATM   19  C   UNL     1      -9.298  17.139  66.246  1.00  0.00    -0.260 C  
HETATM   20  C   UNL     1     -10.474  15.110  65.422  1.00  0.00    -0.416 C  
ENDROOT
BRANCH  15  21
HETATM   21  O   UNL     1      -9.524  10.611  67.104  1.00  0.00    -0.154 OA 
BRANCH  21  22
HETATM   22  C   UNL     1      -8.728   9.789  67.898  1.00  0.00    -0.125 C  
HETATM   23  O   UNL     1      -7.595   9.407  67.621  1.00  0.00    -0.087 OA 
HETATM   24  N   UNL     1      -9.308   9.525  69.133  1.00  0.00    -0.156 N  
BRANCH  24  25
HETATM   25  C   UNL     1      -8.420   9.542  70.294  1.00  0.00    -0.207 C  
HETATM   26 CL   UNL     1      -7.119   8.398  72.377  1.00  0.00    -0.118 Cl 
HETATM   27  C   UNL     1      -8.256   8.213  71.016  1.00  0.00    -0.108 C  
ENDBRANCH  24  25
BRANCH  24  28
HETATM   28  C   UNL     1     -10.731   9.202  69.265  1.00  0.00    -0.183 C  
HETATM   29 CL   UNL     1     -11.594  11.740  69.836  1.00  0.00    -0.370 Cl 
HETATM   30  C   UNL     1     -11.517  10.023  70.285  1.00  0.00    -0.300 C  
ENDBRANCH  24  28
ENDBRANCH  21  22
ENDBRANCH  15  21
TORSDOF 4
ENDMDL
MODEL       67
REMARK 921   NORMALIZED FREE ENERGY PREDICTED BY IDOCK:   -5.63 KCAL/MOL
REMARK 922        TOTAL FREE ENERGY PREDICTED BY IDOCK:   -7.61 KCAL/MOL
REMARK 923 INTER-LIGAND FREE ENERGY PREDICTED BY IDOCK:   -7.35 KCAL/MOL
REMARK 924 INTRA-LIGAND FREE ENERGY PREDICTED BY IDOCK:   -0.25 KCAL/MOL
REMARK 927      BINDING AFFINITY PREDICTED BY RF-SCORE:    0.00 PKD
ROOT
HETATM    1  C   UNL     1      -7.042  18.012  67.551  1.00  0.00    -0.201 C  
HETATM    2  C   UNL     1      -6.534  17.968  66.222  1.00  0.00    -0.263 C  
HETATM    3  C   UNL     1      -8.017  18.136  66.166  1.00  0.00    -0.222 C  
HETATM    4  C   UNL     1      -8.770  18.429  68.028  1.00  0.00    -0.287 C  
HETATM    5  O   UNL     1     -10.007  18.831  68.615  1.00  0.00    -0.367 OA 
HETATM    6  C   UNL     1      -8.232  19.482  67.335  1.00  0.00    -0.321 C  
HETATM    7  C   UNL     1      -9.850  19.312  66.430  1.00  0.00    -0.455 C  
HETATM    8  C   UNL     1      -7.800  20.826  67.805  1.00  0.00    -0.104 C  
HETATM    9  H   UNL     1     -10.360  18.968  69.486  1.00  0.00     0.000 HD 
HETATM   10  C   UNL     1     -10.490  17.616  66.532  1.00  0.00    -0.283 C  
HETATM   11  C   UNL     1      -9.484  16.237  66.878  1.00  0.00    -0.245 C  
HETATM   12  C   UNL     1     -10.151  14.901  67.228  1.00  0.00    -0.235 A  
HETATM   13  C   UNL     1     -11.506  14.658  66.932  1.00  0.00    -0.372 A  
HETATM   14  C   UNL     1     -12.052  13.370  67.031  1.00  0.00    -0.390 A  
HETATM   15  C   UNL     1     -11.239  12.309  67.434  1.00  0.00    -0.301 A  
HETATM   16  C   UNL     1      -9.897  12.524  67.719  1.00  0.00    -0.204 A  
HETATM   17  C   UNL     1      -7.149  15.165  67.391  1.00  0.00    -0.219 C  
HETATM   18  C   UNL     1      -9.334  13.803  67.605  1.00  0.00    -0.213 A  
HETATM   19  C   UNL     1      -7.982  16.389  67.742  1.00  0.00    -0.160 C  
HETATM   20  C   UNL     1      -7.854  13.912  67.902  1.00  0.00    -0.161 C  
ENDROOT
BRANCH  15  21
HETATM   21  O   UNL     1     -11.769  11.006  67.448  1.00  0.00    -0.539 OA 
BRANCH  21  22
HETATM   22  C   UNL     1     -11.032  10.044  68.136  1.00  0.00    -0.235 C  
HETATM   23  O   UNL     1     -10.893   9.985  69.354  1.00  0.00    -0.217 OA 
HETATM   24  N   UNL     1     -10.546   9.051  67.294  1.00  0.00    -0.269 N  
BRANCH  24  25
HETATM   25  C   UNL     1     -10.610   7.678  67.792  1.00  0.00    -0.196 C  
HETATM   26 CL   UNL     1     -10.266   4.998  67.586  1.00  0.00    -0.194 Cl 
HETATM   27  C   UNL     1     -10.163   6.602  66.814  1.00  0.00    -0.195 C  
ENDBRANCH  24  25
BRANCH  24  28
HETATM   28  C   UNL     1      -9.957   9.363  65.989  1.00  0.00    -0.281 C  
HETATM   29 CL   UNL     1      -7.352   8.863  66.677  1.00  0.00    -0.085 Cl 
HETATM   30  C   UNL     1      -8.561   9.980  66.010  1.00  0.00    -0.138 C  
ENDBRANCH  24  28
ENDBRANCH  21  22
ENDBRANCH  15  21
TORSDOF 4
ENDMDL
MODEL       68
REMARK 921   NORMALIZED FREE ENERGY PREDICTED BY IDOCK:   -5.52 KCAL/MOL
REMARK 922        TOTAL FREE ENERGY PREDICTED BY IDOCK:   -7.47 KCAL/MOL
REMARK 923 INTER-LIGAND FREE ENERGY PREDICTED BY IDOCK:   -6.63 KCAL/MOL
REMARK 924 INTRA-LIGAND FREE ENERGY PREDICTED BY IDOCK:   -0.84 KCAL/MOL
REMARK 927      BINDING AFFINITY PREDICTED BY RF-SCORE:    0.00 PKD
ROOT
HETATM    1  C   UNL     1      -9.984  17.360  66.770  1.00  0.00    -0.307 C  
HETATM    2  C   UNL     1     -10.725  17.717  67.933  1.00  0.00    -0.341 C  
HETATM    3  C   UNL     1      -9.291  17.540  68.311  1.00  0.00    -0.281 C  
HETATM    4  C   UNL     1      -8.150  17.252  66.657  1.00  0.00    -0.265 C  
HETATM    5  O   UNL     1      -6.763  17.221  66.325  1.00  0.00    -0.241 OA 
HETATM    6  C   UNL     1      -8.500  18.523  67.033  1.00  0.00    -0.266 C  
HETATM    7  C   UNL     1      -7.190  18.173  68.310  1.00  0.00    -0.257 C  
HETATM    8  C   UNL     1      -8.451  19.802  66.274  1.00  0.00    -0.390 C  
HETATM    9  H   UNL     1      -6.229  17.087  65.551  1.00  0.00     0.000 HD 
HETATM   10  C   UNL     1      -7.032  16.391  68.623  1.00  0.00    -0.159 C  
HETATM   11  C   UNL     1      -8.294  15.245  68.265  1.00  0.00    -0.148 C  
HETATM   12  C   UNL     1      -7.965  13.747  68.292  1.00  0.00    -0.146 A  
HETATM   13  C   UNL     1      -6.809  13.262  68.933  1.00  0.00    -0.103 A  
HETATM   14  C   UNL     1      -6.628  11.890  69.164  1.00  0.00    -0.103 A  
HETATM   15  C   UNL     1      -7.610  10.989  68.748  1.00  0.00    -0.127 A  
HETATM   16  C   UNL     1      -8.764  11.447  68.125  1.00  0.00    -0.154 A  
HETATM   17  C   UNL     1     -10.693  14.666  67.386  1.00  0.00    -0.280 C  
HETATM   18  C   UNL     1      -8.965  12.817  67.905  1.00  0.00    -0.186 A  
HETATM   19  C   UNL     1      -9.506  15.560  67.059  1.00  0.00    -0.238 C  
HETATM   20  C   UNL     1     -10.275  13.204  67.255  1.00  0.00    -0.243 C  
ENDROOT
BRANCH  15  21
HETATM   21  O   UNL     1      -7.465   9.624  69.060  1.00  0.00    -0.071 OA 
BRANCH  21  22
HETATM   22  C   UNL     1      -8.061   9.191  70.242  1.00  0.00    -0.148 C  
HETATM   23  O   UNL     1      -7.739   9.537  71.374  1.00  0.00    -0.297 OA 
HETATM   24  N   UNL     1      -9.172   8.389  70.009  1.00  0.00    -0.157 N  
BRANCH  24  25
HETATM   25  C   UNL     1     -10.332   8.606  70.871  1.00  0.00    -0.211 C  
HETATM   26 CL   UNL     1     -12.552   9.938  71.671  1.00  0.00    -0.486 Cl 
HETATM   27  C   UNL     1     -11.163   9.842  70.557  1.00  0.00    -0.330 C  
ENDBRANCH  24  25
BRANCH  24  28
HETATM   28  C   UNL     1      -9.170   7.344  68.981  1.00  0.00    -0.146 C  
HETATM   29 CL   UNL     1     -10.654   8.707  67.124  1.00  0.00    -0.352 Cl 
HETATM   30  C   UNL     1     -10.422   7.250  68.113  1.00  0.00    -0.198 C  
ENDBRANCH  24  28
ENDBRANCH  21  22
ENDBRANCH  15  21
TORSDOF 4
ENDMDL
MODEL       69
REMARK 921   NORMALIZED FREE ENERGY PREDICTED BY IDOCK:   -5.50 KCAL/MOL
REMARK 922        TOTAL FREE ENERGY PREDICTED BY IDOCK:   -7.45 KCAL/MOL
REMARK 923 INTER-LIGAND FREE ENERGY PREDICTED BY IDOCK:   -6.80 KCAL/MOL
REMARK 924 INTRA-LIGAND FREE ENERGY PREDICTED BY IDOCK:   -0.65 KCAL/MOL
REMARK 927      BINDING AFFINITY PREDICTED BY RF-SCORE:    0.00 PKD
ROOT
HETATM    1  C   UNL     1     -10.960  17.600  68.076  1.00  0.00    -0.107 C  
HETATM    2  C   UNL     1     -10.076  17.976  69.127  1.00  0.00    -0.204 C  
HETATM    3  C   UNL     1      -9.310  17.199  68.107  1.00  0.00    -0.264 C  
HETATM    4  C   UNL     1     -10.465  16.830  66.480  1.00  0.00    -0.258 C  
HETATM    5  O   UNL     1     -10.290  16.341  65.150  1.00  0.00    -0.587 OA 
HETATM    6  C   UNL     1      -9.831  18.038  66.608  1.00  0.00    -0.352 C  
HETATM    7  C   UNL     1      -8.377  16.976  66.134  1.00  0.00    -0.276 C  
HETATM    8  C   UNL     1     -10.053  19.325  65.894  1.00  0.00    -0.358 C  
HETATM    9  H   UNL     1     -10.830  16.168  64.388  1.00  0.00     0.000 HD 
HETATM   10  C   UNL     1      -8.641  15.243  66.607  1.00  0.00    -0.305 C  
HETATM   11  C   UNL     1      -9.772  14.754  67.838  1.00  0.00    -0.211 C  
HETATM   12  C   UNL     1     -10.135  13.269  67.965  1.00  0.00    -0.235 A  
HETATM   13  C   UNL     1      -9.337  12.267  67.381  1.00  0.00    -0.183 A  
HETATM   14  C   UNL     1      -9.529  10.913  67.691  1.00  0.00    -0.170 A  
HETATM   15  C   UNL     1     -10.532  10.550  68.591  1.00  0.00    -0.191 A  
HETATM   16  C   UNL     1     -11.323  11.523  69.189  1.00  0.00    -0.351 A  
HETATM   17  C   UNL     1     -11.562  15.311  69.670  1.00  0.00    -0.340 C  
HETATM   18  C   UNL     1     -11.129  12.883  68.902  1.00  0.00    -0.301 A  
HETATM   19  C   UNL     1     -11.143  15.734  68.269  1.00  0.00    -0.342 C  
HETATM   20  C   UNL     1     -12.021  13.856  69.641  1.00  0.00    -0.399 C  
ENDROOT
BRANCH  15  21
HETATM   21  O   UNL     1     -10.664   9.200  68.965  1.00  0.00    -0.217 OA 
BRANCH  21  22
HETATM   22  C   UNL     1     -10.335   8.253  67.998  1.00  0.00    -0.213 C  
HETATM   23  O   UNL     1     -10.978   8.019  66.979  1.00  0.00    -0.191 OA 
HETATM   24  N   UNL     1      -9.105   7.655  68.242  1.00  0.00    -0.137 N  
BRANCH  24  25
HETATM   25  C   UNL     1      -8.242   7.431  67.084  1.00  0.00    -0.118 C  
HETATM   26 CL   UNL     1      -6.822   5.883  65.373  1.00  0.00    -0.054 Cl 
HETATM   27  C   UNL     1      -7.838   5.985  66.834  1.00  0.00    -0.101 C  
ENDBRANCH  24  25
BRANCH  24  28
HETATM   28  C   UNL     1      -8.706   7.227  69.586  1.00  0.00    -0.141 C  
HETATM   29 CL   UNL     1      -7.468   9.558  70.320  1.00  0.00    -0.127 Cl 
HETATM   30  C   UNL     1      -7.391   7.796  70.112  1.00  0.00    -0.071 C  
ENDBRANCH  24  28
ENDBRANCH  21  22
ENDBRANCH  15  21
TORSDOF 4
ENDMDL
MODEL       70
REMARK 921   NORMALIZED FREE ENERGY PREDICTED BY IDOCK:   -5.50 KCAL/MOL
REMARK 922        TOTAL FREE ENERGY PREDICTED BY IDOCK:   -7.45 KCAL/MOL
REMARK 923 INTER-LIGAND FREE ENERGY PREDICTED BY IDOCK:   -7.11 KCAL/MOL
REMARK 924 INTRA-LIGAND FREE ENERGY PREDICTED BY IDOCK:   -0.35 KCAL/MOL
REMARK 927      BINDING AFFINITY PREDICTED BY RF-SCORE:    0.00 PKD
ROOT
HETATM    1  C   UNL     1      -9.364   5.262  73.586  1.00  0.00    -0.133 C  
HETATM    2  C   UNL     1     -10.721   5.067  73.973  1.00  0.00    -0.341 C  
HETATM    3  C   UNL     1     -10.524   4.504  72.604  1.00  0.00    -0.258 C  
HETATM    4  C   UNL     1      -8.562   4.551  72.090  1.00  0.00    -0.114 C  
HETATM    5  O   UNL     1      -7.726   4.014  71.065  1.00  0.00    -0.053 OA 
HETATM    6  C   UNL     1      -9.040   3.529  72.869  1.00  0.00    -0.115 C  
HETATM    7  C   UNL     1      -9.722   3.004  71.218  1.00  0.00    -0.208 C  
HETATM    8  C   UNL     1      -8.317   2.533  73.706  1.00  0.00    -0.063 C  
HETATM    9  H   UNL     1      -6.807   4.036  70.825  1.00  0.00     0.000 HD 
HETATM   10  C   UNL     1      -9.956   4.428  70.116  1.00  0.00    -0.249 C  
HETATM   11  C   UNL     1     -10.107   6.064  70.692  1.00  0.00    -0.246 C  
HETATM   12  C   UNL     1     -10.011   7.218  69.686  1.00  0.00    -0.176 A  
HETATM   13  C   UNL     1     -10.164   6.999  68.304  1.00  0.00    -0.206 A  
HETATM   14  C   UNL     1     -10.312   8.071  67.411  1.00  0.00    -0.354 A  
HETATM   15  C   UNL     1     -10.304   9.378  67.900  1.00  0.00    -0.225 A  
HETATM   16  C   UNL     1     -10.166   9.616  69.262  1.00  0.00    -0.215 A  
HETATM   17  C   UNL     1     -10.210   7.817  72.637  1.00  0.00    -0.340 C  
HETATM   18  C   UNL     1     -10.036   8.553  70.167  1.00  0.00    -0.197 A  
HETATM   19  C   UNL     1      -9.453   6.563  72.225  1.00  0.00    -0.144 C  
HETATM   20  C   UNL     1      -9.933   8.928  71.629  1.00  0.00    -0.397 C  
ENDROOT
BRANCH  15  21
HETATM   21  O   UNL     1     -10.540  10.445  67.013  1.00  0.00    -0.243 OA 
BRANCH  21  22
HETATM   22  C   UNL     1     -11.249  11.530  67.522  1.00  0.00    -0.298 C  
HETATM   23  O   UNL     1     -12.356  11.477  68.051  1.00  0.00    -0.445 OA 
HETATM   24  N   UNL     1     -10.513  12.708  67.481  1.00  0.00    -0.219 N  
BRANCH  24  25
HETATM   25  C   UNL     1     -10.612  13.586  68.646  1.00  0.00    -0.244 C  
HETATM   26 CL   UNL     1     -11.591  15.709  70.014  1.00  0.00    -0.324 Cl 
HETATM   27  C   UNL     1     -11.561  14.766  68.501  1.00  0.00    -0.321 C  
ENDBRANCH  24  25
BRANCH  24  28
HETATM   28  C   UNL     1      -9.710  13.077  66.312  1.00  0.00    -0.263 C  
HETATM   29 CL   UNL     1     -11.690  14.402  64.958  1.00  0.00    -0.372 Cl 
HETATM   30  C   UNL     1     -10.448  13.133  64.977  1.00  0.00    -0.342 C  
ENDBRANCH  24  28
ENDBRANCH  21  22
ENDBRANCH  15  21
TORSDOF 4
ENDMDL
MODEL       71
REMARK 921   NORMALIZED FREE ENERGY PREDICTED BY IDOCK:   -5.49 KCAL/MOL
REMARK 922        TOTAL FREE ENERGY PREDICTED BY IDOCK:   -7.43 KCAL/MOL
REMARK 923 INTER-LIGAND FREE ENERGY PREDICTED BY IDOCK:   -6.81 KCAL/MOL
REMARK 924 INTRA-LIGAND FREE ENERGY PREDICTED BY IDOCK:   -0.62 KCAL/MOL
REMARK 927      BINDING AFFINITY PREDICTED BY RF-SCORE:    0.00 PKD
ROOT
HETATM    1  C   UNL     1     -11.339  15.218  68.244  1.00  0.00    -0.344 C  
HETATM    2  C   UNL     1     -10.807  15.668  69.486  1.00  0.00    -0.271 C  
HETATM    3  C   UNL     1      -9.697  15.102  68.664  1.00  0.00    -0.216 C  
HETATM    4  C   UNL     1     -10.353  14.651  66.797  1.00  0.00    -0.268 C  
HETATM    5  O   UNL     1      -9.786  14.289  65.538  1.00  0.00    -0.500 OA 
HETATM    6  C   UNL     1      -9.996  15.938  67.103  1.00  0.00    -0.240 C  
HETATM    7  C   UNL     1      -8.304  15.173  66.970  1.00  0.00    -0.263 C  
HETATM    8  C   UNL     1     -10.275  17.213  66.387  1.00  0.00    -0.331 C  
HETATM    9  H   UNL     1     -10.093  14.078  64.664  1.00  0.00     0.000 HD 
HETATM   10  C   UNL     1      -8.353  13.393  67.324  1.00  0.00    -0.183 C  
HETATM   11  C   UNL     1      -9.633  12.637  68.233  1.00  0.00    -0.208 C  
HETATM   12  C   UNL     1      -9.740  11.108  68.233  1.00  0.00    -0.190 A  
HETATM   13  C   UNL     1      -8.660  10.297  67.836  1.00  0.00    -0.118 A  
HETATM   14  C   UNL     1      -8.670   8.912  68.058  1.00  0.00    -0.133 A  
HETATM   15  C   UNL     1      -9.773   8.325  68.680  1.00  0.00    -0.156 A  
HETATM   16  C   UNL     1     -10.845   9.107  69.091  1.00  0.00    -0.131 A  
HETATM   17  C   UNL     1     -11.871  12.758  69.590  1.00  0.00    -0.384 C  
HETATM   18  C   UNL     1     -10.838  10.496  68.893  1.00  0.00    -0.275 A  
HETATM   19  C   UNL     1     -11.221  13.339  68.343  1.00  0.00    -0.314 C  
HETATM   20  C   UNL     1     -12.040  11.252  69.416  1.00  0.00    -0.384 C  
ENDROOT
BRANCH  15  21
HETATM   21  O   UNL     1      -9.742   6.950  68.979  1.00  0.00    -0.149 OA 
BRANCH  21  22
HETATM   22  C   UNL     1      -8.828   6.546  69.949  1.00  0.00    -0.143 C  
HETATM   23  O   UNL     1      -7.607   6.601  69.848  1.00  0.00    -0.095 OA 
HETATM   24  N   UNL     1      -9.449   6.169  71.134  1.00  0.00    -0.167 N  
BRANCH  24  25
HETATM   25  C   UNL     1      -8.811   6.599  72.377  1.00  0.00    -0.132 C  
HETATM   26 CL   UNL     1      -8.186   8.414  74.288  1.00  0.00    -0.255 Cl 
HETATM   27  C   UNL     1      -8.989   8.067  72.735  1.00  0.00    -0.228 C  
ENDBRANCH  24  25
BRANCH  24  28
HETATM   28  C   UNL     1     -10.660   5.343  71.143  1.00  0.00    -0.206 C  
HETATM   29 CL   UNL     1     -12.437   7.369  71.640  1.00  0.00    -0.362 Cl 
HETATM   30  C   UNL     1     -11.771   5.786  72.092  1.00  0.00    -0.163 C  
ENDBRANCH  24  28
ENDBRANCH  21  22
ENDBRANCH  15  21
TORSDOF 4
ENDMDL
MODEL       72
REMARK 921   NORMALIZED FREE ENERGY PREDICTED BY IDOCK:   -5.46 KCAL/MOL
REMARK 922        TOTAL FREE ENERGY PREDICTED BY IDOCK:   -7.39 KCAL/MOL
REMARK 923 INTER-LIGAND FREE ENERGY PREDICTED BY IDOCK:   -6.72 KCAL/MOL
REMARK 924 INTRA-LIGAND FREE ENERGY PREDICTED BY IDOCK:   -0.67 KCAL/MOL
REMARK 927      BINDING AFFINITY PREDICTED BY RF-SCORE:    0.00 PKD
ROOT
HETATM    1  C   UNL     1      -7.888  18.450  67.701  1.00  0.00    -0.240 C  
HETATM    2  C   UNL     1      -7.003  18.646  66.602  1.00  0.00    -0.231 C  
HETATM    3  C   UNL     1      -8.404  18.596  66.089  1.00  0.00    -0.174 C  
HETATM    4  C   UNL     1      -9.725  18.543  67.629  1.00  0.00    -0.296 C  
HETATM    5  O   UNL     1     -11.133  18.681  67.817  1.00  0.00    -0.243 OA 
HETATM    6  C   UNL     1      -9.201  19.741  67.219  1.00  0.00    -0.437 C  
HETATM    7  C   UNL     1     -10.412  19.445  65.836  1.00  0.00    -0.561 C  
HETATM    8  C   UNL     1      -9.180  21.067  67.895  1.00  0.00     0.119 C  
HETATM    9  H   UNL     1     -11.751  18.656  68.538  1.00  0.00     0.000 HD 
HETATM   10  C   UNL     1     -10.737  17.673  65.610  1.00  0.00    -0.084 C  
HETATM   11  C   UNL     1      -9.651  16.427  66.162  1.00  0.00    -0.356 C  
HETATM   12  C   UNL     1     -10.141  14.974  66.186  1.00  0.00    -0.312 A  
HETATM   13  C   UNL     1     -11.276  14.570  65.457  1.00  0.00    -0.335 A  
HETATM   14  C   UNL     1     -11.585  13.213  65.287  1.00  0.00    -0.350 A  
HETATM   15  C   UNL     1     -10.755  12.244  65.853  1.00  0.00    -0.258 A  
HETATM   16  C   UNL     1      -9.623  12.619  66.565  1.00  0.00    -0.248 A  
HETATM   17  C   UNL     1      -7.427  15.660  67.315  1.00  0.00    -0.257 C  
HETATM   18  C   UNL     1      -9.292  13.973  66.726  1.00  0.00    -0.289 A  
HETATM   19  C   UNL     1      -8.533  16.695  67.467  1.00  0.00    -0.199 C  
HETATM   20  C   UNL     1      -8.016  14.263  67.486  1.00  0.00    -0.203 C  
ENDROOT
BRANCH  15  21
HETATM   21  O   UNL     1     -11.020  10.884  65.606  1.00  0.00    -0.112 OA 
BRANCH  21  22
HETATM   22  C   UNL     1      -9.936  10.100  65.219  1.00  0.00    -0.311 C  
HETATM   23  O   UNL     1      -9.286  10.238  64.187  1.00  0.00    -0.221 OA 
HETATM   24  N   UNL     1      -9.569   9.187  66.200  1.00  0.00    -0.246 N  
BRANCH  24  25
HETATM   25  C   UNL     1      -8.136   8.999  66.421  1.00  0.00    -0.110 C  
HETATM   26 CL   UNL     1      -5.745   9.618  67.534  1.00  0.00    -0.040 Cl 
HETATM   27  C   UNL     1      -7.473  10.011  67.343  1.00  0.00    -0.091 C  
ENDBRANCH  24  25
BRANCH  24  28
HETATM   28  C   UNL     1     -10.564   8.414  66.949  1.00  0.00    -0.215 C  
HETATM   29 CL   UNL     1     -10.619  10.015  69.172  1.00  0.00    -0.221 Cl 
HETATM   30  C   UNL     1     -10.404   8.400  68.467  1.00  0.00    -0.200 C  
ENDBRANCH  24  28
ENDBRANCH  21  22
ENDBRANCH  15  21
TORSDOF 4
ENDMDL
MODEL       73
REMARK 921   NORMALIZED FREE ENERGY PREDICTED BY IDOCK:   -5.41 KCAL/MOL
REMARK 922        TOTAL FREE ENERGY PREDICTED BY IDOCK:   -7.34 KCAL/MOL
REMARK 923 INTER-LIGAND FREE ENERGY PREDICTED BY IDOCK:   -7.08 KCAL/MOL
REMARK 924 INTRA-LIGAND FREE ENERGY PREDICTED BY IDOCK:   -0.26 KCAL/MOL
REMARK 927      BINDING AFFINITY PREDICTED BY RF-SCORE:    0.00 PKD
ROOT
HETATM    1  C   UNL     1     -10.990  14.672  66.101  1.00  0.00    -0.329 C  
HETATM    2  C   UNL     1      -9.700  15.013  65.605  1.00  0.00    -0.344 C  
HETATM    3  C   UNL     1     -10.196  13.811  64.872  1.00  0.00    -0.374 C  
HETATM    4  C   UNL     1     -12.120  13.412  65.378  1.00  0.00    -0.421 C  
HETATM    5  O   UNL     1     -13.181  12.575  64.917  1.00  0.00    -0.787 OA 
HETATM    6  C   UNL     1     -11.846  14.362  64.429  1.00  0.00    -0.433 C  
HETATM    7  C   UNL     1     -11.523  12.826  63.428  1.00  0.00    -0.454 C  
HETATM    8  C   UNL     1     -12.708  15.433  63.859  1.00  0.00     0.752 C  
HETATM    9  H   UNL     1     -14.081  12.388  65.154  1.00  0.00     0.000 HD 
HETATM   10  C   UNL     1     -11.046  11.433  64.490  1.00  0.00    -0.302 C  
HETATM   11  C   UNL     1     -10.397  11.636  66.094  1.00  0.00    -0.280 C  
HETATM   12  C   UNL     1     -10.297  10.413  67.014  1.00  0.00    -0.295 A  
HETATM   13  C   UNL     1     -10.366   9.103  66.503  1.00  0.00    -0.269 A  
HETATM   14  C   UNL     1     -10.041   7.995  67.298  1.00  0.00    -0.309 A  
HETATM   15  C   UNL     1      -9.644   8.192  68.622  1.00  0.00    -0.149 A  
HETATM   16  C   UNL     1      -9.556   9.477  69.143  1.00  0.00    -0.170 A  
HETATM   17  C   UNL     1      -9.607  13.151  68.081  1.00  0.00    -0.227 C  
HETATM   18  C   UNL     1      -9.860  10.595  68.353  1.00  0.00    -0.170 A  
HETATM   19  C   UNL     1     -10.714  13.061  67.040  1.00  0.00    -0.270 C  
HETATM   20  C   UNL     1      -9.692  11.946  69.013  1.00  0.00     0.159 C  
ENDROOT
BRANCH  15  21
HETATM   21  O   UNL     1      -9.235   7.085  69.388  1.00  0.00    -0.148 OA 
BRANCH  21  22
HETATM   22  C   UNL     1     -10.247   6.322  69.967  1.00  0.00    -0.188 C  
HETATM   23  O   UNL     1     -11.164   5.775  69.362  1.00  0.00    -0.321 OA 
HETATM   24  N   UNL     1     -10.051   6.132  71.329  1.00  0.00    -0.185 N  
BRANCH  24  25
HETATM   25  C   UNL     1     -10.343   4.800  71.856  1.00  0.00    -0.172 C  
HETATM   26 CL   UNL     1     -11.437   3.075  73.635  1.00  0.00    -0.259 Cl 
HETATM   27  C   UNL     1     -11.138   4.765  73.153  1.00  0.00    -0.310 C  
ENDBRANCH  24  25
BRANCH  24  28
HETATM   28  C   UNL     1      -9.617   7.222  72.207  1.00  0.00    -0.146 C  
HETATM   29 CL   UNL     1     -12.106   8.254  72.707  1.00  0.00    -0.335 Cl 
HETATM   30  C   UNL     1     -10.440   8.507  72.146  1.00  0.00    -0.342 C  
ENDBRANCH  24  28
ENDBRANCH  21  22
ENDBRANCH  15  21
TORSDOF 4
ENDMDL
MODEL       74
REMARK 921   NORMALIZED FREE ENERGY PREDICTED BY IDOCK:   -5.41 KCAL/MOL
REMARK 922        TOTAL FREE ENERGY PREDICTED BY IDOCK:   -7.33 KCAL/MOL
REMARK 923 INTER-LIGAND FREE ENERGY PREDICTED BY IDOCK:   -6.60 KCAL/MOL
REMARK 924 INTRA-LIGAND FREE ENERGY PREDICTED BY IDOCK:   -0.73 KCAL/MOL
REMARK 927      BINDING AFFINITY PREDICTED BY RF-SCORE:    0.00 PKD
ROOT
HETATM    1  C   UNL     1     -11.379  16.078  68.411  1.00  0.00    -0.355 C  
HETATM    2  C   UNL     1     -11.094  16.445  69.757  1.00  0.00    -0.305 C  
HETATM    3  C   UNL     1      -9.806  16.217  69.036  1.00  0.00    -0.257 C  
HETATM    4  C   UNL     1     -10.142  15.911  67.059  1.00  0.00    -0.268 C  
HETATM    5  O   UNL     1      -9.376  15.839  65.856  1.00  0.00    -0.333 OA 
HETATM    6  C   UNL     1     -10.093  17.188  67.554  1.00  0.00    -0.301 C  
HETATM    7  C   UNL     1      -8.276  16.782  67.568  1.00  0.00    -0.187 C  
HETATM    8  C   UNL     1     -10.545  18.474  66.955  1.00  0.00    -0.406 C  
HETATM    9  H   UNL     1      -9.533  15.696  64.931  1.00  0.00     0.000 HD 
HETATM   10  C   UNL     1      -8.000  14.993  67.710  1.00  0.00    -0.155 C  
HETATM   11  C   UNL     1      -9.191  13.892  68.344  1.00  0.00    -0.194 C  
HETATM   12  C   UNL     1      -8.982  12.384  68.157  1.00  0.00    -0.196 A  
HETATM   13  C   UNL     1      -7.721  11.855  67.824  1.00  0.00    -0.136 A  
HETATM   14  C   UNL     1      -7.473  10.476  67.884  1.00  0.00    -0.091 A  
HETATM   15  C   UNL     1      -8.495   9.611  68.280  1.00  0.00    -0.118 A  
HETATM   16  C   UNL     1      -9.744  10.113  68.625  1.00  0.00    -0.167 A  
HETATM   17  C   UNL     1     -11.545  13.401  69.386  1.00  0.00    -0.365 C  
HETATM   18  C   UNL     1      -9.999  11.492  68.587  1.00  0.00    -0.207 A  
HETATM   19  C   UNL     1     -10.891  14.260  68.313  1.00  0.00    -0.256 C  
HETATM   20  C   UNL     1     -11.381  11.928  69.023  1.00  0.00    -0.337 C  
ENDROOT
BRANCH  15  21
HETATM   21  O   UNL     1      -8.217   8.239  68.423  1.00  0.00    -0.128 OA 
BRANCH  21  22
HETATM   22  C   UNL     1      -8.400   7.698  69.694  1.00  0.00    -0.130 C  
HETATM   23  O   UNL     1      -7.913   8.132  70.733  1.00  0.00    -0.090 OA 
HETATM   24  N   UNL     1      -9.314   6.651  69.695  1.00  0.00    -0.144 N  
BRANCH  24  25
HETATM   25  C   UNL     1     -10.258   6.603  70.810  1.00  0.00    -0.196 C  
HETATM   26 CL   UNL     1     -11.501   5.396  72.892  1.00  0.00    -0.367 Cl 
HETATM   27  C   UNL     1     -10.339   5.274  71.546  1.00  0.00    -0.221 C  
ENDBRANCH  24  25
BRANCH  24  28
HETATM   28  C   UNL     1      -9.308   5.618  68.655  1.00  0.00    -0.123 C  
HETATM   29 CL   UNL     1     -10.926   6.932  66.876  1.00  0.00    -0.421 Cl 
HETATM   30  C   UNL     1     -10.589   5.477  67.837  1.00  0.00    -0.145 C  
ENDBRANCH  24  28
ENDBRANCH  21  22
ENDBRANCH  15  21
TORSDOF 4
ENDMDL
MODEL       75
REMARK 921   NORMALIZED FREE ENERGY PREDICTED BY IDOCK:   -5.39 KCAL/MOL
REMARK 922        TOTAL FREE ENERGY PREDICTED BY IDOCK:   -7.31 KCAL/MOL
REMARK 923 INTER-LIGAND FREE ENERGY PREDICTED BY IDOCK:   -6.53 KCAL/MOL
REMARK 924 INTRA-LIGAND FREE ENERGY PREDICTED BY IDOCK:   -0.78 KCAL/MOL
REMARK 927      BINDING AFFINITY PREDICTED BY RF-SCORE:    0.00 PKD
ROOT
HETATM    1  C   UNL     1     -11.163  14.487  66.126  1.00  0.00    -0.339 C  
HETATM    2  C   UNL     1     -12.523  14.298  65.749  1.00  0.00    -0.421 C  
HETATM    3  C   UNL     1     -12.222  13.422  66.920  1.00  0.00    -0.343 C  
HETATM    4  C   UNL     1     -10.367  13.813  67.642  1.00  0.00    -0.239 C  
HETATM    5  O   UNL     1      -9.595  13.489  68.798  1.00  0.00    -0.391 OA 
HETATM    6  C   UNL     1     -11.424  14.605  68.008  1.00  0.00    -0.346 C  
HETATM    7  C   UNL     1     -11.790  13.104  69.047  1.00  0.00    -0.358 C  
HETATM    8  C   UNL     1     -11.446  15.951  68.643  1.00  0.00    -0.391 C  
HETATM    9  H   UNL     1      -8.727  13.672  69.137  1.00  0.00     0.000 HD 
HETATM   10  C   UNL     1     -11.091  11.601  68.307  1.00  0.00    -0.287 C  
HETATM   11  C   UNL     1     -10.684  11.471  66.618  1.00  0.00    -0.311 C  
HETATM   12  C   UNL     1      -9.840  10.280  66.148  1.00  0.00    -0.284 A  
HETATM   13  C   UNL     1      -9.692   9.127  66.942  1.00  0.00    -0.254 A  
HETATM   14  C   UNL     1      -9.125   7.954  66.422  1.00  0.00    -0.221 A  
HETATM   15  C   UNL     1      -8.696   7.930  65.094  1.00  0.00     0.049 A  
HETATM   16  C   UNL     1      -8.843   9.052  64.289  1.00  0.00    -0.089 A  
HETATM   17  C   UNL     1     -10.556  12.471  64.200  1.00  0.00    -0.425 C  
HETATM   18  C   UNL     1      -9.427  10.225  64.791  1.00  0.00    -0.341 A  
HETATM   19  C   UNL     1     -10.321  12.870  65.650  1.00  0.00    -0.295 C  
HETATM   20  C   UNL     1      -9.573  11.370  63.813  1.00  0.00    -0.258 C  
ENDROOT
BRANCH  15  21
HETATM   21  O   UNL     1      -8.208   6.726  64.552  1.00  0.00    -0.103 OA 
BRANCH  21  22
HETATM   22  C   UNL     1      -7.084   6.179  65.166  1.00  0.00    -0.064 C  
HETATM   23  O   UNL     1      -6.045   6.781  65.422  1.00  0.00    -0.034 OA 
HETATM   24  N   UNL     1      -7.295   4.871  65.583  1.00  0.00    -0.075 N  
BRANCH  24  25
HETATM   25  C   UNL     1      -6.750   4.501  66.888  1.00  0.00    -0.051 C  
HETATM   26 CL   UNL     1      -6.712   4.504  69.597  1.00  0.00    -0.040 Cl 
HETATM   27  C   UNL     1      -7.476   5.080  68.093  1.00  0.00    -0.075 C  
ENDBRANCH  24  25
BRANCH  24  28
HETATM   28  C   UNL     1      -7.990   3.893  64.741  1.00  0.00    -0.089 C  
HETATM   29 CL   UNL     1     -10.530   4.481  65.581  1.00  0.00    -0.299 Cl 
HETATM   30  C   UNL     1      -9.254   3.273  65.331  1.00  0.00    -0.152 C  
ENDBRANCH  24  28
ENDBRANCH  21  22
ENDBRANCH  15  21
TORSDOF 4
ENDMDL
MODEL       76
REMARK 921   NORMALIZED FREE ENERGY PREDICTED BY IDOCK:   -5.39 KCAL/MOL
REMARK 922        TOTAL FREE ENERGY PREDICTED BY IDOCK:   -7.31 KCAL/MOL
REMARK 923 INTER-LIGAND FREE ENERGY PREDICTED BY IDOCK:   -6.94 KCAL/MOL
REMARK 924 INTRA-LIGAND FREE ENERGY PREDICTED BY IDOCK:   -0.37 KCAL/MOL
REMARK 927      BINDING AFFINITY PREDICTED BY RF-SCORE:    0.00 PKD
ROOT
HETATM    1  C   UNL     1      -7.028  17.317  67.621  1.00  0.00    -0.169 C  
HETATM    2  C   UNL     1      -6.540  17.227  66.287  1.00  0.00    -0.248 C  
HETATM    3  C   UNL     1      -8.030  17.311  66.250  1.00  0.00    -0.330 C  
HETATM    4  C   UNL     1      -8.768  17.666  68.107  1.00  0.00    -0.265 C  
HETATM    5  O   UNL     1     -10.016  18.034  68.693  1.00  0.00    -0.357 OA 
HETATM    6  C   UNL     1      -8.299  18.706  67.347  1.00  0.00    -0.272 C  
HETATM    7  C   UNL     1      -9.920  18.400  66.483  1.00  0.00    -0.392 C  
HETATM    8  C   UNL     1      -7.934  20.096  67.734  1.00  0.00    -0.301 C  
HETATM    9  H   UNL     1     -10.362  18.200  69.562  1.00  0.00     0.000 HD 
HETATM   10  C   UNL     1     -10.465  16.681  66.690  1.00  0.00    -0.258 C  
HETATM   11  C   UNL     1      -9.380  15.379  67.093  1.00  0.00    -0.225 C  
HETATM   12  C   UNL     1      -9.967  14.031  67.527  1.00  0.00    -0.236 A  
HETATM   13  C   UNL     1     -11.311  13.699  67.270  1.00  0.00    -0.346 A  
HETATM   14  C   UNL     1     -11.784  12.392  67.450  1.00  0.00    -0.417 A  
HETATM   15  C   UNL     1     -10.908  11.400  67.896  1.00  0.00    -0.225 A  
HETATM   16  C   UNL     1      -9.575  11.702  68.143  1.00  0.00    -0.190 A  
HETATM   17  C   UNL     1      -6.981  14.464  67.619  1.00  0.00    -0.203 C  
HETATM   18  C   UNL     1      -9.085  13.001  67.949  1.00  0.00    -0.207 A  
HETATM   19  C   UNL     1      -7.874  15.660  67.918  1.00  0.00    -0.143 C  
HETATM   20  C   UNL     1      -7.609  13.205  68.211  1.00  0.00    -0.139 C  
ENDROOT
BRANCH  15  21
HETATM   21  O   UNL     1     -11.365  10.072  67.991  1.00  0.00    -0.203 OA 
BRANCH  21  22
HETATM   22  C   UNL     1     -10.405   9.073  67.847  1.00  0.00    -0.235 C  
HETATM   23  O   UNL     1      -9.856   8.756  66.796  1.00  0.00    -0.201 OA 
HETATM   24  N   UNL     1     -10.026   8.526  69.066  1.00  0.00    -0.187 N  
BRANCH  24  25
HETATM   25  C   UNL     1      -8.603   8.250  69.249  1.00  0.00    -0.138 C  
HETATM   26 CL   UNL     1      -6.221   8.497  70.516  1.00  0.00    -0.034 Cl 
HETATM   27  C   UNL     1      -7.937   8.971  70.412  1.00  0.00    -0.128 C  
ENDBRANCH  24  25
BRANCH  24  28
HETATM   28  C   UNL     1     -11.007   8.198  70.105  1.00  0.00    -0.223 C  
HETATM   29 CL   UNL     1     -10.431   5.524  70.268  1.00  0.00    -0.353 Cl 
HETATM   30  C   UNL     1     -11.634   6.808  70.025  1.00  0.00    -0.310 C  
ENDBRANCH  24  28
ENDBRANCH  21  22
ENDBRANCH  15  21
TORSDOF 4
ENDMDL
MODEL       77
REMARK 921   NORMALIZED FREE ENERGY PREDICTED BY IDOCK:   -5.39 KCAL/MOL
REMARK 922        TOTAL FREE ENERGY PREDICTED BY IDOCK:   -7.31 KCAL/MOL
REMARK 923 INTER-LIGAND FREE ENERGY PREDICTED BY IDOCK:   -6.79 KCAL/MOL
REMARK 924 INTRA-LIGAND FREE ENERGY PREDICTED BY IDOCK:   -0.52 KCAL/MOL
REMARK 927      BINDING AFFINITY PREDICTED BY RF-SCORE:    0.00 PKD
ROOT
HETATM    1  C   UNL     1     -11.205  16.544  68.271  1.00  0.00    -0.265 C  
HETATM    2  C   UNL     1     -10.370  16.923  69.361  1.00  0.00    -0.250 C  
HETATM    3  C   UNL     1      -9.531  16.258  68.320  1.00  0.00    -0.214 C  
HETATM    4  C   UNL     1     -10.625  15.897  66.649  1.00  0.00    -0.305 C  
HETATM    5  O   UNL     1     -10.389  15.495  65.300  1.00  0.00    -0.371 OA 
HETATM    6  C   UNL     1     -10.081  17.138  66.855  1.00  0.00    -0.298 C  
HETATM    7  C   UNL     1      -8.546  16.208  66.360  1.00  0.00    -0.365 C  
HETATM    8  C   UNL     1     -10.380  18.444  66.205  1.00  0.00    -0.440 C  
HETATM    9  H   UNL     1     -10.901  15.327  64.518  1.00  0.00     0.000 HD 
HETATM   10  C   UNL     1      -8.696  14.438  66.735  1.00  0.00    -0.187 C  
HETATM   11  C   UNL     1      -9.813  13.805  67.912  1.00  0.00    -0.232 C  
HETATM   12  C   UNL     1     -10.072  12.294  67.952  1.00  0.00    -0.200 A  
HETATM   13  C   UNL     1      -9.193  11.383  67.335  1.00  0.00    -0.164 A  
HETATM   14  C   UNL     1      -9.295  10.004  67.568  1.00  0.00    -0.162 A  
HETATM   15  C   UNL     1     -10.287   9.523  68.424  1.00  0.00    -0.206 A  
HETATM   16  C   UNL     1     -11.157  10.405  69.053  1.00  0.00    -0.297 A  
HETATM   17  C   UNL     1     -11.674  14.135  69.728  1.00  0.00    -0.370 C  
HETATM   18  C   UNL     1     -11.054  11.788  68.844  1.00  0.00    -0.297 A  
HETATM   19  C   UNL     1     -11.259  14.662  68.361  1.00  0.00    -0.290 C  
HETATM   20  C   UNL     1     -12.028  12.655  69.611  1.00  0.00    -0.352 C  
ENDROOT
BRANCH  15  21
HETATM   21  O   UNL     1     -10.330   8.149  68.723  1.00  0.00    -0.205 OA 
BRANCH  21  22
HETATM   22  C   UNL     1     -10.289   7.276  67.639  1.00  0.00    -0.227 C  
HETATM   23  O   UNL     1     -11.132   7.201  66.749  1.00  0.00    -0.254 OA 
HETATM   24  N   UNL     1      -9.105   6.551  67.589  1.00  0.00    -0.113 N  
BRANCH  24  25
HETATM   25  C   UNL     1      -8.501   6.366  66.271  1.00  0.00    -0.131 C  
HETATM   26 CL   UNL     1      -6.915   7.094  64.200  1.00  0.00    -0.054 Cl 
HETATM   27  C   UNL     1      -7.595   7.493  65.799  1.00  0.00    -0.093 C  
ENDBRANCH  24  25
BRANCH  24  28
HETATM   28  C   UNL     1      -8.510   5.960  68.792  1.00  0.00    -0.111 C  
HETATM   29 CL   UNL     1      -9.659   3.485  68.545  1.00  0.00    -0.202 Cl 
HETATM   30  C   UNL     1      -9.363   4.932  69.531  1.00  0.00    -0.130 C  
ENDBRANCH  24  28
ENDBRANCH  21  22
ENDBRANCH  15  21
TORSDOF 4
ENDMDL
MODEL       78
REMARK 921   NORMALIZED FREE ENERGY PREDICTED BY IDOCK:   -5.35 KCAL/MOL
REMARK 922        TOTAL FREE ENERGY PREDICTED BY IDOCK:   -7.26 KCAL/MOL
REMARK 923 INTER-LIGAND FREE ENERGY PREDICTED BY IDOCK:   -6.51 KCAL/MOL
REMARK 924 INTRA-LIGAND FREE ENERGY PREDICTED BY IDOCK:   -0.75 KCAL/MOL
REMARK 927      BINDING AFFINITY PREDICTED BY RF-SCORE:    0.00 PKD
ROOT
HETATM    1  C   UNL     1      -7.924  18.176  68.069  1.00  0.00    -0.269 C  
HETATM    2  C   UNL     1      -7.081  18.346  66.934  1.00  0.00    -0.219 C  
HETATM    3  C   UNL     1      -8.278  17.552  66.529  1.00  0.00    -0.311 C  
HETATM    4  C   UNL     1      -9.623  17.469  68.047  1.00  0.00    -0.282 C  
HETATM    5  O   UNL     1     -10.979  17.064  68.235  1.00  0.00    -0.365 OA 
HETATM    6  C   UNL     1      -9.586  18.566  67.226  1.00  0.00    -0.305 C  
HETATM    7  C   UNL     1     -10.418  17.354  66.083  1.00  0.00    -0.284 C  
HETATM    8  C   UNL     1     -10.175  19.922  67.400  1.00  0.00    -0.565 C  
HETATM    9  H   UNL     1     -11.608  17.025  68.945  1.00  0.00     0.000 HD 
HETATM   10  C   UNL     1      -9.974  15.643  66.497  1.00  0.00    -0.287 C  
HETATM   11  C   UNL     1      -8.545  15.221  67.400  1.00  0.00    -0.197 C  
HETATM   12  C   UNL     1      -8.407  13.794  67.945  1.00  0.00    -0.172 A  
HETATM   13  C   UNL     1      -9.197  12.740  67.450  1.00  0.00    -0.193 A  
HETATM   14  C   UNL     1      -8.913  11.405  67.772  1.00  0.00    -0.147 A  
HETATM   15  C   UNL     1      -7.829  11.115  68.603  1.00  0.00    -0.138 A  
HETATM   16  C   UNL     1      -7.028  12.139  69.093  1.00  0.00    -0.053 A  
HETATM   17  C   UNL     1      -6.339  15.876  68.653  1.00  0.00    -0.112 C  
HETATM   18  C   UNL     1      -7.290  13.477  68.762  1.00  0.00    -0.086 A  
HETATM   19  C   UNL     1      -7.778  16.344  68.484  1.00  0.00    -0.195 C  
HETATM   20  C   UNL     1      -6.330  14.504  69.320  1.00  0.00    -0.117 C  
ENDROOT
BRANCH  15  21
HETATM   21  O   UNL     1      -7.495   9.771  68.853  1.00  0.00    -0.072 OA 
BRANCH  21  22
HETATM   22  C   UNL     1      -8.062   9.191  69.986  1.00  0.00    -0.128 C  
HETATM   23  O   UNL     1      -7.804   9.491  71.148  1.00  0.00    -0.326 OA 
HETATM   24  N   UNL     1      -9.070   8.290  69.668  1.00  0.00    -0.153 N  
BRANCH  24  25
HETATM   25  C   UNL     1     -10.265   8.315  70.510  1.00  0.00    -0.198 C  
HETATM   26 CL   UNL     1     -12.557   9.413  71.446  1.00  0.00    -0.403 Cl 
HETATM   27  C   UNL     1     -11.131   9.560  70.387  1.00  0.00    -0.277 C  
ENDBRANCH  24  25
BRANCH  24  28
HETATM   28  C   UNL     1      -8.929   7.327  68.571  1.00  0.00    -0.130 C  
HETATM   29 CL   UNL     1     -10.651   8.558  66.831  1.00  0.00    -0.341 Cl 
HETATM   30  C   UNL     1     -10.171   7.094  67.715  1.00  0.00    -0.184 C  
ENDBRANCH  24  28
ENDBRANCH  21  22
ENDBRANCH  15  21
TORSDOF 4
ENDMDL
MODEL       79
REMARK 921   NORMALIZED FREE ENERGY PREDICTED BY IDOCK:   -5.35 KCAL/MOL
REMARK 922        TOTAL FREE ENERGY PREDICTED BY IDOCK:   -7.26 KCAL/MOL
REMARK 923 INTER-LIGAND FREE ENERGY PREDICTED BY IDOCK:   -7.64 KCAL/MOL
REMARK 924 INTRA-LIGAND FREE ENERGY PREDICTED BY IDOCK:    0.38 KCAL/MOL
REMARK 927      BINDING AFFINITY PREDICTED BY RF-SCORE:    0.00 PKD
ROOT
HETATM    1  C   UNL     1     -12.892   7.511  72.557  1.00  0.00     0.235 C  
HETATM    2  C   UNL     1     -13.894   7.043  71.660  1.00  0.00    -0.357 C  
HETATM    3  C   UNL     1     -12.564   6.950  70.987  1.00  0.00    -0.319 C  
HETATM    4  C   UNL     1     -11.075   7.391  72.293  1.00  0.00    -0.266 C  
HETATM    5  O   UNL     1      -9.651   7.297  72.341  1.00  0.00    -0.147 OA 
HETATM    6  C   UNL     1     -11.613   6.130  72.271  1.00  0.00    -0.362 C  
HETATM    7  C   UNL     1     -10.580   6.052  70.724  1.00  0.00    -0.316 C  
HETATM    8  C   UNL     1     -11.522   5.024  73.262  1.00  0.00    -0.339 C  
HETATM    9  H   UNL     1      -8.954   7.502  72.952  1.00  0.00     0.000 HD 
HETATM   10  C   UNL     1     -10.327   7.703  70.013  1.00  0.00    -0.223 C  
HETATM   11  C   UNL     1     -11.371   9.056  70.351  1.00  0.00    -0.242 C  
HETATM   12  C   UNL     1     -10.918  10.463  69.942  1.00  0.00    -0.364 A  
HETATM   13  C   UNL     1      -9.886  10.657  69.004  1.00  0.00    -0.218 A  
HETATM   14  C   UNL     1      -9.632  11.922  68.455  1.00  0.00    -0.196 A  
HETATM   15  C   UNL     1     -10.413  13.010  68.847  1.00  0.00    -0.084 A  
HETATM   16  C   UNL     1     -11.445  12.839  69.762  1.00  0.00    -0.199 A  
HETATM   17  C   UNL     1     -13.463  10.110  71.525  1.00  0.00    -0.351 C  
HETATM   18  C   UNL     1     -11.722  11.575  70.304  1.00  0.00    -0.379 A  
HETATM   19  C   UNL     1     -12.322   9.142  71.805  1.00  0.00    -0.444 C  
HETATM   20  C   UNL     1     -12.892  11.499  71.259  1.00  0.00    -0.463 C  
ENDROOT
BRANCH  15  21
HETATM   21  O   UNL     1     -10.212  14.259  68.230  1.00  0.00    -0.231 OA 
BRANCH  21  22
HETATM   22  C   UNL     1      -9.789  14.234  66.903  1.00  0.00    -0.263 C  
HETATM   23  O   UNL     1      -8.985  13.439  66.423  1.00  0.00    -0.120 OA 
HETATM   24  N   UNL     1     -10.472  15.151  66.114  1.00  0.00    -0.298 N  
BRANCH  24  25
HETATM   25  C   UNL     1     -10.866  14.705  64.778  1.00  0.00    -0.385 C  
HETATM   26 CL   UNL     1     -12.401  13.312  63.034  1.00  0.00    -0.246 Cl 
HETATM   27  C   UNL     1     -12.027  13.722  64.728  1.00  0.00    -0.404 C  
ENDBRANCH  24  25
BRANCH  24  28
HETATM   28  C   UNL     1     -10.748  16.514  66.575  1.00  0.00    -0.144 C  
HETATM   29 CL   UNL     1      -8.253  17.538  66.089  1.00  0.00    -0.262 Cl 
HETATM   30  C   UNL     1      -9.584  17.253  67.231  1.00  0.00    -0.254 C  
ENDBRANCH  24  28
ENDBRANCH  21  22
ENDBRANCH  15  21
TORSDOF 4
ENDMDL
MODEL       80
REMARK 921   NORMALIZED FREE ENERGY PREDICTED BY IDOCK:   -5.33 KCAL/MOL
REMARK 922        TOTAL FREE ENERGY PREDICTED BY IDOCK:   -7.24 KCAL/MOL
REMARK 923 INTER-LIGAND FREE ENERGY PREDICTED BY IDOCK:   -6.75 KCAL/MOL
REMARK 924 INTRA-LIGAND FREE ENERGY PREDICTED BY IDOCK:   -0.48 KCAL/MOL
REMARK 927      BINDING AFFINITY PREDICTED BY RF-SCORE:    0.00 PKD
ROOT
HETATM    1  C   UNL     1      -8.099   5.705  65.691  1.00  0.00    -0.120 C  
HETATM    2  C   UNL     1      -6.995   5.738  66.591  1.00  0.00    -0.064 C  
HETATM    3  C   UNL     1      -8.244   6.045  67.349  1.00  0.00    -0.106 C  
HETATM    4  C   UNL     1      -9.874   5.792  66.166  1.00  0.00    -0.046 C  
HETATM    5  O   UNL     1     -11.292   5.730  66.323  1.00  0.00    -0.733 OA 
HETATM    6  C   UNL     1      -9.301   4.709  66.780  1.00  0.00    -0.153 C  
HETATM    7  C   UNL     1     -10.164   5.471  68.244  1.00  0.00    -0.237 C  
HETATM    8  C   UNL     1      -9.464   3.253  66.518  1.00  0.00    -0.110 C  
HETATM    9  H   UNL     1     -12.054   5.611  65.769  1.00  0.00     0.000 HD 
HETATM   10  C   UNL     1     -10.388   7.259  68.022  1.00  0.00    -0.243 C  
HETATM   11  C   UNL     1      -9.424   8.212  66.928  1.00  0.00    -0.244 C  
HETATM   12  C   UNL     1      -9.872   9.640  66.596  1.00  0.00    -0.285 A  
HETATM   13  C   UNL     1     -10.805  10.322  67.401  1.00  0.00    -0.336 A  
HETATM   14  C   UNL     1     -11.036  11.696  67.241  1.00  0.00    -0.346 A  
HETATM   15  C   UNL     1     -10.331  12.401  66.265  1.00  0.00    -0.244 A  
HETATM   16  C   UNL     1      -9.397  11.752  65.468  1.00  0.00    -0.131 A  
HETATM   17  C   UNL     1      -7.497   8.445  65.168  1.00  0.00    -0.084 C  
HETATM   18  C   UNL     1      -9.142  10.382  65.631  1.00  0.00    -0.206 A  
HETATM   19  C   UNL     1      -8.633   7.507  65.548  1.00  0.00    -0.102 C  
HETATM   20  C   UNL     1      -8.076   9.789  64.736  1.00  0.00    -0.146 C  
ENDROOT
BRANCH  15  21
HETATM   21  O   UNL     1     -10.502  13.795  66.167  1.00  0.00    -0.286 OA 
BRANCH  21  22
HETATM   22  C   UNL     1     -11.608  14.332  66.821  1.00  0.00    -0.391 C  
HETATM   23  O   UNL     1     -12.782  14.116  66.536  1.00  0.00    -0.299 OA 
HETATM   24  N   UNL     1     -11.250  15.072  67.941  1.00  0.00    -0.311 N  
BRANCH  24  25
HETATM   25  C   UNL     1     -12.086  14.912  69.130  1.00  0.00    -0.231 C  
HETATM   26 CL   UNL     1     -12.804  13.722  71.455  1.00  0.00    -0.433 Cl 
HETATM   27  C   UNL     1     -11.717  13.752  70.043  1.00  0.00    -0.257 C  
ENDBRANCH  24  25
BRANCH  24  28
HETATM   28  C   UNL     1     -10.118  16.003  67.924  1.00  0.00    -0.241 C  
HETATM   29 CL   UNL     1      -8.165  14.154  68.452  1.00  0.00    -0.145 Cl 
HETATM   30  C   UNL     1      -8.967  15.682  68.874  1.00  0.00    -0.221 C  
ENDBRANCH  24  28
ENDBRANCH  21  22
ENDBRANCH  15  21
TORSDOF 4
ENDMDL
MODEL       81
REMARK 921   NORMALIZED FREE ENERGY PREDICTED BY IDOCK:   -5.31 KCAL/MOL
REMARK 922        TOTAL FREE ENERGY PREDICTED BY IDOCK:   -7.21 KCAL/MOL
REMARK 923 INTER-LIGAND FREE ENERGY PREDICTED BY IDOCK:   -6.76 KCAL/MOL
REMARK 924 INTRA-LIGAND FREE ENERGY PREDICTED BY IDOCK:   -0.46 KCAL/MOL
REMARK 927      BINDING AFFINITY PREDICTED BY RF-SCORE:    0.00 PKD
ROOT
HETATM    1  C   UNL     1      -8.234  17.100  67.865  1.00  0.00    -0.202 C  
HETATM    2  C   UNL     1      -8.145  17.196  66.447  1.00  0.00    -0.337 C  
HETATM    3  C   UNL     1      -9.568  16.949  66.825  1.00  0.00    -0.273 C  
HETATM    4  C   UNL     1      -9.793  17.027  68.840  1.00  0.00    -0.272 C  
HETATM    5  O   UNL     1     -10.865  17.075  69.781  1.00  0.00    -0.389 OA 
HETATM    6  C   UNL     1      -9.778  18.186  68.109  1.00  0.00    -0.331 C  
HETATM    7  C   UNL     1     -11.486  17.578  67.686  1.00  0.00     0.704 C  
HETATM    8  C   UNL     1      -9.597  19.599  68.542  1.00  0.00    -0.467 C  
HETATM    9  H   UNL     1     -10.970  17.112  70.724  1.00  0.00     0.000 HD 
HETATM   10  C   UNL     1     -11.599  15.771  67.830  1.00  0.00    -0.153 C  
HETATM   11  C   UNL     1     -10.209  14.722  67.769  1.00  0.00    -0.232 C  
HETATM   12  C   UNL     1     -10.369  13.255  68.186  1.00  0.00    -0.246 A  
HETATM   13  C   UNL     1     -11.638  12.649  68.265  1.00  0.00    -0.377 A  
HETATM   14  C   UNL     1     -11.772  11.261  68.413  1.00  0.00    -0.365 A  
HETATM   15  C   UNL     1     -10.628  10.464  68.486  1.00  0.00    -0.209 A  
HETATM   16  C   UNL     1      -9.366  11.040  68.397  1.00  0.00    -0.179 A  
HETATM   17  C   UNL     1      -7.630  14.333  67.517  1.00  0.00    -0.202 C  
HETATM   18  C   UNL     1      -9.219  12.425  68.230  1.00  0.00    -0.189 A  
HETATM   19  C   UNL     1      -8.616  15.282  68.184  1.00  0.00    -0.160 C  
HETATM   20  C   UNL     1      -7.800  12.935  68.105  1.00  0.00    -0.147 C  
ENDROOT
BRANCH  15  21
HETATM   21  O   UNL     1     -10.767   9.066  68.545  1.00  0.00    -0.186 OA 
BRANCH  21  22
HETATM   22  C   UNL     1      -9.950   8.398  69.454  1.00  0.00    -0.191 C  
HETATM   23  O   UNL     1      -8.827   7.962  69.220  1.00  0.00    -0.140 OA 
HETATM   24  N   UNL     1     -10.494   8.372  70.733  1.00  0.00    -0.194 N  
BRANCH  24  25
HETATM   25  C   UNL     1      -9.572   8.595  71.845  1.00  0.00    -0.307 C  
HETATM   26 CL   UNL     1      -8.453   7.986  74.236  1.00  0.00    -0.298 Cl 
HETATM   27  C   UNL     1      -9.663   7.593  72.986  1.00  0.00    -0.244 C  
ENDBRANCH  24  25
BRANCH  24  28
HETATM   28  C   UNL     1     -11.914   8.090  70.963  1.00  0.00    -0.245 C  
HETATM   29 CL   UNL     1     -12.678  10.666  71.499  1.00  0.00    -0.530 Cl 
HETATM   30  C   UNL     1     -12.615   8.964  72.000  1.00  0.00    -0.394 C  
ENDBRANCH  24  28
ENDBRANCH  21  22
ENDBRANCH  15  21
TORSDOF 4
ENDMDL
MODEL       82
REMARK 921   NORMALIZED FREE ENERGY PREDICTED BY IDOCK:   -5.30 KCAL/MOL
REMARK 922        TOTAL FREE ENERGY PREDICTED BY IDOCK:   -7.20 KCAL/MOL
REMARK 923 INTER-LIGAND FREE ENERGY PREDICTED BY IDOCK:   -6.91 KCAL/MOL
REMARK 924 INTRA-LIGAND FREE ENERGY PREDICTED BY IDOCK:   -0.29 KCAL/MOL
REMARK 927      BINDING AFFINITY PREDICTED BY RF-SCORE:    0.00 PKD
ROOT
HETATM    1  C   UNL     1      -9.980  18.504  67.738  1.00  0.00    -0.369 C  
HETATM    2  C   UNL     1      -9.914  18.565  69.159  1.00  0.00    -0.221 C  
HETATM    3  C   UNL     1      -8.712  17.839  68.652  1.00  0.00    -0.260 C  
HETATM    4  C   UNL     1      -8.638  17.917  66.625  1.00  0.00    -0.262 C  
HETATM    5  O   UNL     1      -7.701  17.615  65.591  1.00  0.00    -0.527 OA 
HETATM    6  C   UNL     1      -8.173  18.971  67.367  1.00  0.00    -0.297 C  
HETATM    7  C   UNL     1      -6.773  17.771  67.627  1.00  0.00    -0.192 C  
HETATM    8  C   UNL     1      -7.864  20.371  66.966  1.00  0.00    -0.365 C  
HETATM    9  H   UNL     1      -7.666  17.651  64.643  1.00  0.00     0.000 HD 
HETATM   10  C   UNL     1      -7.335  16.053  67.454  1.00  0.00    -0.216 C  
HETATM   11  C   UNL     1      -9.000  15.573  67.630  1.00  0.00    -0.187 C  
HETATM   12  C   UNL     1      -9.418  14.166  67.185  1.00  0.00    -0.237 A  
HETATM   13  C   UNL     1      -8.466  13.148  66.985  1.00  0.00    -0.139 A  
HETATM   14  C   UNL     1      -8.856  11.812  66.812  1.00  0.00    -0.191 A  
HETATM   15  C   UNL     1     -10.213  11.485  66.835  1.00  0.00    -0.217 A  
HETATM   16  C   UNL     1     -11.168  12.471  67.043  1.00  0.00    -0.353 A  
HETATM   17  C   UNL     1     -11.515  16.128  68.111  1.00  0.00    -0.220 C  
HETATM   18  C   UNL     1     -10.790  13.808  67.237  1.00  0.00    -0.292 A  
HETATM   19  C   UNL     1     -10.310  16.686  67.368  1.00  0.00    -0.292 C  
HETATM   20  C   UNL     1     -11.912  14.789  67.495  1.00  0.00    -0.239 C  
ENDROOT
BRANCH  15  21
HETATM   21  O   UNL     1     -10.595  10.133  66.748  1.00  0.00    -0.223 OA 
BRANCH  21  22
HETATM   22  C   UNL     1      -9.723   9.284  66.070  1.00  0.00    -0.289 C  
HETATM   23  O   UNL     1      -9.418   9.371  64.884  1.00  0.00    -0.229 OA 
HETATM   24  N   UNL     1      -9.118   8.364  66.917  1.00  0.00    -0.142 N  
BRANCH  24  25
HETATM   25  C   UNL     1      -7.698   8.097  66.692  1.00  0.00    -0.094 C  
HETATM   26 CL   UNL     1      -5.620   6.693  65.668  1.00  0.00    -0.028 Cl 
HETATM   27  C   UNL     1      -7.384   6.849  65.880  1.00  0.00    -0.079 C  
ENDBRANCH  24  25
BRANCH  24  28
HETATM   28  C   UNL     1      -9.871   7.659  67.958  1.00  0.00    -0.161 C  
HETATM   29 CL   UNL     1     -10.407   5.399  66.504  1.00  0.00    -0.289 Cl 
HETATM   30  C   UNL     1     -11.006   6.758  67.477  1.00  0.00    -0.303 C  
ENDBRANCH  24  28
ENDBRANCH  21  22
ENDBRANCH  15  21
TORSDOF 4
ENDMDL
MODEL       83
REMARK 921   NORMALIZED FREE ENERGY PREDICTED BY IDOCK:   -5.29 KCAL/MOL
REMARK 922        TOTAL FREE ENERGY PREDICTED BY IDOCK:   -7.19 KCAL/MOL
REMARK 923 INTER-LIGAND FREE ENERGY PREDICTED BY IDOCK:   -6.56 KCAL/MOL
REMARK 924 INTRA-LIGAND FREE ENERGY PREDICTED BY IDOCK:   -0.63 KCAL/MOL
REMARK 927      BINDING AFFINITY PREDICTED BY RF-SCORE:    0.00 PKD
ROOT
HETATM    1  C   UNL     1      -7.835   6.702  68.728  1.00  0.00    -0.111 C  
HETATM    2  C   UNL     1      -8.507   6.376  69.941  1.00  0.00    -0.131 C  
HETATM    3  C   UNL     1      -9.524   6.576  68.866  1.00  0.00    -0.129 C  
HETATM    4  C   UNL     1      -8.617   6.821  67.067  1.00  0.00    -0.114 C  
HETATM    5  O   UNL     1      -8.995   6.853  65.690  1.00  0.00    -0.337 OA 
HETATM    6  C   UNL     1      -8.818   5.560  67.564  1.00  0.00    -0.105 C  
HETATM    7  C   UNL     1     -10.556   5.961  67.030  1.00  0.00    -0.376 C  
HETATM    8  C   UNL     1      -8.217   4.258  67.165  1.00  0.00    -0.100 C  
HETATM    9  H   UNL     1      -8.571   6.968  64.848  1.00  0.00     0.000 HD 
HETATM   10  C   UNL     1     -10.851   7.752  67.028  1.00  0.00    -0.176 C  
HETATM   11  C   UNL     1      -9.893   8.876  67.952  1.00  0.00    -0.205 C  
HETATM   12  C   UNL     1     -10.028  10.377  67.665  1.00  0.00    -0.205 A  
HETATM   13  C   UNL     1     -11.132  10.892  66.958  1.00  0.00    -0.271 A  
HETATM   14  C   UNL     1     -11.379  12.271  66.900  1.00  0.00    -0.392 A  
HETATM   15  C   UNL     1     -10.513  13.151  67.552  1.00  0.00    -0.228 A  
HETATM   16  C   UNL     1      -9.425  12.664  68.266  1.00  0.00    -0.203 A  
HETATM   17  C   UNL     1      -7.948   9.408  69.625  1.00  0.00    -0.109 C  
HETATM   18  C   UNL     1      -9.178  11.286  68.348  1.00  0.00    -0.178 A  
HETATM   19  C   UNL     1      -8.262   8.514  68.435  1.00  0.00    -0.123 C  
HETATM   20  C   UNL     1      -7.989  10.868  69.184  1.00  0.00    -0.114 C  
ENDROOT
BRANCH  15  21
HETATM   21  O   UNL     1     -10.813  14.526  67.565  1.00  0.00    -0.278 OA 
BRANCH  21  22
HETATM   22  C   UNL     1      -9.954  15.356  66.848  1.00  0.00    -0.243 C  
HETATM   23  O   UNL     1      -9.652  15.222  65.666  1.00  0.00    -0.336 OA 
HETATM   24  N   UNL     1      -9.544  16.457  67.589  1.00  0.00    -0.226 N  
BRANCH  24  25
HETATM   25  C   UNL     1      -9.486  17.738  66.887  1.00  0.00    -0.271 C  
HETATM   26 CL   UNL     1     -10.389  20.216  66.270  1.00  0.00    -0.545 Cl 
HETATM   27  C   UNL     1     -10.632  18.697  67.172  1.00  0.00    -0.417 C  
ENDBRANCH  24  25
BRANCH  24  28
HETATM   28  C   UNL     1      -9.146  16.339  68.995  1.00  0.00    -0.255 C  
HETATM   29 CL   UNL     1      -6.469  16.786  68.618  1.00  0.00    -0.158 Cl 
HETATM   30  C   UNL     1      -7.762  15.750  69.257  1.00  0.00    -0.224 C  
ENDBRANCH  24  28
ENDBRANCH  21  22
ENDBRANCH  15  21
TORSDOF 4
ENDMDL
MODEL       84
REMARK 921   NORMALIZED FREE ENERGY PREDICTED BY IDOCK:   -5.29 KCAL/MOL
REMARK 922        TOTAL FREE ENERGY PREDICTED BY IDOCK:   -7.18 KCAL/MOL
REMARK 923 INTER-LIGAND FREE ENERGY PREDICTED BY IDOCK:   -6.53 KCAL/MOL
REMARK 924 INTRA-LIGAND FREE ENERGY PREDICTED BY IDOCK:   -0.65 KCAL/MOL
REMARK 927      BINDING AFFINITY PREDICTED BY RF-SCORE:    0.00 PKD
ROOT
HETATM    1  C   UNL     1      -9.418   6.546  70.048  1.00  0.00    -0.163 C  
HETATM    2  C   UNL     1      -8.641   5.848  69.081  1.00  0.00    -0.115 C  
HETATM    3  C   UNL     1      -7.814   6.948  69.660  1.00  0.00    -0.119 C  
HETATM    4  C   UNL     1      -8.790   7.835  71.202  1.00  0.00    -0.137 C  
HETATM    5  O   UNL     1      -8.492   8.760  72.248  1.00  0.00    -0.375 OA 
HETATM    6  C   UNL     1      -8.096   6.672  71.411  1.00  0.00    -0.111 C  
HETATM    7  C   UNL     1      -6.671   7.865  71.293  1.00  0.00    -0.042 C  
HETATM    8  C   UNL     1      -8.144   5.710  72.546  1.00  0.00    -0.103 C  
HETATM    9  H   UNL     1      -8.949   9.174  72.970  1.00  0.00     0.000 HD 
HETATM   10  C   UNL     1      -7.107   9.319  70.295  1.00  0.00    -0.084 C  
HETATM   11  C   UNL     1      -8.406   9.323  69.135  1.00  0.00    -0.127 C  
HETATM   12  C   UNL     1      -8.881  10.662  68.558  1.00  0.00    -0.148 A  
HETATM   13  C   UNL     1      -8.089  11.822  68.650  1.00  0.00    -0.104 A  
HETATM   14  C   UNL     1      -8.408  12.979  67.925  1.00  0.00    -0.170 A  
HETATM   15  C   UNL     1      -9.533  12.983  67.099  1.00  0.00    -0.230 A  
HETATM   16  C   UNL     1     -10.322  11.845  66.983  1.00  0.00    -0.239 A  
HETATM   17  C   UNL     1     -10.358   8.123  67.864  1.00  0.00    -0.280 C  
HETATM   18  C   UNL     1     -10.003  10.676  67.688  1.00  0.00    -0.197 A  
HETATM   19  C   UNL     1      -9.748   8.223  69.255  1.00  0.00    -0.177 C  
HETATM   20  C   UNL     1     -10.908   9.486  67.455  1.00  0.00    -0.215 C  
ENDROOT
BRANCH  15  21
HETATM   21  O   UNL     1      -9.800  14.115  66.307  1.00  0.00    -0.285 OA 
BRANCH  21  22
HETATM   22  C   UNL     1     -10.922  14.864  66.652  1.00  0.00    -0.325 C  
HETATM   23  O   UNL     1     -12.050  14.717  66.190  1.00  0.00    -0.318 OA 
HETATM   24  N   UNL     1     -10.667  15.750  67.691  1.00  0.00    -0.305 N  
BRANCH  24  25
HETATM   25  C   UNL     1     -11.704  15.882  68.713  1.00  0.00    -0.349 C  
HETATM   26 CL   UNL     1     -13.042  15.100  70.935  1.00  0.00    -0.483 Cl 
HETATM   27  C   UNL     1     -11.754  14.768  69.748  1.00  0.00    -0.310 C  
ENDBRANCH  24  25
BRANCH  24  28
HETATM   28  C   UNL     1      -9.438  16.548  67.743  1.00  0.00    -0.222 C  
HETATM   29 CL   UNL     1     -10.622  18.995  67.396  1.00  0.00    -0.530 Cl 
HETATM   30  C   UNL     1      -9.413  17.803  66.874  1.00  0.00    -0.271 C  
ENDBRANCH  24  28
ENDBRANCH  21  22
ENDBRANCH  15  21
TORSDOF 4
ENDMDL
MODEL       85
REMARK 921   NORMALIZED FREE ENERGY PREDICTED BY IDOCK:   -5.25 KCAL/MOL
REMARK 922        TOTAL FREE ENERGY PREDICTED BY IDOCK:   -7.14 KCAL/MOL
REMARK 923 INTER-LIGAND FREE ENERGY PREDICTED BY IDOCK:   -6.85 KCAL/MOL
REMARK 924 INTRA-LIGAND FREE ENERGY PREDICTED BY IDOCK:   -0.29 KCAL/MOL
REMARK 927      BINDING AFFINITY PREDICTED BY RF-SCORE:    0.00 PKD
ROOT
HETATM    1  C   UNL     1     -11.823  14.766  67.290  1.00  0.00    -0.316 C  
HETATM    2  C   UNL     1     -11.582  15.665  68.368  1.00  0.00    -0.358 C  
HETATM    3  C   UNL     1     -10.275  15.122  67.893  1.00  0.00    -0.232 C  
HETATM    4  C   UNL     1     -10.535  14.011  66.215  1.00  0.00    -0.286 C  
HETATM    5  O   UNL     1      -9.719  13.415  65.206  1.00  0.00    -0.518 OA 
HETATM    6  C   UNL     1     -10.448  15.375  66.124  1.00  0.00    -0.325 C  
HETATM    7  C   UNL     1      -8.655  14.971  66.421  1.00  0.00    -0.083 C  
HETATM    8  C   UNL     1     -10.811  16.293  65.009  1.00  0.00    -0.337 C  
HETATM    9  H   UNL     1      -9.841  12.895  64.421  1.00  0.00     0.000 HD 
HETATM   10  C   UNL     1      -8.471  13.407  67.324  1.00  0.00    -0.205 C  
HETATM   11  C   UNL     1      -9.741  12.710  68.291  1.00  0.00    -0.216 C  
HETATM   12  C   UNL     1      -9.596  11.262  68.775  1.00  0.00    -0.160 A  
HETATM   13  C   UNL     1      -8.347  10.611  68.775  1.00  0.00    -0.144 A  
HETATM   14  C   UNL     1      -8.168   9.383  69.430  1.00  0.00    -0.119 A  
HETATM   15  C   UNL     1      -9.247   8.794  70.091  1.00  0.00    -0.169 A  
HETATM   16  C   UNL     1     -10.485   9.425  70.113  1.00  0.00    -0.280 A  
HETATM   17  C   UNL     1     -12.160  12.765  69.296  1.00  0.00    -0.224 C  
HETATM   18  C   UNL     1     -10.672  10.662  69.479  1.00  0.00    -0.290 A  
HETATM   19  C   UNL     1     -11.418  13.069  68.003  1.00  0.00    -0.348 C  
HETATM   20  C   UNL     1     -12.050  11.274  69.602  1.00  0.00    -0.391 C  
ENDROOT
BRANCH  15  21
HETATM   21  O   UNL     1      -9.041   7.608  70.819  1.00  0.00    -0.151 OA 
BRANCH  21  22
HETATM   22  C   UNL     1      -9.677   6.465  70.338  1.00  0.00    -0.165 C  
HETATM   23  O   UNL     1      -9.858   6.192  69.155  1.00  0.00    -0.139 OA 
HETATM   24  N   UNL     1      -9.996   5.573  71.354  1.00  0.00    -0.179 N  
BRANCH  24  25
HETATM   25  C   UNL     1      -9.779   4.154  71.075  1.00  0.00    -0.190 C  
HETATM   26 CL   UNL     1      -8.247   1.936  70.806  1.00  0.00    -0.059 Cl 
HETATM   27  C   UNL     1      -8.332   3.687  71.131  1.00  0.00    -0.067 C  
ENDBRANCH  24  25
BRANCH  24  28
HETATM   28  C   UNL     1     -10.566   6.022  72.627  1.00  0.00    -0.219 C  
HETATM   29 CL   UNL     1     -12.964   6.892  71.627  1.00  0.00    -0.401 Cl 
HETATM   30  C   UNL     1     -11.493   7.233  72.562  1.00  0.00    -0.281 C  
ENDBRANCH  24  28
ENDBRANCH  21  22
ENDBRANCH  15  21
TORSDOF 4
ENDMDL
MODEL       86
REMARK 921   NORMALIZED FREE ENERGY PREDICTED BY IDOCK:   -5.13 KCAL/MOL
REMARK 922        TOTAL FREE ENERGY PREDICTED BY IDOCK:   -6.99 KCAL/MOL
REMARK 923 INTER-LIGAND FREE ENERGY PREDICTED BY IDOCK:   -7.06 KCAL/MOL
REMARK 924 INTRA-LIGAND FREE ENERGY PREDICTED BY IDOCK:    0.07 KCAL/MOL
REMARK 927      BINDING AFFINITY PREDICTED BY RF-SCORE:    0.00 PKD
ROOT
HETATM    1  C   UNL     1      -7.907  17.855  67.778  1.00  0.00    -0.221 C  
HETATM    2  C   UNL     1      -7.029  17.960  66.662  1.00  0.00    -0.248 C  
HETATM    3  C   UNL     1      -8.341  17.422  66.194  1.00  0.00    -0.217 C  
HETATM    4  C   UNL     1      -9.703  17.463  67.699  1.00  0.00    -0.270 C  
HETATM    5  O   UNL     1     -11.112  17.290  67.852  1.00  0.00    -0.276 OA 
HETATM    6  C   UNL     1      -9.461  18.595  66.965  1.00  0.00    -0.309 C  
HETATM    7  C   UNL     1     -10.475  17.640  65.730  1.00  0.00    -0.208 C  
HETATM    8  C   UNL     1      -9.805  20.017  67.243  1.00  0.00    -0.563 C  
HETATM    9  H   UNL     1     -11.749  17.309  68.556  1.00  0.00     0.000 HD 
HETATM   10  C   UNL     1     -10.346  15.851  66.012  1.00  0.00    -0.363 C  
HETATM   11  C   UNL     1      -9.027  15.116  66.881  1.00  0.00    -0.277 C  
HETATM   12  C   UNL     1      -9.150  13.650  67.315  1.00  0.00    -0.228 A  
HETATM   13  C   UNL     1     -10.106  12.792  66.737  1.00  0.00    -0.239 A  
HETATM   14  C   UNL     1     -10.066  11.407  66.956  1.00  0.00    -0.237 A  
HETATM   15  C   UNL     1      -9.063  10.869  67.764  1.00  0.00    -0.149 A  
HETATM   16  C   UNL     1      -8.102  11.695  68.334  1.00  0.00    -0.153 A  
HETATM   17  C   UNL     1      -6.760  15.274  68.185  1.00  0.00    -0.137 C  
HETATM   18  C   UNL     1      -8.120  13.079  68.107  1.00  0.00    -0.155 A  
HETATM   19  C   UNL     1      -8.091  16.000  68.050  1.00  0.00    -0.148 C  
HETATM   20  C   UNL     1      -7.003  13.875  68.745  1.00  0.00    -0.108 C  
ENDROOT
BRANCH  15  21
HETATM   21  O   UNL     1      -8.974   9.472  67.910  1.00  0.00    -0.123 OA 
BRANCH  21  22
HETATM   22  C   UNL     1     -10.169   8.795  68.145  1.00  0.00    -0.205 C  
HETATM   23  O   UNL     1     -10.806   8.159  67.312  1.00  0.00    -0.248 OA 
HETATM   24  N   UNL     1     -10.527   8.809  69.487  1.00  0.00    -0.218 N  
BRANCH  24  25
HETATM   25  C   UNL     1     -11.068   7.568  70.037  1.00  0.00    -0.204 C  
HETATM   26 CL   UNL     1     -11.416   5.720  71.987  1.00  0.00    -0.300 Cl 
HETATM   27  C   UNL     1     -10.643   7.237  71.460  1.00  0.00    -0.203 C  
ENDBRANCH  24  25
BRANCH  24  28
HETATM   28  C   UNL     1     -10.412  10.020  70.306  1.00  0.00    -0.272 C  
HETATM   29 CL   UNL     1     -13.014  10.087  71.163  1.00  0.00    -0.457 Cl 
HETATM   30  C   UNL     1     -11.652  10.909  70.374  1.00  0.00    -0.323 C  
ENDBRANCH  24  28
ENDBRANCH  21  22
ENDBRANCH  15  21
TORSDOF 4
ENDMDL
MODEL       87
REMARK 921   NORMALIZED FREE ENERGY PREDICTED BY IDOCK:   -5.12 KCAL/MOL
REMARK 922        TOTAL FREE ENERGY PREDICTED BY IDOCK:   -6.98 KCAL/MOL
REMARK 923 INTER-LIGAND FREE ENERGY PREDICTED BY IDOCK:   -6.45 KCAL/MOL
REMARK 924 INTRA-LIGAND FREE ENERGY PREDICTED BY IDOCK:   -0.54 KCAL/MOL
REMARK 927      BINDING AFFINITY PREDICTED BY RF-SCORE:    0.00 PKD
ROOT
HETATM    1  C   UNL     1     -10.604   7.785  68.361  1.00  0.00    -0.157 C  
HETATM    2  C   UNL     1     -10.553   7.553  66.957  1.00  0.00    -0.409 C  
HETATM    3  C   UNL     1      -9.177   7.868  67.444  1.00  0.00    -0.160 C  
HETATM    4  C   UNL     1      -9.150   7.987  69.470  1.00  0.00    -0.152 C  
HETATM    5  O   UNL     1      -8.175   8.055  70.510  1.00  0.00    -0.112 OA 
HETATM    6  C   UNL     1      -9.076   6.764  68.856  1.00  0.00    -0.133 C  
HETATM    7  C   UNL     1      -7.344   7.370  68.543  1.00  0.00    -0.100 C  
HETATM    8  C   UNL     1      -9.278   5.395  69.405  1.00  0.00    -0.150 C  
HETATM    9  H   UNL     1      -8.162   8.110  71.458  1.00  0.00     0.000 HD 
HETATM   10  C   UNL     1      -7.272   9.184  68.521  1.00  0.00    -0.073 C  
HETATM   11  C   UNL     1      -8.664  10.189  68.226  1.00  0.00    -0.120 C  
HETATM   12  C   UNL     1      -8.567  11.693  68.511  1.00  0.00    -0.134 A  
HETATM   13  C   UNL     1      -7.321  12.334  68.653  1.00  0.00    -0.106 A  
HETATM   14  C   UNL     1      -7.222  13.733  68.678  1.00  0.00    -0.109 A  
HETATM   15  C   UNL     1      -8.380  14.505  68.562  1.00  0.00    -0.160 A  
HETATM   16  C   UNL     1      -9.618  13.894  68.409  1.00  0.00    -0.215 A  
HETATM   17  C   UNL     1     -11.211  10.491  67.690  1.00  0.00    -0.338 C  
HETATM   18  C   UNL     1      -9.728  12.496  68.364  1.00  0.00    -0.189 A  
HETATM   19  C   UNL     1     -10.282   9.633  68.537  1.00  0.00    -0.216 C  
HETATM   20  C   UNL     1     -11.120  11.942  68.153  1.00  0.00    -0.294 C  
ENDROOT
BRANCH  15  21
HETATM   21  O   UNL     1      -8.267  15.906  68.500  1.00  0.00    -0.154 OA 
BRANCH  21  22
HETATM   22  C   UNL     1      -8.558  16.498  67.273  1.00  0.00    -0.184 C  
HETATM   23  O   UNL     1      -7.840  16.473  66.278  1.00  0.00    -0.306 OA 
HETATM   24  N   UNL     1      -9.837  17.041  67.239  1.00  0.00    -0.254 N  
BRANCH  24  25
HETATM   25  C   UNL     1     -10.603  16.846  66.010  1.00  0.00    -0.218 C  
HETATM   26 CL   UNL     1     -11.976  15.357  64.211  1.00  0.00    -0.324 Cl 
HETATM   27  C   UNL     1     -11.024  15.413  65.718  1.00  0.00    -0.309 C  
ENDBRANCH  24  25
BRANCH  24  28
HETATM   28  C   UNL     1     -10.379  17.812  68.362  1.00  0.00    -0.376 C  
HETATM   29 CL   UNL     1      -9.940  20.298  67.298  1.00  0.00    -0.577 Cl 
HETATM   30  C   UNL     1      -9.714  19.157  68.640  1.00  0.00    -0.417 C  
ENDBRANCH  24  28
ENDBRANCH  21  22
ENDBRANCH  15  21
TORSDOF 4
ENDMDL
MODEL       88
REMARK 921   NORMALIZED FREE ENERGY PREDICTED BY IDOCK:   -5.12 KCAL/MOL
REMARK 922        TOTAL FREE ENERGY PREDICTED BY IDOCK:   -6.97 KCAL/MOL
REMARK 923 INTER-LIGAND FREE ENERGY PREDICTED BY IDOCK:   -6.84 KCAL/MOL
REMARK 924 INTRA-LIGAND FREE ENERGY PREDICTED BY IDOCK:   -0.13 KCAL/MOL
REMARK 927      BINDING AFFINITY PREDICTED BY RF-SCORE:    0.00 PKD
ROOT
HETATM    1  C   UNL     1     -12.021  14.126  66.935  1.00  0.00    -0.479 C  
HETATM    2  C   UNL     1     -10.799  14.785  67.249  1.00  0.00    -0.309 C  
HETATM    3  C   UNL     1     -10.547  13.797  66.158  1.00  0.00    -0.291 C  
HETATM    4  C   UNL     1     -12.294  12.989  65.515  1.00  0.00    -0.472 C  
HETATM    5  O   UNL     1     -12.746  12.182  64.428  1.00  0.00    -0.466 OA 
HETATM    6  C   UNL     1     -11.889  14.208  65.038  1.00  0.00    -0.390 C  
HETATM    7  C   UNL     1     -10.731  13.105  64.085  1.00  0.00    -0.399 C  
HETATM    8  C   UNL     1     -12.649  15.262  64.313  1.00  0.00     0.165 C  
HETATM    9  H   UNL     1     -13.563  11.804  64.126  1.00  0.00     0.000 HD 
HETATM   10  C   UNL     1     -10.433  11.543  64.962  1.00  0.00    -0.344 C  
HETATM   11  C   UNL     1     -10.680  11.352  66.676  1.00  0.00    -0.316 C  
HETATM   12  C   UNL     1     -10.681   9.939  67.272  1.00  0.00    -0.304 A  
HETATM   13  C   UNL     1     -10.143   8.845  66.567  1.00  0.00    -0.356 A  
HETATM   14  C   UNL     1      -9.928   7.610  67.195  1.00  0.00    -0.297 A  
HETATM   15  C   UNL     1     -10.257   7.459  68.543  1.00  0.00    -0.183 A  
HETATM   16  C   UNL     1     -10.777   8.529  69.262  1.00  0.00    -0.147 A  
HETATM   17  C   UNL     1     -11.345  12.304  69.024  1.00  0.00    -0.333 C  
HETATM   18  C   UNL     1     -10.979   9.775  68.650  1.00  0.00    -0.189 A  
HETATM   19  C   UNL     1     -11.776  12.368  67.566  1.00  0.00    -0.425 C  
HETATM   20  C   UNL     1     -11.513  10.877  69.538  1.00  0.00    -0.372 C  
ENDROOT
BRANCH  15  21
HETATM   21  O   UNL     1      -9.959   6.246  69.192  1.00  0.00    -0.142 OA 
BRANCH  21  22
HETATM   22  C   UNL     1      -8.700   5.704  68.945  1.00  0.00    -0.107 C  
HETATM   23  O   UNL     1      -7.633   6.303  69.036  1.00  0.00    -0.091 OA 
HETATM   24  N   UNL     1      -8.755   4.339  68.691  1.00  0.00    -0.093 N  
BRANCH  24  25
HETATM   25  C   UNL     1      -7.709   3.515  69.294  1.00  0.00    -0.051 C  
HETATM   26 CL   UNL     1      -6.080   2.749  71.319  1.00  0.00    -0.014 Cl 
HETATM   27  C   UNL     1      -7.336   3.867  70.726  1.00  0.00    -0.041 C  
ENDBRANCH  24  25
BRANCH  24  28
HETATM   28  C   UNL     1      -9.783   3.754  67.825  1.00  0.00    -0.073 C  
HETATM   29 CL   UNL     1      -8.305   3.748  65.517  1.00  0.00    -0.104 Cl 
HETATM   30  C   UNL     1      -9.788   4.223  66.372  1.00  0.00    -0.220 C  
ENDBRANCH  24  28
ENDBRANCH  21  22
ENDBRANCH  15  21
TORSDOF 4
ENDMDL
MODEL       89
REMARK 921   NORMALIZED FREE ENERGY PREDICTED BY IDOCK:   -5.10 KCAL/MOL
REMARK 922        TOTAL FREE ENERGY PREDICTED BY IDOCK:   -6.95 KCAL/MOL
REMARK 923 INTER-LIGAND FREE ENERGY PREDICTED BY IDOCK:   -6.23 KCAL/MOL
REMARK 924 INTRA-LIGAND FREE ENERGY PREDICTED BY IDOCK:   -0.72 KCAL/MOL
REMARK 927      BINDING AFFINITY PREDICTED BY RF-SCORE:    0.00 PKD
ROOT
HETATM    1  C   UNL     1      -6.936   7.002  68.817  1.00  0.00    -0.079 C  
HETATM    2  C   UNL     1      -8.055   6.564  69.581  1.00  0.00    -0.125 C  
HETATM    3  C   UNL     1      -8.325   6.301  68.136  1.00  0.00    -0.115 C  
HETATM    4  C   UNL     1      -6.677   6.698  67.021  1.00  0.00    -0.060 C  
HETATM    5  O   UNL     1      -6.230   6.479  65.683  1.00  0.00    -0.032 OA 
HETATM    6  C   UNL     1      -6.792   5.494  67.665  1.00  0.00    -0.060 C  
HETATM    7  C   UNL     1      -7.985   5.209  66.264  1.00  0.00    -0.104 C  
HETATM    8  C   UNL     1      -5.766   4.459  67.967  1.00  0.00    -0.021 C  
HETATM    9  H   UNL     1      -5.459   6.664  65.161  1.00  0.00     0.000 HD 
HETATM   10  C   UNL     1      -8.671   6.774  65.650  1.00  0.00    -0.086 C  
HETATM   11  C   UNL     1      -8.698   8.237  66.595  1.00  0.00    -0.150 C  
HETATM   12  C   UNL     1      -9.027   9.564  65.899  1.00  0.00    -0.210 A  
HETATM   13  C   UNL     1      -9.648   9.595  64.635  1.00  0.00    -0.147 A  
HETATM   14  C   UNL     1     -10.160  10.788  64.107  1.00  0.00    -0.418 A  
HETATM   15  C   UNL     1     -10.050  11.969  64.844  1.00  0.00    -0.260 A  
HETATM   16  C   UNL     1      -9.452  11.959  66.098  1.00  0.00    -0.243 A  
HETATM   17  C   UNL     1      -8.201   9.560  68.802  1.00  0.00    -0.112 C  
HETATM   18  C   UNL     1      -8.953  10.768  66.646  1.00  0.00    -0.164 A  
HETATM   19  C   UNL     1      -7.572   8.515  67.891  1.00  0.00    -0.098 C  
HETATM   20  C   UNL     1      -8.360  10.869  68.034  1.00  0.00    -0.122 C  
ENDROOT
BRANCH  15  21
HETATM   21  O   UNL     1     -10.643  13.145  64.349  1.00  0.00    -0.384 OA 
BRANCH  21  22
HETATM   22  C   UNL     1     -11.713  13.656  65.079  1.00  0.00    -0.339 C  
HETATM   23  O   UNL     1     -12.827  13.147  65.166  1.00  0.00    -0.669 OA 
HETATM   24  N   UNL     1     -11.359  14.774  65.823  1.00  0.00    -0.342 N  
BRANCH  24  25
HETATM   25  C   UNL     1     -11.902  14.864  67.177  1.00  0.00    -0.211 C  
HETATM   26 CL   UNL     1     -12.042  14.168  69.791  1.00  0.00    -0.388 Cl 
HETATM   27  C   UNL     1     -11.299  13.904  68.192  1.00  0.00    -0.295 C  
ENDBRANCH  24  25
BRANCH  24  28
HETATM   28  C   UNL     1     -10.517  15.838  65.266  1.00  0.00    -0.401 C  
HETATM   29 CL   UNL     1      -8.310  15.357  66.816  1.00  0.00    -0.288 Cl 
HETATM   30  C   UNL     1      -9.539  16.499  66.233  1.00  0.00    -0.306 C  
ENDBRANCH  24  28
ENDBRANCH  21  22
ENDBRANCH  15  21
TORSDOF 4
ENDMDL
MODEL       90
REMARK 921   NORMALIZED FREE ENERGY PREDICTED BY IDOCK:   -5.09 KCAL/MOL
REMARK 922        TOTAL FREE ENERGY PREDICTED BY IDOCK:   -6.94 KCAL/MOL
REMARK 923 INTER-LIGAND FREE ENERGY PREDICTED BY IDOCK:   -6.18 KCAL/MOL
REMARK 924 INTRA-LIGAND FREE ENERGY PREDICTED BY IDOCK:   -0.76 KCAL/MOL
REMARK 927      BINDING AFFINITY PREDICTED BY RF-SCORE:    0.00 PKD
ROOT
HETATM    1  C   UNL     1      -7.208   4.992  64.765  1.00  0.00    -0.063 C  
HETATM    2  C   UNL     1      -5.918   5.334  65.262  1.00  0.00    -0.025 C  
HETATM    3  C   UNL     1      -6.855   5.186  66.415  1.00  0.00    -0.062 C  
HETATM    4  C   UNL     1      -8.651   4.480  65.786  1.00  0.00    -0.116 C  
HETATM    5  O   UNL     1      -9.843   3.957  66.371  1.00  0.00    -0.324 OA 
HETATM    6  C   UNL     1      -7.615   3.611  66.009  1.00  0.00    -0.081 C  
HETATM    7  C   UNL     1      -8.091   3.982  67.771  1.00  0.00    -0.090 C  
HETATM    8  C   UNL     1      -7.436   2.194  65.588  1.00  0.00    -0.067 C  
HETATM    9  H   UNL     1     -10.683   3.627  66.077  1.00  0.00     0.000 HD 
HETATM   10  C   UNL     1      -8.879   5.612  67.913  1.00  0.00    -0.105 C  
HETATM   11  C   UNL     1      -8.673   6.876  66.732  1.00  0.00    -0.122 C  
HETATM   12  C   UNL     1      -9.597   8.099  66.786  1.00  0.00    -0.281 A  
HETATM   13  C   UNL     1     -10.343   8.404  67.941  1.00  0.00    -0.279 A  
HETATM   14  C   UNL     1     -10.997   9.637  68.079  1.00  0.00    -0.197 A  
HETATM   15  C   UNL     1     -10.911  10.578  67.052  1.00  0.00    -0.225 A  
HETATM   16  C   UNL     1     -10.170  10.303  65.909  1.00  0.00    -0.293 A  
HETATM   17  C   UNL     1      -7.636   7.802  64.511  1.00  0.00    -0.108 C  
HETATM   18  C   UNL     1      -9.495   9.082  65.767  1.00  0.00    -0.305 A  
HETATM   19  C   UNL     1      -8.249   6.531  65.081  1.00  0.00    -0.126 C  
HETATM   20  C   UNL     1      -8.688   8.908  64.500  1.00  0.00    -0.120 C  
ENDROOT
BRANCH  15  21
HETATM   21  O   UNL     1     -11.495  11.846  67.231  1.00  0.00    -0.319 OA 
BRANCH  21  22
HETATM   22  C   UNL     1     -10.631  12.887  67.562  1.00  0.00    -0.226 C  
HETATM   23  O   UNL     1      -9.809  12.872  68.474  1.00  0.00    -0.214 OA 
HETATM   24  N   UNL     1     -10.704  13.940  66.659  1.00  0.00    -0.280 N  
BRANCH  24  25
HETATM   25  C   UNL     1      -9.441  14.565  66.273  1.00  0.00    -0.283 C  
HETATM   26 CL   UNL     1      -7.687  16.626  66.145  1.00  0.00    -0.267 Cl 
HETATM   27  C   UNL     1      -9.289  16.031  66.651  1.00  0.00    -0.243 C  
ENDBRANCH  24  25
BRANCH  24  28
HETATM   28  C   UNL     1     -11.987  14.433  66.149  1.00  0.00    -0.369 C  
HETATM   29 CL   UNL     1     -12.116  12.803  63.950  1.00  0.00    -0.521 Cl 
HETATM   30  C   UNL     1     -12.150  14.443  64.631  1.00  0.00    -0.471 C  
ENDBRANCH  24  28
ENDBRANCH  21  22
ENDBRANCH  15  21
TORSDOF 4
ENDMDL
MODEL       91
REMARK 921   NORMALIZED FREE ENERGY PREDICTED BY IDOCK:   -5.09 KCAL/MOL
REMARK 922        TOTAL FREE ENERGY PREDICTED BY IDOCK:   -6.93 KCAL/MOL
REMARK 923 INTER-LIGAND FREE ENERGY PREDICTED BY IDOCK:   -6.51 KCAL/MOL
REMARK 924 INTRA-LIGAND FREE ENERGY PREDICTED BY IDOCK:   -0.42 KCAL/MOL
REMARK 927      BINDING AFFINITY PREDICTED BY RF-SCORE:    0.00 PKD
ROOT
HETATM    1  C   UNL     1      -8.037   4.716  68.024  1.00  0.00    -0.088 C  
HETATM    2  C   UNL     1      -8.832   4.154  69.063  1.00  0.00    -0.141 C  
HETATM    3  C   UNL     1      -9.736   4.720  68.018  1.00  0.00    -0.202 C  
HETATM    4  C   UNL     1      -8.663   5.333  66.408  1.00  0.00    -0.118 C  
HETATM    5  O   UNL     1      -8.918   5.754  65.068  1.00  0.00    -0.348 OA 
HETATM    6  C   UNL     1      -9.000   4.011  66.541  1.00  0.00    -0.131 C  
HETATM    7  C   UNL     1     -10.651   4.699  66.024  1.00  0.00    -0.244 C  
HETATM    8  C   UNL     1      -8.467   2.805  65.851  1.00  0.00    -0.103 C  
HETATM    9  H   UNL     1      -8.417   6.041  64.314  1.00  0.00     0.000 HD 
HETATM   10  C   UNL     1     -10.809   6.450  66.477  1.00  0.00    -0.101 C  
HETATM   11  C   UNL     1      -9.852   7.202  67.722  1.00  0.00    -0.175 C  
HETATM   12  C   UNL     1      -9.849   8.732  67.834  1.00  0.00    -0.207 A  
HETATM   13  C   UNL     1     -10.847   9.513  67.221  1.00  0.00    -0.188 A  
HETATM   14  C   UNL     1     -10.984  10.878  67.514  1.00  0.00    -0.352 A  
HETATM   15  C   UNL     1     -10.113  11.474  68.428  1.00  0.00    -0.204 A  
HETATM   16  C   UNL     1      -9.130  10.719  69.055  1.00  0.00    -0.153 A  
HETATM   17  C   UNL     1      -8.023   7.098  69.596  1.00  0.00    -0.124 C  
HETATM   18  C   UNL     1      -8.995   9.349  68.785  1.00  0.00    -0.132 A  
HETATM   19  C   UNL     1      -8.300   6.574  68.193  1.00  0.00    -0.116 C  
HETATM   20  C   UNL     1      -7.916   8.619  69.554  1.00  0.00    -0.097 C  
ENDROOT
BRANCH  15  21
HETATM   21  O   UNL     1     -10.309  12.821  68.785  1.00  0.00    -0.208 OA 
BRANCH  21  22
HETATM   22  C   UNL     1     -11.539  13.140  69.356  1.00  0.00    -0.300 C  
HETATM   23  O   UNL     1     -12.257  12.367  69.984  1.00  0.00    -0.272 OA 
HETATM   24  N   UNL     1     -11.837  14.492  69.247  1.00  0.00    -0.308 N  
BRANCH  24  25
HETATM   25  C   UNL     1     -12.443  15.129  70.415  1.00  0.00    -0.368 C  
HETATM   26 CL   UNL     1     -12.428  16.061  72.959  1.00  0.00    -0.560 Cl 
HETATM   27  C   UNL     1     -11.553  15.231  71.645  1.00  0.00    -0.408 C  
ENDBRANCH  24  25
BRANCH  24  28
HETATM   28  C   UNL     1     -11.598  15.240  68.009  1.00  0.00    -0.312 C  
HETATM   29 CL   UNL     1      -9.126  16.212  68.683  1.00  0.00    -0.207 Cl 
HETATM   30  C   UNL     1     -10.789  16.527  68.144  1.00  0.00    -0.345 C  
ENDBRANCH  24  28
ENDBRANCH  21  22
ENDBRANCH  15  21
TORSDOF 4
ENDMDL
MODEL       92
REMARK 921   NORMALIZED FREE ENERGY PREDICTED BY IDOCK:   -5.07 KCAL/MOL
REMARK 922        TOTAL FREE ENERGY PREDICTED BY IDOCK:   -6.91 KCAL/MOL
REMARK 923 INTER-LIGAND FREE ENERGY PREDICTED BY IDOCK:   -6.28 KCAL/MOL
REMARK 924 INTRA-LIGAND FREE ENERGY PREDICTED BY IDOCK:   -0.64 KCAL/MOL
REMARK 927      BINDING AFFINITY PREDICTED BY RF-SCORE:    0.00 PKD
ROOT
HETATM    1  C   UNL     1      -9.646   4.018  71.427  1.00  0.00    -0.241 C  
HETATM    2  C   UNL     1      -8.263   3.972  71.764  1.00  0.00    -0.090 C  
HETATM    3  C   UNL     1      -8.900   5.107  72.496  1.00  0.00    -0.129 C  
HETATM    4  C   UNL     1     -10.912   5.084  72.231  1.00  0.00    -0.092 C  
HETATM    5  O   UNL     1     -12.057   5.731  72.788  1.00  0.00    -0.543 OA 
HETATM    6  C   UNL     1     -10.339   4.279  73.181  1.00  0.00    -0.237 C  
HETATM    7  C   UNL     1     -10.215   5.919  74.054  1.00  0.00    -0.279 C  
HETATM    8  C   UNL     1     -10.891   3.106  73.912  1.00  0.00    -0.296 C  
HETATM    9  H   UNL     1     -12.998   5.720  72.664  1.00  0.00     0.000 HD 
HETATM   10  C   UNL     1     -10.162   7.295  72.871  1.00  0.00    -0.289 C  
HETATM   11  C   UNL     1      -9.684   7.103  71.207  1.00  0.00    -0.170 C  
HETATM   12  C   UNL     1      -9.945   8.250  70.222  1.00  0.00    -0.188 A  
HETATM   13  C   UNL     1     -10.216   9.556  70.674  1.00  0.00    -0.364 A  
HETATM   14  C   UNL     1     -10.221  10.644  69.789  1.00  0.00    -0.098 A  
HETATM   15  C   UNL     1      -9.954  10.430  68.436  1.00  0.00    -0.162 A  
HETATM   16  C   UNL     1      -9.672   9.151  67.971  1.00  0.00    -0.177 A  
HETATM   17  C   UNL     1      -8.848   5.627  69.209  1.00  0.00    -0.112 C  
HETATM   18  C   UNL     1      -9.645   8.058  68.848  1.00  0.00    -0.152 A  
HETATM   19  C   UNL     1      -9.817   5.577  70.382  1.00  0.00    -0.259 C  
HETATM   20  C   UNL     1      -9.287   6.720  68.239  1.00  0.00    -0.124 C  
ENDROOT
BRANCH  15  21
HETATM   21  O   UNL     1      -9.873  11.535  67.568  1.00  0.00    -0.186 OA 
BRANCH  21  22
HETATM   22  C   UNL     1      -8.788  12.388  67.750  1.00  0.00    -0.176 C  
HETATM   23  O   UNL     1      -7.608  12.050  67.771  1.00  0.00    -0.111 OA 
HETATM   24  N   UNL     1      -9.168  13.724  67.790  1.00  0.00    -0.197 N  
BRANCH  24  25
HETATM   25  C   UNL     1      -8.309  14.674  67.086  1.00  0.00    -0.211 C  
HETATM   26 CL   UNL     1      -6.522  16.707  66.960  1.00  0.00    -0.218 Cl 
HETATM   27  C   UNL     1      -7.544  15.649  67.968  1.00  0.00    -0.124 C  
ENDBRANCH  24  25
BRANCH  24  28
HETATM   28  C   UNL     1     -10.347  14.170  68.537  1.00  0.00    -0.249 C  
HETATM   29 CL   UNL     1     -12.139  13.972  66.474  1.00  0.00    -0.471 Cl 
HETATM   30  C   UNL     1     -11.389  14.958  67.747  1.00  0.00    -0.329 C  
ENDBRANCH  24  28
ENDBRANCH  21  22
ENDBRANCH  15  21
TORSDOF 4
ENDMDL
MODEL       93
REMARK 921   NORMALIZED FREE ENERGY PREDICTED BY IDOCK:   -5.05 KCAL/MOL
REMARK 922        TOTAL FREE ENERGY PREDICTED BY IDOCK:   -6.89 KCAL/MOL
REMARK 923 INTER-LIGAND FREE ENERGY PREDICTED BY IDOCK:   -6.37 KCAL/MOL
REMARK 924 INTRA-LIGAND FREE ENERGY PREDICTED BY IDOCK:   -0.52 KCAL/MOL
REMARK 927      BINDING AFFINITY PREDICTED BY RF-SCORE:    0.00 PKD
ROOT
HETATM    1  C   UNL     1      -7.771  18.211  67.928  1.00  0.00    -0.237 C  
HETATM    2  C   UNL     1      -6.920  18.316  66.792  1.00  0.00    -0.222 C  
HETATM    3  C   UNL     1      -8.241  17.774  66.356  1.00  0.00    -0.290 C  
HETATM    4  C   UNL     1      -9.568  17.814  67.891  1.00  0.00    -0.280 C  
HETATM    5  O   UNL     1     -10.972  17.638  68.078  1.00  0.00    -0.308 OA 
HETATM    6  C   UNL     1      -9.346  18.946  67.151  1.00  0.00    -0.328 C  
HETATM    7  C   UNL     1     -10.386  17.986  65.941  1.00  0.00    -0.274 C  
HETATM    8  C   UNL     1      -9.686  20.367  67.433  1.00  0.00    -0.597 C  
HETATM    9  H   UNL     1     -11.593  17.657  68.796  1.00  0.00     0.000 HD 
HETATM   10  C   UNL     1     -10.246  16.197  66.223  1.00  0.00    -0.333 C  
HETATM   11  C   UNL     1      -8.906  15.467  67.063  1.00  0.00    -0.255 C  
HETATM   12  C   UNL     1      -9.015  14.002  67.502  1.00  0.00    -0.195 A  
HETATM   13  C   UNL     1      -9.981  13.141  66.949  1.00  0.00    -0.245 A  
HETATM   14  C   UNL     1      -9.933  11.757  67.169  1.00  0.00    -0.221 A  
HETATM   15  C   UNL     1      -8.910  11.222  67.954  1.00  0.00    -0.142 A  
HETATM   16  C   UNL     1      -7.938  12.052  68.500  1.00  0.00    -0.132 A  
HETATM   17  C   UNL     1      -6.609  15.634  68.314  1.00  0.00    -0.126 C  
HETATM   18  C   UNL     1      -7.965  13.436  68.271  1.00  0.00    -0.147 A  
HETATM   19  C   UNL     1      -7.945  16.356  68.208  1.00  0.00    -0.170 C  
HETATM   20  C   UNL     1      -6.835  14.236  68.881  1.00  0.00    -0.104 C  
ENDROOT
BRANCH  15  21
HETATM   21  O   UNL     1      -8.815   9.826  68.101  1.00  0.00    -0.119 OA 
BRANCH  21  22
HETATM   22  C   UNL     1      -8.337   9.117  67.001  1.00  0.00    -0.120 C  
HETATM   23  O   UNL     1      -7.381   9.440  66.302  1.00  0.00    -0.094 OA 
HETATM   24  N   UNL     1      -8.993   7.905  66.829  1.00  0.00    -0.138 N  
BRANCH  24  25
HETATM   25  C   UNL     1      -8.168   6.757  66.458  1.00  0.00    -0.117 C  
HETATM   26 CL   UNL     1      -7.155   4.955  64.707  1.00  0.00    -0.060 Cl 
HETATM   27  C   UNL     1      -8.243   6.337  64.997  1.00  0.00    -0.132 C  
ENDBRANCH  24  25
BRANCH  24  28
HETATM   28  C   UNL     1     -10.448   7.786  66.968  1.00  0.00    -0.349 C  
HETATM   29 CL   UNL     1     -10.436   6.198  69.201  1.00  0.00    -0.274 Cl 
HETATM   30  C   UNL     1     -10.966   6.463  67.527  1.00  0.00    -0.364 C  
ENDBRANCH  24  28
ENDBRANCH  21  22
ENDBRANCH  15  21
TORSDOF 4
ENDMDL
MODEL       94
REMARK 921   NORMALIZED FREE ENERGY PREDICTED BY IDOCK:   -5.05 KCAL/MOL
REMARK 922        TOTAL FREE ENERGY PREDICTED BY IDOCK:   -6.89 KCAL/MOL
REMARK 923 INTER-LIGAND FREE ENERGY PREDICTED BY IDOCK:   -6.51 KCAL/MOL
REMARK 924 INTRA-LIGAND FREE ENERGY PREDICTED BY IDOCK:   -0.38 KCAL/MOL
REMARK 927      BINDING AFFINITY PREDICTED BY RF-SCORE:    0.00 PKD
ROOT
HETATM    1  C   UNL     1     -11.005  13.956  66.085  1.00  0.00    -0.293 C  
HETATM    2  C   UNL     1     -12.323  13.685  65.621  1.00  0.00    -0.518 C  
HETATM    3  C   UNL     1     -12.143  13.047  66.958  1.00  0.00    -0.330 C  
HETATM    4  C   UNL     1     -10.363  13.585  67.770  1.00  0.00    -0.241 C  
HETATM    5  O   UNL     1      -9.708  13.491  69.035  1.00  0.00    -0.415 OA 
HETATM    6  C   UNL     1     -11.444  14.421  67.878  1.00  0.00    -0.346 C  
HETATM    7  C   UNL     1     -11.920  13.136  69.139  1.00  0.00    -0.329 C  
HETATM    8  C   UNL     1     -11.518  15.861  68.246  1.00  0.00    -0.320 C  
HETATM    9  H   UNL     1      -8.875  13.743  69.415  1.00  0.00     0.000 HD 
HETATM   10  C   UNL     1     -11.164  11.529  68.763  1.00  0.00    -0.309 C  
HETATM   11  C   UNL     1     -10.598  11.090  67.176  1.00  0.00    -0.294 C  
HETATM   12  C   UNL     1      -9.721   9.841  67.019  1.00  0.00    -0.233 A  
HETATM   13  C   UNL     1      -9.659   8.858  68.025  1.00  0.00    -0.167 A  
HETATM   14  C   UNL     1      -9.053   7.616  67.790  1.00  0.00    -0.131 A  
HETATM   15  C   UNL     1      -8.498   7.348  66.538  1.00  0.00    -0.128 A  
HETATM   16  C   UNL     1      -8.559   8.299  65.526  1.00  0.00    -0.183 A  
HETATM   17  C   UNL     1     -10.230  11.623  64.636  1.00  0.00    -0.327 C  
HETATM   18  C   UNL     1      -9.180   9.538  65.742  1.00  0.00    -0.267 A  
HETATM   19  C   UNL     1     -10.133  12.287  66.002  1.00  0.00    -0.269 C  
HETATM   20  C   UNL     1      -9.222  10.480  64.559  1.00  0.00    -0.278 C  
ENDROOT
BRANCH  15  21
HETATM   21  O   UNL     1      -7.970   6.070  66.279  1.00  0.00    -0.102 OA 
BRANCH  21  22
HETATM   22  C   UNL     1      -8.882   5.085  65.906  1.00  0.00    -0.134 C  
HETATM   23  O   UNL     1      -9.965   4.873  66.442  1.00  0.00    -0.184 OA 
HETATM   24  N   UNL     1      -8.491   4.414  64.753  1.00  0.00    -0.118 N  
BRANCH  24  25
HETATM   25  C   UNL     1      -9.539   4.113  63.780  1.00  0.00    -0.137 C  
HETATM   26 CL   UNL     1     -11.192   2.450  62.423  1.00  0.00    -0.180 Cl 
HETATM   27  C   UNL     1      -9.877   2.639  63.612  1.00  0.00    -0.136 C  
ENDBRANCH  24  25
BRANCH  24  28
HETATM   28  C   UNL     1      -7.105   3.988  64.539  1.00  0.00    -0.054 C  
HETATM   29 CL   UNL     1      -7.352   1.494  65.646  1.00  0.00    -0.055 Cl 
HETATM   30  C   UNL     1      -6.514   3.059  65.596  1.00  0.00    -0.032 C  
ENDBRANCH  24  28
ENDBRANCH  21  22
ENDBRANCH  15  21
TORSDOF 4
ENDMDL
MODEL       95
REMARK 921   NORMALIZED FREE ENERGY PREDICTED BY IDOCK:   -5.04 KCAL/MOL
REMARK 922        TOTAL FREE ENERGY PREDICTED BY IDOCK:   -6.88 KCAL/MOL
REMARK 923 INTER-LIGAND FREE ENERGY PREDICTED BY IDOCK:   -6.32 KCAL/MOL
REMARK 924 INTRA-LIGAND FREE ENERGY PREDICTED BY IDOCK:   -0.56 KCAL/MOL
REMARK 927      BINDING AFFINITY PREDICTED BY RF-SCORE:    0.00 PKD
ROOT
HETATM    1  C   UNL     1      -9.784   3.863  69.680  1.00  0.00    -0.208 C  
HETATM    2  C   UNL     1      -9.077   3.142  68.677  1.00  0.00    -0.209 C  
HETATM    3  C   UNL     1      -8.146   4.121  69.312  1.00  0.00    -0.063 C  
HETATM    4  C   UNL     1      -9.034   5.020  70.900  1.00  0.00    -0.134 C  
HETATM    5  O   UNL     1      -8.648   5.854  71.992  1.00  0.00    -0.135 OA 
HETATM    6  C   UNL     1      -8.461   3.783  71.047  1.00  0.00    -0.099 C  
HETATM    7  C   UNL     1      -6.922   4.831  70.989  1.00  0.00    -0.043 C  
HETATM    8  C   UNL     1      -8.611   2.773  72.129  1.00  0.00    -0.085 C  
HETATM    9  H   UNL     1      -9.063   6.274  72.735  1.00  0.00     0.000 HD 
HETATM   10  C   UNL     1      -7.205   6.371  70.070  1.00  0.00    -0.080 C  
HETATM   11  C   UNL     1      -8.493   6.567  68.913  1.00  0.00    -0.122 C  
HETATM   12  C   UNL     1      -8.828   7.976  68.407  1.00  0.00    -0.134 A  
HETATM   13  C   UNL     1      -7.923   9.044  68.559  1.00  0.00    -0.103 A  
HETATM   14  C   UNL     1      -8.120  10.264  67.896  1.00  0.00    -0.102 A  
HETATM   15  C   UNL     1      -9.236  10.424  67.073  1.00  0.00    -0.147 A  
HETATM   16  C   UNL     1     -10.135   9.380  66.898  1.00  0.00    -0.314 A  
HETATM   17  C   UNL     1     -10.551   5.639  67.583  1.00  0.00    -0.279 C  
HETATM   18  C   UNL     1      -9.939   8.148  67.541  1.00  0.00    -0.251 A  
HETATM   19  C   UNL     1      -9.940   5.604  68.977  1.00  0.00    -0.233 C  
HETATM   20  C   UNL     1     -10.959   7.071  67.247  1.00  0.00    -0.372 C  
ENDROOT
BRANCH  15  21
HETATM   21  O   UNL     1      -9.383  11.618  66.342  1.00  0.00    -0.202 OA 
BRANCH  21  22
HETATM   22  C   UNL     1     -10.028  12.668  66.991  1.00  0.00    -0.219 C  
HETATM   23  O   UNL     1      -9.703  13.146  68.074  1.00  0.00    -0.211 OA 
HETATM   24  N   UNL     1     -11.039  13.225  66.218  1.00  0.00    -0.287 N  
BRANCH  24  25
HETATM   25  C   UNL     1     -11.155  14.682  66.235  1.00  0.00    -0.336 C  
HETATM   26 CL   UNL     1     -10.368  17.191  65.584  1.00  0.00    -0.265 Cl 
HETATM   27  C   UNL     1     -10.059  15.437  65.498  1.00  0.00    -0.373 C  
ENDBRANCH  24  25
BRANCH  24  28
HETATM   28  C   UNL     1     -11.977  12.394  65.457  1.00  0.00    -0.391 C  
HETATM   29 CL   UNL     1     -10.402  12.071  63.238  1.00  0.00    -0.446 Cl 
HETATM   30  C   UNL     1     -11.955  12.570  63.940  1.00  0.00    -0.480 C  
ENDBRANCH  24  28
ENDBRANCH  21  22
ENDBRANCH  15  21
TORSDOF 4
ENDMDL
MODEL       96
REMARK 921   NORMALIZED FREE ENERGY PREDICTED BY IDOCK:   -5.02 KCAL/MOL
REMARK 922        TOTAL FREE ENERGY PREDICTED BY IDOCK:   -6.85 KCAL/MOL
REMARK 923 INTER-LIGAND FREE ENERGY PREDICTED BY IDOCK:   -6.39 KCAL/MOL
REMARK 924 INTRA-LIGAND FREE ENERGY PREDICTED BY IDOCK:   -0.46 KCAL/MOL
REMARK 927      BINDING AFFINITY PREDICTED BY RF-SCORE:    0.00 PKD
ROOT
HETATM    1  C   UNL     1     -11.896  14.680  66.792  1.00  0.00    -0.334 C  
HETATM    2  C   UNL     1     -10.699  15.388  67.099  1.00  0.00    -0.314 C  
HETATM    3  C   UNL     1     -10.380  14.303  66.124  1.00  0.00    -0.305 C  
HETATM    4  C   UNL     1     -12.081  13.405  65.478  1.00  0.00    -0.428 C  
HETATM    5  O   UNL     1     -12.466  12.488  64.453  1.00  0.00    -0.475 OA 
HETATM    6  C   UNL     1     -11.668  14.580  64.905  1.00  0.00    -0.402 C  
HETATM    7  C   UNL     1     -10.449  13.410  64.121  1.00  0.00    -0.202 C  
HETATM    8  C   UNL     1     -12.405  15.544  64.044  1.00  0.00     0.150 C  
HETATM    9  H   UNL     1     -13.262  12.068  64.151  1.00  0.00     0.000 HD 
HETATM   10  C   UNL     1     -10.174  11.947  65.161  1.00  0.00    -0.314 C  
HETATM   11  C   UNL     1     -10.505  11.918  66.871  1.00  0.00    -0.253 C  
HETATM   12  C   UNL     1     -10.518  10.569  67.601  1.00  0.00    -0.276 A  
HETATM   13  C   UNL     1      -9.930   9.423  67.033  1.00  0.00    -0.282 A  
HETATM   14  C   UNL     1      -9.731   8.258  67.789  1.00  0.00    -0.194 A  
HETATM   15  C   UNL     1     -10.125   8.233  69.128  1.00  0.00    -0.202 A  
HETATM   16  C   UNL     1     -10.695   9.357  69.712  1.00  0.00    -0.250 A  
HETATM   17  C   UNL     1     -11.302  13.081  69.080  1.00  0.00    -0.340 C  
HETATM   18  C   UNL     1     -10.883  10.534  68.972  1.00  0.00    -0.272 A  
HETATM   19  C   UNL     1     -11.658  12.995  67.602  1.00  0.00    -0.403 C  
HETATM   20  C   UNL     1     -11.476  11.707  69.721  1.00  0.00    -0.339 C  
ENDROOT
BRANCH  15  21
HETATM   21  O   UNL     1      -9.844   7.095  69.906  1.00  0.00    -0.173 OA 
BRANCH  21  22
HETATM   22  C   UNL     1     -10.059   5.859  69.298  1.00  0.00    -0.194 C  
HETATM   23  O   UNL     1     -11.155   5.370  69.042  1.00  0.00     0.001 OA 
HETATM   24  N   UNL     1      -8.875   5.261  68.887  1.00  0.00    -0.092 N  
BRANCH  24  25
HETATM   25  C   UNL     1      -8.891   4.595  67.585  1.00  0.00    -0.106 C  
HETATM   26 CL   UNL     1      -8.089   2.720  65.803  1.00  0.00    -0.085 Cl 
HETATM   27  C   UNL     1      -7.915   3.440  67.425  1.00  0.00    -0.081 C  
ENDBRANCH  24  25
BRANCH  24  28
HETATM   28  C   UNL     1      -7.677   5.255  69.731  1.00  0.00    -0.073 C  
HETATM   29 CL   UNL     1      -8.243   2.944  71.090  1.00  0.00    -0.069 Cl 
HETATM   30  C   UNL     1      -7.843   4.674  71.133  1.00  0.00    -0.082 C  
ENDBRANCH  24  28
ENDBRANCH  21  22
ENDBRANCH  15  21
TORSDOF 4
ENDMDL
MODEL       97
REMARK 921   NORMALIZED FREE ENERGY PREDICTED BY IDOCK:   -5.01 KCAL/MOL
REMARK 922        TOTAL FREE ENERGY PREDICTED BY IDOCK:   -6.84 KCAL/MOL
REMARK 923 INTER-LIGAND FREE ENERGY PREDICTED BY IDOCK:   -6.48 KCAL/MOL
REMARK 924 INTRA-LIGAND FREE ENERGY PREDICTED BY IDOCK:   -0.37 KCAL/MOL
REMARK 927      BINDING AFFINITY PREDICTED BY RF-SCORE:    0.00 PKD
ROOT
HETATM    1  C   UNL     1      -8.970  19.390  66.707  1.00  0.00    -0.373 C  
HETATM    2  C   UNL     1      -9.956  19.666  67.696  1.00  0.00    -0.510 C  
HETATM    3  C   UNL     1      -8.792  18.998  68.350  1.00  0.00    -0.379 C  
HETATM    4  C   UNL     1      -7.264  18.782  67.033  1.00  0.00    -0.209 C  
HETATM    5  O   UNL     1      -5.881  18.428  67.069  1.00  0.00    -0.147 OA 
HETATM    6  C   UNL     1      -7.444  19.977  67.681  1.00  0.00    -0.327 C  
HETATM    7  C   UNL     1      -6.721  18.975  69.075  1.00  0.00    -0.331 C  
HETATM    8  C   UNL     1      -6.886  21.326  67.392  1.00  0.00    -0.329 C  
HETATM    9  H   UNL     1      -5.166  18.327  66.453  1.00  0.00     0.000 HD 
HETATM   10  C   UNL     1      -7.047  17.203  68.854  1.00  0.00    -0.242 C  
HETATM   11  C   UNL     1      -8.334  16.588  67.854  1.00  0.00    -0.175 C  
HETATM   12  C   UNL     1      -8.351  15.096  67.501  1.00  0.00    -0.188 A  
HETATM   13  C   UNL     1      -7.594  14.161  68.231  1.00  0.00    -0.130 A  
HETATM   14  C   UNL     1      -7.787  12.782  68.067  1.00  0.00    -0.150 A  
HETATM   15  C   UNL     1      -8.746  12.326  67.160  1.00  0.00    -0.193 A  
HETATM   16  C   UNL     1      -9.513  13.231  66.438  1.00  0.00    -0.225 A  
HETATM   17  C   UNL     1     -10.385  16.952  66.264  1.00  0.00    -0.312 C  
HETATM   18  C   UNL     1      -9.343  14.613  66.607  1.00  0.00    -0.293 A  
HETATM   19  C   UNL     1      -8.997  17.513  66.538  1.00  0.00    -0.284 C  
HETATM   20  C   UNL     1     -10.261  15.504  65.799  1.00  0.00    -0.390 C  
ENDROOT
BRANCH  15  21
HETATM   21  O   UNL     1      -8.997  10.945  67.062  1.00  0.00    -0.141 OA 
BRANCH  21  22
HETATM   22  C   UNL     1      -9.162  10.257  68.262  1.00  0.00    -0.139 C  
HETATM   23  O   UNL     1      -9.923  10.577  69.171  1.00  0.00    -0.204 OA 
HETATM   24  N   UNL     1      -8.445   9.067  68.291  1.00  0.00    -0.128 N  
BRANCH  24  25
HETATM   25  C   UNL     1      -9.115   7.910  68.882  1.00  0.00    -0.141 C  
HETATM   26 CL   UNL     1     -10.263   5.458  68.796  1.00  0.00    -0.256 Cl 
HETATM   27  C   UNL     1      -9.494   6.802  67.912  1.00  0.00    -0.118 C  
ENDBRANCH  24  25
BRANCH  24  28
HETATM   28  C   UNL     1      -7.069   8.981  67.794  1.00  0.00    -0.079 C  
HETATM   29 CL   UNL     1      -5.827   9.604  70.156  1.00  0.00    -0.041 Cl 
HETATM   30  C   UNL     1      -6.062   9.938  68.427  1.00  0.00    -0.046 C  
ENDBRANCH  24  28
ENDBRANCH  21  22
ENDBRANCH  15  21
TORSDOF 4
ENDMDL
MODEL       98
REMARK 921   NORMALIZED FREE ENERGY PREDICTED BY IDOCK:   -5.00 KCAL/MOL
REMARK 922        TOTAL FREE ENERGY PREDICTED BY IDOCK:   -6.83 KCAL/MOL
REMARK 923 INTER-LIGAND FREE ENERGY PREDICTED BY IDOCK:   -7.05 KCAL/MOL
REMARK 924 INTRA-LIGAND FREE ENERGY PREDICTED BY IDOCK:    0.21 KCAL/MOL
REMARK 927      BINDING AFFINITY PREDICTED BY RF-SCORE:    0.00 PKD
ROOT
HETATM    1  C   UNL     1      -7.647  18.785  67.523  1.00  0.00    -0.243 C  
HETATM    2  C   UNL     1      -6.963  19.028  66.297  1.00  0.00    -0.253 C  
HETATM    3  C   UNL     1      -8.327  18.501  65.992  1.00  0.00    -0.057 C  
HETATM    4  C   UNL     1      -9.426  18.349  67.691  1.00  0.00    -0.272 C  
HETATM    5  O   UNL     1     -10.789  18.120  68.049  1.00  0.00    -0.331 OA 
HETATM    6  C   UNL     1      -9.322  19.556  67.051  1.00  0.00    -0.416 C  
HETATM    7  C   UNL     1     -10.510  18.700  65.901  1.00  0.00    -0.395 C  
HETATM    8  C   UNL     1      -9.635  20.932  67.526  1.00  0.00    -0.358 C  
HETATM    9  H   UNL     1     -11.304  18.049  68.844  1.00  0.00     0.000 HD 
HETATM   10  C   UNL     1     -10.313  16.896  65.970  1.00  0.00    -0.335 C  
HETATM   11  C   UNL     1      -8.862  16.117  66.536  1.00  0.00    -0.331 C  
HETATM   12  C   UNL     1      -8.893  14.612  66.830  1.00  0.00    -0.269 A  
HETATM   13  C   UNL     1      -9.918  13.789  66.326  1.00  0.00    -0.312 A  
HETATM   14  C   UNL     1      -9.825  12.391  66.391  1.00  0.00    -0.249 A  
HETATM   15  C   UNL     1      -8.697  11.804  66.967  1.00  0.00    -0.181 A  
HETATM   16  C   UNL     1      -7.668  12.597  67.459  1.00  0.00    -0.161 A  
HETATM   17  C   UNL     1      -6.415  16.212  67.470  1.00  0.00    -0.202 C  
HETATM   18  C   UNL     1      -7.740  13.996  67.383  1.00  0.00    -0.177 A  
HETATM   19  C   UNL     1      -7.760  16.907  67.626  1.00  0.00    -0.179 C  
HETATM   20  C   UNL     1      -6.545  14.757  67.913  1.00  0.00    -0.175 C  
ENDROOT
BRANCH  15  21
HETATM   21  O   UNL     1      -8.567  10.403  66.951  1.00  0.00    -0.126 OA 
BRANCH  21  22
HETATM   22  C   UNL     1      -9.729   9.675  66.703  1.00  0.00    -0.209 C  
HETATM   23  O   UNL     1     -10.386   9.707  65.667  1.00  0.00    -0.173 OA 
HETATM   24  N   UNL     1     -10.024   8.787  67.730  1.00  0.00    -0.182 N  
BRANCH  24  25
HETATM   25  C   UNL     1     -10.501   7.462  67.337  1.00  0.00    -0.296 C  
HETATM   26 CL   UNL     1     -10.173   4.923  66.451  1.00  0.00    -0.282 Cl 
HETATM   27  C   UNL     1      -9.432   6.494  66.852  1.00  0.00    -0.152 C  
ENDBRANCH  24  25
BRANCH  24  28
HETATM   28  C   UNL     1      -9.907   9.169  69.140  1.00  0.00    -0.171 C  
HETATM   29 CL   UNL     1     -12.134  10.762  69.236  1.00  0.00    -0.339 Cl 
HETATM   30  C   UNL     1     -10.388  10.572  69.501  1.00  0.00    -0.221 C  
ENDBRANCH  24  28
ENDBRANCH  21  22
ENDBRANCH  15  21
TORSDOF 4
ENDMDL
MODEL       99
REMARK 921   NORMALIZED FREE ENERGY PREDICTED BY IDOCK:   -4.99 KCAL/MOL
REMARK 922        TOTAL FREE ENERGY PREDICTED BY IDOCK:   -6.82 KCAL/MOL
REMARK 923 INTER-LIGAND FREE ENERGY PREDICTED BY IDOCK:   -6.44 KCAL/MOL
REMARK 924 INTRA-LIGAND FREE ENERGY PREDICTED BY IDOCK:   -0.37 KCAL/MOL
REMARK 927      BINDING AFFINITY PREDICTED BY RF-SCORE:    0.00 PKD
ROOT
HETATM    1  C   UNL     1      -7.704  19.166  67.610  1.00  0.00    -0.271 C  
HETATM    2  C   UNL     1      -6.956  19.461  66.436  1.00  0.00    -0.228 C  
HETATM    3  C   UNL     1      -8.298  18.944  66.035  1.00  0.00    -0.103 C  
HETATM    4  C   UNL     1      -9.488  18.719  67.663  1.00  0.00    -0.300 C  
HETATM    5  O   UNL     1     -10.867  18.471  67.935  1.00  0.00    -0.350 OA 
HETATM    6  C   UNL     1      -9.354  19.952  67.079  1.00  0.00    -0.486 C  
HETATM    7  C   UNL     1     -10.474  19.141  65.832  1.00  0.00    -0.500 C  
HETATM    8  C   UNL     1      -9.700  21.305  67.593  1.00  0.00     0.132 C  
HETATM    9  H   UNL     1     -11.425  18.366  68.697  1.00  0.00     0.000 HD 
HETATM   10  C   UNL     1     -10.272  17.337  65.837  1.00  0.00    -0.273 C  
HETATM   11  C   UNL     1      -8.850  16.539  66.449  1.00  0.00    -0.345 C  
HETATM   12  C   UNL     1      -8.890  15.023  66.677  1.00  0.00    -0.307 A  
HETATM   13  C   UNL     1      -9.882  14.218  66.085  1.00  0.00    -0.335 A  
HETATM   14  C   UNL     1      -9.786  12.819  66.096  1.00  0.00    -0.246 A  
HETATM   15  C   UNL     1      -8.688  12.212  66.709  1.00  0.00    -0.183 A  
HETATM   16  C   UNL     1      -7.691  12.986  67.289  1.00  0.00    -0.112 A  
HETATM   17  C   UNL     1      -6.459  16.600  67.519  1.00  0.00    -0.183 C  
HETATM   18  C   UNL     1      -7.766  14.387  67.267  1.00  0.00    -0.164 A  
HETATM   19  C   UNL     1      -7.814  17.285  67.630  1.00  0.00    -0.192 C  
HETATM   20  C   UNL     1      -6.606  15.128  67.893  1.00  0.00    -0.174 C  
ENDROOT
BRANCH  15  21
HETATM   21  O   UNL     1      -8.551  10.813  66.642  1.00  0.00    -0.135 OA 
BRANCH  21  22
HETATM   22  C   UNL     1      -9.065  10.086  67.714  1.00  0.00    -0.131 C  
HETATM   23  O   UNL     1      -9.603  10.563  68.708  1.00  0.00    -0.163 OA 
HETATM   24  N   UNL     1      -9.016   8.715  67.493  1.00  0.00    -0.134 N  
BRANCH  24  25
HETATM   25  C   UNL     1     -10.180   7.939  67.917  1.00  0.00    -0.209 C  
HETATM   26 CL   UNL     1     -11.532   6.310  69.607  1.00  0.00    -0.498 Cl 
HETATM   27  C   UNL     1     -10.018   7.167  69.218  1.00  0.00    -0.168 C  
ENDBRANCH  24  25
BRANCH  24  28
HETATM   28  C   UNL     1      -7.840   8.068  66.906  1.00  0.00    -0.103 C  
HETATM   29 CL   UNL     1      -8.383   8.703  64.296  1.00  0.00    -0.159 Cl 
HETATM   30  C   UNL     1      -8.026   7.463  65.517  1.00  0.00    -0.122 C  
ENDBRANCH  24  28
ENDBRANCH  21  22
ENDBRANCH  15  21
TORSDOF 4
ENDMDL
MODEL      100
REMARK 921   NORMALIZED FREE ENERGY PREDICTED BY IDOCK:   -4.96 KCAL/MOL
REMARK 922        TOTAL FREE ENERGY PREDICTED BY IDOCK:   -6.78 KCAL/MOL
REMARK 923 INTER-LIGAND FREE ENERGY PREDICTED BY IDOCK:   -6.44 KCAL/MOL
REMARK 924 INTRA-LIGAND FREE ENERGY PREDICTED BY IDOCK:   -0.34 KCAL/MOL
REMARK 927      BINDING AFFINITY PREDICTED BY RF-SCORE:    0.00 PKD
ROOT
HETATM    1  C   UNL     1      -7.967   5.338  68.437  1.00  0.00    -0.087 C  
HETATM    2  C   UNL     1      -8.657   5.199  69.675  1.00  0.00    -0.100 C  
HETATM    3  C   UNL     1      -9.620   5.677  68.638  1.00  0.00    -0.163 C  
HETATM    4  C   UNL     1      -8.748   5.678  66.806  1.00  0.00    -0.115 C  
HETATM    5  O   UNL     1      -9.153   5.821  65.444  1.00  0.00    -0.317 OA 
HETATM    6  C   UNL     1      -9.267   4.516  67.315  1.00  0.00    -0.151 C  
HETATM    7  C   UNL     1     -10.848   5.380  66.844  1.00  0.00    -0.153 C  
HETATM    8  C   UNL     1      -9.059   3.102  66.898  1.00  0.00    -0.191 C  
HETATM    9  H   UNL     1      -8.745   5.822  64.587  1.00  0.00     0.000 HD 
HETATM   10  C   UNL     1     -10.642   7.184  66.848  1.00  0.00    -0.371 C  
HETATM   11  C   UNL     1      -9.380   7.997  67.731  1.00  0.00    -0.151 C  
HETATM   12  C   UNL     1      -9.111   9.479  67.445  1.00  0.00    -0.144 A  
HETATM   13  C   UNL     1     -10.058  10.281  66.778  1.00  0.00    -0.272 A  
HETATM   14  C   UNL     1      -9.921  11.676  66.725  1.00  0.00    -0.229 A  
HETATM   15  C   UNL     1      -8.824  12.281  67.341  1.00  0.00    -0.185 A  
HETATM   16  C   UNL     1      -7.885  11.511  68.015  1.00  0.00    -0.126 A  
HETATM   17  C   UNL     1      -7.304   7.966  69.329  1.00  0.00    -0.082 C  
HETATM   18  C   UNL     1      -8.021  10.117  68.092  1.00  0.00    -0.104 A  
HETATM   19  C   UNL     1      -7.894   7.199  68.154  1.00  0.00    -0.118 C  
HETATM   20  C   UNL     1      -6.961   9.385  68.885  1.00  0.00    -0.063 C  
ENDROOT
BRANCH  15  21
HETATM   21  O   UNL     1      -8.737  13.686  67.360  1.00  0.00    -0.190 OA 
BRANCH  21  22
HETATM   22  C   UNL     1      -9.898  14.376  67.701  1.00  0.00    -0.224 C  
HETATM   23  O   UNL     1     -10.561  14.200  68.719  1.00  0.00    -0.245 OA 
HETATM   24  N   UNL     1     -10.184  15.400  66.808  1.00  0.00    -0.265 N  
BRANCH  24  25
HETATM   25  C   UNL     1     -10.660  16.658  67.380  1.00  0.00    -0.295 C  
HETATM   26 CL   UNL     1     -10.903  19.355  67.462  1.00  0.00    -0.572 Cl 
HETATM   27  C   UNL     1     -10.208  17.921  66.662  1.00  0.00    -0.371 C  
ENDBRANCH  24  25
BRANCH  24  28
HETATM   28  C   UNL     1     -10.059  15.221  65.359  1.00  0.00    -0.362 C  
HETATM   29 CL   UNL     1     -12.647  14.448  64.898  1.00  0.00    -0.377 Cl 
HETATM   30  C   UNL     1     -10.910  14.114  64.740  1.00  0.00    -0.413 C  
ENDBRANCH  24  28
ENDBRANCH  21  22
ENDBRANCH  15  21
TORSDOF 4
ENDMDL
MODEL      101
REMARK 921   NORMALIZED FREE ENERGY PREDICTED BY IDOCK:   -4.94 KCAL/MOL
REMARK 922        TOTAL FREE ENERGY PREDICTED BY IDOCK:   -6.76 KCAL/MOL
REMARK 923 INTER-LIGAND FREE ENERGY PREDICTED BY IDOCK:   -6.20 KCAL/MOL
REMARK 924 INTRA-LIGAND FREE ENERGY PREDICTED BY IDOCK:   -0.56 KCAL/MOL
REMARK 927      BINDING AFFINITY PREDICTED BY RF-SCORE:    0.00 PKD
ROOT
HETATM    1  C   UNL     1      -9.270   4.239  71.611  1.00  0.00    -0.186 C  
HETATM    2  C   UNL     1      -9.474   3.537  70.389  1.00  0.00    -0.254 C  
HETATM    3  C   UNL     1      -8.395   4.549  70.188  1.00  0.00    -0.080 C  
HETATM    4  C   UNL     1      -7.905   5.425  71.951  1.00  0.00    -0.112 C  
HETATM    5  O   UNL     1      -6.876   6.276  72.457  1.00  0.00    -0.068 OA 
HETATM    6  C   UNL     1      -7.366   4.209  71.619  1.00  0.00    -0.059 C  
HETATM    7  C   UNL     1      -6.360   5.307  70.502  1.00  0.00    -0.023 C  
HETATM    8  C   UNL     1      -6.671   3.199  72.463  1.00  0.00    -0.022 C  
HETATM    9  H   UNL     1      -6.647   6.686  73.282  1.00  0.00     0.000 HD 
HETATM   10  C   UNL     1      -7.256   6.832  70.092  1.00  0.00    -0.076 C  
HETATM   11  C   UNL     1      -8.988   6.981  70.207  1.00  0.00    -0.149 C  
HETATM   12  C   UNL     1      -9.620   8.375  70.122  1.00  0.00    -0.166 A  
HETATM   13  C   UNL     1      -8.907   9.473  69.604  1.00  0.00    -0.196 A  
HETATM   14  C   UNL     1      -9.552  10.683  69.306  1.00  0.00    -0.164 A  
HETATM   15  C   UNL     1     -10.924  10.802  69.530  1.00  0.00    -0.266 A  
HETATM   16  C   UNL     1     -11.650   9.728  70.029  1.00  0.00    -0.185 A  
HETATM   17  C   UNL     1     -11.352   5.979  70.728  1.00  0.00    -0.295 C  
HETATM   18  C   UNL     1     -11.021   8.507  70.313  1.00  0.00    -0.245 A  
HETATM   19  C   UNL     1      -9.928   5.970  71.266  1.00  0.00    -0.223 C  
HETATM   20  C   UNL     1     -11.915   7.394  70.814  1.00  0.00    -0.261 C  
ENDROOT
BRANCH  15  21
HETATM   21  O   UNL     1     -11.582  11.987  69.149  1.00  0.00    -0.264 OA 
BRANCH  21  22
HETATM   22  C   UNL     1     -11.576  12.290  67.789  1.00  0.00    -0.351 C  
HETATM   23  O   UNL     1     -11.887  11.521  66.884  1.00  0.00    -0.542 OA 
HETATM   24  N   UNL     1     -11.289  13.627  67.548  1.00  0.00    -0.294 N  
BRANCH  24  25
HETATM   25  C   UNL     1     -12.068  14.290  66.504  1.00  0.00    -0.429 C  
HETATM   26 CL   UNL     1     -12.358  15.654  64.181  1.00  0.00    -0.113 Cl 
HETATM   27  C   UNL     1     -11.260  14.925  65.382  1.00  0.00    -0.359 C  
ENDBRANCH  24  25
BRANCH  24  28
HETATM   28  C   UNL     1     -10.226  14.332  68.271  1.00  0.00    -0.244 C  
HETATM   29 CL   UNL     1     -11.677  14.890  70.528  1.00  0.00    -0.320 Cl 
HETATM   30  C   UNL     1     -10.673  15.472  69.184  1.00  0.00    -0.250 C  
ENDBRANCH  24  28
ENDBRANCH  21  22
ENDBRANCH  15  21
TORSDOF 4
ENDMDL
MODEL      102
REMARK 921   NORMALIZED FREE ENERGY PREDICTED BY IDOCK:   -4.94 KCAL/MOL
REMARK 922        TOTAL FREE ENERGY PREDICTED BY IDOCK:   -6.75 KCAL/MOL
REMARK 923 INTER-LIGAND FREE ENERGY PREDICTED BY IDOCK:   -6.59 KCAL/MOL
REMARK 924 INTRA-LIGAND FREE ENERGY PREDICTED BY IDOCK:   -0.17 KCAL/MOL
REMARK 927      BINDING AFFINITY PREDICTED BY RF-SCORE:    0.00 PKD
ROOT
HETATM    1  C   UNL     1      -8.615   5.516  68.483  1.00  0.00    -0.102 C  
HETATM    2  C   UNL     1      -9.704   4.679  68.108  1.00  0.00    -0.197 C  
HETATM    3  C   UNL     1      -9.165   5.344  66.885  1.00  0.00    -0.121 C  
HETATM    4  C   UNL     1      -7.472   6.373  67.324  1.00  0.00    -0.088 C  
HETATM    5  O   UNL     1      -6.418   7.023  66.613  1.00  0.00    -0.047 OA 
HETATM    6  C   UNL     1      -7.411   5.024  67.093  1.00  0.00    -0.082 C  
HETATM    7  C   UNL     1      -7.628   5.625  65.345  1.00  0.00    -0.083 C  
HETATM    8  C   UNL     1      -6.334   4.041  67.395  1.00  0.00    -0.037 C  
HETATM    9  H   UNL     1      -5.626   7.505  66.818  1.00  0.00     0.000 HD 
HETATM   10  C   UNL     1      -8.485   7.225  65.297  1.00  0.00    -0.067 C  
HETATM   11  C   UNL     1      -9.483   7.810  66.599  1.00  0.00    -0.263 C  
HETATM   12  C   UNL     1      -9.925   9.278  66.593  1.00  0.00    -0.333 A  
HETATM   13  C   UNL     1      -9.861  10.058  65.422  1.00  0.00    -0.384 A  
HETATM   14  C   UNL     1     -10.478  11.316  65.352  1.00  0.00    -0.326 A  
HETATM   15  C   UNL     1     -11.166  11.806  66.464  1.00  0.00    -0.321 A  
HETATM   16  C   UNL     1     -11.252  11.048  67.625  1.00  0.00    -0.373 A  
HETATM   17  C   UNL     1     -10.583   7.526  68.960  1.00  0.00    -0.190 C  
HETATM   18  C   UNL     1     -10.656   9.780  67.701  1.00  0.00    -0.333 A  
HETATM   19  C   UNL     1      -9.269   7.266  68.237  1.00  0.00    -0.133 C  
HETATM   20  C   UNL     1     -10.848   9.028  69.000  1.00  0.00    -0.092 C  
ENDROOT
BRANCH  15  21
HETATM   21  O   UNL     1     -11.857  13.027  66.361  1.00  0.00    -0.370 OA 
BRANCH  21  22
HETATM   22  C   UNL     1     -11.123  14.119  65.902  1.00  0.00    -0.306 C  
HETATM   23  O   UNL     1     -11.005  14.460  64.729  1.00  0.00    -0.387 OA 
HETATM   24  N   UNL     1     -10.611  14.885  66.943  1.00  0.00    -0.294 N  
BRANCH  24  25
HETATM   25  C   UNL     1     -10.669  16.336  66.781  1.00  0.00    -0.204 C  
HETATM   26 CL   UNL     1     -10.587  18.889  67.685  1.00  0.00    -0.497 Cl 
HETATM   27  C   UNL     1     -10.532  17.147  68.061  1.00  0.00    -0.369 C  
ENDBRANCH  24  25
BRANCH  24  28
HETATM   28  C   UNL     1     -10.002  14.272  68.127  1.00  0.00    -0.230 C  
HETATM   29 CL   UNL     1      -7.425  15.049  67.609  1.00  0.00    -0.181 Cl 
HETATM   30  C   UNL     1      -8.580  13.744  67.956  1.00  0.00    -0.177 C  
ENDBRANCH  24  28
ENDBRANCH  21  22
ENDBRANCH  15  21
TORSDOF 4
ENDMDL
MODEL      103
REMARK 921   NORMALIZED FREE ENERGY PREDICTED BY IDOCK:   -4.92 KCAL/MOL
REMARK 922        TOTAL FREE ENERGY PREDICTED BY IDOCK:   -6.73 KCAL/MOL
REMARK 923 INTER-LIGAND FREE ENERGY PREDICTED BY IDOCK:   -6.69 KCAL/MOL
REMARK 924 INTRA-LIGAND FREE ENERGY PREDICTED BY IDOCK:   -0.04 KCAL/MOL
REMARK 927      BINDING AFFINITY PREDICTED BY RF-SCORE:    0.00 PKD
ROOT
HETATM    1  C   UNL     1     -11.022  12.819  63.865  1.00  0.00    -0.458 C  
HETATM    2  C   UNL     1     -12.229  12.122  63.570  1.00  0.00    -0.670 C  
HETATM    3  C   UNL     1     -12.235  12.509  65.012  1.00  0.00    -0.519 C  
HETATM    4  C   UNL     1     -10.646  13.698  65.437  1.00  0.00    -0.317 C  
HETATM    5  O   UNL     1     -10.205  14.524  66.514  1.00  0.00    -0.267 OA 
HETATM    6  C   UNL     1     -11.776  14.240  64.882  1.00  0.00    -0.399 C  
HETATM    7  C   UNL     1     -12.380  13.990  66.625  1.00  0.00    -0.408 C  
HETATM    8  C   UNL     1     -11.991  15.556  64.221  1.00  0.00    -0.161 C  
HETATM    9  H   UNL     1      -9.461  15.081  66.712  1.00  0.00     0.000 HD 
HETATM   10  C   UNL     1     -11.482  12.643  67.449  1.00  0.00    -0.397 C  
HETATM   11  C   UNL     1     -10.638  11.390  66.581  1.00  0.00    -0.302 C  
HETATM   12  C   UNL     1      -9.679  10.473  67.349  1.00  0.00    -0.190 A  
HETATM   13  C   UNL     1      -9.727  10.372  68.753  1.00  0.00    -0.184 A  
HETATM   14  C   UNL     1      -9.022   9.369  69.434  1.00  0.00    -0.157 A  
HETATM   15  C   UNL     1      -8.254   8.457  68.708  1.00  0.00    -0.119 A  
HETATM   16  C   UNL     1      -8.201   8.531  67.322  1.00  0.00    -0.108 A  
HETATM   17  C   UNL     1      -9.888  10.245  64.347  1.00  0.00    -0.374 C  
HETATM   18  C   UNL     1      -8.918   9.517  66.627  1.00  0.00    -0.168 A  
HETATM   19  C   UNL     1     -10.055  11.628  64.960  1.00  0.00    -0.305 C  
HETATM   20  C   UNL     1      -8.819   9.477  65.118  1.00  0.00    -0.223 C  
ENDROOT
BRANCH  15  21
HETATM   21  O   UNL     1      -7.618   7.401  69.387  1.00  0.00    -0.092 OA 
BRANCH  21  22
HETATM   22  C   UNL     1      -7.199   6.324  68.608  1.00  0.00    -0.085 C  
HETATM   23  O   UNL     1      -6.273   6.343  67.802  1.00  0.00    -0.023 OA 
HETATM   24  N   UNL     1      -7.874   5.151  68.922  1.00  0.00    -0.081 N  
BRANCH  24  25
HETATM   25  C   UNL     1      -7.077   3.926  68.968  1.00  0.00    -0.047 C  
HETATM   26 CL   UNL     1      -5.944   1.720  67.879  1.00  0.00    -0.023 Cl 
HETATM   27  C   UNL     1      -6.974   3.159  67.659  1.00  0.00    -0.050 C  
ENDBRANCH  24  25
BRANCH  24  28
HETATM   28  C   UNL     1      -9.321   5.130  69.153  1.00  0.00    -0.124 C  
HETATM   29 CL   UNL     1     -10.065   4.748  66.543  1.00  0.00    -0.258 Cl 
HETATM   30  C   UNL     1     -10.191   5.702  68.036  1.00  0.00    -0.186 C  
ENDBRANCH  24  28
ENDBRANCH  21  22
ENDBRANCH  15  21
TORSDOF 4
ENDMDL
MODEL      104
REMARK 921   NORMALIZED FREE ENERGY PREDICTED BY IDOCK:   -4.89 KCAL/MOL
REMARK 922        TOTAL FREE ENERGY PREDICTED BY IDOCK:   -6.69 KCAL/MOL
REMARK 923 INTER-LIGAND FREE ENERGY PREDICTED BY IDOCK:   -6.04 KCAL/MOL
REMARK 924 INTRA-LIGAND FREE ENERGY PREDICTED BY IDOCK:   -0.65 KCAL/MOL
REMARK 927      BINDING AFFINITY PREDICTED BY RF-SCORE:    0.00 PKD
ROOT
HETATM    1  C   UNL     1     -12.406  12.956  68.815  1.00  0.00     0.175 C  
HETATM    2  C   UNL     1     -11.848  13.960  69.657  1.00  0.00    -0.385 C  
HETATM    3  C   UNL     1     -10.743  13.288  68.911  1.00  0.00    -0.215 C  
HETATM    4  C   UNL     1     -11.494  12.003  67.531  1.00  0.00    -0.333 C  
HETATM    5  O   UNL     1     -11.011  11.246  66.422  1.00  0.00    -0.279 OA 
HETATM    6  C   UNL     1     -11.404  13.340  67.243  1.00  0.00    -0.347 C  
HETATM    7  C   UNL     1      -9.610  12.869  67.079  1.00  0.00    -0.231 C  
HETATM    8  C   UNL     1     -12.046  14.140  66.164  1.00  0.00    -0.454 C  
HETATM    9  H   UNL     1     -11.363  10.645  65.776  1.00  0.00     0.000 HD 
HETATM   10  C   UNL     1      -9.214  11.414  68.091  1.00  0.00    -0.178 C  
HETATM   11  C   UNL     1     -10.174  10.912  69.455  1.00  0.00    -0.151 C  
HETATM   12  C   UNL     1      -9.932   9.525  70.063  1.00  0.00    -0.274 A  
HETATM   13  C   UNL     1      -8.750   8.806  69.800  1.00  0.00    -0.133 A  
HETATM   14  C   UNL     1      -8.421   7.656  70.533  1.00  0.00    -0.128 A  
HETATM   15  C   UNL     1      -9.283   7.213  71.539  1.00  0.00    -0.145 A  
HETATM   16  C   UNL     1     -10.448   7.915  71.823  1.00  0.00    -0.272 A  
HETATM   17  C   UNL     1     -12.207  11.228  71.078  1.00  0.00    -0.417 C  
HETATM   18  C   UNL     1     -10.778   9.077  71.110  1.00  0.00    -0.358 A  
HETATM   19  C   UNL     1     -11.855  11.334  69.600  1.00  0.00    -0.430 C  
HETATM   20  C   UNL     1     -12.050   9.780  71.532  1.00  0.00    -0.493 C  
ENDROOT
BRANCH  15  21
HETATM   21  O   UNL     1      -8.907   6.111  72.329  1.00  0.00    -0.137 OA 
BRANCH  21  22
HETATM   22  C   UNL     1      -9.309   4.857  71.876  1.00  0.00    -0.142 C  
HETATM   23  O   UNL     1     -10.448   4.405  71.940  1.00  0.00    -0.142 OA 
HETATM   24  N   UNL     1      -8.289   4.183  71.215  1.00  0.00    -0.080 N  
BRANCH  24  25
HETATM   25  C   UNL     1      -8.660   3.451  70.006  1.00  0.00    -0.062 C  
HETATM   26 CL   UNL     1      -9.400   3.264  67.406  1.00  0.00    -0.238 Cl 
HETATM   27  C   UNL     1      -9.009   4.308  68.798  1.00  0.00    -0.113 C  
ENDBRANCH  24  25
BRANCH  24  28
HETATM   28  C   UNL     1      -6.915   4.168  71.725  1.00  0.00    -0.037 C  
HETATM   29 CL   UNL     1      -5.850   5.864  69.854  1.00  0.00    -0.023 Cl 
HETATM   30  C   UNL     1      -5.807   4.293  70.682  1.00  0.00    -0.013 C  
ENDBRANCH  24  28
ENDBRANCH  21  22
ENDBRANCH  15  21
TORSDOF 4
ENDMDL
MODEL      105
REMARK 921   NORMALIZED FREE ENERGY PREDICTED BY IDOCK:   -4.81 KCAL/MOL
REMARK 922        TOTAL FREE ENERGY PREDICTED BY IDOCK:   -6.59 KCAL/MOL
REMARK 923 INTER-LIGAND FREE ENERGY PREDICTED BY IDOCK:   -6.00 KCAL/MOL
REMARK 924 INTRA-LIGAND FREE ENERGY PREDICTED BY IDOCK:   -0.59 KCAL/MOL
REMARK 927      BINDING AFFINITY PREDICTED BY RF-SCORE:    0.00 PKD
ROOT
HETATM    1  C   UNL     1     -11.072  16.535  68.396  1.00  0.00    -0.333 C  
HETATM    2  C   UNL     1     -10.883  16.296  69.786  1.00  0.00    -0.356 C  
HETATM    3  C   UNL     1      -9.583  16.088  69.081  1.00  0.00    -0.257 C  
HETATM    4  C   UNL     1      -9.737  16.632  67.132  1.00  0.00    -0.250 C  
HETATM    5  O   UNL     1      -8.862  16.858  66.027  1.00  0.00    -0.464 OA 
HETATM    6  C   UNL     1      -9.513  17.585  68.092  1.00  0.00    -0.291 C  
HETATM    7  C   UNL     1      -7.816  16.824  68.010  1.00  0.00    -0.178 C  
HETATM    8  C   UNL     1      -9.649  19.066  68.032  1.00  0.00    -0.383 C  
HETATM    9  H   UNL     1      -8.934  17.113  65.115  1.00  0.00     0.000 HD 
HETATM   10  C   UNL     1      -7.890  15.100  67.445  1.00  0.00    -0.224 C  
HETATM   11  C   UNL     1      -9.328  14.124  67.551  1.00  0.00    -0.204 C  
HETATM   12  C   UNL     1      -9.379  12.792  66.793  1.00  0.00    -0.241 A  
HETATM   13  C   UNL     1      -8.205  12.171  66.323  1.00  0.00     0.270 A  
HETATM   14  C   UNL     1      -8.222  10.853  65.844  1.00  0.00    -0.133 A  
HETATM   15  C   UNL     1      -9.425  10.144  65.830  1.00  0.00    -0.208 A  
HETATM   16  C   UNL     1     -10.592  10.732  66.300  1.00  0.00    -0.257 A  
HETATM   17  C   UNL     1     -11.837  13.791  68.230  1.00  0.00    -0.413 C  
HETATM   18  C   UNL     1     -10.584  12.043  66.800  1.00  0.00    -0.260 A  
HETATM   19  C   UNL     1     -10.917  14.831  67.607  1.00  0.00    -0.292 C  
HETATM   20  C   UNL     1     -11.904  12.567  67.322  1.00  0.00    -0.381 C  
ENDROOT
BRANCH  15  21
HETATM   21  O   UNL     1      -9.421   8.794  65.431  1.00  0.00    -0.127 OA 
BRANCH  21  22
HETATM   22  C   UNL     1      -8.837   7.888  66.313  1.00  0.00    -0.159 C  
HETATM   23  O   UNL     1      -9.118   7.764  67.501  1.00  0.00    -0.129 OA 
HETATM   24  N   UNL     1      -7.956   7.024  65.674  1.00  0.00    -0.115 N  
BRANCH  24  25
HETATM   25  C   UNL     1      -7.991   5.623  66.090  1.00  0.00    -0.106 C  
HETATM   26 CL   UNL     1      -9.105   3.158  66.241  1.00  0.00    -0.154 Cl 
HETATM   27  C   UNL     1      -9.240   4.850  65.693  1.00  0.00    -0.156 C  
ENDBRANCH  24  25
BRANCH  24  28
HETATM   28  C   UNL     1      -7.005   7.497  64.664  1.00  0.00    -0.052 C  
HETATM   29 CL   UNL     1      -8.127   6.204  62.524  1.00  0.00    -0.100 Cl 
HETATM   30  C   UNL     1      -6.695   6.530  63.524  1.00  0.00    -0.045 C  
ENDBRANCH  24  28
ENDBRANCH  21  22
ENDBRANCH  15  21
TORSDOF 4
ENDMDL
MODEL      106
REMARK 921   NORMALIZED FREE ENERGY PREDICTED BY IDOCK:   -4.81 KCAL/MOL
REMARK 922        TOTAL FREE ENERGY PREDICTED BY IDOCK:   -6.59 KCAL/MOL
REMARK 923 INTER-LIGAND FREE ENERGY PREDICTED BY IDOCK:   -6.22 KCAL/MOL
REMARK 924 INTRA-LIGAND FREE ENERGY PREDICTED BY IDOCK:   -0.37 KCAL/MOL
REMARK 927      BINDING AFFINITY PREDICTED BY RF-SCORE:    0.00 PKD
ROOT
HETATM    1  C   UNL     1     -10.282   7.516  68.178  1.00  0.00    -0.228 C  
HETATM    2  C   UNL     1     -10.069   7.054  66.848  1.00  0.00    -0.296 C  
HETATM    3  C   UNL     1      -8.790   7.619  67.372  1.00  0.00    -0.124 C  
HETATM    4  C   UNL     1      -8.973   8.087  69.338  1.00  0.00    -0.148 C  
HETATM    5  O   UNL     1      -8.116   8.455  70.419  1.00  0.00    -0.100 OA 
HETATM    6  C   UNL     1      -8.706   6.796  68.965  1.00  0.00    -0.130 C  
HETATM    7  C   UNL     1      -7.029   7.552  68.678  1.00  0.00    -0.079 C  
HETATM    8  C   UNL     1      -8.807   5.528  69.738  1.00  0.00    -0.129 C  
HETATM    9  H   UNL     1      -8.201   8.674  71.339  1.00  0.00     0.000 HD 
HETATM   10  C   UNL     1      -7.156   9.330  68.332  1.00  0.00    -0.072 C  
HETATM   11  C   UNL     1      -8.615  10.086  67.753  1.00  0.00    -0.118 C  
HETATM   12  C   UNL     1      -8.713  11.616  67.766  1.00  0.00    -0.152 A  
HETATM   13  C   UNL     1      -7.565  12.424  67.883  1.00  0.00    -0.130 A  
HETATM   14  C   UNL     1      -7.624  13.807  67.659  1.00  0.00    -0.189 A  
HETATM   15  C   UNL     1      -8.843  14.396  67.318  1.00  0.00    -0.213 A  
HETATM   16  C   UNL     1      -9.985  13.617  67.185  1.00  0.00    -0.247 A  
HETATM   17  C   UNL     1     -11.116   9.968  66.980  1.00  0.00    -0.005 C  
HETATM   18  C   UNL     1      -9.936  12.229  67.388  1.00  0.00    -0.205 A  
HETATM   19  C   UNL     1     -10.184   9.392  68.038  1.00  0.00    -0.248 C  
HETATM   20  C   UNL     1     -11.231  11.477  67.177  1.00  0.00    -0.365 C  
ENDROOT
BRANCH  15  21
HETATM   21  O   UNL     1      -8.880  15.768  67.009  1.00  0.00    -0.190 OA 
BRANCH  21  22
HETATM   22  C   UNL     1      -8.755  16.649  68.081  1.00  0.00    -0.201 C  
HETATM   23  O   UNL     1      -9.003  16.388  69.254  1.00  0.00    -0.229 OA 
HETATM   24  N   UNL     1      -8.192  17.862  67.704  1.00  0.00    -0.230 N  
BRANCH  24  25
HETATM   25  C   UNL     1      -7.212  18.446  68.618  1.00  0.00    -0.286 C  
HETATM   26 CL   UNL     1      -5.971  20.509  69.859  1.00  0.00    -0.379 Cl 
HETATM   27  C   UNL     1      -7.189  19.966  68.676  1.00  0.00    -0.288 C  
ENDBRANCH  24  25
BRANCH  24  28
HETATM   28  C   UNL     1      -8.591  18.550  66.472  1.00  0.00    -0.276 C  
HETATM   29 CL   UNL     1     -10.890  19.673  67.452  1.00  0.00    -0.561 Cl 
HETATM   30  C   UNL     1     -10.092  18.670  66.222  1.00  0.00    -0.400 C  
ENDBRANCH  24  28
ENDBRANCH  21  22
ENDBRANCH  15  21
TORSDOF 4
ENDMDL
MODEL      107
REMARK 921   NORMALIZED FREE ENERGY PREDICTED BY IDOCK:   -4.80 KCAL/MOL
REMARK 922        TOTAL FREE ENERGY PREDICTED BY IDOCK:   -6.59 KCAL/MOL
REMARK 923 INTER-LIGAND FREE ENERGY PREDICTED BY IDOCK:   -5.94 KCAL/MOL
REMARK 924 INTRA-LIGAND FREE ENERGY PREDICTED BY IDOCK:   -0.65 KCAL/MOL
REMARK 927      BINDING AFFINITY PREDICTED BY RF-SCORE:    0.00 PKD
ROOT
HETATM    1  C   UNL     1     -11.954  13.163  67.070  1.00  0.00    -0.412 C  
HETATM    2  C   UNL     1     -12.245  14.095  68.106  1.00  0.00    -0.179 C  
HETATM    3  C   UNL     1     -10.800  14.209  67.747  1.00  0.00    -0.260 C  
HETATM    4  C   UNL     1     -10.378  13.065  66.125  1.00  0.00    -0.278 C  
HETATM    5  O   UNL     1      -9.299  12.893  65.207  1.00  0.00    -0.413 OA 
HETATM    6  C   UNL     1     -10.921  14.313  65.959  1.00  0.00    -0.312 C  
HETATM    7  C   UNL     1      -9.175  14.792  66.393  1.00  0.00    -0.301 C  
HETATM    8  C   UNL     1     -11.571  14.933  64.772  1.00  0.00    -0.410 C  
HETATM    9  H   UNL     1      -9.102  12.358  64.447  1.00  0.00     0.000 HD 
HETATM   10  C   UNL     1      -8.368  13.512  67.396  1.00  0.00    -0.199 C  
HETATM   11  C   UNL     1      -9.251  12.328  68.320  1.00  0.00    -0.189 C  
HETATM   12  C   UNL     1      -8.496  11.124  68.896  1.00  0.00    -0.095 A  
HETATM   13  C   UNL     1      -7.093  11.125  69.014  1.00  0.00    -0.113 A  
HETATM   14  C   UNL     1      -6.425  10.136  69.750  1.00  0.00    -0.072 A  
HETATM   15  C   UNL     1      -7.163   9.129  70.374  1.00  0.00    -0.084 A  
HETATM   16  C   UNL     1      -8.549   9.115  70.281  1.00  0.00    -0.218 A  
HETATM   17  C   UNL     1     -11.498  11.279  69.165  1.00  0.00    -0.364 C  
HETATM   18  C   UNL     1      -9.231  10.109  69.564  1.00  0.00    -0.223 A  
HETATM   19  C   UNL     1     -10.875  11.863  67.905  1.00  0.00    -0.254 C  
HETATM   20  C   UNL     1     -10.741  10.017  69.564  1.00  0.00    -0.269 C  
ENDROOT
BRANCH  15  21
HETATM   21  O   UNL     1      -6.496   8.190  71.183  1.00  0.00    -0.037 OA 
BRANCH  21  22
HETATM   22  C   UNL     1      -7.115   7.856  72.386  1.00  0.00    -0.087 C  
HETATM   23  O   UNL     1      -7.503   8.652  73.235  1.00  0.00    -0.350 OA 
HETATM   24  N   UNL     1      -7.367   6.493  72.488  1.00  0.00    -0.089 N  
BRANCH  24  25
HETATM   25  C   UNL     1      -8.654   6.104  73.062  1.00  0.00    -0.118 C  
HETATM   26 CL   UNL     1     -11.321   5.638  72.960  1.00  0.00    -0.313 Cl 
HETATM   27  C   UNL     1      -9.845   6.177  72.117  1.00  0.00    -0.157 C  
ENDBRANCH  24  25
BRANCH  24  28
HETATM   28  C   UNL     1      -6.378   5.491  72.083  1.00  0.00    -0.047 C  
HETATM   29 CL   UNL     1      -7.091   5.372  69.440  1.00  0.00    -0.062 Cl 
HETATM   30  C   UNL     1      -6.805   4.529  70.977  1.00  0.00    -0.036 C  
ENDBRANCH  24  28
ENDBRANCH  21  22
ENDBRANCH  15  21
TORSDOF 4
ENDMDL
MODEL      108
REMARK 921   NORMALIZED FREE ENERGY PREDICTED BY IDOCK:   -4.79 KCAL/MOL
REMARK 922        TOTAL FREE ENERGY PREDICTED BY IDOCK:   -6.57 KCAL/MOL
REMARK 923 INTER-LIGAND FREE ENERGY PREDICTED BY IDOCK:   -6.39 KCAL/MOL
REMARK 924 INTRA-LIGAND FREE ENERGY PREDICTED BY IDOCK:   -0.18 KCAL/MOL
REMARK 927      BINDING AFFINITY PREDICTED BY RF-SCORE:    0.00 PKD
ROOT
HETATM    1  C   UNL     1     -10.134   6.113  72.949  1.00  0.00    -0.196 C  
HETATM    2  C   UNL     1     -11.348   5.407  72.714  1.00  0.00    -0.358 C  
HETATM    3  C   UNL     1     -10.453   5.234  71.531  1.00  0.00    -0.279 C  
HETATM    4  C   UNL     1      -8.624   6.030  71.902  1.00  0.00    -0.137 C  
HETATM    5  O   UNL     1      -7.328   6.021  71.302  1.00  0.00    -0.077 OA 
HETATM    6  C   UNL     1      -8.925   4.770  72.351  1.00  0.00    -0.138 C  
HETATM    7  C   UNL     1      -8.680   4.402  70.542  1.00  0.00    -0.119 C  
HETATM    8  C   UNL     1      -8.244   3.919  73.364  1.00  0.00    -0.088 C  
HETATM    9  H   UNL     1      -6.472   6.393  71.476  1.00  0.00     0.000 HD 
HETATM   10  C   UNL     1      -9.013   5.864  69.519  1.00  0.00    -0.131 C  
HETATM   11  C   UNL     1      -9.987   7.203  70.058  1.00  0.00    -0.182 C  
HETATM   12  C   UNL     1      -9.973   8.505  69.248  1.00  0.00    -0.195 A  
HETATM   13  C   UNL     1      -9.502   8.537  67.921  1.00  0.00    -0.157 A  
HETATM   14  C   UNL     1      -9.705   9.660  67.105  1.00  0.00    -0.222 A  
HETATM   15  C   UNL     1     -10.384  10.767  67.617  1.00  0.00    -0.201 A  
HETATM   16  C   UNL     1     -10.869  10.751  68.919  1.00  0.00    -0.269 A  
HETATM   17  C   UNL     1     -11.477   8.384  71.861  1.00  0.00    -0.384 C  
HETATM   18  C   UNL     1     -10.689   9.627  69.739  1.00  0.00    -0.269 A  
HETATM   19  C   UNL     1     -10.201   7.562  71.747  1.00  0.00    -0.216 C  
HETATM   20  C   UNL     1     -11.294   9.706  71.124  1.00  0.00    -0.456 C  
ENDROOT
BRANCH  15  21
HETATM   21  O   UNL     1     -10.662  11.854  66.769  1.00  0.00    -0.227 OA 
BRANCH  21  22
HETATM   22  C   UNL     1     -11.426  12.886  67.312  1.00  0.00    -0.336 C  
HETATM   23  O   UNL     1     -12.652  12.942  67.316  1.00  0.00    -0.046 OA 
HETATM   24  N   UNL     1     -10.647  13.825  67.977  1.00  0.00    -0.247 N  
BRANCH  24  25
HETATM   25  C   UNL     1     -11.171  14.339  69.241  1.00  0.00    -0.273 C  
HETATM   26 CL   UNL     1     -11.416  16.198  71.195  1.00  0.00    -0.457 Cl 
HETATM   27  C   UNL     1     -10.654  15.707  69.660  1.00  0.00    -0.283 C  
ENDBRANCH  24  25
BRANCH  24  28
HETATM   28  C   UNL     1      -9.381  14.313  67.420  1.00  0.00    -0.203 C  
HETATM   29 CL   UNL     1      -7.747  12.523  68.699  1.00  0.00    -0.100 Cl 
HETATM   30  C   UNL     1      -8.160  14.211  68.331  1.00  0.00    -0.144 C  
ENDBRANCH  24  28
ENDBRANCH  21  22
ENDBRANCH  15  21
TORSDOF 4
ENDMDL
MODEL      109
REMARK 921   NORMALIZED FREE ENERGY PREDICTED BY IDOCK:   -4.79 KCAL/MOL
REMARK 922        TOTAL FREE ENERGY PREDICTED BY IDOCK:   -6.57 KCAL/MOL
REMARK 923 INTER-LIGAND FREE ENERGY PREDICTED BY IDOCK:   -5.91 KCAL/MOL
REMARK 924 INTRA-LIGAND FREE ENERGY PREDICTED BY IDOCK:   -0.66 KCAL/MOL
REMARK 927      BINDING AFFINITY PREDICTED BY RF-SCORE:    0.00 PKD
ROOT
HETATM    1  C   UNL     1      -9.128  14.548  68.054  1.00  0.00    -0.185 C  
HETATM    2  C   UNL     1      -8.728  15.137  66.820  1.00  0.00    -0.307 C  
HETATM    3  C   UNL     1      -9.920  14.271  66.577  1.00  0.00    -0.289 C  
HETATM    4  C   UNL     1     -10.671  13.584  68.332  1.00  0.00    -0.259 C  
HETATM    5  O   UNL     1     -11.847  12.915  68.788  1.00  0.00    -0.306 OA 
HETATM    6  C   UNL     1     -11.003  14.838  67.891  1.00  0.00    -0.282 C  
HETATM    7  C   UNL     1     -12.060  13.819  66.747  1.00  0.00    -0.460 C  
HETATM    8  C   UNL     1     -11.614  15.985  68.616  1.00  0.00    -0.343 C  
HETATM    9  H   UNL     1     -12.198  12.593  69.609  1.00  0.00     0.000 HD 
HETATM   10  C   UNL     1     -11.360  12.163  66.498  1.00  0.00    -0.405 C  
HETATM   11  C   UNL     1      -9.681  11.787  66.774  1.00  0.00    -0.213 C  
HETATM   12  C   UNL     1      -9.247  10.317  66.818  1.00  0.00    -0.180 A  
HETATM   13  C   UNL     1     -10.064   9.296  66.295  1.00  0.00    -0.322 A  
HETATM   14  C   UNL     1      -9.576   7.993  66.119  1.00  0.00    -0.159 A  
HETATM   15  C   UNL     1      -8.256   7.701  66.471  1.00  0.00    -0.125 A  
HETATM   16  C   UNL     1      -7.429   8.696  66.976  1.00  0.00    -0.084 A  
HETATM   17  C   UNL     1      -7.249  12.488  67.451  1.00  0.00    -0.146 C  
HETATM   18  C   UNL     1      -7.900  10.008  67.139  1.00  0.00    -0.099 A  
HETATM   19  C   UNL     1      -8.696  12.725  67.859  1.00  0.00    -0.185 C  
HETATM   20  C   UNL     1      -6.900  11.017  67.660  1.00  0.00    -0.081 C  
ENDROOT
BRANCH  15  21
HETATM   21  O   UNL     1      -7.745   6.417  66.211  1.00  0.00    -0.095 OA 
BRANCH  21  22
HETATM   22  C   UNL     1      -7.665   5.548  67.298  1.00  0.00    -0.100 C  
HETATM   23  O   UNL     1      -6.712   5.448  68.064  1.00  0.00    -0.051 OA 
HETATM   24  N   UNL     1      -8.854   4.863  67.513  1.00  0.00    -0.103 N  
BRANCH  24  25
HETATM   25  C   UNL     1      -9.278   4.702  68.903  1.00  0.00    -0.129 C  
HETATM   26 CL   UNL     1     -10.630   5.435  71.133  1.00  0.00    -0.300 Cl 
HETATM   27  C   UNL     1     -10.178   5.802  69.448  1.00  0.00    -0.234 C  
ENDBRANCH  24  25
BRANCH  24  28
HETATM   28  C   UNL     1      -9.627   4.289  66.408  1.00  0.00    -0.198 C  
HETATM   29 CL   UNL     1      -8.857   1.686  66.785  1.00  0.00    -0.123 Cl 
HETATM   30  C   UNL     1      -9.005   3.087  65.703  1.00  0.00    -0.146 C  
ENDBRANCH  24  28
ENDBRANCH  21  22
ENDBRANCH  15  21
TORSDOF 4
ENDMDL
MODEL      110
REMARK 921   NORMALIZED FREE ENERGY PREDICTED BY IDOCK:   -4.78 KCAL/MOL
REMARK 922        TOTAL FREE ENERGY PREDICTED BY IDOCK:   -6.55 KCAL/MOL
REMARK 923 INTER-LIGAND FREE ENERGY PREDICTED BY IDOCK:   -6.99 KCAL/MOL
REMARK 924 INTRA-LIGAND FREE ENERGY PREDICTED BY IDOCK:    0.44 KCAL/MOL
REMARK 927      BINDING AFFINITY PREDICTED BY RF-SCORE:    0.00 PKD
ROOT
HETATM    1  C   UNL     1      -8.844  18.975  66.458  1.00  0.00    -0.334 C  
HETATM    2  C   UNL     1      -9.932  19.278  67.324  1.00  0.00    -0.456 C  
HETATM    3  C   UNL     1      -8.780  18.803  68.146  1.00  0.00    -0.335 C  
HETATM    4  C   UNL     1      -7.129  18.570  66.989  1.00  0.00    -0.197 C  
HETATM    5  O   UNL     1      -5.731  18.350  67.178  1.00  0.00    -0.138 OA 
HETATM    6  C   UNL     1      -7.461  19.812  67.463  1.00  0.00    -0.306 C  
HETATM    7  C   UNL     1      -6.786  19.057  69.026  1.00  0.00    -0.331 C  
HETATM    8  C   UNL     1      -6.991  21.162  67.047  1.00  0.00    -0.317 C  
HETATM    9  H   UNL     1      -4.959  18.241  66.636  1.00  0.00     0.000 HD 
HETATM   10  C   UNL     1      -6.947  17.249  69.009  1.00  0.00    -0.235 C  
HETATM   11  C   UNL     1      -8.087  16.403  68.000  1.00  0.00    -0.159 C  
HETATM   12  C   UNL     1      -7.952  14.883  67.840  1.00  0.00    -0.145 A  
HETATM   13  C   UNL     1      -7.188  14.117  68.741  1.00  0.00    -0.120 A  
HETATM   14  C   UNL     1      -7.254  12.716  68.741  1.00  0.00    -0.083 A  
HETATM   15  C   UNL     1      -8.089  12.068  67.828  1.00  0.00    -0.149 A  
HETATM   16  C   UNL     1      -8.861  12.805  66.939  1.00  0.00    -0.194 A  
HETATM   17  C   UNL     1     -10.012  16.382  66.223  1.00  0.00    -0.341 C  
HETATM   18  C   UNL     1      -8.819  14.208  66.942  1.00  0.00    -0.223 A  
HETATM   19  C   UNL     1      -8.704  17.097  66.529  1.00  0.00    -0.293 C  
HETATM   20  C   UNL     1      -9.731  14.906  65.958  1.00  0.00    -0.358 C  
ENDROOT
BRANCH  15  21
HETATM   21  O   UNL     1      -8.218  10.669  67.889  1.00  0.00    -0.110 OA 
BRANCH  21  22
HETATM   22  C   UNL     1      -9.098  10.086  66.979  1.00  0.00    -0.142 C  
HETATM   23  O   UNL     1      -9.165  10.348  65.782  1.00  0.00    -0.160 OA 
HETATM   24  N   UNL     1      -9.841   9.059  67.548  1.00  0.00    -0.168 N  
BRANCH  24  25
HETATM   25  C   UNL     1     -10.042   7.863  66.731  1.00  0.00    -0.281 C  
HETATM   26 CL   UNL     1     -10.890   5.326  66.302  1.00  0.00    -0.288 Cl 
HETATM   27  C   UNL     1     -10.684   6.681  67.443  1.00  0.00    -0.339 C  
ENDBRANCH  24  25
BRANCH  24  28
HETATM   28  C   UNL     1     -10.434   9.180  68.882  1.00  0.00    -0.218 C  
HETATM   29 CL   UNL     1     -12.035  11.336  68.336  1.00  0.00    -0.328 Cl 
HETATM   30  C   UNL     1     -10.773  10.596  69.343  1.00  0.00    -0.244 C  
ENDBRANCH  24  28
ENDBRANCH  21  22
ENDBRANCH  15  21
TORSDOF 4
ENDMDL
MODEL      111
REMARK 921   NORMALIZED FREE ENERGY PREDICTED BY IDOCK:   -4.77 KCAL/MOL
REMARK 922        TOTAL FREE ENERGY PREDICTED BY IDOCK:   -6.55 KCAL/MOL
REMARK 923 INTER-LIGAND FREE ENERGY PREDICTED BY IDOCK:   -5.76 KCAL/MOL
REMARK 924 INTRA-LIGAND FREE ENERGY PREDICTED BY IDOCK:   -0.78 KCAL/MOL
REMARK 927      BINDING AFFINITY PREDICTED BY RF-SCORE:    0.00 PKD
ROOT
HETATM    1  C   UNL     1      -9.007  14.605  68.157  1.00  0.00    -0.179 C  
HETATM    2  C   UNL     1      -8.547  15.036  66.880  1.00  0.00    -0.280 C  
HETATM    3  C   UNL     1      -9.829  14.291  66.705  1.00  0.00    -0.288 C  
HETATM    4  C   UNL     1     -10.646  13.846  68.508  1.00  0.00    -0.252 C  
HETATM    5  O   UNL     1     -11.888  13.355  69.012  1.00  0.00    -0.301 OA 
HETATM    6  C   UNL     1     -10.837  15.087  67.959  1.00  0.00    -0.270 C  
HETATM    7  C   UNL     1     -12.006  14.098  66.900  1.00  0.00    -0.479 C  
HETATM    8  C   UNL     1     -11.314  16.354  68.579  1.00  0.00    -0.289 C  
HETATM    9  H   UNL     1     -12.271  13.147  69.856  1.00  0.00     0.000 HD 
HETATM   10  C   UNL     1     -11.496  12.359  66.799  1.00  0.00    -0.423 C  
HETATM   11  C   UNL     1      -9.870  11.823  67.116  1.00  0.00    -0.207 C  
HETATM   12  C   UNL     1      -9.603  10.322  67.289  1.00  0.00    -0.186 A  
HETATM   13  C   UNL     1     -10.531   9.358  66.851  1.00  0.00    -0.281 A  
HETATM   14  C   UNL     1     -10.192   7.998  66.791  1.00  0.00    -0.367 A  
HETATM   15  C   UNL     1      -8.913   7.592  67.174  1.00  0.00    -0.126 A  
HETATM   16  C   UNL     1      -7.977   8.528  67.597  1.00  0.00    -0.107 A  
HETATM   17  C   UNL     1      -7.372  12.302  67.746  1.00  0.00    -0.118 C  
HETATM   18  C   UNL     1      -8.298   9.893  67.644  1.00  0.00    -0.114 A  
HETATM   19  C   UNL     1      -8.782  12.734  68.122  1.00  0.00    -0.193 C  
HETATM   20  C   UNL     1      -7.190  10.825  68.082  1.00  0.00    -0.083 C  
ENDROOT
BRANCH  15  21
HETATM   21  O   UNL     1      -8.549   6.241  67.029  1.00  0.00    -0.105 OA 
BRANCH  21  22
HETATM   22  C   UNL     1      -7.851   5.668  68.091  1.00  0.00    -0.096 C  
HETATM   23  O   UNL     1      -6.651   5.415  68.104  1.00  0.00    -0.046 OA 
HETATM   24  N   UNL     1      -8.646   5.510  69.219  1.00  0.00    -0.103 N  
BRANCH  24  25
HETATM   25  C   UNL     1      -8.030   5.825  70.507  1.00  0.00    -0.105 C  
HETATM   26 CL   UNL     1      -7.094   7.514  72.407  1.00  0.00    -0.070 Cl 
HETATM   27  C   UNL     1      -7.816   7.304  70.790  1.00  0.00    -0.094 C  
ENDBRANCH  24  25
BRANCH  24  28
HETATM   28  C   UNL     1     -10.021   5.010  69.133  1.00  0.00    -0.196 C  
HETATM   29 CL   UNL     1     -11.259   7.301  69.984  1.00  0.00    -0.264 Cl 
HETATM   30  C   UNL     1     -11.002   5.554  70.168  1.00  0.00    -0.138 C  
ENDBRANCH  24  28
ENDBRANCH  21  22
ENDBRANCH  15  21
TORSDOF 4
ENDMDL
MODEL      112
REMARK 921   NORMALIZED FREE ENERGY PREDICTED BY IDOCK:   -4.77 KCAL/MOL
REMARK 922        TOTAL FREE ENERGY PREDICTED BY IDOCK:   -6.54 KCAL/MOL
REMARK 923 INTER-LIGAND FREE ENERGY PREDICTED BY IDOCK:   -5.89 KCAL/MOL
REMARK 924 INTRA-LIGAND FREE ENERGY PREDICTED BY IDOCK:   -0.66 KCAL/MOL
REMARK 927      BINDING AFFINITY PREDICTED BY RF-SCORE:    0.00 PKD
ROOT
HETATM    1  C   UNL     1      -7.734  18.228  67.319  1.00  0.00    -0.226 C  
HETATM    2  C   UNL     1      -7.071  18.207  66.059  1.00  0.00    -0.318 C  
HETATM    3  C   UNL     1      -8.466  17.706  65.878  1.00  0.00     0.043 C  
HETATM    4  C   UNL     1      -9.528  17.924  67.593  1.00  0.00    -0.260 C  
HETATM    5  O   UNL     1     -10.891  17.835  68.009  1.00  0.00    -0.354 OA 
HETATM    6  C   UNL     1      -9.381  18.987  66.740  1.00  0.00    -0.357 C  
HETATM    7  C   UNL     1     -10.638  17.998  65.787  1.00  0.00    -0.174 C  
HETATM    8  C   UNL     1      -9.615  20.440  66.961  1.00  0.00    -0.571 C  
HETATM    9  H   UNL     1     -11.388  17.937  68.812  1.00  0.00     0.000 HD 
HETATM   10  C   UNL     1     -10.527  16.229  66.183  1.00  0.00    -0.330 C  
HETATM   11  C   UNL     1      -9.101  15.492  66.858  1.00  0.00    -0.264 C  
HETATM   12  C   UNL     1      -9.198  14.070  67.423  1.00  0.00    -0.216 A  
HETATM   13  C   UNL     1     -10.274  13.223  67.096  1.00  0.00    -0.246 A  
HETATM   14  C   UNL     1     -10.246  11.857  67.414  1.00  0.00    -0.214 A  
HETATM   15  C   UNL     1      -9.134  11.327  68.070  1.00  0.00    -0.156 A  
HETATM   16  C   UNL     1      -8.055  12.142  68.391  1.00  0.00    -0.149 A  
HETATM   17  C   UNL     1      -6.630  15.628  67.719  1.00  0.00    -0.183 C  
HETATM   18  C   UNL     1      -8.062  13.505  68.061  1.00  0.00    -0.156 A  
HETATM   19  C   UNL     1      -7.935  16.409  67.767  1.00  0.00    -0.160 C  
HETATM   20  C   UNL     1      -6.818  14.287  68.423  1.00  0.00    -0.104 C  
ENDROOT
BRANCH  15  21
HETATM   21  O   UNL     1      -9.073   9.942  68.308  1.00  0.00    -0.122 OA 
BRANCH  21  22
HETATM   22  C   UNL     1      -9.329   9.112  67.219  1.00  0.00    -0.135 C  
HETATM   23  O   UNL     1     -10.390   8.539  66.991  1.00  0.00    -0.275 OA 
HETATM   24  N   UNL     1      -8.272   9.083  66.318  1.00  0.00    -0.113 N  
BRANCH  24  25
HETATM   25  C   UNL     1      -8.617   9.106  64.898  1.00  0.00    -0.184 C  
HETATM   26 CL   UNL     1      -9.208  10.339  62.559  1.00  0.00    -0.289 Cl 
HETATM   27  C   UNL     1      -8.833  10.487  64.296  1.00  0.00    -0.197 C  
ENDBRANCH  24  25
BRANCH  24  28
HETATM   28  C   UNL     1      -6.878   8.988  66.763  1.00  0.00    -0.080 C  
HETATM   29 CL   UNL     1      -6.452   6.402  65.963  1.00  0.00    -0.042 Cl 
HETATM   30  C   UNL     1      -6.420   7.618  67.257  1.00  0.00    -0.058 C  
ENDBRANCH  24  28
ENDBRANCH  21  22
ENDBRANCH  15  21
TORSDOF 4
ENDMDL
MODEL      113
REMARK 921   NORMALIZED FREE ENERGY PREDICTED BY IDOCK:   -4.70 KCAL/MOL
REMARK 922        TOTAL FREE ENERGY PREDICTED BY IDOCK:   -6.46 KCAL/MOL
REMARK 923 INTER-LIGAND FREE ENERGY PREDICTED BY IDOCK:   -5.81 KCAL/MOL
REMARK 924 INTRA-LIGAND FREE ENERGY PREDICTED BY IDOCK:   -0.65 KCAL/MOL
REMARK 927      BINDING AFFINITY PREDICTED BY RF-SCORE:    0.00 PKD
ROOT
HETATM    1  C   UNL     1      -8.837   4.619  64.387  1.00  0.00    -0.152 C  
HETATM    2  C   UNL     1      -7.724   5.507  64.375  1.00  0.00    -0.095 C  
HETATM    3  C   UNL     1      -7.491   4.456  65.410  1.00  0.00    -0.080 C  
HETATM    4  C   UNL     1      -8.937   3.036  65.319  1.00  0.00    -0.142 C  
HETATM    5  O   UNL     1      -9.176   1.737  65.861  1.00  0.00    -0.267 OA 
HETATM    6  C   UNL     1      -7.871   2.981  64.460  1.00  0.00    -0.078 C  
HETATM    7  C   UNL     1      -7.039   2.398  66.021  1.00  0.00    -0.063 C  
HETATM    8  C   UNL     1      -7.682   2.205  63.204  1.00  0.00    -0.055 C  
HETATM    9  H   UNL     1      -9.853   1.072  65.819  1.00  0.00     0.000 HD 
HETATM   10  C   UNL     1      -7.881   3.037  67.497  1.00  0.00    -0.076 C  
HETATM   11  C   UNL     1      -8.906   4.446  67.475  1.00  0.00    -0.119 C  
HETATM   12  C   UNL     1      -9.794   4.737  68.690  1.00  0.00    -0.208 A  
HETATM   13  C   UNL     1      -9.551   4.130  69.938  1.00  0.00    -0.282 A  
HETATM   14  C   UNL     1     -10.206   4.568  71.098  1.00  0.00    -0.163 A  
HETATM   15  C   UNL     1     -11.117   5.623  71.016  1.00  0.00    -0.131 A  
HETATM   16  C   UNL     1     -11.362   6.244  69.798  1.00  0.00    -0.506 A  
HETATM   17  C   UNL     1     -10.026   6.455  66.220  1.00  0.00    -0.010 C  
HETATM   18  C   UNL     1     -10.700   5.828  68.633  1.00  0.00    -0.303 A  
HETATM   19  C   UNL     1      -9.700   4.981  66.023  1.00  0.00    -0.194 C  
HETATM   20  C   UNL     1     -11.015   6.603  67.373  1.00  0.00    -0.434 C  
ENDROOT
BRANCH  15  21
HETATM   21  O   UNL     1     -11.705   6.116  72.196  1.00  0.00    -0.309 OA 
BRANCH  21  22
HETATM   22  C   UNL     1     -10.881   6.863  73.034  1.00  0.00    -0.296 C  
HETATM   23  O   UNL     1     -10.316   6.445  74.041  1.00  0.00    -0.293 OA 
HETATM   24  N   UNL     1     -10.653   8.144  72.546  1.00  0.00    -0.318 N  
BRANCH  24  25
HETATM   25  C   UNL     1      -9.293   8.665  72.673  1.00  0.00    -0.095 C  
HETATM   26 CL   UNL     1      -6.663   8.776  72.036  1.00  0.00    -0.074 Cl 
HETATM   27  C   UNL     1      -8.249   8.002  71.787  1.00  0.00    -0.122 C  
ENDBRANCH  24  25
BRANCH  24  28
HETATM   28  C   UNL     1     -11.731   8.955  71.971  1.00  0.00    -0.367 C  
HETATM   29 CL   UNL     1     -10.536   9.419  69.549  1.00  0.00    -0.215 Cl 
HETATM   30  C   UNL     1     -11.302  10.065  71.015  1.00  0.00    -0.357 C  
ENDBRANCH  24  28
ENDBRANCH  21  22
ENDBRANCH  15  21
TORSDOF 4
ENDMDL
MODEL      114
REMARK 921   NORMALIZED FREE ENERGY PREDICTED BY IDOCK:   -4.70 KCAL/MOL
REMARK 922        TOTAL FREE ENERGY PREDICTED BY IDOCK:   -6.46 KCAL/MOL
REMARK 923 INTER-LIGAND FREE ENERGY PREDICTED BY IDOCK:   -5.84 KCAL/MOL
REMARK 924 INTRA-LIGAND FREE ENERGY PREDICTED BY IDOCK:   -0.62 KCAL/MOL
REMARK 927      BINDING AFFINITY PREDICTED BY RF-SCORE:    0.00 PKD
ROOT
HETATM    1  C   UNL     1     -11.087  14.654  66.151  1.00  0.00    -0.334 C  
HETATM    2  C   UNL     1      -9.977  15.264  65.502  1.00  0.00    -0.383 C  
HETATM    3  C   UNL     1     -10.409  14.079  64.704  1.00  0.00    -0.337 C  
HETATM    4  C   UNL     1     -12.126  13.302  65.458  1.00  0.00    -0.435 C  
HETATM    5  O   UNL     1     -13.113  12.348  65.068  1.00  0.00    -0.678 OA 
HETATM    6  C   UNL     1     -12.177  14.381  64.614  1.00  0.00    -0.479 C  
HETATM    7  C   UNL     1     -11.813  13.039  63.376  1.00  0.00    -0.543 C  
HETATM    8  C   UNL     1     -13.281  15.341  64.341  1.00  0.00     1.507 C  
HETATM    9  H   UNL     1     -13.916  11.984  65.420  1.00  0.00     0.000 HD 
HETATM   10  C   UNL     1     -10.944  11.644  64.149  1.00  0.00    -0.442 C  
HETATM   11  C   UNL     1     -10.052  11.785  65.639  1.00  0.00    -0.278 C  
HETATM   12  C   UNL     1      -9.601  10.507  66.357  1.00  0.00    -0.220 A  
HETATM   13  C   UNL     1      -9.563   9.267  65.692  1.00  0.00    -0.324 A  
HETATM   14  C   UNL     1      -8.934   8.153  66.267  1.00  0.00    -0.215 A  
HETATM   15  C   UNL     1      -8.336   8.274  67.523  1.00  0.00    -0.130 A  
HETATM   16  C   UNL     1      -8.351   9.492  68.191  1.00  0.00    -0.118 A  
HETATM   17  C   UNL     1      -9.152  13.194  67.656  1.00  0.00    -0.201 C  
HETATM   18  C   UNL     1      -8.960  10.618  67.619  1.00  0.00    -0.139 A  
HETATM   19  C   UNL     1     -10.403  13.025  66.806  1.00  0.00    -0.256 C  
HETATM   20  C   UNL     1      -8.881  11.900  68.418  1.00  0.00    -0.159 C  
ENDROOT
BRANCH  15  21
HETATM   21  O   UNL     1      -7.631   7.180  68.056  1.00  0.00    -0.106 OA 
BRANCH  21  22
HETATM   22  C   UNL     1      -7.377   7.213  69.426  1.00  0.00    -0.090 C  
HETATM   23  O   UNL     1      -6.450   7.807  69.967  1.00  0.00    -0.033 OA 
HETATM   24  N   UNL     1      -8.374   6.584  70.162  1.00  0.00    -0.132 N  
BRANCH  24  25
HETATM   25  C   UNL     1      -8.786   7.238  71.403  1.00  0.00    -0.130 C  
HETATM   26 CL   UNL     1      -9.124   7.366  74.088  1.00  0.00    -0.279 Cl 
HETATM   27  C   UNL     1      -8.611   6.414  72.670  1.00  0.00    -0.122 C  
ENDBRANCH  24  25
BRANCH  24  28
HETATM   28  C   UNL     1      -8.955   5.306  69.743  1.00  0.00    -0.111 C  
HETATM   29 CL   UNL     1     -11.164   6.341  68.495  1.00  0.00    -0.400 Cl 
HETATM   30  C   UNL     1     -10.480   5.238  69.707  1.00  0.00    -0.269 C  
ENDBRANCH  24  28
ENDBRANCH  21  22
ENDBRANCH  15  21
TORSDOF 4
ENDMDL
MODEL      115
REMARK 921   NORMALIZED FREE ENERGY PREDICTED BY IDOCK:   -4.66 KCAL/MOL
REMARK 922        TOTAL FREE ENERGY PREDICTED BY IDOCK:   -6.41 KCAL/MOL
REMARK 923 INTER-LIGAND FREE ENERGY PREDICTED BY IDOCK:   -5.80 KCAL/MOL
REMARK 924 INTRA-LIGAND FREE ENERGY PREDICTED BY IDOCK:   -0.60 KCAL/MOL
REMARK 927      BINDING AFFINITY PREDICTED BY RF-SCORE:    0.00 PKD
ROOT
HETATM    1  C   UNL     1     -10.698  14.467  66.297  1.00  0.00    -0.309 C  
HETATM    2  C   UNL     1      -9.432  14.848  65.768  1.00  0.00    -0.237 C  
HETATM    3  C   UNL     1      -9.969  13.712  64.961  1.00  0.00    -0.205 C  
HETATM    4  C   UNL     1     -11.869  13.274  65.526  1.00  0.00    -0.370 C  
HETATM    5  O   UNL     1     -12.955  12.481  65.049  1.00  0.00    -0.779 OA 
HETATM    6  C   UNL     1     -11.636  14.302  64.648  1.00  0.00    -0.415 C  
HETATM    7  C   UNL     1     -11.370  12.855  63.506  1.00  0.00    -0.408 C  
HETATM    8  C   UNL     1     -12.520  15.418  64.213  1.00  0.00     0.048 C  
HETATM    9  H   UNL     1     -13.844  12.276  65.313  1.00  0.00     0.000 HD 
HETATM   10  C   UNL     1     -10.849  11.377  64.422  1.00  0.00    -0.397 C  
HETATM   11  C   UNL     1     -10.122  11.443  66.004  1.00  0.00    -0.275 C  
HETATM   12  C   UNL     1      -9.984  10.146  66.812  1.00  0.00    -0.266 A  
HETATM   13  C   UNL     1     -10.085   8.884  66.196  1.00  0.00    -0.209 A  
HETATM   14  C   UNL     1      -9.727   7.712  66.877  1.00  0.00    -0.277 A  
HETATM   15  C   UNL     1      -9.265   7.796  68.192  1.00  0.00    -0.138 A  
HETATM   16  C   UNL     1      -9.145   9.032  68.815  1.00  0.00    -0.137 A  
HETATM   17  C   UNL     1      -9.228  12.783  68.070  1.00  0.00    -0.208 C  
HETATM   18  C   UNL     1      -9.482  10.214  68.138  1.00  0.00    -0.151 A  
HETATM   19  C   UNL     1     -10.385  12.783  67.081  1.00  0.00    -0.237 C  
HETATM   20  C   UNL     1      -9.274  11.504  68.900  1.00  0.00     0.005 C  
ENDROOT
BRANCH  15  21
HETATM   21  O   UNL     1      -8.825   6.628  68.841  1.00  0.00    -0.131 OA 
BRANCH  21  22
HETATM   22  C   UNL     1      -9.414   5.433  68.435  1.00  0.00    -0.123 C  
HETATM   23  O   UNL     1     -10.585   5.114  68.619  1.00  0.00    -0.098 OA 
HETATM   24  N   UNL     1      -8.553   4.653  67.672  1.00  0.00    -0.103 N  
BRANCH  24  25
HETATM   25  C   UNL     1      -9.131   3.981  66.510  1.00  0.00    -0.140 C  
HETATM   26 CL   UNL     1      -9.655   1.820  64.963  1.00  0.00     0.021 Cl 
HETATM   27  C   UNL     1      -8.853   2.488  66.408  1.00  0.00    -0.131 C  
ENDBRANCH  24  25
BRANCH  24  28
HETATM   28  C   UNL     1      -7.144   4.475  68.035  1.00  0.00    -0.064 C  
HETATM   29 CL   UNL     1      -6.191   6.704  66.758  1.00  0.00    -0.039 Cl 
HETATM   30  C   UNL     1      -6.118   4.947  67.008  1.00  0.00    -0.031 C  
ENDBRANCH  24  28
ENDBRANCH  21  22
ENDBRANCH  15  21
TORSDOF 4
ENDMDL
MODEL      116
REMARK 921   NORMALIZED FREE ENERGY PREDICTED BY IDOCK:   -4.65 KCAL/MOL
REMARK 922        TOTAL FREE ENERGY PREDICTED BY IDOCK:   -6.40 KCAL/MOL
REMARK 923 INTER-LIGAND FREE ENERGY PREDICTED BY IDOCK:   -5.99 KCAL/MOL
REMARK 924 INTRA-LIGAND FREE ENERGY PREDICTED BY IDOCK:   -0.41 KCAL/MOL
REMARK 927      BINDING AFFINITY PREDICTED BY RF-SCORE:    0.00 PKD
ROOT
HETATM    1  C   UNL     1      -8.747   7.645  69.496  1.00  0.00    -0.136 C  
HETATM    2  C   UNL     1      -8.325   7.739  70.852  1.00  0.00    -0.111 C  
HETATM    3  C   UNL     1      -9.452   8.694  70.631  1.00  0.00    -0.218 C  
HETATM    4  C   UNL     1     -10.242   8.444  68.778  1.00  0.00    -0.207 C  
HETATM    5  O   UNL     1     -11.397   8.872  68.057  1.00  0.00    -0.260 OA 
HETATM    6  C   UNL     1     -10.626   7.617  69.802  1.00  0.00    -0.245 C  
HETATM    7  C   UNL     1     -11.568   9.152  70.276  1.00  0.00    -0.116 C  
HETATM    8  C   UNL     1     -11.336   6.310  69.772  1.00  0.00    -0.506 C  
HETATM    9  H   UNL     1     -11.767   8.755  67.190  1.00  0.00     0.000 HD 
HETATM   10  C   UNL     1     -10.761  10.647  69.635  1.00  0.00    -0.290 C  
HETATM   11  C   UNL     1      -9.078  10.704  69.188  1.00  0.00    -0.152 C  
HETATM   12  C   UNL     1      -8.562  11.911  68.395  1.00  0.00    -0.152 A  
HETATM   13  C   UNL     1      -9.293  13.113  68.329  1.00  0.00    -0.201 A  
HETATM   14  C   UNL     1      -8.721  14.283  67.809  1.00  0.00    -0.179 A  
HETATM   15  C   UNL     1      -7.405  14.257  67.345  1.00  0.00    -0.128 A  
HETATM   16  C   UNL     1      -6.662  13.085  67.411  1.00  0.00    -0.123 A  
HETATM   17  C   UNL     1      -6.725   9.579  68.940  1.00  0.00    -0.051 C  
HETATM   18  C   UNL     1      -7.215  11.913  67.946  1.00  0.00    -0.095 A  
HETATM   19  C   UNL     1      -8.201   9.275  68.726  1.00  0.00    -0.112 C  
HETATM   20  C   UNL     1      -6.301  10.708  68.005  1.00  0.00    -0.058 C  
ENDROOT
BRANCH  15  21
HETATM   21  O   UNL     1      -6.808  15.453  66.906  1.00  0.00    -0.212 OA 
BRANCH  21  22
HETATM   22  C   UNL     1      -7.667  16.518  66.649  1.00  0.00    -0.283 C  
HETATM   23  O   UNL     1      -8.562  16.529  65.810  1.00  0.00    -0.442 OA 
HETATM   24  N   UNL     1      -7.489  17.567  67.544  1.00  0.00    -0.186 N  
BRANCH  24  25
HETATM   25  C   UNL     1      -8.698  18.226  68.034  1.00  0.00    -0.276 C  
HETATM   26 CL   UNL     1     -10.532  20.218  68.082  1.00  0.00    -0.390 Cl 
HETATM   27  C   UNL     1      -9.016  19.572  67.402  1.00  0.00    -0.307 C  
ENDBRANCH  24  25
BRANCH  24  28
HETATM   28  C   UNL     1      -6.155  18.023  67.945  1.00  0.00    -0.162 C  
HETATM   29 CL   UNL     1      -5.774  16.199  69.954  1.00  0.00    -0.164 Cl 
HETATM   30  C   UNL     1      -5.816  17.894  69.428  1.00  0.00    -0.230 C  
ENDBRANCH  24  28
ENDBRANCH  21  22
ENDBRANCH  15  21
TORSDOF 4
ENDMDL
MODEL      117
REMARK 921   NORMALIZED FREE ENERGY PREDICTED BY IDOCK:   -4.65 KCAL/MOL
REMARK 922        TOTAL FREE ENERGY PREDICTED BY IDOCK:   -6.40 KCAL/MOL
REMARK 923 INTER-LIGAND FREE ENERGY PREDICTED BY IDOCK:   -6.02 KCAL/MOL
REMARK 924 INTRA-LIGAND FREE ENERGY PREDICTED BY IDOCK:   -0.38 KCAL/MOL
REMARK 927      BINDING AFFINITY PREDICTED BY RF-SCORE:    0.00 PKD
ROOT
HETATM    1  C   UNL     1      -8.925   6.218  69.711  1.00  0.00    -0.140 C  
HETATM    2  C   UNL     1     -10.045   6.351  70.580  1.00  0.00    -0.221 C  
HETATM    3  C   UNL     1     -10.474   6.678  69.188  1.00  0.00    -0.250 C  
HETATM    4  C   UNL     1      -8.978   6.289  67.873  1.00  0.00    -0.113 C  
HETATM    5  O   UNL     1      -8.815   6.197  66.458  1.00  0.00    -0.124 OA 
HETATM    6  C   UNL     1      -9.791   5.273  68.303  1.00  0.00    -0.206 C  
HETATM    7  C   UNL     1     -10.955   6.118  67.121  1.00  0.00    -0.420 C  
HETATM    8  C   UNL     1      -9.618   3.797  68.221  1.00  0.00    -0.171 C  
HETATM    9  H   UNL     1      -8.115   6.015  65.842  1.00  0.00     0.000 HD 
HETATM   10  C   UNL     1     -10.545   7.877  66.934  1.00  0.00    -0.333 C  
HETATM   11  C   UNL     1      -9.623   8.771  68.111  1.00  0.00    -0.162 C  
HETATM   12  C   UNL     1      -9.085  10.157  67.735  1.00  0.00    -0.135 A  
HETATM   13  C   UNL     1      -9.600  10.870  66.635  1.00  0.00    -0.213 A  
HETATM   14  C   UNL     1      -9.281  12.220  66.431  1.00  0.00    -0.203 A  
HETATM   15  C   UNL     1      -8.436  12.870  67.333  1.00  0.00    -0.196 A  
HETATM   16  C   UNL     1      -7.926  12.189  68.431  1.00  0.00    -0.152 A  
HETATM   17  C   UNL     1      -8.332   8.926  70.385  1.00  0.00    -0.160 C  
HETATM   18  C   UNL     1      -8.252  10.844  68.657  1.00  0.00    -0.146 A  
HETATM   19  C   UNL     1      -8.520   7.986  69.203  1.00  0.00    -0.136 C  
HETATM   20  C   UNL     1      -7.673  10.216  69.905  1.00  0.00    -0.171 C  
ENDROOT
BRANCH  15  21
HETATM   21  O   UNL     1      -8.189  14.246  67.173  1.00  0.00    -0.199 OA 
BRANCH  21  22
HETATM   22  C   UNL     1      -9.142  15.113  67.704  1.00  0.00    -0.180 C  
HETATM   23  O   UNL     1     -10.086  14.788  68.417  1.00  0.00    -0.215 OA 
HETATM   24  N   UNL     1      -8.847  16.445  67.441  1.00  0.00    -0.182 N  
BRANCH  24  25
HETATM   25  C   UNL     1      -9.072  17.396  68.528  1.00  0.00    -0.273 C  
HETATM   26 CL   UNL     1     -10.121  19.647  69.611  1.00  0.00    -0.185 Cl 
HETATM   27  C   UNL     1      -9.913  18.614  68.173  1.00  0.00    -0.358 C  
ENDBRANCH  24  25
BRANCH  24  28
HETATM   28  C   UNL     1      -8.376  16.887  66.125  1.00  0.00    -0.251 C  
HETATM   29 CL   UNL     1      -5.708  16.968  66.740  1.00  0.00    -0.215 Cl 
HETATM   30  C   UNL     1      -7.150  17.796  66.118  1.00  0.00    -0.312 C  
ENDBRANCH  24  28
ENDBRANCH  21  22
ENDBRANCH  15  21
TORSDOF 4
ENDMDL
MODEL      118
REMARK 921   NORMALIZED FREE ENERGY PREDICTED BY IDOCK:   -4.64 KCAL/MOL
REMARK 922        TOTAL FREE ENERGY PREDICTED BY IDOCK:   -6.39 KCAL/MOL
REMARK 923 INTER-LIGAND FREE ENERGY PREDICTED BY IDOCK:   -6.08 KCAL/MOL
REMARK 924 INTRA-LIGAND FREE ENERGY PREDICTED BY IDOCK:   -0.30 KCAL/MOL
REMARK 927      BINDING AFFINITY PREDICTED BY RF-SCORE:    0.00 PKD
ROOT
HETATM    1  C   UNL     1      -9.354  15.072  67.152  1.00  0.00    -0.225 C  
HETATM    2  C   UNL     1     -10.083  14.927  65.937  1.00  0.00    -0.348 C  
HETATM    3  C   UNL     1     -11.001  14.664  67.084  1.00  0.00    -0.316 C  
HETATM    4  C   UNL     1     -10.077  15.074  68.844  1.00  0.00    -0.234 C  
HETATM    5  O   UNL     1     -10.438  15.218  70.217  1.00  0.00    -0.427 OA 
HETATM    6  C   UNL     1     -10.642  16.089  68.116  1.00  0.00    -0.286 C  
HETATM    7  C   UNL     1     -12.185  15.314  68.814  1.00  0.00    -0.084 C  
HETATM    8  C   UNL     1     -10.462  17.563  68.214  1.00  0.00    -0.383 C  
HETATM    9  H   UNL     1     -10.006  15.411  71.041  1.00  0.00     0.000 HD 
HETATM   10  C   UNL     1     -11.929  13.556  69.190  1.00  0.00    -0.378 C  
HETATM   11  C   UNL     1     -10.672  12.598  68.459  1.00  0.00    -0.271 C  
HETATM   12  C   UNL     1     -10.354  11.218  69.046  1.00  0.00    -0.189 A  
HETATM   13  C   UNL     1     -11.258  10.559  69.901  1.00  0.00    -0.374 A  
HETATM   14  C   UNL     1     -11.081   9.211  70.247  1.00  0.00    -0.272 A  
HETATM   15  C   UNL     1      -9.986   8.510  69.737  1.00  0.00    -0.191 A  
HETATM   16  C   UNL     1      -9.088   9.137  68.882  1.00  0.00    -0.139 A  
HETATM   17  C   UNL     1      -8.644  12.328  66.821  1.00  0.00    -0.149 C  
HETATM   18  C   UNL     1      -9.265  10.479  68.513  1.00  0.00    -0.168 A  
HETATM   19  C   UNL     1      -9.220  13.317  67.824  1.00  0.00    -0.209 C  
HETATM   20  C   UNL     1      -8.249  11.045  67.546  1.00  0.00    -0.117 C  
ENDROOT
BRANCH  15  21
HETATM   21  O   UNL     1      -9.860   7.136  70.016  1.00  0.00    -0.177 OA 
BRANCH  21  22
HETATM   22  C   UNL     1      -9.142   6.798  71.160  1.00  0.00    -0.151 C  
HETATM   23  O   UNL     1      -8.996   7.510  72.150  1.00  0.00    -0.125 OA 
HETATM   24  N   UNL     1      -8.685   5.487  71.128  1.00  0.00    -0.129 N  
BRANCH  24  25
HETATM   25  C   UNL     1      -8.777   4.727  72.373  1.00  0.00    -0.119 C  
HETATM   26 CL   UNL     1     -10.121   3.523  74.394  1.00  0.00    -0.190 Cl 
HETATM   27  C   UNL     1     -10.185   4.491  72.898  1.00  0.00    -0.174 C  
ENDBRANCH  24  25
BRANCH  24  28
HETATM   28  C   UNL     1      -8.097   4.903  69.919  1.00  0.00    -0.073 C  
HETATM   29 CL   UNL     1      -9.658   2.652  69.848  1.00  0.00    -0.137 Cl 
HETATM   30  C   UNL     1      -8.037   3.378  69.867  1.00  0.00    -0.048 C  
ENDBRANCH  24  28
ENDBRANCH  21  22
ENDBRANCH  15  21
TORSDOF 4
ENDMDL
MODEL      119
REMARK 921   NORMALIZED FREE ENERGY PREDICTED BY IDOCK:   -4.63 KCAL/MOL
REMARK 922        TOTAL FREE ENERGY PREDICTED BY IDOCK:   -6.38 KCAL/MOL
REMARK 923 INTER-LIGAND FREE ENERGY PREDICTED BY IDOCK:   -6.24 KCAL/MOL
REMARK 924 INTRA-LIGAND FREE ENERGY PREDICTED BY IDOCK:   -0.13 KCAL/MOL
REMARK 927      BINDING AFFINITY PREDICTED BY RF-SCORE:    0.00 PKD
ROOT
HETATM    1  C   UNL     1     -10.605   6.691  68.663  1.00  0.00    -0.274 C  
HETATM    2  C   UNL     1      -9.694   5.953  67.856  1.00  0.00    -0.128 C  
HETATM    3  C   UNL     1      -8.924   6.689  68.902  1.00  0.00    -0.130 C  
HETATM    4  C   UNL     1     -10.185   7.578  70.220  1.00  0.00    -0.204 C  
HETATM    5  O   UNL     1     -10.101   8.224  71.490  1.00  0.00    -0.186 OA 
HETATM    6  C   UNL     1      -9.871   6.251  70.363  1.00  0.00    -0.207 C  
HETATM    7  C   UNL     1      -8.286   7.011  70.977  1.00  0.00    -0.117 C  
HETATM    8  C   UNL     1     -10.526   5.186  71.171  1.00  0.00    -0.240 C  
HETATM    9  H   UNL     1     -10.691   8.640  72.106  1.00  0.00     0.000 HD 
HETATM   10  C   UNL     1      -8.019   8.656  70.256  1.00  0.00    -0.106 C  
HETATM   11  C   UNL     1      -8.779   9.184  68.780  1.00  0.00    -0.132 C  
HETATM   12  C   UNL     1      -8.723  10.671  68.407  1.00  0.00    -0.141 A  
HETATM   13  C   UNL     1      -7.796  11.543  69.008  1.00  0.00    -0.005 A  
HETATM   14  C   UNL     1      -7.583  12.835  68.506  1.00  0.00    -0.120 A  
HETATM   15  C   UNL     1      -8.305  13.267  67.392  1.00  0.00    -0.192 A  
HETATM   16  C   UNL     1      -9.216  12.418  66.776  1.00  0.00    -0.212 A  
HETATM   17  C   UNL     1     -10.341   8.762  66.719  1.00  0.00    -0.328 C  
HETATM   18  C   UNL     1      -9.425  11.117  67.256  1.00  0.00    -0.178 A  
HETATM   19  C   UNL     1     -10.270   8.490  68.215  1.00  0.00    -0.244 C  
HETATM   20  C   UNL     1     -10.410  10.268  66.483  1.00  0.00    -0.276 C  
ENDROOT
BRANCH  15  21
HETATM   21  O   UNL     1      -8.026  14.530  66.840  1.00  0.00    -0.115 OA 
BRANCH  21  22
HETATM   22  C   UNL     1      -8.242  15.631  67.666  1.00  0.00    -0.150 C  
HETATM   23  O   UNL     1      -7.564  15.935  68.643  1.00  0.00    -0.144 OA 
HETATM   24  N   UNL     1      -9.262  16.449  67.199  1.00  0.00    -0.210 N  
BRANCH  24  25
HETATM   25  C   UNL     1      -9.043  17.892  67.290  1.00  0.00    -0.251 C  
HETATM   26 CL   UNL     1      -9.813  20.442  67.783  1.00  0.00    -0.536 Cl 
HETATM   27  C   UNL     1     -10.259  18.719  67.680  1.00  0.00    -0.399 C  
ENDBRANCH  24  25
BRANCH  24  28
HETATM   28  C   UNL     1     -10.518  15.900  66.679  1.00  0.00    -0.306 C  
HETATM   29 CL   UNL     1     -11.872  15.864  69.060  1.00  0.00    -0.380 Cl 
HETATM   30  C   UNL     1     -11.299  14.991  67.624  1.00  0.00    -0.334 C  
ENDBRANCH  24  28
ENDBRANCH  21  22
ENDBRANCH  15  21
TORSDOF 4
ENDMDL
MODEL      120
REMARK 921   NORMALIZED FREE ENERGY PREDICTED BY IDOCK:   -4.63 KCAL/MOL
REMARK 922        TOTAL FREE ENERGY PREDICTED BY IDOCK:   -6.37 KCAL/MOL
REMARK 923 INTER-LIGAND FREE ENERGY PREDICTED BY IDOCK:   -7.08 KCAL/MOL
REMARK 924 INTRA-LIGAND FREE ENERGY PREDICTED BY IDOCK:    0.71 KCAL/MOL
REMARK 927      BINDING AFFINITY PREDICTED BY RF-SCORE:    0.00 PKD
ROOT
HETATM    1  C   UNL     1     -10.933  14.581  64.565  1.00  0.00    -0.264 C  
HETATM    2  C   UNL     1     -12.323  14.457  64.851  1.00  0.00    -0.414 C  
HETATM    3  C   UNL     1     -11.560  14.395  66.133  1.00  0.00    -0.372 C  
HETATM    4  C   UNL     1      -9.595  14.791  65.811  1.00  0.00    -0.254 C  
HETATM    5  O   UNL     1      -8.434  15.072  66.591  1.00  0.00    -0.354 OA 
HETATM    6  C   UNL     1     -10.489  15.823  65.937  1.00  0.00    -0.366 C  
HETATM    7  C   UNL     1     -10.355  15.310  67.722  1.00  0.00    -0.244 C  
HETATM    8  C   UNL     1     -10.357  17.262  65.583  1.00  0.00    -0.185 C  
HETATM    9  H   UNL     1      -7.515  15.258  66.441  1.00  0.00     0.000 HD 
HETATM   10  C   UNL     1      -9.889  13.563  67.876  1.00  0.00    -0.235 C  
HETATM   11  C   UNL     1     -10.126  12.398  66.602  1.00  0.00    -0.234 C  
HETATM   12  C   UNL     1      -9.444  11.029  66.713  1.00  0.00    -0.203 A  
HETATM   13  C   UNL     1      -8.945  10.555  67.941  1.00  0.00    -0.137 A  
HETATM   14  C   UNL     1      -8.539   9.222  68.095  1.00  0.00    -0.125 A  
HETATM   15  C   UNL     1      -8.628   8.347  67.010  1.00  0.00    -0.122 A  
HETATM   16  C   UNL     1      -9.130   8.790  65.793  1.00  0.00    -0.267 A  
HETATM   17  C   UNL     1     -10.958  11.750  64.203  1.00  0.00    -0.437 C  
HETATM   18  C   UNL     1      -9.557  10.116  65.631  1.00  0.00    -0.302 A  
HETATM   19  C   UNL     1     -10.230  12.871  64.932  1.00  0.00    -0.296 C  
HETATM   20  C   UNL     1     -10.121  10.476  64.275  1.00  0.00    -0.380 C  
ENDROOT
BRANCH  15  21
HETATM   21  O   UNL     1      -8.303   6.991  67.193  1.00  0.00    -0.119 OA 
BRANCH  21  22
HETATM   22  C   UNL     1      -8.596   6.445  68.441  1.00  0.00    -0.115 C  
HETATM   23  O   UNL     1      -7.770   6.088  69.276  1.00  0.00    -0.091 OA 
HETATM   24  N   UNL     1      -9.958   6.449  68.712  1.00  0.00    -0.142 N  
BRANCH  24  25
HETATM   25  C   UNL     1     -10.358   6.809  70.071  1.00  0.00    -0.199 C  
HETATM   26 CL   UNL     1     -11.491   6.321  72.483  1.00  0.00    -0.313 Cl 
HETATM   27  C   UNL     1     -11.113   5.737  70.842  1.00  0.00    -0.197 C  
ENDBRANCH  24  25
BRANCH  24  28
HETATM   28  C   UNL     1     -10.949   6.068  67.701  1.00  0.00    -0.234 C  
HETATM   29 CL   UNL     1      -9.593   3.903  66.710  1.00  0.00    -0.227 Cl 
HETATM   30  C   UNL     1     -10.399   5.457  66.415  1.00  0.00    -0.247 C  
ENDBRANCH  24  28
ENDBRANCH  21  22
ENDBRANCH  15  21
TORSDOF 4
ENDMDL
MODEL      121
REMARK 921   NORMALIZED FREE ENERGY PREDICTED BY IDOCK:   -4.62 KCAL/MOL
REMARK 922        TOTAL FREE ENERGY PREDICTED BY IDOCK:   -6.36 KCAL/MOL
REMARK 923 INTER-LIGAND FREE ENERGY PREDICTED BY IDOCK:   -6.02 KCAL/MOL
REMARK 924 INTRA-LIGAND FREE ENERGY PREDICTED BY IDOCK:   -0.34 KCAL/MOL
REMARK 927      BINDING AFFINITY PREDICTED BY RF-SCORE:    0.00 PKD
ROOT
HETATM    1  C   UNL     1      -8.805  15.294  67.928  1.00  0.00    -0.165 C  
HETATM    2  C   UNL     1      -8.309  15.307  66.593  1.00  0.00    -0.216 C  
HETATM    3  C   UNL     1      -9.667  14.685  66.597  1.00  0.00    -0.283 C  
HETATM    4  C   UNL     1     -10.516  14.843  68.433  1.00  0.00    -0.243 C  
HETATM    5  O   UNL     1     -11.801  14.646  69.022  1.00  0.00    -0.299 OA 
HETATM    6  C   UNL     1     -10.572  15.899  67.561  1.00  0.00    -0.315 C  
HETATM    7  C   UNL     1     -11.851  14.789  66.785  1.00  0.00    -0.272 C  
HETATM    8  C   UNL     1     -10.902  17.330  67.799  1.00  0.00    -0.261 C  
HETATM    9  H   UNL     1     -12.199  14.720  69.881  1.00  0.00     0.000 HD 
HETATM   10  C   UNL     1     -11.536  13.044  67.176  1.00  0.00    -0.411 C  
HETATM   11  C   UNL     1      -9.977  12.444  67.667  1.00  0.00    -0.200 C  
HETATM   12  C   UNL     1      -9.876  11.028  68.249  1.00  0.00    -0.185 A  
HETATM   13  C   UNL     1     -10.908  10.087  68.070  1.00  0.00    -0.311 A  
HETATM   14  C   UNL     1     -10.722   8.735  68.392  1.00  0.00    -0.112 A  
HETATM   15  C   UNL     1      -9.492   8.314  68.902  1.00  0.00    -0.151 A  
HETATM   16  C   UNL     1      -8.457   9.223  69.076  1.00  0.00    -0.132 A  
HETATM   17  C   UNL     1      -7.437  12.805  68.201  1.00  0.00    -0.124 C  
HETATM   18  C   UNL     1      -8.624  10.575  68.740  1.00  0.00    -0.146 A  
HETATM   19  C   UNL     1      -8.789  13.473  68.411  1.00  0.00    -0.146 C  
HETATM   20  C   UNL     1      -7.417  11.466  68.933  1.00  0.00    -0.113 C  
ENDROOT
BRANCH  15  21
HETATM   21  O   UNL     1      -9.281   6.943  69.141  1.00  0.00    -0.142 OA 
BRANCH  21  22
HETATM   22  C   UNL     1     -10.213   6.304  69.956  1.00  0.00    -0.188 C  
HETATM   23  O   UNL     1     -11.310   5.886  69.596  1.00  0.00    -0.370 OA 
HETATM   24  N   UNL     1      -9.723   6.068  71.234  1.00  0.00    -0.171 N  
BRANCH  24  25
HETATM   25  C   UNL     1     -10.045   4.775  71.835  1.00  0.00    -0.198 C  
HETATM   26 CL   UNL     1     -11.225   3.175  73.675  1.00  0.00    -0.319 Cl 
HETATM   27  C   UNL     1     -10.894   4.828  73.096  1.00  0.00    -0.270 C  
ENDBRANCH  24  25
BRANCH  24  28
HETATM   28  C   UNL     1      -8.957   7.081  71.968  1.00  0.00    -0.131 C  
HETATM   29 CL   UNL     1      -6.512   6.499  70.875  1.00  0.00    -0.047 Cl 
HETATM   30  C   UNL     1      -7.519   6.712  72.323  1.00  0.00    -0.094 C  
ENDBRANCH  24  28
ENDBRANCH  21  22
ENDBRANCH  15  21
TORSDOF 4
ENDMDL
MODEL      122
REMARK 921   NORMALIZED FREE ENERGY PREDICTED BY IDOCK:   -4.62 KCAL/MOL
REMARK 922        TOTAL FREE ENERGY PREDICTED BY IDOCK:   -6.36 KCAL/MOL
REMARK 923 INTER-LIGAND FREE ENERGY PREDICTED BY IDOCK:   -5.89 KCAL/MOL
REMARK 924 INTRA-LIGAND FREE ENERGY PREDICTED BY IDOCK:   -0.47 KCAL/MOL
REMARK 927      BINDING AFFINITY PREDICTED BY RF-SCORE:    0.00 PKD
ROOT
HETATM    1  C   UNL     1      -9.255   3.398  68.983  1.00  0.00    -0.226 C  
HETATM    2  C   UNL     1      -8.308   3.294  67.925  1.00  0.00    -0.096 C  
HETATM    3  C   UNL     1      -7.720   4.125  69.017  1.00  0.00    -0.054 C  
HETATM    4  C   UNL     1      -8.933   4.122  70.644  1.00  0.00    -0.095 C  
HETATM    5  O   UNL     1      -8.866   4.528  72.011  1.00  0.00    -0.115 OA 
HETATM    6  C   UNL     1      -8.066   3.081  70.436  1.00  0.00    -0.055 C  
HETATM    7  C   UNL     1      -6.860   4.374  71.020  1.00  0.00    -0.036 C  
HETATM    8  C   UNL     1      -8.026   1.723  71.043  1.00  0.00    -0.049 C  
HETATM    9  H   UNL     1      -9.434   4.527  72.772  1.00  0.00     0.000 HD 
HETATM   10  C   UNL     1      -7.469   6.050  70.677  1.00  0.00    -0.087 C  
HETATM   11  C   UNL     1      -8.671   6.397  69.465  1.00  0.00    -0.133 C  
HETATM   12  C   UNL     1      -9.327   7.783  69.446  1.00  0.00    -0.152 A  
HETATM   13  C   UNL     1      -8.751   8.876  70.121  1.00  0.00    -0.168 A  
HETATM   14  C   UNL     1      -9.213  10.184  69.914  1.00  0.00    -0.119 A  
HETATM   15  C   UNL     1     -10.266  10.407  69.024  1.00  0.00    -0.217 A  
HETATM   16  C   UNL     1     -10.840   9.345  68.337  1.00  0.00    -0.156 A  
HETATM   17  C   UNL     1     -10.302   5.638  67.560  1.00  0.00    -0.277 C  
HETATM   18  C   UNL     1     -10.375   8.034  68.521  1.00  0.00    -0.229 A  
HETATM   19  C   UNL     1      -9.812   5.197  68.932  1.00  0.00    -0.241 C  
HETATM   20  C   UNL     1     -11.048   6.963  67.692  1.00  0.00    -0.251 C  
ENDROOT
BRANCH  15  21
HETATM   21  O   UNL     1     -10.667  11.728  68.753  1.00  0.00    -0.211 OA 
BRANCH  21  22
HETATM   22  C   UNL     1     -11.708  12.232  69.531  1.00  0.00    -0.332 C  
HETATM   23  O   UNL     1     -12.503  11.562  70.183  1.00  0.00    -0.240 OA 
HETATM   24  N   UNL     1     -11.691  13.620  69.597  1.00  0.00    -0.309 N  
BRANCH  24  25
HETATM   25  C   UNL     1     -11.982  14.220  70.898  1.00  0.00    -0.320 C  
HETATM   26 CL   UNL     1     -13.569  15.484  72.693  1.00  0.00    -0.609 Cl 
HETATM   27  C   UNL     1     -13.366  14.833  71.046  1.00  0.00    -0.374 C  
ENDBRANCH  24  25
BRANCH  24  28
HETATM   28  C   UNL     1     -11.440  14.448  68.414  1.00  0.00    -0.301 C  
HETATM   29 CL   UNL     1      -8.829  15.053  68.983  1.00  0.00    -0.206 Cl 
HETATM   30  C   UNL     1     -10.470  15.612  68.599  1.00  0.00    -0.231 C  
ENDBRANCH  24  28
ENDBRANCH  21  22
ENDBRANCH  15  21
TORSDOF 4
ENDMDL
MODEL      123
REMARK 921   NORMALIZED FREE ENERGY PREDICTED BY IDOCK:   -4.59 KCAL/MOL
REMARK 922        TOTAL FREE ENERGY PREDICTED BY IDOCK:   -6.33 KCAL/MOL
REMARK 923 INTER-LIGAND FREE ENERGY PREDICTED BY IDOCK:   -5.65 KCAL/MOL
REMARK 924 INTRA-LIGAND FREE ENERGY PREDICTED BY IDOCK:   -0.67 KCAL/MOL
REMARK 927      BINDING AFFINITY PREDICTED BY RF-SCORE:    0.00 PKD
ROOT
HETATM    1  C   UNL     1     -10.117  17.909  67.422  1.00  0.00    -0.341 C  
HETATM    2  C   UNL     1     -10.262  18.291  68.786  1.00  0.00    -0.342 C  
HETATM    3  C   UNL     1      -8.811  18.098  68.491  1.00  0.00    -0.312 C  
HETATM    4  C   UNL     1      -8.526  17.772  66.508  1.00  0.00    -0.260 C  
HETATM    5  O   UNL     1      -7.431  17.717  65.594  1.00  0.00    -0.533 OA 
HETATM    6  C   UNL     1      -8.663  19.053  66.977  1.00  0.00    -0.309 C  
HETATM    7  C   UNL     1      -6.925  18.701  67.545  1.00  0.00    -0.210 C  
HETATM    8  C   UNL     1      -8.947  20.321  66.252  1.00  0.00    -0.241 C  
HETATM    9  H   UNL     1      -7.298  17.565  64.666  1.00  0.00     0.000 HD 
HETATM   10  C   UNL     1      -6.656  16.922  67.788  1.00  0.00    -0.158 C  
HETATM   11  C   UNL     1      -7.953  15.789  68.048  1.00  0.00    -0.141 C  
HETATM   12  C   UNL     1      -7.658  14.287  67.954  1.00  0.00    -0.159 A  
HETATM   13  C   UNL     1      -6.341  13.794  68.024  1.00  0.00    -0.141 A  
HETATM   14  C   UNL     1      -6.085  12.423  68.176  1.00  0.00    -0.065 A  
HETATM   15  C   UNL     1      -7.156  11.530  68.256  1.00  0.00    -0.080 A  
HETATM   16  C   UNL     1      -8.463  11.997  68.202  1.00  0.00    -0.171 A  
HETATM   17  C   UNL     1     -10.498  15.233  68.339  1.00  0.00    -0.236 C  
HETATM   18  C   UNL     1      -8.732  13.367  68.070  1.00  0.00    -0.178 A  
HETATM   19  C   UNL     1      -9.574  16.106  67.501  1.00  0.00    -0.229 C  
HETATM   20  C   UNL     1     -10.192  13.764  68.062  1.00  0.00    -0.248 C  
ENDROOT
BRANCH  15  21
HETATM   21  O   UNL     1      -6.897  10.168  68.496  1.00  0.00    -0.057 OA 
BRANCH  21  22
HETATM   22  C   UNL     1      -7.107   9.299  67.427  1.00  0.00    -0.079 C  
HETATM   23  O   UNL     1      -6.767   9.500  66.265  1.00  0.00    -0.073 OA 
HETATM   24  N   UNL     1      -7.651   8.087  67.832  1.00  0.00    -0.110 N  
BRANCH  24  25
HETATM   25  C   UNL     1      -7.122   6.882  67.196  1.00  0.00    -0.080 C  
HETATM   26 CL   UNL     1      -7.131   4.237  66.610  1.00  0.00    -0.063 Cl 
HETATM   27  C   UNL     1      -7.881   5.596  67.487  1.00  0.00    -0.101 C  
ENDBRANCH  24  25
BRANCH  24  28
HETATM   28  C   UNL     1      -8.735   8.016  68.817  1.00  0.00    -0.131 C  
HETATM   29 CL   UNL     1     -10.779   7.641  67.030  1.00  0.00    -0.409 Cl 
HETATM   30  C   UNL     1     -10.086   8.573  68.374  1.00  0.00    -0.194 C  
ENDBRANCH  24  28
ENDBRANCH  21  22
ENDBRANCH  15  21
TORSDOF 4
ENDMDL
MODEL      124
REMARK 921   NORMALIZED FREE ENERGY PREDICTED BY IDOCK:   -4.57 KCAL/MOL
REMARK 922        TOTAL FREE ENERGY PREDICTED BY IDOCK:   -6.29 KCAL/MOL
REMARK 923 INTER-LIGAND FREE ENERGY PREDICTED BY IDOCK:   -5.79 KCAL/MOL
REMARK 924 INTRA-LIGAND FREE ENERGY PREDICTED BY IDOCK:   -0.51 KCAL/MOL
REMARK 927      BINDING AFFINITY PREDICTED BY RF-SCORE:    0.00 PKD
ROOT
HETATM    1  C   UNL     1     -11.614  16.202  68.892  1.00  0.00    -0.298 C  
HETATM    2  C   UNL     1     -11.211  16.364  70.248  1.00  0.00    -0.259 C  
HETATM    3  C   UNL     1      -9.997  16.146  69.407  1.00  0.00    -0.243 C  
HETATM    4  C   UNL     1     -10.489  16.133  67.438  1.00  0.00    -0.310 C  
HETATM    5  O   UNL     1      -9.813  16.170  66.181  1.00  0.00    -0.290 OA 
HETATM    6  C   UNL     1     -10.305  17.325  68.088  1.00  0.00    -0.357 C  
HETATM    7  C   UNL     1      -8.529  16.794  67.911  1.00  0.00    -0.200 C  
HETATM    8  C   UNL     1     -10.692  18.708  67.697  1.00  0.00    -0.428 C  
HETATM    9  H   UNL     1     -10.043  16.164  65.260  1.00  0.00     0.000 HD 
HETATM   10  C   UNL     1      -8.387  14.988  67.798  1.00  0.00    -0.158 C  
HETATM   11  C   UNL     1      -9.617  13.898  68.376  1.00  0.00    -0.215 C  
HETATM   12  C   UNL     1      -9.542  12.418  67.980  1.00  0.00    -0.211 A  
HETATM   13  C   UNL     1      -8.352  11.851  67.485  1.00  0.00    -0.158 A  
HETATM   14  C   UNL     1      -8.211  10.462  67.348  1.00  0.00    -0.117 A  
HETATM   15  C   UNL     1      -9.270   9.626  67.706  1.00  0.00    -0.124 A  
HETATM   16  C   UNL     1     -10.448  10.163  68.209  1.00  0.00    -0.244 A  
HETATM   17  C   UNL     1     -11.927  13.437  69.524  1.00  0.00    -0.377 C  
HETATM   18  C   UNL     1     -10.595  11.549  68.369  1.00  0.00    -0.227 A  
HETATM   19  C   UNL     1     -11.280  14.385  68.523  1.00  0.00    -0.286 C  
HETATM   20  C   UNL     1     -11.905  12.019  68.962  1.00  0.00    -0.372 C  
ENDROOT
BRANCH  15  21
HETATM   21  O   UNL     1      -9.093   8.231  67.650  1.00  0.00    -0.131 OA 
BRANCH  21  22
HETATM   22  C   UNL     1      -8.478   7.638  68.750  1.00  0.00    -0.129 C  
HETATM   23  O   UNL     1      -8.698   7.913  69.926  1.00  0.00    -0.138 OA 
HETATM   24  N   UNL     1      -7.647   6.586  68.387  1.00  0.00    -0.101 N  
BRANCH  24  25
HETATM   25  C   UNL     1      -7.683   5.396  69.234  1.00  0.00    -0.085 C  
HETATM   26 CL   UNL     1      -6.552   3.431  70.717  1.00  0.00    -0.031 Cl 
HETATM   27  C   UNL     1      -6.328   4.852  69.664  1.00  0.00    -0.031 C  
ENDBRANCH  24  25
BRANCH  24  28
HETATM   28  C   UNL     1      -6.742   6.677  67.236  1.00  0.00    -0.063 C  
HETATM   29 CL   UNL     1      -8.563   5.939  65.327  1.00  0.00    -0.144 Cl 
HETATM   30  C   UNL     1      -6.988   5.682  66.105  1.00  0.00    -0.060 C  
ENDBRANCH  24  28
ENDBRANCH  21  22
ENDBRANCH  15  21
TORSDOF 4
ENDMDL
MODEL      125
REMARK 921   NORMALIZED FREE ENERGY PREDICTED BY IDOCK:   -4.55 KCAL/MOL
REMARK 922        TOTAL FREE ENERGY PREDICTED BY IDOCK:   -6.27 KCAL/MOL
REMARK 923 INTER-LIGAND FREE ENERGY PREDICTED BY IDOCK:   -5.83 KCAL/MOL
REMARK 924 INTRA-LIGAND FREE ENERGY PREDICTED BY IDOCK:   -0.44 KCAL/MOL
REMARK 927      BINDING AFFINITY PREDICTED BY RF-SCORE:    0.00 PKD
ROOT
HETATM    1  C   UNL     1      -7.920  18.661  68.476  1.00  0.00    -0.365 C  
HETATM    2  C   UNL     1      -6.913  18.981  67.521  1.00  0.00    -0.223 C  
HETATM    3  C   UNL     1      -7.971  18.167  66.851  1.00  0.00    -0.250 C  
HETATM    4  C   UNL     1      -9.540  17.872  68.103  1.00  0.00    -0.306 C  
HETATM    5  O   UNL     1     -10.878  17.381  68.021  1.00  0.00    -0.384 OA 
HETATM    6  C   UNL     1      -9.441  19.042  67.396  1.00  0.00    -0.347 C  
HETATM    7  C   UNL     1      -9.988  17.901  66.030  1.00  0.00    -0.217 C  
HETATM    8  C   UNL     1     -10.140  20.343  67.579  1.00  0.00    -0.495 C  
HETATM    9  H   UNL     1     -11.613  17.243  68.607  1.00  0.00     0.000 HD 
HETATM   10  C   UNL     1      -9.506  16.183  66.369  1.00  0.00    -0.323 C  
HETATM   11  C   UNL     1      -8.222  15.754  67.465  1.00  0.00    -0.181 C  
HETATM   12  C   UNL     1      -8.080  14.291  67.906  1.00  0.00    -0.152 A  
HETATM   13  C   UNL     1      -8.704  13.248  67.195  1.00  0.00    -0.215 A  
HETATM   14  C   UNL     1      -8.389  11.905  67.449  1.00  0.00    -0.163 A  
HETATM   15  C   UNL     1      -7.441  11.596  68.426  1.00  0.00    -0.107 A  
HETATM   16  C   UNL     1      -6.804  12.610  69.131  1.00  0.00    -0.057 A  
HETATM   17  C   UNL     1      -6.304  16.402  69.129  1.00  0.00    -0.177 C  
HETATM   18  C   UNL     1      -7.097  13.957  68.873  1.00  0.00    -0.110 A  
HETATM   19  C   UNL     1      -7.722  16.808  68.755  1.00  0.00    -0.242 C  
HETATM   20  C   UNL     1      -6.314  14.976  69.671  1.00  0.00    -0.142 C  
ENDROOT
BRANCH  15  21
HETATM   21  O   UNL     1      -7.064  10.254  68.617  1.00  0.00    -0.071 OA 
BRANCH  21  22
HETATM   22  C   UNL     1      -8.005   9.425  69.224  1.00  0.00    -0.093 C  
HETATM   23  O   UNL     1      -8.959   9.800  69.900  1.00  0.00    -0.206 OA 
HETATM   24  N   UNL     1      -7.827   8.089  68.887  1.00  0.00    -0.111 N  
BRANCH  24  25
HETATM   25  C   UNL     1      -9.035   7.312  68.616  1.00  0.00    -0.128 C  
HETATM   26 CL   UNL     1     -11.117   6.510  67.080  1.00  0.00    -0.476 Cl 
HETATM   27  C   UNL     1      -9.686   7.558  67.263  1.00  0.00    -0.167 C  
ENDBRANCH  24  25
BRANCH  24  28
HETATM   28  C   UNL     1      -6.497   7.472  68.847  1.00  0.00    -0.044 C  
HETATM   29 CL   UNL     1      -6.569   6.372  71.355  1.00  0.00    -0.053 Cl 
HETATM   30  C   UNL     1      -5.743   7.409  70.172  1.00  0.00    -0.024 C  
ENDBRANCH  24  28
ENDBRANCH  21  22
ENDBRANCH  15  21
TORSDOF 4
ENDMDL
MODEL      126
REMARK 921   NORMALIZED FREE ENERGY PREDICTED BY IDOCK:   -4.48 KCAL/MOL
REMARK 922        TOTAL FREE ENERGY PREDICTED BY IDOCK:   -6.19 KCAL/MOL
REMARK 923 INTER-LIGAND FREE ENERGY PREDICTED BY IDOCK:   -5.43 KCAL/MOL
REMARK 924 INTRA-LIGAND FREE ENERGY PREDICTED BY IDOCK:   -0.76 KCAL/MOL
REMARK 927      BINDING AFFINITY PREDICTED BY RF-SCORE:    0.00 PKD
ROOT
HETATM    1  C   UNL     1      -8.619   8.916  65.200  1.00  0.00    -0.208 C  
HETATM    2  C   UNL     1      -9.644   9.853  64.884  1.00  0.00    -0.356 C  
HETATM    3  C   UNL     1      -8.798  10.415  65.978  1.00  0.00    -0.175 C  
HETATM    4  C   UNL     1      -7.189   9.224  66.316  1.00  0.00    -0.088 C  
HETATM    5  O   UNL     1      -5.962   9.290  67.043  1.00  0.00    -0.054 OA 
HETATM    6  C   UNL     1      -7.162  10.136  65.293  1.00  0.00    -0.141 C  
HETATM    7  C   UNL     1      -6.934  11.288  66.739  1.00  0.00    -0.141 C  
HETATM    8  C   UNL     1      -6.247  10.248  64.125  1.00  0.00    -0.107 C  
HETATM    9  H   UNL     1      -5.209   8.733  67.201  1.00  0.00     0.000 HD 
HETATM   10  C   UNL     1      -7.655  10.597  68.255  1.00  0.00    -0.097 C  
HETATM   11  C   UNL     1      -8.887   9.365  68.249  1.00  0.00    -0.128 C  
HETATM   12  C   UNL     1      -9.223   8.645  69.560  1.00  0.00    -0.150 A  
HETATM   13  C   UNL     1      -8.843   9.178  70.807  1.00  0.00    -0.291 A  
HETATM   14  C   UNL     1      -9.348   8.652  72.006  1.00  0.00    -0.362 A  
HETATM   15  C   UNL     1     -10.240   7.580  71.963  1.00  0.00    -0.196 A  
HETATM   16  C   UNL     1     -10.638   7.047  70.743  1.00  0.00    -0.240 A  
HETATM   17  C   UNL     1     -10.515   7.747  66.985  1.00  0.00    -0.419 C  
HETATM   18  C   UNL     1     -10.156   7.575  69.537  1.00  0.00    -0.189 A  
HETATM   19  C   UNL     1      -9.089   8.275  66.909  1.00  0.00    -0.181 C  
HETATM   20  C   UNL     1     -10.687   6.942  68.270  1.00  0.00    -0.265 C  
ENDROOT
BRANCH  15  21
HETATM   21  O   UNL     1     -10.811   7.113  73.162  1.00  0.00    -0.300 OA 
BRANCH  21  22
HETATM   22  C   UNL     1     -10.961   5.733  73.282  1.00  0.00    -0.253 C  
HETATM   23  O   UNL     1     -12.013   5.114  73.154  1.00  0.00    -0.206 OA 
HETATM   24  N   UNL     1      -9.744   5.084  73.452  1.00  0.00    -0.142 N  
BRANCH  24  25
HETATM   25  C   UNL     1      -9.561   3.829  72.725  1.00  0.00    -0.130 C  
HETATM   26 CL   UNL     1      -9.170   2.348  70.491  1.00  0.00    -0.184 Cl 
HETATM   27  C   UNL     1      -9.422   3.958  71.215  1.00  0.00    -0.159 C  
ENDBRANCH  24  25
BRANCH  24  28
HETATM   28  C   UNL     1      -8.709   5.604  74.350  1.00  0.00    -0.114 C  
HETATM   29 CL   UNL     1      -6.888   6.257  72.410  1.00  0.00    -0.069 Cl 
HETATM   30  C   UNL     1      -7.263   5.385  73.911  1.00  0.00    -0.086 C  
ENDBRANCH  24  28
ENDBRANCH  21  22
ENDBRANCH  15  21
TORSDOF 4
ENDMDL
MODEL      127
REMARK 921   NORMALIZED FREE ENERGY PREDICTED BY IDOCK:   -4.48 KCAL/MOL
REMARK 922        TOTAL FREE ENERGY PREDICTED BY IDOCK:   -6.18 KCAL/MOL
REMARK 923 INTER-LIGAND FREE ENERGY PREDICTED BY IDOCK:   -5.69 KCAL/MOL
REMARK 924 INTRA-LIGAND FREE ENERGY PREDICTED BY IDOCK:   -0.49 KCAL/MOL
REMARK 927      BINDING AFFINITY PREDICTED BY RF-SCORE:    0.00 PKD
ROOT
HETATM    1  C   UNL     1     -11.876  13.060  66.895  1.00  0.00    -0.442 C  
HETATM    2  C   UNL     1     -10.827  13.837  67.465  1.00  0.00    -0.274 C  
HETATM    3  C   UNL     1     -10.342  13.237  66.186  1.00  0.00    -0.290 C  
HETATM    4  C   UNL     1     -11.861  12.303  65.218  1.00  0.00    -0.355 C  
HETATM    5  O   UNL     1     -12.101  11.737  63.930  1.00  0.00    -0.377 OA 
HETATM    6  C   UNL     1     -11.705  13.659  65.096  1.00  0.00    -0.346 C  
HETATM    7  C   UNL     1     -10.314  13.089  63.997  1.00  0.00    -0.272 C  
HETATM    8  C   UNL     1     -12.646  14.698  64.597  1.00  0.00    -0.173 C  
HETATM    9  H   UNL     1     -12.812  11.300  63.476  1.00  0.00     0.000 HD 
HETATM   10  C   UNL     1      -9.723  11.442  64.479  1.00  0.00    -0.268 C  
HETATM   11  C   UNL     1      -9.977  10.764  66.064  1.00  0.00    -0.295 C  
HETATM   12  C   UNL     1      -9.701   9.272  66.286  1.00  0.00    -0.340 A  
HETATM   13  C   UNL     1      -8.925   8.527  65.377  1.00  0.00    -0.150 A  
HETATM   14  C   UNL     1      -8.477   7.236  65.693  1.00  0.00    -0.138 A  
HETATM   15  C   UNL     1      -8.808   6.677  66.929  1.00  0.00    -0.118 A  
HETATM   16  C   UNL     1      -9.562   7.400  67.845  1.00  0.00    -0.157 A  
HETATM   17  C   UNL     1     -10.898  10.921  68.512  1.00  0.00    -0.262 C  
HETATM   18  C   UNL     1     -10.000   8.699  67.549  1.00  0.00    -0.256 A  
HETATM   19  C   UNL     1     -11.287  11.280  67.085  1.00  0.00    -0.295 C  
HETATM   20  C   UNL     1     -10.780   9.405  68.637  1.00  0.00    -0.196 C  
ENDROOT
BRANCH  15  21
HETATM   21  O   UNL     1      -8.283   5.419  67.276  1.00  0.00    -0.104 OA 
BRANCH  21  22
HETATM   22  C   UNL     1      -7.054   5.418  67.932  1.00  0.00    -0.067 C  
HETATM   23  O   UNL     1      -6.411   6.414  68.247  1.00  0.00    -0.045 OA 
HETATM   24  N   UNL     1      -6.663   4.141  68.316  1.00  0.00    -0.046 N  
BRANCH  24  25
HETATM   25  C   UNL     1      -6.054   4.010  69.639  1.00  0.00    -0.023 C  
HETATM   26 CL   UNL     1      -6.106   3.964  72.347  1.00  0.00    -0.009 Cl 
HETATM   27  C   UNL     1      -6.996   4.192  70.819  1.00  0.00    -0.033 C  
ENDBRANCH  24  25
BRANCH  24  28
HETATM   28  C   UNL     1      -6.810   2.986  67.426  1.00  0.00    -0.045 C  
HETATM   29 CL   UNL     1      -9.325   2.263  68.237  1.00  0.00    -0.255 Cl 
HETATM   30  C   UNL     1      -7.627   1.816  67.967  1.00  0.00    -0.054 C  
ENDBRANCH  24  28
ENDBRANCH  21  22
ENDBRANCH  15  21
TORSDOF 4
ENDMDL
MODEL      128
REMARK 921   NORMALIZED FREE ENERGY PREDICTED BY IDOCK:   -4.47 KCAL/MOL
REMARK 922        TOTAL FREE ENERGY PREDICTED BY IDOCK:   -6.18 KCAL/MOL
REMARK 923 INTER-LIGAND FREE ENERGY PREDICTED BY IDOCK:   -5.56 KCAL/MOL
REMARK 924 INTRA-LIGAND FREE ENERGY PREDICTED BY IDOCK:   -0.62 KCAL/MOL
REMARK 927      BINDING AFFINITY PREDICTED BY RF-SCORE:    0.00 PKD
ROOT
HETATM    1  C   UNL     1     -11.585  15.275  68.058  1.00  0.00    -0.325 C  
HETATM    2  C   UNL     1     -11.762  15.290  69.471  1.00  0.00    -0.359 C  
HETATM    3  C   UNL     1     -10.300  15.281  69.169  1.00  0.00    -0.248 C  
HETATM    4  C   UNL     1      -9.985  15.486  67.174  1.00  0.00    -0.242 C  
HETATM    5  O   UNL     1      -8.885  15.741  66.300  1.00  0.00    -0.304 OA 
HETATM    6  C   UNL     1     -10.218  16.594  67.947  1.00  0.00    -0.284 C  
HETATM    7  C   UNL     1      -8.460  16.234  68.446  1.00  0.00    -0.195 C  
HETATM    8  C   UNL     1     -10.592  17.981  67.558  1.00  0.00    -0.402 C  
HETATM    9  H   UNL     1      -8.738  15.837  65.367  1.00  0.00     0.000 HD 
HETATM   10  C   UNL     1      -8.062  14.474  68.240  1.00  0.00    -0.140 C  
HETATM   11  C   UNL     1      -9.273  13.224  68.179  1.00  0.00    -0.212 C  
HETATM   12  C   UNL     1      -8.867  11.819  67.717  1.00  0.00    -0.163 A  
HETATM   13  C   UNL     1      -7.518  11.418  67.689  1.00  0.00    -0.103 A  
HETATM   14  C   UNL     1      -7.162  10.075  67.497  1.00  0.00    -0.089 A  
HETATM   15  C   UNL     1      -8.164   9.118  67.327  1.00  0.00    -0.114 A  
HETATM   16  C   UNL     1      -9.502   9.490  67.363  1.00  0.00    -0.164 A  
HETATM   17  C   UNL     1     -11.770  12.435  68.264  1.00  0.00    -0.398 C  
HETATM   18  C   UNL     1      -9.871  10.826  67.574  1.00  0.00    -0.197 A  
HETATM   19  C   UNL     1     -10.911  13.554  67.693  1.00  0.00    -0.273 C  
HETATM   20  C   UNL     1     -11.356  11.109  67.634  1.00  0.00    -0.356 C  
ENDROOT
BRANCH  15  21
HETATM   21  O   UNL     1      -7.807   7.761  67.222  1.00  0.00    -0.113 OA 
BRANCH  21  22
HETATM   22  C   UNL     1      -7.643   7.260  65.932  1.00  0.00    -0.090 C  
HETATM   23  O   UNL     1      -6.926   7.745  65.063  1.00  0.00    -0.057 OA 
HETATM   24  N   UNL     1      -8.299   6.049  65.750  1.00  0.00    -0.136 N  
BRANCH  24  25
HETATM   25  C   UNL     1      -7.590   5.025  64.985  1.00  0.00    -0.078 C  
HETATM   26 CL   UNL     1      -5.702   3.112  64.649  1.00  0.00    -0.013 Cl 
HETATM   27  C   UNL     1      -6.430   4.352  65.703  1.00  0.00    -0.040 C  
ENDBRANCH  24  25
BRANCH  24  28
HETATM   28  C   UNL     1      -9.654   5.819  66.260  1.00  0.00    -0.134 C  
HETATM   29 CL   UNL     1      -8.926   4.525  68.562  1.00  0.00    -0.133 Cl 
HETATM   30  C   UNL     1      -9.867   4.534  67.056  1.00  0.00    -0.202 C  
ENDBRANCH  24  28
ENDBRANCH  21  22
ENDBRANCH  15  21
TORSDOF 4
ENDMDL
MODEL      129
REMARK 921   NORMALIZED FREE ENERGY PREDICTED BY IDOCK:   -4.44 KCAL/MOL
REMARK 922        TOTAL FREE ENERGY PREDICTED BY IDOCK:   -6.14 KCAL/MOL
REMARK 923 INTER-LIGAND FREE ENERGY PREDICTED BY IDOCK:   -5.94 KCAL/MOL
REMARK 924 INTRA-LIGAND FREE ENERGY PREDICTED BY IDOCK:   -0.20 KCAL/MOL
REMARK 927      BINDING AFFINITY PREDICTED BY RF-SCORE:    0.00 PKD
ROOT
HETATM    1  C   UNL     1      -7.504   4.932  71.384  1.00  0.00    -0.078 C  
HETATM    2  C   UNL     1      -7.256   5.296  72.738  1.00  0.00    -0.090 C  
HETATM    3  C   UNL     1      -8.700   5.524  72.435  1.00  0.00    -0.128 C  
HETATM    4  C   UNL     1      -9.160   4.813  70.590  1.00  0.00    -0.128 C  
HETATM    5  O   UNL     1     -10.335   4.551  69.823  1.00  0.00    -0.116 OA 
HETATM    6  C   UNL     1      -9.116   3.958  71.661  1.00  0.00    -0.170 C  
HETATM    7  C   UNL     1     -10.733   4.812  72.015  1.00  0.00    -0.116 C  
HETATM    8  C   UNL     1      -9.055   2.472  71.708  1.00  0.00    -0.149 C  
HETATM    9  H   UNL     1     -10.551   4.218  68.961  1.00  0.00     0.000 HD 
HETATM   10  C   UNL     1     -10.774   6.476  71.288  1.00  0.00    -0.280 C  
HETATM   11  C   UNL     1      -9.339   7.367  70.866  1.00  0.00    -0.155 C  
HETATM   12  C   UNL     1      -9.474   8.627  70.002  1.00  0.00    -0.170 A  
HETATM   13  C   UNL     1     -10.713   9.278  69.844  1.00  0.00    -0.253 A  
HETATM   14  C   UNL     1     -10.797  10.548  69.256  1.00  0.00    -0.284 A  
HETATM   15  C   UNL     1      -9.631  11.179  68.816  1.00  0.00    -0.172 A  
HETATM   16  C   UNL     1      -8.397  10.560  68.973  1.00  0.00    -0.154 A  
HETATM   17  C   UNL     1      -6.732   7.600  70.733  1.00  0.00    -0.042 C  
HETATM   18  C   UNL     1      -8.298   9.298  69.577  1.00  0.00    -0.131 A  
HETATM   19  C   UNL     1      -7.832   6.571  70.516  1.00  0.00    -0.106 C  
HETATM   20  C   UNL     1      -6.901   8.739  69.731  1.00  0.00    -0.046 C  
ENDROOT
BRANCH  15  21
HETATM   21  O   UNL     1      -9.710  12.488  68.307  1.00  0.00    -0.219 OA 
BRANCH  21  22
HETATM   22  C   UNL     1      -9.951  12.610  66.940  1.00  0.00    -0.230 C  
HETATM   23  O   UNL     1      -9.225  12.185  66.046  1.00  0.00    -0.209 OA 
HETATM   24  N   UNL     1     -11.191  13.175  66.672  1.00  0.00    -0.296 N  
BRANCH  24  25
HETATM   25  C   UNL     1     -11.956  12.590  65.572  1.00  0.00    -0.442 C  
HETATM   26 CL   UNL     1     -12.465  12.093  62.958  1.00  0.00    -0.333 Cl 
HETATM   27  C   UNL     1     -11.448  12.908  64.174  1.00  0.00    -0.396 C  
ENDBRANCH  24  25
BRANCH  24  28
HETATM   28  C   UNL     1     -11.694  14.329  67.422  1.00  0.00    -0.394 C  
HETATM   29 CL   UNL     1     -10.514  16.263  65.880  1.00  0.00    -0.357 Cl 
HETATM   30  C   UNL     1     -10.774  15.546  67.484  1.00  0.00    -0.300 C  
ENDBRANCH  24  28
ENDBRANCH  21  22
ENDBRANCH  15  21
TORSDOF 4
ENDMDL
MODEL      130
REMARK 921   NORMALIZED FREE ENERGY PREDICTED BY IDOCK:   -4.42 KCAL/MOL
REMARK 922        TOTAL FREE ENERGY PREDICTED BY IDOCK:   -6.12 KCAL/MOL
REMARK 923 INTER-LIGAND FREE ENERGY PREDICTED BY IDOCK:   -5.76 KCAL/MOL
REMARK 924 INTRA-LIGAND FREE ENERGY PREDICTED BY IDOCK:   -0.36 KCAL/MOL
REMARK 927      BINDING AFFINITY PREDICTED BY RF-SCORE:    0.00 PKD
ROOT
HETATM    1  C   UNL     1      -5.820  18.563  66.927  1.00  0.00    -0.163 C  
HETATM    2  C   UNL     1      -5.528  18.325  65.554  1.00  0.00    -0.221 C  
HETATM    3  C   UNL     1      -7.006  18.460  65.716  1.00  0.00    -0.288 C  
HETATM    4  C   UNL     1      -7.465  19.023  67.612  1.00  0.00    -0.229 C  
HETATM    5  O   UNL     1      -8.608  19.492  68.326  1.00  0.00    -0.326 OA 
HETATM    6  C   UNL     1      -7.085  19.965  66.692  1.00  0.00    -0.253 C  
HETATM    7  C   UNL     1      -8.819  19.637  66.098  1.00  0.00    -0.367 C  
HETATM    8  C   UNL     1      -6.636  21.372  66.880  1.00  0.00    -0.267 C  
HETATM    9  H   UNL     1      -8.823  19.756  69.212  1.00  0.00     0.000 HD 
HETATM   10  C   UNL     1      -9.368  17.967  66.553  1.00  0.00    -0.294 C  
HETATM   11  C   UNL     1      -8.267  16.672  66.931  1.00  0.00    -0.247 C  
HETATM   12  C   UNL     1      -8.818  15.395  67.579  1.00  0.00    -0.190 A  
HETATM   13  C   UNL     1     -10.192  15.091  67.547  1.00  0.00    -0.234 A  
HETATM   14  C   UNL     1     -10.665  13.826  67.924  1.00  0.00    -0.256 A  
HETATM   15  C   UNL     1      -9.758  12.850  68.342  1.00  0.00    -0.186 A  
HETATM   16  C   UNL     1      -8.397  13.125  68.369  1.00  0.00    -0.122 A  
HETATM   17  C   UNL     1      -5.840  15.724  67.210  1.00  0.00     0.036 C  
HETATM   18  C   UNL     1      -7.909  14.380  67.977  1.00  0.00    -0.141 A  
HETATM   19  C   UNL     1      -6.654  16.976  67.506  1.00  0.00    -0.169 C  
HETATM   20  C   UNL     1      -6.406  14.553  68.009  1.00  0.00    -0.162 C  
ENDROOT
BRANCH  15  21
HETATM   21  O   UNL     1     -10.228  11.557  68.635  1.00  0.00    -0.204 OA 
BRANCH  21  22
HETATM   22  C   UNL     1     -10.015  10.583  67.661  1.00  0.00    -0.173 C  
HETATM   23  O   UNL     1      -9.740  10.798  66.484  1.00  0.00    -0.186 OA 
HETATM   24  N   UNL     1     -10.029   9.298  68.188  1.00  0.00    -0.170 N  
BRANCH  24  25
HETATM   25  C   UNL     1      -9.024   8.367  67.678  1.00  0.00    -0.135 C  
HETATM   26 CL   UNL     1      -8.102   6.485  65.961  1.00  0.00    -0.115 Cl 
HETATM   27  C   UNL     1      -9.448   7.534  66.477  1.00  0.00    -0.179 C  
ENDBRANCH  24  25
BRANCH  24  28
HETATM   28  C   UNL     1     -11.029   8.877  69.174  1.00  0.00     0.024 C  
HETATM   29 CL   UNL     1      -9.432   9.127  71.387  1.00  0.00    -0.325 Cl 
HETATM   30  C   UNL     1     -10.500   8.119  70.389  1.00  0.00    -0.215 C  
ENDBRANCH  24  28
ENDBRANCH  21  22
ENDBRANCH  15  21
TORSDOF 4
ENDMDL
MODEL      131
REMARK 921   NORMALIZED FREE ENERGY PREDICTED BY IDOCK:   -4.42 KCAL/MOL
REMARK 922        TOTAL FREE ENERGY PREDICTED BY IDOCK:   -6.12 KCAL/MOL
REMARK 923 INTER-LIGAND FREE ENERGY PREDICTED BY IDOCK:   -5.29 KCAL/MOL
REMARK 924 INTRA-LIGAND FREE ENERGY PREDICTED BY IDOCK:   -0.83 KCAL/MOL
REMARK 927      BINDING AFFINITY PREDICTED BY RF-SCORE:    0.00 PKD
ROOT
HETATM    1  C   UNL     1     -11.723   6.328  71.919  1.00  0.00    -0.370 C  
HETATM    2  C   UNL     1     -10.962   6.160  73.110  1.00  0.00    -0.258 C  
HETATM    3  C   UNL     1     -10.373   7.278  72.316  1.00  0.00    -0.239 C  
HETATM    4  C   UNL     1     -11.547   7.711  70.718  1.00  0.00    -0.265 C  
HETATM    5  O   UNL     1     -11.653   8.740  69.734  1.00  0.00    -0.437 OA 
HETATM    6  C   UNL     1     -11.853   8.226  71.950  1.00  0.00    -0.380 C  
HETATM    7  C   UNL     1     -10.411   9.319  71.510  1.00  0.00    -0.364 C  
HETATM    8  C   UNL     1     -13.109   8.849  72.451  1.00  0.00    -0.476 C  
HETATM    9  H   UNL     1     -12.202   8.943  68.987  1.00  0.00     0.000 HD 
HETATM   10  C   UNL     1      -9.285   8.492  70.350  1.00  0.00    -0.173 C  
HETATM   11  C   UNL     1      -9.219   6.762  70.156  1.00  0.00    -0.155 C  
HETATM   12  C   UNL     1      -8.456   6.178  68.961  1.00  0.00    -0.118 A  
HETATM   13  C   UNL     1      -7.525   6.949  68.238  1.00  0.00    -0.099 A  
HETATM   14  C   UNL     1      -6.660   6.357  67.305  1.00  0.00    -0.058 A  
HETATM   15  C   UNL     1      -6.724   4.980  67.087  1.00  0.00    -0.055 A  
HETATM   16  C   UNL     1      -7.626   4.198  67.799  1.00  0.00    -0.068 A  
HETATM   17  C   UNL     1     -10.013   4.345  70.784  1.00  0.00    -0.247 C  
HETATM   18  C   UNL     1      -8.483   4.775  68.748  1.00  0.00    -0.087 A  
HETATM   19  C   UNL     1     -10.572   5.741  70.547  1.00  0.00    -0.359 C  
HETATM   20  C   UNL     1      -9.394   3.823  69.491  1.00  0.00    -0.249 C  
ENDROOT
BRANCH  15  21
HETATM   21  O   UNL     1      -5.797   4.379  66.217  1.00  0.00    -0.021 OA 
BRANCH  21  22
HETATM   22  C   UNL     1      -6.325   3.619  65.175  1.00  0.00    -0.028 C  
HETATM   23  O   UNL     1      -6.446   2.398  65.171  1.00  0.00    -0.023 OA 
HETATM   24  N   UNL     1      -6.828   4.409  64.149  1.00  0.00    -0.044 N  
BRANCH  24  25
HETATM   25  C   UNL     1      -8.090   3.982  63.548  1.00  0.00    -0.089 C  
HETATM   26 CL   UNL     1     -10.766   3.562  63.555  1.00  0.00    -0.262 Cl 
HETATM   27  C   UNL     1      -9.314   4.082  64.447  1.00  0.00    -0.159 C  
ENDBRANCH  24  25
BRANCH  24  28
HETATM   28  C   UNL     1      -6.109   5.589  63.658  1.00  0.00    -0.021 C  
HETATM   29 CL   UNL     1      -7.983   7.447  64.397  1.00  0.00    -0.130 Cl 
HETATM   30  C   UNL     1      -6.972   6.730  63.125  1.00  0.00    -0.052 C  
ENDBRANCH  24  28
ENDBRANCH  21  22
ENDBRANCH  15  21
TORSDOF 4
ENDMDL
MODEL      132
REMARK 921   NORMALIZED FREE ENERGY PREDICTED BY IDOCK:   -4.38 KCAL/MOL
REMARK 922        TOTAL FREE ENERGY PREDICTED BY IDOCK:   -6.06 KCAL/MOL
REMARK 923 INTER-LIGAND FREE ENERGY PREDICTED BY IDOCK:   -5.73 KCAL/MOL
REMARK 924 INTRA-LIGAND FREE ENERGY PREDICTED BY IDOCK:   -0.33 KCAL/MOL
REMARK 927      BINDING AFFINITY PREDICTED BY RF-SCORE:    0.00 PKD
ROOT
HETATM    1  C   UNL     1      -6.529   6.772  73.122  1.00  0.00    -0.063 C  
HETATM    2  C   UNL     1      -6.295   7.670  74.201  1.00  0.00    -0.084 C  
HETATM    3  C   UNL     1      -7.768   7.538  73.995  1.00  0.00    -0.164 C  
HETATM    4  C   UNL     1      -8.168   6.101  72.619  1.00  0.00    -0.107 C  
HETATM    5  O   UNL     1      -9.307   5.385  72.143  1.00  0.00    -0.142 OA 
HETATM    6  C   UNL     1      -7.923   5.751  73.922  1.00  0.00    -0.106 C  
HETATM    7  C   UNL     1      -9.652   6.419  74.102  1.00  0.00    -0.242 C  
HETATM    8  C   UNL     1      -7.589   4.430  74.519  1.00  0.00    -0.080 C  
HETATM    9  H   UNL     1      -9.494   4.712  71.499  1.00  0.00     0.000 HD 
HETATM   10  C   UNL     1     -10.028   7.638  72.811  1.00  0.00    -0.298 C  
HETATM   11  C   UNL     1      -8.799   8.501  71.928  1.00  0.00    -0.284 C  
HETATM   12  C   UNL     1      -9.200   9.285  70.672  1.00  0.00    -0.321 A  
HETATM   13  C   UNL     1     -10.542   9.625  70.418  1.00  0.00    -0.354 A  
HETATM   14  C   UNL     1     -10.882  10.536  69.407  1.00  0.00    -0.291 A  
HETATM   15  C   UNL     1      -9.872  11.113  68.635  1.00  0.00    -0.202 A  
HETATM   16  C   UNL     1      -8.540  10.801  68.877  1.00  0.00    -0.155 A  
HETATM   17  C   UNL     1      -6.287   9.057  71.430  1.00  0.00    -0.080 C  
HETATM   18  C   UNL     1      -8.186   9.907  69.898  1.00  0.00    -0.199 A  
HETATM   19  C   UNL     1      -7.189   7.870  71.740  1.00  0.00    -0.071 C  
HETATM   20  C   UNL     1      -6.704   9.672  70.098  1.00  0.00    -0.089 C  
ENDROOT
BRANCH  15  21
HETATM   21  O   UNL     1     -10.210  12.091  67.682  1.00  0.00    -0.195 OA 
BRANCH  21  22
HETATM   22  C   UNL     1      -9.727  13.377  67.913  1.00  0.00    -0.226 C  
HETATM   23  O   UNL     1      -8.544  13.693  67.992  1.00  0.00    -0.156 OA 
HETATM   24  N   UNL     1     -10.742  14.326  67.931  1.00  0.00    -0.238 N  
BRANCH  24  25
HETATM   25  C   UNL     1     -10.465  15.598  67.266  1.00  0.00    -0.292 C  
HETATM   26 CL   UNL     1     -10.733  17.406  65.266  1.00  0.00    -0.138 Cl 
HETATM   27  C   UNL     1     -11.144  15.799  65.919  1.00  0.00    -0.103 C  
ENDBRANCH  24  25
BRANCH  24  28
HETATM   28  C   UNL     1     -12.013  14.086  68.619  1.00  0.00    -0.354 C  
HETATM   29 CL   UNL     1     -11.490  15.626  70.824  1.00  0.00    -0.367 Cl 
HETATM   30  C   UNL     1     -11.959  14.054  70.145  1.00  0.00    -0.330 C  
ENDBRANCH  24  28
ENDBRANCH  21  22
ENDBRANCH  15  21
TORSDOF 4
ENDMDL
MODEL      133
REMARK 921   NORMALIZED FREE ENERGY PREDICTED BY IDOCK:   -4.35 KCAL/MOL
REMARK 922        TOTAL FREE ENERGY PREDICTED BY IDOCK:   -6.03 KCAL/MOL
REMARK 923 INTER-LIGAND FREE ENERGY PREDICTED BY IDOCK:   -5.31 KCAL/MOL
REMARK 924 INTRA-LIGAND FREE ENERGY PREDICTED BY IDOCK:   -0.72 KCAL/MOL
REMARK 927      BINDING AFFINITY PREDICTED BY RF-SCORE:    0.00 PKD
ROOT
HETATM    1  C   UNL     1     -10.942  11.858  66.435  1.00  0.00    -0.337 C  
HETATM    2  C   UNL     1     -10.109  12.807  67.092  1.00  0.00    -0.234 C  
HETATM    3  C   UNL     1      -9.245  11.777  66.441  1.00  0.00    -0.223 C  
HETATM    4  C   UNL     1     -10.367  10.526  65.303  1.00  0.00    -0.229 C  
HETATM    5  O   UNL     1     -10.149   9.513  64.320  1.00  0.00    -0.239 OA 
HETATM    6  C   UNL     1      -9.974  11.739  64.800  1.00  0.00    -0.275 C  
HETATM    7  C   UNL     1      -8.360  10.817  64.678  1.00  0.00     0.021 C  
HETATM    8  C   UNL     1     -10.467  12.500  63.620  1.00  0.00    -0.418 C  
HETATM    9  H   UNL     1     -10.674   8.928  63.788  1.00  0.00     0.000 HD 
HETATM   10  C   UNL     1      -8.268   9.480  65.903  1.00  0.00    -0.115 C  
HETATM   11  C   UNL     1      -9.237   9.445  67.350  1.00  0.00    -0.145 C  
HETATM   12  C   UNL     1      -9.301   8.150  68.169  1.00  0.00    -0.139 A  
HETATM   13  C   UNL     1      -8.346   7.129  68.001  1.00  0.00    -0.119 A  
HETATM   14  C   UNL     1      -8.262   6.058  68.903  1.00  0.00    -0.104 A  
HETATM   15  C   UNL     1      -9.142   6.001  69.985  1.00  0.00    -0.146 A  
HETATM   16  C   UNL     1     -10.084   7.004  70.176  1.00  0.00    -0.197 A  
HETATM   17  C   UNL     1     -11.031  10.499  68.942  1.00  0.00    -0.291 C  
HETATM   18  C   UNL     1     -10.166   8.090  69.292  1.00  0.00    -0.214 A  
HETATM   19  C   UNL     1     -10.754  10.288  67.460  1.00  0.00    -0.348 C  
HETATM   20  C   UNL     1     -11.202   9.143  69.621  1.00  0.00    -0.026 C  
ENDROOT
BRANCH  15  21
HETATM   21  O   UNL     1      -8.997   4.973  70.935  1.00  0.00    -0.128 OA 
BRANCH  21  22
HETATM   22  C   UNL     1      -7.907   5.074  71.797  1.00  0.00    -0.108 C  
HETATM   23  O   UNL     1      -6.743   4.810  71.512  1.00  0.00    -0.036 OA 
HETATM   24  N   UNL     1      -8.254   5.632  73.022  1.00  0.00    -0.118 N  
BRANCH  24  25
HETATM   25  C   UNL     1      -7.314   6.593  73.596  1.00  0.00    -0.083 C  
HETATM   26 CL   UNL     1      -6.131   9.023  73.783  1.00  0.00    -0.044 Cl 
HETATM   27  C   UNL     1      -7.297   7.967  72.944  1.00  0.00    -0.112 C  
ENDBRANCH  24  25
BRANCH  24  28
HETATM   28  C   UNL     1      -9.479   5.246  73.728  1.00  0.00    -0.133 C  
HETATM   29 CL   UNL     1     -10.844   7.588  73.323  1.00  0.00    -0.443 Cl 
HETATM   30  C   UNL     1     -10.221   6.367  74.453  1.00  0.00    -0.324 C  
ENDBRANCH  24  28
ENDBRANCH  21  22
ENDBRANCH  15  21
TORSDOF 4
ENDMDL
MODEL      134
REMARK 921   NORMALIZED FREE ENERGY PREDICTED BY IDOCK:   -4.35 KCAL/MOL
REMARK 922        TOTAL FREE ENERGY PREDICTED BY IDOCK:   -6.03 KCAL/MOL
REMARK 923 INTER-LIGAND FREE ENERGY PREDICTED BY IDOCK:   -5.47 KCAL/MOL
REMARK 924 INTRA-LIGAND FREE ENERGY PREDICTED BY IDOCK:   -0.56 KCAL/MOL
REMARK 927      BINDING AFFINITY PREDICTED BY RF-SCORE:    0.00 PKD
ROOT
HETATM    1  C   UNL     1     -11.164  16.445  67.955  1.00  0.00    -0.184 C  
HETATM    2  C   UNL     1     -11.201  16.627  69.366  1.00  0.00    -0.085 C  
HETATM    3  C   UNL     1      -9.803  16.846  68.889  1.00  0.00    -0.267 C  
HETATM    4  C   UNL     1      -9.733  16.820  66.861  1.00  0.00    -0.257 C  
HETATM    5  O   UNL     1      -8.798  17.147  65.833  1.00  0.00    -0.520 OA 
HETATM    6  C   UNL     1     -10.105  17.965  67.517  1.00  0.00    -0.343 C  
HETATM    7  C   UNL     1      -8.271  18.010  67.834  1.00  0.00    -0.248 C  
HETATM    8  C   UNL     1     -10.786  19.188  67.012  1.00  0.00    -0.542 C  
HETATM    9  H   UNL     1      -8.765  17.135  64.884  1.00  0.00     0.000 HD 
HETATM   10  C   UNL     1      -7.551  16.344  67.794  1.00  0.00    -0.160 C  
HETATM   11  C   UNL     1      -8.488  14.895  68.035  1.00  0.00    -0.151 C  
HETATM   12  C   UNL     1      -7.857  13.539  67.699  1.00  0.00    -0.178 A  
HETATM   13  C   UNL     1      -6.464  13.394  67.553  1.00  0.00    -0.129 A  
HETATM   14  C   UNL     1      -5.868  12.127  67.482  1.00  0.00    -0.122 A  
HETATM   15  C   UNL     1      -6.670  10.986  67.554  1.00  0.00    -0.072 A  
HETATM   16  C   UNL     1      -8.045  11.105  67.711  1.00  0.00    -0.117 A  
HETATM   17  C   UNL     1     -10.757  13.678  68.524  1.00  0.00    -0.269 C  
HETATM   18  C   UNL     1      -8.652  12.367  67.803  1.00  0.00    -0.172 A  
HETATM   19  C   UNL     1     -10.198  14.844  67.720  1.00  0.00    -0.236 C  
HETATM   20  C   UNL     1     -10.150  12.375  68.012  1.00  0.00    -0.214 C  
ENDROOT
BRANCH  15  21
HETATM   21  O   UNL     1      -6.061   9.718  67.571  1.00  0.00    -0.057 OA 
BRANCH  21  22
HETATM   22  C   UNL     1      -6.903   8.627  67.776  1.00  0.00    -0.067 C  
HETATM   23  O   UNL     1      -7.290   8.218  68.867  1.00  0.00    -0.085 OA 
HETATM   24  N   UNL     1      -7.377   8.095  66.584  1.00  0.00    -0.081 N  
BRANCH  24  25
HETATM   25  C   UNL     1      -8.782   7.692  66.555  1.00  0.00    -0.149 C  
HETATM   26 CL   UNL     1     -10.798   5.890  66.709  1.00  0.00    -0.377 Cl 
HETATM   27  C   UNL     1      -9.043   6.204  66.731  1.00  0.00    -0.133 C  
ENDBRANCH  24  25
BRANCH  24  28
HETATM   28  C   UNL     1      -6.504   7.903  65.422  1.00  0.00    -0.041 C  
HETATM   29 CL   UNL     1      -7.194  10.205  64.107  1.00  0.00    -0.130 Cl 
HETATM   30  C   UNL     1      -7.026   8.437  64.091  1.00  0.00    -0.078 C  
ENDBRANCH  24  28
ENDBRANCH  21  22
ENDBRANCH  15  21
TORSDOF 4
ENDMDL
MODEL      135
REMARK 921   NORMALIZED FREE ENERGY PREDICTED BY IDOCK:   -4.35 KCAL/MOL
REMARK 922        TOTAL FREE ENERGY PREDICTED BY IDOCK:   -6.02 KCAL/MOL
REMARK 923 INTER-LIGAND FREE ENERGY PREDICTED BY IDOCK:   -5.40 KCAL/MOL
REMARK 924 INTRA-LIGAND FREE ENERGY PREDICTED BY IDOCK:   -0.63 KCAL/MOL
REMARK 927      BINDING AFFINITY PREDICTED BY RF-SCORE:    0.00 PKD
ROOT
HETATM    1  C   UNL     1      -8.962   3.793  68.951  1.00  0.00    -0.178 C  
HETATM    2  C   UNL     1      -8.789   3.044  67.753  1.00  0.00    -0.161 C  
HETATM    3  C   UNL     1      -7.659   4.011  67.884  1.00  0.00    -0.067 C  
HETATM    4  C   UNL     1      -7.731   4.950  69.682  1.00  0.00    -0.063 C  
HETATM    5  O   UNL     1      -6.887   5.790  70.468  1.00  0.00    -0.052 OA 
HETATM    6  C   UNL     1      -7.169   3.703  69.584  1.00  0.00    -0.042 C  
HETATM    7  C   UNL     1      -5.805   4.717  68.823  1.00  0.00    -0.021 C  
HETATM    8  C   UNL     1      -6.833   2.711  70.641  1.00  0.00    -0.033 C  
HETATM    9  H   UNL     1      -6.920   6.229  71.310  1.00  0.00     0.000 HD 
HETATM   10  C   UNL     1      -6.449   6.250  68.093  1.00  0.00    -0.049 C  
HETATM   11  C   UNL     1      -8.115   6.458  67.630  1.00  0.00    -0.114 C  
HETATM   12  C   UNL     1      -8.622   7.867  67.297  1.00  0.00    -0.128 A  
HETATM   13  C   UNL     1      -7.730   8.917  67.005  1.00  0.00    -0.098 A  
HETATM   14  C   UNL     1      -8.187  10.132  66.474  1.00  0.00    -0.124 A  
HETATM   15  C   UNL     1      -9.551  10.306  66.232  1.00  0.00    -0.189 A  
HETATM   16  C   UNL     1     -10.447   9.278  66.501  1.00  0.00    -0.204 A  
HETATM   17  C   UNL     1     -10.563   5.557  67.379  1.00  0.00    -0.274 C  
HETATM   18  C   UNL     1     -10.001   8.052  67.014  1.00  0.00    -0.324 A  
HETATM   19  C   UNL     1      -9.394   5.528  68.354  1.00  0.00    -0.130 C  
HETATM   20  C   UNL     1     -11.059   6.992  67.230  1.00  0.00    -0.302 C  
ENDROOT
BRANCH  15  21
HETATM   21  O   UNL     1      -9.994  11.492  65.619  1.00  0.00    -0.218 OA 
BRANCH  21  22
HETATM   22  C   UNL     1     -10.925  12.248  66.328  1.00  0.00    -0.291 C  
HETATM   23  O   UNL     1     -12.144  12.119  66.270  1.00  0.00    -0.626 OA 
HETATM   24  N   UNL     1     -10.322  13.116  67.230  1.00  0.00    -0.242 N  
BRANCH  24  25
HETATM   25  C   UNL     1     -10.954  13.246  68.541  1.00  0.00    -0.266 C  
HETATM   26 CL   UNL     1     -12.504  14.490  70.382  1.00  0.00    -0.391 Cl 
HETATM   27  C   UNL     1     -11.778  14.507  68.754  1.00  0.00    -0.327 C  
ENDBRANCH  24  25
BRANCH  24  28
HETATM   28  C   UNL     1      -9.136  13.901  66.873  1.00  0.00    -0.245 C  
HETATM   29 CL   UNL     1      -7.461  12.844  68.766  1.00  0.00    -0.088 Cl 
HETATM   30  C   UNL     1      -8.205  14.275  68.022  1.00  0.00    -0.153 C  
ENDBRANCH  24  28
ENDBRANCH  21  22
ENDBRANCH  15  21
TORSDOF 4
ENDMDL
MODEL      136
REMARK 921   NORMALIZED FREE ENERGY PREDICTED BY IDOCK:   -4.31 KCAL/MOL
REMARK 922        TOTAL FREE ENERGY PREDICTED BY IDOCK:   -5.98 KCAL/MOL
REMARK 923 INTER-LIGAND FREE ENERGY PREDICTED BY IDOCK:   -5.33 KCAL/MOL
REMARK 924 INTRA-LIGAND FREE ENERGY PREDICTED BY IDOCK:   -0.66 KCAL/MOL
REMARK 927      BINDING AFFINITY PREDICTED BY RF-SCORE:    0.00 PKD
ROOT
HETATM    1  C   UNL     1      -8.654   5.633  65.360  1.00  0.00    -0.150 C  
HETATM    2  C   UNL     1      -7.306   5.481  64.925  1.00  0.00    -0.068 C  
HETATM    3  C   UNL     1      -7.311   5.749  66.394  1.00  0.00    -0.078 C  
HETATM    4  C   UNL     1      -9.209   5.751  67.111  1.00  0.00    -0.115 C  
HETATM    5  O   UNL     1      -9.857   5.745  68.383  1.00  0.00    -0.127 OA 
HETATM    6  C   UNL     1      -8.548   4.564  66.932  1.00  0.00    -0.104 C  
HETATM    7  C   UNL     1      -7.693   5.164  68.474  1.00  0.00    -0.079 C  
HETATM    8  C   UNL     1      -9.065   3.169  66.884  1.00  0.00    -0.191 C  
HETATM    9  H   UNL     1     -10.746   5.746  68.718  1.00  0.00     0.000 HD 
HETATM   10  C   UNL     1      -7.738   6.975  68.593  1.00  0.00    -0.120 C  
HETATM   11  C   UNL     1      -7.984   8.014  67.217  1.00  0.00    -0.121 C  
HETATM   12  C   UNL     1      -8.294   9.498  67.454  1.00  0.00    -0.125 A  
HETATM   13  C   UNL     1      -8.034  10.112  68.694  1.00  0.00    -0.103 A  
HETATM   14  C   UNL     1      -8.092  11.505  68.841  1.00  0.00    -0.035 A  
HETATM   15  C   UNL     1      -8.416  12.299  67.739  1.00  0.00    -0.163 A  
HETATM   16  C   UNL     1      -8.664  11.715  66.503  1.00  0.00    -0.182 A  
HETATM   17  C   UNL     1      -8.363   8.382  64.651  1.00  0.00    -0.137 C  
HETATM   18  C   UNL     1      -8.590  10.324  66.338  1.00  0.00    -0.138 A  
HETATM   19  C   UNL     1      -8.800   7.463  65.783  1.00  0.00    -0.106 C  
HETATM   20  C   UNL     1      -8.839   9.802  64.940  1.00  0.00    -0.230 C  
ENDROOT
BRANCH  15  21
HETATM   21  O   UNL     1      -8.388  13.700  67.869  1.00  0.00    -0.148 OA 
BRANCH  21  22
HETATM   22  C   UNL     1      -9.298  14.414  67.094  1.00  0.00    -0.220 C  
HETATM   23  O   UNL     1      -9.039  15.006  66.050  1.00  0.00    -0.264 OA 
HETATM   24  N   UNL     1     -10.600  14.295  67.565  1.00  0.00    -0.260 N  
BRANCH  24  25
HETATM   25  C   UNL     1     -11.650  14.129  66.562  1.00  0.00    -0.375 C  
HETATM   26 CL   UNL     1     -13.025  12.739  64.687  1.00  0.00    -0.350 Cl 
HETATM   27  C   UNL     1     -11.668  12.789  65.843  1.00  0.00    -0.414 C  
ENDBRANCH  24  25
BRANCH  24  28
HETATM   28  C   UNL     1     -10.916  14.374  68.994  1.00  0.00    -0.256 C  
HETATM   29 CL   UNL     1     -11.490  11.719  69.353  1.00  0.00    -0.348 Cl 
HETATM   30  C   UNL     1     -11.991  13.417  69.502  1.00  0.00    -0.319 C  
ENDBRANCH  24  28
ENDBRANCH  21  22
ENDBRANCH  15  21
TORSDOF 4
ENDMDL
MODEL      137
REMARK 921   NORMALIZED FREE ENERGY PREDICTED BY IDOCK:   -4.30 KCAL/MOL
REMARK 922        TOTAL FREE ENERGY PREDICTED BY IDOCK:   -5.96 KCAL/MOL
REMARK 923 INTER-LIGAND FREE ENERGY PREDICTED BY IDOCK:   -5.95 KCAL/MOL
REMARK 924 INTRA-LIGAND FREE ENERGY PREDICTED BY IDOCK:   -0.02 KCAL/MOL
REMARK 927      BINDING AFFINITY PREDICTED BY RF-SCORE:    0.00 PKD
ROOT
HETATM    1  C   UNL     1      -7.053   5.215  68.550  1.00  0.00    -0.062 C  
HETATM    2  C   UNL     1      -5.784   5.790  68.260  1.00  0.00    -0.012 C  
HETATM    3  C   UNL     1      -6.360   6.474  69.456  1.00  0.00    -0.038 C  
HETATM    4  C   UNL     1      -8.064   5.547  70.052  1.00  0.00    -0.090 C  
HETATM    5  O   UNL     1      -8.941   5.573  71.178  1.00  0.00    -0.138 OA 
HETATM    6  C   UNL     1      -6.846   5.050  70.435  1.00  0.00    -0.044 C  
HETATM    7  C   UNL     1      -6.948   6.523  71.569  1.00  0.00    -0.072 C  
HETATM    8  C   UNL     1      -6.480   3.722  71.001  1.00  0.00    -0.026 C  
HETATM    9  H   UNL     1      -9.739   5.139  71.457  1.00  0.00     0.000 HD 
HETATM   10  C   UNL     1      -8.003   7.824  70.869  1.00  0.00    -0.097 C  
HETATM   11  C   UNL     1      -8.362   7.948  69.169  1.00  0.00    -0.133 C  
HETATM   12  C   UNL     1      -9.481   8.893  68.713  1.00  0.00    -0.144 A  
HETATM   13  C   UNL     1      -9.972   9.908  69.556  1.00  0.00    -0.240 A  
HETATM   14  C   UNL     1     -10.818  10.913  69.066  1.00  0.00    -0.275 A  
HETATM   15  C   UNL     1     -11.184  10.906  67.719  1.00  0.00    -0.317 A  
HETATM   16  C   UNL     1     -10.701   9.921  66.867  1.00  0.00    -0.195 A  
HETATM   17  C   UNL     1      -8.113   7.110  66.699  1.00  0.00    -0.109 C  
HETATM   18  C   UNL     1      -9.839   8.921  67.340  1.00  0.00    -0.247 A  
HETATM   19  C   UNL     1      -8.287   6.570  68.111  1.00  0.00    -0.116 C  
HETATM   20  C   UNL     1      -9.345   7.925  66.315  1.00  0.00    -0.225 C  
ENDROOT
BRANCH  15  21
HETATM   21  O   UNL     1     -11.961  11.965  67.213  1.00  0.00    -0.605 OA 
BRANCH  21  22
HETATM   22  C   UNL     1     -11.386  13.233  67.254  1.00  0.00    -0.314 C  
HETATM   23  O   UNL     1     -10.834  13.737  68.227  1.00  0.00    -0.237 OA 
HETATM   24  N   UNL     1     -11.389  13.853  66.011  1.00  0.00    -0.318 N  
BRANCH  24  25
HETATM   25  C   UNL     1     -10.183  14.592  65.641  1.00  0.00    -0.359 C  
HETATM   26 CL   UNL     1      -8.520  16.729  65.721  1.00  0.00    -0.011 Cl 
HETATM   27  C   UNL     1     -10.055  15.985  66.239  1.00  0.00    -0.313 C  
ENDBRANCH  24  25
BRANCH  24  28
HETATM   28  C   UNL     1     -12.558  13.810  65.128  1.00  0.00    -0.433 C  
HETATM   29 CL   UNL     1     -11.546  12.008  63.328  1.00  0.00    -0.456 Cl 
HETATM   30  C   UNL     1     -12.275  13.597  63.643  1.00  0.00    -0.317 C  
ENDBRANCH  24  28
ENDBRANCH  21  22
ENDBRANCH  15  21
TORSDOF 4
ENDMDL
MODEL      138
REMARK 921   NORMALIZED FREE ENERGY PREDICTED BY IDOCK:   -4.27 KCAL/MOL
REMARK 922        TOTAL FREE ENERGY PREDICTED BY IDOCK:   -5.93 KCAL/MOL
REMARK 923 INTER-LIGAND FREE ENERGY PREDICTED BY IDOCK:   -5.20 KCAL/MOL
REMARK 924 INTRA-LIGAND FREE ENERGY PREDICTED BY IDOCK:   -0.73 KCAL/MOL
REMARK 927      BINDING AFFINITY PREDICTED BY RF-SCORE:    0.00 PKD
ROOT
HETATM    1  C   UNL     1     -12.033  12.391  68.116  1.00  0.00    -0.272 C  
HETATM    2  C   UNL     1     -11.365  13.232  69.051  1.00  0.00    -0.334 C  
HETATM    3  C   UNL     1     -10.418  12.891  67.949  1.00  0.00    -0.231 C  
HETATM    4  C   UNL     1     -11.378  11.880  66.474  1.00  0.00    -0.341 C  
HETATM    5  O   UNL     1     -11.113  11.465  65.134  1.00  0.00    -0.232 OA 
HETATM    6  C   UNL     1     -11.446  13.248  66.521  1.00  0.00    -0.372 C  
HETATM    7  C   UNL     1      -9.710  13.048  65.878  1.00  0.00    -0.187 C  
HETATM    8  C   UNL     1     -12.369  14.193  65.836  1.00  0.00    -0.486 C  
HETATM    9  H   UNL     1     -11.562  10.992  64.444  1.00  0.00     0.000 HD 
HETATM   10  C   UNL     1      -8.996  11.457  66.385  1.00  0.00    -0.196 C  
HETATM   11  C   UNL     1      -9.583  10.540  67.745  1.00  0.00    -0.173 C  
HETATM   12  C   UNL     1      -9.116   9.090  67.919  1.00  0.00    -0.141 A  
HETATM   13  C   UNL     1      -7.980   8.600  67.246  1.00  0.00    -0.101 A  
HETATM   14  C   UNL     1      -7.416   7.360  67.580  1.00  0.00    -0.097 A  
HETATM   15  C   UNL     1      -7.993   6.595  68.596  1.00  0.00    -0.118 A  
HETATM   16  C   UNL     1      -9.106   7.065  69.282  1.00  0.00    -0.137 A  
HETATM   17  C   UNL     1     -11.206  10.223  69.777  1.00  0.00    -0.339 C  
HETATM   18  C   UNL     1      -9.668   8.312  68.970  1.00  0.00    -0.167 A  
HETATM   19  C   UNL     1     -11.210  10.710  68.335  1.00  0.00    -0.347 C  
HETATM   20  C   UNL     1     -10.853   8.739  69.808  1.00  0.00    -0.196 C  
ENDROOT
BRANCH  15  21
HETATM   21  O   UNL     1      -7.373   5.394  68.987  1.00  0.00    -0.067 OA 
BRANCH  21  22
HETATM   22  C   UNL     1      -7.947   4.216  68.512  1.00  0.00    -0.073 C  
HETATM   23  O   UNL     1      -8.978   3.702  68.935  1.00  0.00    -0.102 OA 
HETATM   24  N   UNL     1      -7.284   3.719  67.397  1.00  0.00    -0.063 N  
BRANCH  24  25
HETATM   25  C   UNL     1      -8.116   3.186  66.320  1.00  0.00    -0.089 C  
HETATM   26 CL   UNL     1      -9.796   3.410  64.207  1.00  0.00    -0.164 Cl 
HETATM   27  C   UNL     1      -8.864   4.221  65.493  1.00  0.00    -0.124 C  
ENDBRANCH  24  25
BRANCH  24  28
HETATM   28  C   UNL     1      -5.820   3.686  67.318  1.00  0.00    -0.023 C  
HETATM   29 CL   UNL     1      -5.561   5.496  65.277  1.00  0.00    -0.013 Cl 
HETATM   30  C   UNL     1      -5.216   3.881  65.930  1.00  0.00    -0.009 C  
ENDBRANCH  24  28
ENDBRANCH  21  22
ENDBRANCH  15  21
TORSDOF 4
ENDMDL
MODEL      139
REMARK 921   NORMALIZED FREE ENERGY PREDICTED BY IDOCK:   -4.24 KCAL/MOL
REMARK 922        TOTAL FREE ENERGY PREDICTED BY IDOCK:   -5.89 KCAL/MOL
REMARK 923 INTER-LIGAND FREE ENERGY PREDICTED BY IDOCK:   -5.33 KCAL/MOL
REMARK 924 INTRA-LIGAND FREE ENERGY PREDICTED BY IDOCK:   -0.55 KCAL/MOL
REMARK 927      BINDING AFFINITY PREDICTED BY RF-SCORE:    0.00 PKD
ROOT
HETATM    1  C   UNL     1     -11.324  15.027  67.010  1.00  0.00    -0.319 C  
HETATM    2  C   UNL     1     -11.755  14.818  68.350  1.00  0.00    -0.343 C  
HETATM    3  C   UNL     1     -10.269  14.692  68.298  1.00  0.00    -0.227 C  
HETATM    4  C   UNL     1      -9.576  15.200  66.459  1.00  0.00    -0.271 C  
HETATM    5  O   UNL     1      -8.317  15.472  65.844  1.00  0.00    -0.153 OA 
HETATM    6  C   UNL     1      -9.853  16.178  67.380  1.00  0.00    -0.238 C  
HETATM    7  C   UNL     1      -8.254  15.535  68.085  1.00  0.00    -0.144 C  
HETATM    8  C   UNL     1     -10.032  17.645  67.205  1.00  0.00    -0.316 C  
HETATM    9  H   UNL     1      -7.993  15.710  64.984  1.00  0.00     0.000 HD 
HETATM   10  C   UNL     1      -7.973  13.803  67.617  1.00  0.00    -0.179 C  
HETATM   11  C   UNL     1      -9.253  12.732  67.119  1.00  0.00    -0.219 C  
HETATM   12  C   UNL     1      -8.888  11.390  66.472  1.00  0.00    -0.187 A  
HETATM   13  C   UNL     1      -7.595  10.846  66.592  1.00  0.00    -0.139 A  
HETATM   14  C   UNL     1      -7.324   9.524  66.210  1.00  0.00    -0.093 A  
HETATM   15  C   UNL     1      -8.354   8.733  65.697  1.00  0.00    -0.138 A  
HETATM   16  C   UNL     1      -9.640   9.246  65.581  1.00  0.00    -0.324 A  
HETATM   17  C   UNL     1     -11.781  12.235  66.638  1.00  0.00    -0.417 C  
HETATM   18  C   UNL     1      -9.928  10.560  65.978  1.00  0.00    -0.295 A  
HETATM   19  C   UNL     1     -10.740  13.328  66.441  1.00  0.00    -0.291 C  
HETATM   20  C   UNL     1     -11.370  10.998  65.845  1.00  0.00     0.214 C  
ENDROOT
BRANCH  15  21
HETATM   21  O   UNL     1      -8.098   7.383  65.397  1.00  0.00    -0.121 OA 
BRANCH  21  22
HETATM   22  C   UNL     1      -7.461   6.637  66.386  1.00  0.00    -0.085 C  
HETATM   23  O   UNL     1      -6.272   6.332  66.396  1.00  0.00    -0.034 OA 
HETATM   24  N   UNL     1      -8.299   6.357  67.458  1.00  0.00    -0.117 N  
BRANCH  24  25
HETATM   25  C   UNL     1      -7.714   6.461  68.794  1.00  0.00    -0.101 C  
HETATM   26 CL   UNL     1      -7.641   7.343  71.354  1.00  0.00    -0.081 Cl 
HETATM   27  C   UNL     1      -8.461   7.357  69.771  1.00  0.00    -0.136 C  
ENDBRANCH  24  25
BRANCH  24  28
HETATM   28  C   UNL     1      -9.689   5.935  67.264  1.00  0.00    -0.127 C  
HETATM   29 CL   UNL     1      -9.371   3.351  68.118  1.00  0.00    -0.238 Cl 
HETATM   30  C   UNL     1      -9.901   4.480  66.853  1.00  0.00    -0.213 C  
ENDBRANCH  24  28
ENDBRANCH  21  22
ENDBRANCH  15  21
TORSDOF 4
ENDMDL
MODEL      140
REMARK 921   NORMALIZED FREE ENERGY PREDICTED BY IDOCK:   -4.22 KCAL/MOL
REMARK 922        TOTAL FREE ENERGY PREDICTED BY IDOCK:   -5.87 KCAL/MOL
REMARK 923 INTER-LIGAND FREE ENERGY PREDICTED BY IDOCK:   -5.84 KCAL/MOL
REMARK 924 INTRA-LIGAND FREE ENERGY PREDICTED BY IDOCK:   -0.03 KCAL/MOL
REMARK 927      BINDING AFFINITY PREDICTED BY RF-SCORE:    0.00 PKD
ROOT
HETATM    1  C   UNL     1      -6.883   7.483  67.714  1.00  0.00    -0.071 C  
HETATM    2  C   UNL     1      -7.106   6.883  68.985  1.00  0.00    -0.088 C  
HETATM    3  C   UNL     1      -8.403   6.946  68.248  1.00  0.00    -0.123 C  
HETATM    4  C   UNL     1      -8.108   7.585  66.345  1.00  0.00    -0.114 C  
HETATM    5  O   UNL     1      -8.856   7.669  65.132  1.00  0.00    -0.373 OA 
HETATM    6  C   UNL     1      -7.903   6.268  66.663  1.00  0.00    -0.104 C  
HETATM    7  C   UNL     1      -9.765   6.297  66.655  1.00  0.00    -0.195 C  
HETATM    8  C   UNL     1      -7.191   5.195  65.917  1.00  0.00    -0.073 C  
HETATM    9  H   UNL     1      -8.718   7.968  64.241  1.00  0.00     0.000 HD 
HETATM   10  C   UNL     1     -10.402   7.958  67.022  1.00  0.00    -0.411 C  
HETATM   11  C   UNL     1      -9.468   9.175  67.847  1.00  0.00    -0.158 C  
HETATM   12  C   UNL     1      -9.977  10.622  67.854  1.00  0.00    -0.189 A  
HETATM   13  C   UNL     1     -11.315  10.930  67.541  1.00  0.00    -0.309 A  
HETATM   14  C   UNL     1     -11.840  12.210  67.775  1.00  0.00    -0.327 A  
HETATM   15  C   UNL     1     -11.020  13.198  68.324  1.00  0.00    -0.253 A  
HETATM   16  C   UNL     1      -9.701  12.912  68.652  1.00  0.00    -0.047 A  
HETATM   17  C   UNL     1      -7.279   9.977  69.043  1.00  0.00    -0.076 C  
HETATM   18  C   UNL     1      -9.170  11.631  68.441  1.00  0.00    -0.182 A  
HETATM   19  C   UNL     1      -7.729   9.162  67.838  1.00  0.00    -0.093 C  
HETATM   20  C   UNL     1      -7.734  11.423  68.872  1.00  0.00    -0.108 C  
ENDROOT
BRANCH  15  21
HETATM   21  O   UNL     1     -11.574  14.453  68.637  1.00  0.00    -0.280 OA 
BRANCH  21  22
HETATM   22  C   UNL     1     -10.831  15.570  68.262  1.00  0.00    -0.292 C  
HETATM   23  O   UNL     1     -10.440  16.455  69.017  1.00  0.00    -0.248 OA 
HETATM   24  N   UNL     1     -10.460  15.531  66.924  1.00  0.00    -0.295 N  
BRANCH  24  25
HETATM   25  C   UNL     1      -9.101  15.968  66.606  1.00  0.00    -0.252 C  
HETATM   26 CL   UNL     1      -7.116  17.802  66.428  1.00  0.00    -0.272 Cl 
HETATM   27  C   UNL     1      -8.817  17.446  66.826  1.00  0.00    -0.251 C  
ENDBRANCH  24  25
BRANCH  24  28
HETATM   28  C   UNL     1     -11.394  15.116  65.874  1.00  0.00    -0.225 C  
HETATM   29 CL   UNL     1      -9.881  13.057  64.883  1.00  0.00    -0.119 Cl 
HETATM   30  C   UNL     1     -10.769  14.568  64.593  1.00  0.00    -0.310 C  
ENDBRANCH  24  28
ENDBRANCH  21  22
ENDBRANCH  15  21
TORSDOF 4
ENDMDL
MODEL      141
REMARK 921   NORMALIZED FREE ENERGY PREDICTED BY IDOCK:   -4.16 KCAL/MOL
REMARK 922        TOTAL FREE ENERGY PREDICTED BY IDOCK:   -5.79 KCAL/MOL
REMARK 923 INTER-LIGAND FREE ENERGY PREDICTED BY IDOCK:   -5.07 KCAL/MOL
REMARK 924 INTRA-LIGAND FREE ENERGY PREDICTED BY IDOCK:   -0.72 KCAL/MOL
REMARK 927      BINDING AFFINITY PREDICTED BY RF-SCORE:    0.00 PKD
ROOT
HETATM    1  C   UNL     1     -11.586   8.850  71.090  1.00  0.00    -0.360 C  
HETATM    2  C   UNL     1     -10.708   9.036  72.195  1.00  0.00    -0.226 C  
HETATM    3  C   UNL     1     -10.008   9.464  70.948  1.00  0.00    -0.353 C  
HETATM    4  C   UNL     1     -11.285   9.433  69.370  1.00  0.00     0.008 C  
HETATM    5  O   UNL     1     -11.303   9.892  68.019  1.00  0.00    -0.527 OA 
HETATM    6  C   UNL     1     -11.269  10.511  70.216  1.00  0.00    -0.391 C  
HETATM    7  C   UNL     1      -9.701  10.842  69.268  1.00  0.00    -0.142 C  
HETATM    8  C   UNL     1     -12.255  11.612  70.395  1.00  0.00    -0.434 C  
HETATM    9  H   UNL     1     -11.901   9.878  67.281  1.00  0.00     0.000 HD 
HETATM   10  C   UNL     1      -8.990   9.306  68.611  1.00  0.00    -0.132 C  
HETATM   11  C   UNL     1      -9.354   7.732  69.263  1.00  0.00    -0.148 C  
HETATM   12  C   UNL     1      -8.940   6.486  68.470  1.00  0.00    -0.126 A  
HETATM   13  C   UNL     1      -7.982   6.557  67.441  1.00  0.00    -0.113 A  
HETATM   14  C   UNL     1      -7.432   5.396  66.879  1.00  0.00    -0.088 A  
HETATM   15  C   UNL     1      -7.843   4.146  67.346  1.00  0.00    -0.091 A  
HETATM   16  C   UNL     1      -8.778   4.053  68.369  1.00  0.00    -0.126 A  
HETATM   17  C   UNL     1     -10.574   6.184  70.990  1.00  0.00    -0.301 C  
HETATM   18  C   UNL     1      -9.322   5.207  68.953  1.00  0.00    -0.168 A  
HETATM   19  C   UNL     1     -10.827   7.415  70.132  1.00  0.00    -0.270 C  
HETATM   20  C   UNL     1     -10.301   4.986  70.085  1.00  0.00    -0.306 C  
ENDROOT
BRANCH  15  21
HETATM   21  O   UNL     1      -7.225   2.987  66.841  1.00  0.00    -0.057 OA 
BRANCH  21  22
HETATM   22  C   UNL     1      -7.885   2.333  65.803  1.00  0.00    -0.077 C  
HETATM   23  O   UNL     1      -8.809   1.536  65.933  1.00  0.00    -0.116 OA 
HETATM   24  N   UNL     1      -7.466   2.771  64.553  1.00  0.00    -0.072 N  
BRANCH  24  25
HETATM   25  C   UNL     1      -8.502   2.956  63.539  1.00  0.00    -0.086 C  
HETATM   26 CL   UNL     1     -10.666   4.185  62.470  1.00  0.00    -0.157 Cl 
HETATM   27  C   UNL     1      -9.501   4.070  63.814  1.00  0.00    -0.155 C  
ENDBRANCH  24  25
BRANCH  24  28
HETATM   28  C   UNL     1      -6.049   2.995  64.247  1.00  0.00    -0.022 C  
HETATM   29 CL   UNL     1      -6.297   5.597  63.427  1.00  0.00    -0.024 Cl 
HETATM   30  C   UNL     1      -5.751   3.942  63.088  1.00  0.00    -0.013 C  
ENDBRANCH  24  28
ENDBRANCH  21  22
ENDBRANCH  15  21
TORSDOF 4
ENDMDL
MODEL      142
REMARK 921   NORMALIZED FREE ENERGY PREDICTED BY IDOCK:   -4.11 KCAL/MOL
REMARK 922        TOTAL FREE ENERGY PREDICTED BY IDOCK:   -5.72 KCAL/MOL
REMARK 923 INTER-LIGAND FREE ENERGY PREDICTED BY IDOCK:   -5.18 KCAL/MOL
REMARK 924 INTRA-LIGAND FREE ENERGY PREDICTED BY IDOCK:   -0.55 KCAL/MOL
REMARK 927      BINDING AFFINITY PREDICTED BY RF-SCORE:    0.00 PKD
ROOT
HETATM    1  C   UNL     1      -9.889  10.210  64.956  1.00  0.00    -0.392 C  
HETATM    2  C   UNL     1      -9.799  11.631  64.977  1.00  0.00    -0.280 C  
HETATM    3  C   UNL     1      -8.478  11.058  65.375  1.00  0.00    -0.030 C  
HETATM    4  C   UNL     1      -8.480   9.042  65.146  1.00  0.00    -0.167 C  
HETATM    5  O   UNL     1      -7.529   7.978  65.155  1.00  0.00    -0.077 OA 
HETATM    6  C   UNL     1      -8.246   9.852  64.065  1.00  0.00    -0.159 C  
HETATM    7  C   UNL     1      -6.604  10.008  64.930  1.00  0.00    -0.126 C  
HETATM    8  C   UNL     1      -8.273   9.550  62.608  1.00  0.00    -0.150 C  
HETATM    9  H   UNL     1      -7.529   7.034  65.048  1.00  0.00     0.000 HD 
HETATM   10  C   UNL     1      -6.766   9.719  66.715  1.00  0.00    -0.079 C  
HETATM   11  C   UNL     1      -8.274   9.879  67.573  1.00  0.00    -0.114 C  
HETATM   12  C   UNL     1      -8.373   9.339  69.005  1.00  0.00    -0.123 A  
HETATM   13  C   UNL     1      -7.222   9.055  69.763  1.00  0.00    -0.056 A  
HETATM   14  C   UNL     1      -7.304   8.790  71.138  1.00  0.00    -0.106 A  
HETATM   15  C   UNL     1      -8.550   8.805  71.766  1.00  0.00    -0.128 A  
HETATM   16  C   UNL     1      -9.698   9.096  71.040  1.00  0.00    -0.359 A  
HETATM   17  C   UNL     1     -10.835  10.429  67.639  1.00  0.00    -0.361 C  
HETATM   18  C   UNL     1      -9.627   9.381  69.669  1.00  0.00    -0.199 A  
HETATM   19  C   UNL     1      -9.809   9.713  66.772  1.00  0.00    -0.270 C  
HETATM   20  C   UNL     1     -10.935   9.722  68.988  1.00  0.00    -0.193 C  
ENDROOT
BRANCH  15  21
HETATM   21  O   UNL     1      -8.618   8.626  73.160  1.00  0.00    -0.393 OA 
BRANCH  21  22
HETATM   22  C   UNL     1      -9.263   7.475  73.607  1.00  0.00    -0.268 C  
HETATM   23  O   UNL     1     -10.477   7.328  73.708  1.00  0.00    -0.370 OA 
HETATM   24  N   UNL     1      -8.378   6.427  73.828  1.00  0.00    -0.115 N  
BRANCH  24  25
HETATM   25  C   UNL     1      -8.811   5.098  73.398  1.00  0.00    -0.113 C  
HETATM   26 CL   UNL     1      -9.759   3.316  71.591  1.00  0.00    -0.230 Cl 
HETATM   27  C   UNL     1      -9.308   5.000  71.963  1.00  0.00    -0.137 C  
ENDBRANCH  24  25
BRANCH  24  28
HETATM   28  C   UNL     1      -7.090   6.630  74.498  1.00  0.00    -0.092 C  
HETATM   29 CL   UNL     1      -5.501   6.069  72.337  1.00  0.00    -0.030 Cl 
HETATM   30  C   UNL     1      -5.938   5.745  74.028  1.00  0.00    -0.061 C  
ENDBRANCH  24  28
ENDBRANCH  21  22
ENDBRANCH  15  21
TORSDOF 4
ENDMDL
MODEL      143
REMARK 921   NORMALIZED FREE ENERGY PREDICTED BY IDOCK:   -4.10 KCAL/MOL
REMARK 922        TOTAL FREE ENERGY PREDICTED BY IDOCK:   -5.72 KCAL/MOL
REMARK 923 INTER-LIGAND FREE ENERGY PREDICTED BY IDOCK:   -6.18 KCAL/MOL
REMARK 924 INTRA-LIGAND FREE ENERGY PREDICTED BY IDOCK:    0.46 KCAL/MOL
REMARK 927      BINDING AFFINITY PREDICTED BY RF-SCORE:    0.00 PKD
ROOT
HETATM    1  C   UNL     1     -11.708  14.858  67.660  1.00  0.00    -0.329 C  
HETATM    2  C   UNL     1     -11.295  15.609  68.797  1.00  0.00    -0.351 C  
HETATM    3  C   UNL     1     -10.088  15.024  68.143  1.00  0.00    -0.220 C  
HETATM    4  C   UNL     1     -10.591  14.130  66.392  1.00  0.00    -0.280 C  
HETATM    5  O   UNL     1      -9.922  13.590  65.252  1.00  0.00    -0.466 OA 
HETATM    6  C   UNL     1     -10.393  15.486  66.435  1.00  0.00    -0.303 C  
HETATM    7  C   UNL     1      -8.623  14.913  66.513  1.00  0.00    -0.131 C  
HETATM    8  C   UNL     1     -10.771  16.548  65.463  1.00  0.00    -0.267 C  
HETATM    9  H   UNL     1     -10.157  13.172  64.433  1.00  0.00     0.000 HD 
HETATM   10  C   UNL     1      -8.497  13.248  67.227  1.00  0.00    -0.203 C  
HETATM   11  C   UNL     1      -9.733  12.548  68.234  1.00  0.00    -0.220 C  
HETATM   12  C   UNL     1      -9.673  11.048  68.548  1.00  0.00    -0.189 A  
HETATM   13  C   UNL     1      -8.491  10.306  68.360  1.00  0.00    -0.124 A  
HETATM   14  C   UNL     1      -8.362   9.003  68.862  1.00  0.00    -0.125 A  
HETATM   15  C   UNL     1      -9.427   8.429  69.560  1.00  0.00    -0.166 A  
HETATM   16  C   UNL     1     -10.597   9.147  69.768  1.00  0.00    -0.240 A  
HETATM   17  C   UNL     1     -12.040  12.677  69.470  1.00  0.00    -0.253 C  
HETATM   18  C   UNL     1     -10.731  10.458  69.287  1.00  0.00    -0.270 A  
HETATM   19  C   UNL     1     -11.391  13.066  68.149  1.00  0.00    -0.329 C  
HETATM   20  C   UNL     1     -12.034  11.157  69.607  1.00  0.00    -0.429 C  
ENDROOT
BRANCH  15  21
HETATM   21  O   UNL     1      -9.262   7.156  70.137  1.00  0.00    -0.155 OA 
BRANCH  21  22
HETATM   22  C   UNL     1      -9.735   6.074  69.400  1.00  0.00    -0.142 C  
HETATM   23  O   UNL     1     -10.916   5.809  69.195  1.00  0.00    -0.320 OA 
HETATM   24  N   UNL     1      -8.709   5.358  68.796  1.00  0.00    -0.098 N  
BRANCH  24  25
HETATM   25  C   UNL     1      -8.943   4.900  67.427  1.00  0.00    -0.107 C  
HETATM   26 CL   UNL     1     -10.510   4.244  65.317  1.00  0.00    -0.247 Cl 
HETATM   27  C   UNL     1     -10.403   4.774  67.016  1.00  0.00    -0.115 C  
ENDBRANCH  24  25
BRANCH  24  28
HETATM   28  C   UNL     1      -7.468   5.036  69.506  1.00  0.00    -0.057 C  
HETATM   29 CL   UNL     1      -5.801   6.574  67.969  1.00  0.00    -0.015 Cl 
HETATM   30  C   UNL     1      -6.199   4.987  68.659  1.00  0.00    -0.031 C  
ENDBRANCH  24  28
ENDBRANCH  21  22
ENDBRANCH  15  21
TORSDOF 4
ENDMDL
MODEL      144
REMARK 921   NORMALIZED FREE ENERGY PREDICTED BY IDOCK:   -4.03 KCAL/MOL
REMARK 922        TOTAL FREE ENERGY PREDICTED BY IDOCK:   -5.63 KCAL/MOL
REMARK 923 INTER-LIGAND FREE ENERGY PREDICTED BY IDOCK:   -4.93 KCAL/MOL
REMARK 924 INTRA-LIGAND FREE ENERGY PREDICTED BY IDOCK:   -0.70 KCAL/MOL
REMARK 927      BINDING AFFINITY PREDICTED BY RF-SCORE:    0.00 PKD
ROOT
HETATM    1  C   UNL     1      -8.995   3.297  71.793  1.00  0.00    -0.148 C  
HETATM    2  C   UNL     1      -7.606   3.574  71.939  1.00  0.00    -0.057 C  
HETATM    3  C   UNL     1      -8.382   4.577  72.726  1.00  0.00    -0.107 C  
HETATM    4  C   UNL     1     -10.355   4.099  72.739  1.00  0.00    -0.175 C  
HETATM    5  O   UNL     1     -11.535   4.507  73.431  1.00  0.00    -0.316 OA 
HETATM    6  C   UNL     1      -9.498   3.491  73.619  1.00  0.00    -0.123 C  
HETATM    7  C   UNL     1      -9.636   5.161  74.429  1.00  0.00    -0.155 C  
HETATM    8  C   UNL     1      -9.674   2.266  74.445  1.00  0.00    -0.125 C  
HETATM    9  H   UNL     1     -12.457   4.283  73.437  1.00  0.00     0.000 HD 
HETATM   10  C   UNL     1     -10.046   6.451  73.219  1.00  0.00    -0.213 C  
HETATM   11  C   UNL     1      -9.754   6.282  71.510  1.00  0.00    -0.179 C  
HETATM   12  C   UNL     1     -10.390   7.290  70.545  1.00  0.00    -0.215 A  
HETATM   13  C   UNL     1     -10.888   8.526  71.000  1.00  0.00    -0.290 A  
HETATM   14  C   UNL     1     -11.251   9.539  70.099  1.00  0.00    -0.275 A  
HETATM   15  C   UNL     1     -11.118   9.317  68.727  1.00  0.00     0.096 A  
HETATM   16  C   UNL     1     -10.617   8.110  68.257  1.00  0.00    -0.153 A  
HETATM   17  C   UNL     1      -8.871   4.923  69.451  1.00  0.00    -0.120 C  
HETATM   18  C   UNL     1     -10.233   7.096  69.148  1.00  0.00    -0.196 A  
HETATM   19  C   UNL     1      -9.645   4.723  70.747  1.00  0.00    -0.249 C  
HETATM   20  C   UNL     1      -9.664   5.840  68.526  1.00  0.00    -0.161 C  
ENDROOT
BRANCH  15  21
HETATM   21  O   UNL     1     -11.400  10.365  67.832  1.00  0.00    -0.324 OA 
BRANCH  21  22
HETATM   22  C   UNL     1     -10.694  11.551  68.023  1.00  0.00    -0.202 C  
HETATM   23  O   UNL     1     -11.078  12.514  68.679  1.00  0.00    -0.237 OA 
HETATM   24  N   UNL     1      -9.417  11.497  67.478  1.00  0.00    -0.168 N  
BRANCH  24  25
HETATM   25  C   UNL     1      -8.339  12.092  68.268  1.00  0.00    -0.172 C  
HETATM   26 CL   UNL     1      -6.470  13.980  68.798  1.00  0.00    -0.087 Cl 
HETATM   27  C   UNL     1      -7.737  13.369  67.702  1.00  0.00    -0.177 C  
ENDBRANCH  24  25
BRANCH  24  28
HETATM   28  C   UNL     1      -9.163  10.914  66.158  1.00  0.00    -0.184 C  
HETATM   29 CL   UNL     1      -7.608   8.827  67.013  1.00  0.00    -0.087 Cl 
HETATM   30  C   UNL     1      -7.803  10.247  65.965  1.00  0.00    -0.133 C  
ENDBRANCH  24  28
ENDBRANCH  21  22
ENDBRANCH  15  21
TORSDOF 4
ENDMDL
MODEL      145
REMARK 921   NORMALIZED FREE ENERGY PREDICTED BY IDOCK:   -3.88 KCAL/MOL
REMARK 922        TOTAL FREE ENERGY PREDICTED BY IDOCK:   -5.45 KCAL/MOL
REMARK 923 INTER-LIGAND FREE ENERGY PREDICTED BY IDOCK:   -5.67 KCAL/MOL
REMARK 924 INTRA-LIGAND FREE ENERGY PREDICTED BY IDOCK:    0.23 KCAL/MOL
REMARK 927      BINDING AFFINITY PREDICTED BY RF-SCORE:    0.00 PKD
ROOT
HETATM    1  C   UNL     1      -8.024   5.604  69.575  1.00  0.00    -0.092 C  
HETATM    2  C   UNL     1      -8.910   5.362  70.663  1.00  0.00    -0.145 C  
HETATM    3  C   UNL     1      -9.715   5.712  69.455  1.00  0.00    -0.208 C  
HETATM    4  C   UNL     1      -8.521   5.848  67.820  1.00  0.00    -0.107 C  
HETATM    5  O   UNL     1      -8.677   5.946  66.404  1.00  0.00    -0.122 OA 
HETATM    6  C   UNL     1      -8.963   4.622  68.242  1.00  0.00    -0.137 C  
HETATM    7  C   UNL     1     -10.530   5.264  67.467  1.00  0.00    -0.193 C  
HETATM    8  C   UNL     1      -8.490   3.253  67.897  1.00  0.00    -0.103 C  
HETATM    9  H   UNL     1      -8.118   6.009  65.639  1.00  0.00     0.000 HD 
HETATM   10  C   UNL     1     -10.576   7.079  67.477  1.00  0.00    -0.351 C  
HETATM   11  C   UNL     1      -9.627   8.050  68.568  1.00  0.00    -0.159 C  
HETATM   12  C   UNL     1      -9.513   9.558  68.311  1.00  0.00    -0.143 A  
HETATM   13  C   UNL     1     -10.417  10.228  67.464  1.00  0.00    -0.293 A  
HETATM   14  C   UNL     1     -10.464  11.628  67.412  1.00  0.00    -0.239 A  
HETATM   15  C   UNL     1      -9.596  12.374  68.213  1.00  0.00    -0.211 A  
HETATM   16  C   UNL     1      -8.706  11.734  69.066  1.00  0.00     0.240 A  
HETATM   17  C   UNL     1      -7.906   8.291  70.529  1.00  0.00    -0.087 C  
HETATM   18  C   UNL     1      -8.662  10.334  69.141  1.00  0.00    -0.176 A  
HETATM   19  C   UNL     1      -8.152   7.461  69.277  1.00  0.00    -0.123 C  
HETATM   20  C   UNL     1      -7.682   9.747  70.132  1.00  0.00    -0.188 C  
ENDROOT
BRANCH  15  21
HETATM   21  O   UNL     1      -9.706  13.776  68.224  1.00  0.00    -0.221 OA 
BRANCH  21  22
HETATM   22  C   UNL     1      -9.876  14.395  66.987  1.00  0.00    -0.252 C  
HETATM   23  O   UNL     1      -9.044  14.433  66.086  1.00  0.00    -0.171 OA 
HETATM   24  N   UNL     1     -11.165  14.885  66.816  1.00  0.00    -0.340 N  
BRANCH  24  25
HETATM   25  C   UNL     1     -11.770  14.698  65.498  1.00  0.00    -0.316 C  
HETATM   26 CL   UNL     1     -12.268  13.308  63.226  1.00  0.00    -0.536 Cl 
HETATM   27  C   UNL     1     -11.425  13.393  64.795  1.00  0.00    -0.336 C  
ENDBRANCH  24  25
BRANCH  24  28
HETATM   28  C   UNL     1     -11.872  15.595  67.886  1.00  0.00     0.036 C  
HETATM   29 CL   UNL     1     -10.450  17.932  67.725  1.00  0.00    -0.393 Cl 
HETATM   30  C   UNL     1     -11.040  16.575  68.708  1.00  0.00    -0.309 C  
ENDBRANCH  24  28
ENDBRANCH  21  22
ENDBRANCH  15  21
TORSDOF 4
ENDMDL
MODEL      146
REMARK 921   NORMALIZED FREE ENERGY PREDICTED BY IDOCK:   -3.85 KCAL/MOL
REMARK 922        TOTAL FREE ENERGY PREDICTED BY IDOCK:   -5.41 KCAL/MOL
REMARK 923 INTER-LIGAND FREE ENERGY PREDICTED BY IDOCK:   -4.65 KCAL/MOL
REMARK 924 INTRA-LIGAND FREE ENERGY PREDICTED BY IDOCK:   -0.76 KCAL/MOL
REMARK 927      BINDING AFFINITY PREDICTED BY RF-SCORE:    0.00 PKD
ROOT
HETATM    1  C   UNL     1      -9.474   9.867  64.796  1.00  0.00    -0.356 C  
HETATM    2  C   UNL     1      -9.306  10.997  65.646  1.00  0.00    -0.239 C  
HETATM    3  C   UNL     1      -8.040  10.206  65.640  1.00  0.00    -0.149 C  
HETATM    4  C   UNL     1      -8.143   8.709  64.273  1.00  0.00    -0.158 C  
HETATM    5  O   UNL     1      -7.253   7.774  63.663  1.00  0.00    -0.073 OA 
HETATM    6  C   UNL     1      -7.813   9.978  63.874  1.00  0.00    -0.150 C  
HETATM    7  C   UNL     1      -6.207   9.481  64.675  1.00  0.00    -0.082 C  
HETATM    8  C   UNL     1      -7.788  10.587  62.516  1.00  0.00    -0.178 C  
HETATM    9  H   UNL     1      -7.301   7.074  63.023  1.00  0.00     0.000 HD 
HETATM   10  C   UNL     1      -6.470   8.216  65.951  1.00  0.00    -0.045 C  
HETATM   11  C   UNL     1      -8.005   7.954  66.732  1.00  0.00    -0.107 C  
HETATM   12  C   UNL     1      -8.202   6.689  67.575  1.00  0.00    -0.122 A  
HETATM   13  C   UNL     1      -7.105   5.932  68.030  1.00  0.00    -0.074 A  
HETATM   14  C   UNL     1      -7.266   4.921  68.989  1.00  0.00    -0.053 A  
HETATM   15  C   UNL     1      -8.538   4.657  69.500  1.00  0.00    -0.081 A  
HETATM   16  C   UNL     1      -9.633   5.399  69.075  1.00  0.00    -0.191 A  
HETATM   17  C   UNL     1     -10.532   8.545  67.093  1.00  0.00    -0.370 C  
HETATM   18  C   UNL     1      -9.482   6.426  68.131  1.00  0.00    -0.114 A  
HETATM   19  C   UNL     1      -9.507   8.399  65.977  1.00  0.00    -0.224 C  
HETATM   20  C   UNL     1     -10.735   7.194  67.772  1.00  0.00    -0.282 C  
ENDROOT
BRANCH  15  21
HETATM   21  O   UNL     1      -8.682   3.703  70.524  1.00  0.00    -0.068 OA 
BRANCH  21  22
HETATM   22  C   UNL     1      -8.131   4.031  71.760  1.00  0.00    -0.082 C  
HETATM   23  O   UNL     1      -6.942   3.952  72.057  1.00  0.00    -0.041 OA 
HETATM   24  N   UNL     1      -9.066   4.589  72.624  1.00  0.00    -0.122 N  
BRANCH  24  25
HETATM   25  C   UNL     1      -8.621   5.723  73.431  1.00  0.00    -0.117 C  
HETATM   26 CL   UNL     1      -7.930   8.315  73.812  1.00  0.00    -0.253 Cl 
HETATM   27  C   UNL     1      -8.436   7.034  72.680  1.00  0.00    -0.111 C  
ENDBRANCH  24  25
BRANCH  24  28
HETATM   28  C   UNL     1     -10.420   4.043  72.755  1.00  0.00    -0.159 C  
HETATM   29 CL   UNL     1     -11.755   6.242  71.814  1.00  0.00    -0.364 Cl 
HETATM   30  C   UNL     1     -11.520   5.043  73.102  1.00  0.00    -0.282 C  
ENDBRANCH  24  28
ENDBRANCH  21  22
ENDBRANCH  15  21
TORSDOF 4
ENDMDL
MODEL      147
REMARK 921   NORMALIZED FREE ENERGY PREDICTED BY IDOCK:   -3.84 KCAL/MOL
REMARK 922        TOTAL FREE ENERGY PREDICTED BY IDOCK:   -5.40 KCAL/MOL
REMARK 923 INTER-LIGAND FREE ENERGY PREDICTED BY IDOCK:   -5.31 KCAL/MOL
REMARK 924 INTRA-LIGAND FREE ENERGY PREDICTED BY IDOCK:   -0.08 KCAL/MOL
REMARK 927      BINDING AFFINITY PREDICTED BY RF-SCORE:    0.00 PKD
ROOT
HETATM    1  C   UNL     1      -8.301  15.580  67.999  1.00  0.00    -0.142 C  
HETATM    2  C   UNL     1      -7.659  15.915  66.774  1.00  0.00    -0.215 C  
HETATM    3  C   UNL     1      -8.936  15.203  66.470  1.00  0.00    -0.326 C  
HETATM    4  C   UNL     1     -10.003  14.900  68.169  1.00  0.00    -0.222 C  
HETATM    5  O   UNL     1     -11.320  14.483  68.528  1.00  0.00    -0.260 OA 
HETATM    6  C   UNL     1     -10.068  16.110  67.528  1.00  0.00    -0.256 C  
HETATM    7  C   UNL     1     -11.125  15.096  66.379  1.00  0.00    -0.312 C  
HETATM    8  C   UNL     1     -10.569  17.428  68.003  1.00  0.00    -0.389 C  
HETATM    9  H   UNL     1     -11.820  14.342  69.323  1.00  0.00     0.000 HD 
HETATM   10  C   UNL     1     -10.679  13.337  66.449  1.00  0.00    -0.291 C  
HETATM   11  C   UNL     1      -9.133  12.769  67.014  1.00  0.00    -0.220 C  
HETATM   12  C   UNL     1      -8.954  11.274  67.308  1.00  0.00    -0.149 A  
HETATM   13  C   UNL     1      -9.854  10.315  66.806  1.00  0.00    -0.246 A  
HETATM   14  C   UNL     1      -9.567   8.944  66.870  1.00  0.00    -0.248 A  
HETATM   15  C   UNL     1      -8.368   8.521  67.446  1.00  0.00    -0.120 A  
HETATM   16  C   UNL     1      -7.459   9.450  67.937  1.00  0.00    -0.084 A  
HETATM   17  C   UNL     1      -6.723  13.204  67.947  1.00  0.00    -0.138 C  
HETATM   18  C   UNL     1      -7.726  10.825  67.861  1.00  0.00    -0.100 A  
HETATM   19  C   UNL     1      -8.152  13.705  68.104  1.00  0.00    -0.156 C  
HETATM   20  C   UNL     1      -6.648  11.745  68.390  1.00  0.00    -0.055 C  
ENDROOT
BRANCH  15  21
HETATM   21  O   UNL     1      -8.044   7.151  67.430  1.00  0.00    -0.110 OA 
BRANCH  21  22
HETATM   22  C   UNL     1      -8.929   6.312  66.756  1.00  0.00    -0.125 C  
HETATM   23  O   UNL     1      -8.996   6.174  65.539  1.00  0.00    -0.106 OA 
HETATM   24  N   UNL     1      -9.678   5.528  67.625  1.00  0.00    -0.123 N  
BRANCH  24  25
HETATM   25  C   UNL     1      -9.887   4.134  67.238  1.00  0.00    -0.123 C  
HETATM   26 CL   UNL     1      -9.114   1.559  66.909  1.00  0.00    -0.117 Cl 
HETATM   27  C   UNL     1      -8.679   3.221  67.385  1.00  0.00    -0.119 C  
ENDBRANCH  24  25
BRANCH  24  28
HETATM   28  C   UNL     1     -10.268   6.078  68.849  1.00  0.00    -0.196 C  
HETATM   29 CL   UNL     1      -8.893   4.498  70.616  1.00  0.00    -0.130 Cl 
HETATM   30  C   UNL     1     -10.449   5.101  70.008  1.00  0.00    -0.235 C  
ENDBRANCH  24  28
ENDBRANCH  21  22
ENDBRANCH  15  21
TORSDOF 4
ENDMDL
MODEL      148
REMARK 921   NORMALIZED FREE ENERGY PREDICTED BY IDOCK:   -3.75 KCAL/MOL
REMARK 922        TOTAL FREE ENERGY PREDICTED BY IDOCK:   -5.28 KCAL/MOL
REMARK 923 INTER-LIGAND FREE ENERGY PREDICTED BY IDOCK:   -4.71 KCAL/MOL
REMARK 924 INTRA-LIGAND FREE ENERGY PREDICTED BY IDOCK:   -0.57 KCAL/MOL
REMARK 927      BINDING AFFINITY PREDICTED BY RF-SCORE:    0.00 PKD
ROOT
HETATM    1  C   UNL     1      -8.446   5.184  64.138  1.00  0.00    -0.127 C  
HETATM    2  C   UNL     1      -7.084   5.407  63.786  1.00  0.00    -0.048 C  
HETATM    3  C   UNL     1      -7.156   4.250  64.728  1.00  0.00    -0.058 C  
HETATM    4  C   UNL     1      -9.089   3.745  65.088  1.00  0.00    -0.142 C  
HETATM    5  O   UNL     1      -9.802   2.671  65.699  1.00  0.00    -0.353 OA 
HETATM    6  C   UNL     1      -8.462   3.290  63.957  1.00  0.00    -0.090 C  
HETATM    7  C   UNL     1      -7.669   2.174  65.219  1.00  0.00    -0.072 C  
HETATM    8  C   UNL     1      -9.026   2.695  62.714  1.00  0.00    -0.088 C  
HETATM    9  H   UNL     1     -10.706   2.434  65.867  1.00  0.00     0.000 HD 
HETATM   10  C   UNL     1      -7.654   2.942  66.864  1.00  0.00    -0.074 C  
HETATM   11  C   UNL     1      -7.789   4.661  67.114  1.00  0.00    -0.094 C  
HETATM   12  C   UNL     1      -8.057   5.186  68.530  1.00  0.00    -0.086 A  
HETATM   13  C   UNL     1      -7.841   4.379  69.664  1.00  0.00    -0.057 A  
HETATM   14  C   UNL     1      -7.856   4.924  70.957  1.00  0.00    -0.084 A  
HETATM   15  C   UNL     1      -8.093   6.289  71.124  1.00  0.00    -0.118 A  
HETATM   16  C   UNL     1      -8.296   7.106  70.018  1.00  0.00    -0.138 A  
HETATM   17  C   UNL     1      -8.020   7.107  66.203  1.00  0.00    -0.112 C  
HETATM   18  C   UNL     1      -8.264   6.577  68.719  1.00  0.00    -0.119 A  
HETATM   19  C   UNL     1      -8.548   5.703  65.947  1.00  0.00    -0.144 C  
HETATM   20  C   UNL     1      -8.458   7.566  67.590  1.00  0.00    -0.117 C  
ENDROOT
BRANCH  15  21
HETATM   21  O   UNL     1      -8.020   6.846  72.414  1.00  0.00    -0.096 OA 
BRANCH  21  22
HETATM   22  C   UNL     1      -9.034   7.735  72.764  1.00  0.00    -0.181 C  
HETATM   23  O   UNL     1      -9.046   8.938  72.520  1.00  0.00    -0.349 OA 
HETATM   24  N   UNL     1     -10.125   7.093  73.334  1.00  0.00    -0.266 N  
BRANCH  24  25
HETATM   25  C   UNL     1     -11.450   7.560  72.929  1.00  0.00    -0.259 C  
HETATM   26 CL   UNL     1     -13.639   7.579  71.333  1.00  0.00    -0.415 Cl 
HETATM   27  C   UNL     1     -12.012   6.929  71.664  1.00  0.00    -0.339 C  
ENDBRANCH  24  25
BRANCH  24  28
HETATM   28  C   UNL     1      -9.964   6.027  74.328  1.00  0.00    -0.268 C  
HETATM   29 CL   UNL     1     -10.466   3.926  72.642  1.00  0.00    -0.228 Cl 
HETATM   30  C   UNL     1     -10.845   4.794  74.144  1.00  0.00    -0.192 C  
ENDBRANCH  24  28
ENDBRANCH  21  22
ENDBRANCH  15  21
TORSDOF 4
ENDMDL
MODEL      149
REMARK 921   NORMALIZED FREE ENERGY PREDICTED BY IDOCK:   -3.74 KCAL/MOL
REMARK 922        TOTAL FREE ENERGY PREDICTED BY IDOCK:   -5.28 KCAL/MOL
REMARK 923 INTER-LIGAND FREE ENERGY PREDICTED BY IDOCK:   -4.93 KCAL/MOL
REMARK 924 INTRA-LIGAND FREE ENERGY PREDICTED BY IDOCK:   -0.35 KCAL/MOL
REMARK 927      BINDING AFFINITY PREDICTED BY RF-SCORE:    0.00 PKD
ROOT
HETATM    1  C   UNL     1      -6.441   6.545  67.611  1.00  0.00    -0.052 C  
HETATM    2  C   UNL     1      -7.531   5.875  68.236  1.00  0.00    -0.085 C  
HETATM    3  C   UNL     1      -7.994   6.438  66.932  1.00  0.00    -0.109 C  
HETATM    4  C   UNL     1      -6.430   7.209  65.895  1.00  0.00    -0.048 C  
HETATM    5  O   UNL     1      -6.172   7.686  64.574  1.00  0.00    -0.044 OA 
HETATM    6  C   UNL     1      -6.682   5.862  65.851  1.00  0.00    -0.055 C  
HETATM    7  C   UNL     1      -8.047   6.467  64.739  1.00  0.00    -0.112 C  
HETATM    8  C   UNL     1      -5.823   4.734  65.398  1.00  0.00    -0.018 C  
HETATM    9  H   UNL     1      -5.440   8.046  64.089  1.00  0.00     0.000 HD 
HETATM   10  C   UNL     1      -8.515   8.177  65.136  1.00  0.00    -0.134 C  
HETATM   11  C   UNL     1      -8.189   8.920  66.677  1.00  0.00    -0.111 C  
HETATM   12  C   UNL     1      -8.356  10.438  66.819  1.00  0.00    -0.126 A  
HETATM   13  C   UNL     1      -9.093  11.185  65.881  1.00  0.00    -0.218 A  
HETATM   14  C   UNL     1      -9.446  12.519  66.130  1.00  0.00    -0.184 A  
HETATM   15  C   UNL     1      -9.057  13.120  67.329  1.00  0.00    -0.217 A  
HETATM   16  C   UNL     1      -8.340  12.397  68.274  1.00  0.00    -0.169 A  
HETATM   17  C   UNL     1      -7.241   8.832  69.119  1.00  0.00    -0.067 C  
HETATM   18  C   UNL     1      -7.998  11.056  68.046  1.00  0.00    -0.115 A  
HETATM   19  C   UNL     1      -6.901   8.370  67.709  1.00  0.00    -0.067 C  
HETATM   20  C   UNL     1      -7.252  10.357  69.161  1.00  0.00    -0.089 C  
ENDROOT
BRANCH  15  21
HETATM   21  O   UNL     1      -9.487  14.429  67.612  1.00  0.00    -0.206 OA 
BRANCH  21  22
HETATM   22  C   UNL     1     -10.803  14.570  68.047  1.00  0.00    -0.244 C  
HETATM   23  O   UNL     1     -11.574  13.650  68.303  1.00  0.00    -0.295 OA 
HETATM   24  N   UNL     1     -11.141  15.896  68.285  1.00  0.00    -0.330 N  
BRANCH  24  25
HETATM   25  C   UNL     1     -11.947  16.166  69.474  1.00  0.00    -0.061 C  
HETATM   26 CL   UNL     1     -12.445  16.121  72.137  1.00  0.00    -0.506 Cl 
HETATM   27  C   UNL     1     -11.361  15.681  70.792  1.00  0.00    -0.371 C  
ENDBRANCH  24  25
BRANCH  24  28
HETATM   28  C   UNL     1     -10.748  16.971  67.369  1.00  0.00    -0.240 C  
HETATM   29 CL   UNL     1      -8.474  17.723  68.699  1.00  0.00    -0.293 Cl 
HETATM   30  C   UNL     1     -10.044  18.170  67.998  1.00  0.00    -0.367 C  
ENDBRANCH  24  28
ENDBRANCH  21  22
ENDBRANCH  15  21
TORSDOF 4
ENDMDL
MODEL      150
REMARK 921   NORMALIZED FREE ENERGY PREDICTED BY IDOCK:   -3.74 KCAL/MOL
REMARK 922        TOTAL FREE ENERGY PREDICTED BY IDOCK:   -5.28 KCAL/MOL
REMARK 923 INTER-LIGAND FREE ENERGY PREDICTED BY IDOCK:   -5.43 KCAL/MOL
REMARK 924 INTRA-LIGAND FREE ENERGY PREDICTED BY IDOCK:    0.15 KCAL/MOL
REMARK 927      BINDING AFFINITY PREDICTED BY RF-SCORE:    0.00 PKD
ROOT
HETATM    1  C   UNL     1     -10.329   7.454  67.798  1.00  0.00    -0.273 C  
HETATM    2  C   UNL     1      -9.595   6.937  66.693  1.00  0.00    -0.218 C  
HETATM    3  C   UNL     1      -8.656   7.160  67.833  1.00  0.00    -0.123 C  
HETATM    4  C   UNL     1      -9.681   7.683  69.505  1.00  0.00    -0.168 C  
HETATM    5  O   UNL     1      -9.418   7.831  70.901  1.00  0.00    -0.159 OA 
HETATM    6  C   UNL     1      -9.567   6.362  69.159  1.00  0.00    -0.143 C  
HETATM    7  C   UNL     1      -7.848   6.658  69.810  1.00  0.00    -0.115 C  
HETATM    8  C   UNL     1     -10.328   5.172  69.629  1.00  0.00    -0.316 C  
HETATM    9  H   UNL     1      -9.897   8.076  71.683  1.00  0.00     0.000 HD 
HETATM   10  C   UNL     1      -7.375   8.404  69.659  1.00  0.00    -0.072 C  
HETATM   11  C   UNL     1      -8.134   9.503  68.541  1.00  0.00    -0.101 C  
HETATM   12  C   UNL     1      -7.872  11.007  68.685  1.00  0.00    -0.136 A  
HETATM   13  C   UNL     1      -6.785  11.493  69.437  1.00  0.00    -0.116 A  
HETATM   14  C   UNL     1      -6.406  12.842  69.378  1.00  0.00    -0.109 A  
HETATM   15  C   UNL     1      -7.120  13.721  68.562  1.00  0.00    -0.106 A  
HETATM   16  C   UNL     1      -8.189  13.261  67.803  1.00  0.00    -0.168 A  
HETATM   17  C   UNL     1      -9.868  10.024  66.647  1.00  0.00    -0.259 C  
HETATM   18  C   UNL     1      -8.566  11.910  67.838  1.00  0.00    -0.162 A  
HETATM   19  C   UNL     1      -9.747   9.241  67.946  1.00  0.00    -0.180 C  
HETATM   20  C   UNL     1      -9.717  11.514  66.940  1.00  0.00    -0.205 C  
ENDROOT
BRANCH  15  21
HETATM   21  O   UNL     1      -6.683  15.053  68.439  1.00  0.00    -0.100 OA 
BRANCH  21  22
HETATM   22  C   UNL     1      -7.425  15.874  67.593  1.00  0.00    -0.152 C  
HETATM   23  O   UNL     1      -7.805  15.581  66.463  1.00  0.00    -0.135 OA 
HETATM   24  N   UNL     1      -7.812  17.056  68.212  1.00  0.00    -0.207 N  
BRANCH  24  25
HETATM   25  C   UNL     1      -9.172  17.523  67.947  1.00  0.00    -0.265 C  
HETATM   26 CL   UNL     1     -11.022  19.410  67.352  1.00  0.00    -0.552 Cl 
HETATM   27  C   UNL     1      -9.317  19.016  67.692  1.00  0.00    -0.298 C  
ENDBRANCH  24  25
BRANCH  24  28
HETATM   28  C   UNL     1      -6.891  17.826  69.054  1.00  0.00    -0.244 C  
HETATM   29 CL   UNL     1      -5.802  19.343  67.049  1.00  0.00    -0.174 Cl 
HETATM   30  C   UNL     1      -5.566  18.228  68.411  1.00  0.00    -0.171 C  
ENDBRANCH  24  28
ENDBRANCH  21  22
ENDBRANCH  15  21
TORSDOF 4
ENDMDL
MODEL      151
REMARK 921   NORMALIZED FREE ENERGY PREDICTED BY IDOCK:   -3.73 KCAL/MOL
REMARK 922        TOTAL FREE ENERGY PREDICTED BY IDOCK:   -5.26 KCAL/MOL
REMARK 923 INTER-LIGAND FREE ENERGY PREDICTED BY IDOCK:   -4.86 KCAL/MOL
REMARK 924 INTRA-LIGAND FREE ENERGY PREDICTED BY IDOCK:   -0.40 KCAL/MOL
REMARK 927      BINDING AFFINITY PREDICTED BY RF-SCORE:    0.00 PKD
ROOT
HETATM    1  C   UNL     1      -7.292   4.019  66.680  1.00  0.00    -0.072 C  
HETATM    2  C   UNL     1      -8.585   3.424  66.712  1.00  0.00    -0.116 C  
HETATM    3  C   UNL     1      -8.413   4.130  65.408  1.00  0.00    -0.110 C  
HETATM    4  C   UNL     1      -6.509   4.806  65.212  1.00  0.00    -0.036 C  
HETATM    5  O   UNL     1      -5.684   5.352  64.183  1.00  0.00    -0.016 OA 
HETATM    6  C   UNL     1      -6.805   3.502  64.914  1.00  0.00    -0.049 C  
HETATM    7  C   UNL     1      -7.526   4.333  63.411  1.00  0.00    -0.054 C  
HETATM    8  C   UNL     1      -5.910   2.326  64.734  1.00  0.00    -0.014 C  
HETATM    9  H   UNL     1      -4.793   5.668  64.091  1.00  0.00     0.000 HD 
HETATM   10  C   UNL     1      -8.006   6.047  63.770  1.00  0.00    -0.112 C  
HETATM   11  C   UNL     1      -8.319   6.631  65.381  1.00  0.00    -0.130 C  
HETATM   12  C   UNL     1      -8.432   8.143  65.613  1.00  0.00    -0.170 A  
HETATM   13  C   UNL     1      -8.650   9.034  64.545  1.00  0.00    -0.181 A  
HETATM   14  C   UNL     1      -8.988  10.376  64.775  1.00  0.00    -0.228 A  
HETATM   15  C   UNL     1      -9.107  10.838  66.087  1.00  0.00    -0.174 A  
HETATM   16  C   UNL     1      -8.909   9.973  67.156  1.00  0.00    -0.142 A  
HETATM   17  C   UNL     1      -8.507   6.256  67.967  1.00  0.00    -0.117 C  
HETATM   18  C   UNL     1      -8.590   8.624  66.939  1.00  0.00    -0.124 A  
HETATM   19  C   UNL     1      -7.630   5.869  66.785  1.00  0.00    -0.099 C  
HETATM   20  C   UNL     1      -8.436   7.766  68.175  1.00  0.00    -0.124 C  
ENDROOT
BRANCH  15  21
HETATM   21  O   UNL     1      -9.531  12.160  66.313  1.00  0.00    -0.228 OA 
BRANCH  21  22
HETATM   22  C   UNL     1      -9.341  12.662  67.599  1.00  0.00    -0.190 C  
HETATM   23  O   UNL     1      -8.257  12.814  68.154  1.00  0.00    -0.152 OA 
HETATM   24  N   UNL     1     -10.527  13.101  68.174  1.00  0.00    -0.241 N  
BRANCH  24  25
HETATM   25  C   UNL     1     -10.467  14.348  68.936  1.00  0.00    -0.245 C  
HETATM   26 CL   UNL     1     -11.529  16.322  70.457  1.00  0.00    -0.350 Cl 
HETATM   27  C   UNL     1     -11.784  14.817  69.535  1.00  0.00    -0.321 C  
ENDBRANCH  24  25
BRANCH  24  28
HETATM   28  C   UNL     1     -11.771  12.334  68.064  1.00  0.00    -0.356 C  
HETATM   29 CL   UNL     1     -11.804  11.387  70.635  1.00  0.00    -0.403 Cl 
HETATM   30  C   UNL     1     -11.849  11.054  68.891  1.00  0.00    -0.308 C  
ENDBRANCH  24  28
ENDBRANCH  21  22
ENDBRANCH  15  21
TORSDOF 4
ENDMDL
MODEL      152
REMARK 921   NORMALIZED FREE ENERGY PREDICTED BY IDOCK:   -3.64 KCAL/MOL
REMARK 922        TOTAL FREE ENERGY PREDICTED BY IDOCK:   -5.15 KCAL/MOL
REMARK 923 INTER-LIGAND FREE ENERGY PREDICTED BY IDOCK:   -4.41 KCAL/MOL
REMARK 924 INTRA-LIGAND FREE ENERGY PREDICTED BY IDOCK:   -0.74 KCAL/MOL
REMARK 927      BINDING AFFINITY PREDICTED BY RF-SCORE:    0.00 PKD
ROOT
HETATM    1  C   UNL     1      -7.926   5.319  64.024  1.00  0.00    -0.112 C  
HETATM    2  C   UNL     1      -6.542   5.174  64.326  1.00  0.00    -0.042 C  
HETATM    3  C   UNL     1      -7.309   4.131  65.070  1.00  0.00    -0.072 C  
HETATM    4  C   UNL     1      -9.259   4.146  64.507  1.00  0.00    -0.151 C  
HETATM    5  O   UNL     1     -10.412   3.322  64.676  1.00  0.00    -0.409 OA 
HETATM    6  C   UNL     1      -8.333   3.481  63.746  1.00  0.00    -0.090 C  
HETATM    7  C   UNL     1      -8.486   2.282  65.162  1.00  0.00    -0.100 C  
HETATM    8  C   UNL     1      -8.417   2.971  62.350  1.00  0.00    -0.074 C  
HETATM    9  H   UNL     1     -11.325   3.329  64.412  1.00  0.00     0.000 HD 
HETATM   10  C   UNL     1      -9.010   3.120  66.685  1.00  0.00    -0.168 C  
HETATM   11  C   UNL     1      -8.808   4.830  66.948  1.00  0.00    -0.110 C  
HETATM   12  C   UNL     1      -9.533   5.490  68.127  1.00  0.00    -0.133 A  
HETATM   13  C   UNL     1     -10.050   4.725  69.191  1.00  0.00    -0.196 A  
HETATM   14  C   UNL     1     -10.499   5.333  70.372  1.00  0.00    -0.322 A  
HETATM   15  C   UNL     1     -10.436   6.722  70.496  1.00  0.00    -0.209 A  
HETATM   16  C   UNL     1      -9.918   7.495  69.464  1.00  0.00    -0.180 A  
HETATM   17  C   UNL     1      -7.992   7.196  66.173  1.00  0.00    -0.112 C  
HETATM   18  C   UNL     1      -9.448   6.898  68.285  1.00  0.00    -0.126 A  
HETATM   19  C   UNL     1      -8.685   5.955  65.628  1.00  0.00    -0.149 C  
HETATM   20  C   UNL     1      -8.869   7.833  67.247  1.00  0.00    -0.130 C  
ENDROOT
BRANCH  15  21
HETATM   21  O   UNL     1     -10.805   7.320  71.715  1.00  0.00    -0.222 OA 
BRANCH  21  22
HETATM   22  C   UNL     1     -10.609   6.559  72.865  1.00  0.00    -0.241 C  
HETATM   23  O   UNL     1     -11.390   5.724  73.312  1.00  0.00    -0.213 OA 
HETATM   24  N   UNL     1      -9.349   6.753  73.417  1.00  0.00    -0.141 N  
BRANCH  24  25
HETATM   25  C   UNL     1      -8.661   5.565  73.919  1.00  0.00    -0.115 C  
HETATM   26 CL   UNL     1      -7.209   3.295  73.636  1.00  0.00    -0.049 Cl 
HETATM   27  C   UNL     1      -8.035   4.670  72.859  1.00  0.00    -0.096 C  
ENDBRANCH  24  25
BRANCH  24  28
HETATM   28  C   UNL     1      -8.753   8.087  73.535  1.00  0.00    -0.266 C  
HETATM   29 CL   UNL     1      -6.954   7.826  71.485  1.00  0.00    -0.056 Cl 
HETATM   30  C   UNL     1      -7.270   8.195  73.194  1.00  0.00    -0.122 C  
ENDBRANCH  24  28
ENDBRANCH  21  22
ENDBRANCH  15  21
TORSDOF 4
ENDMDL
MODEL      153
REMARK 921   NORMALIZED FREE ENERGY PREDICTED BY IDOCK:   -3.61 KCAL/MOL
REMARK 922        TOTAL FREE ENERGY PREDICTED BY IDOCK:   -5.12 KCAL/MOL
REMARK 923 INTER-LIGAND FREE ENERGY PREDICTED BY IDOCK:   -4.95 KCAL/MOL
REMARK 924 INTRA-LIGAND FREE ENERGY PREDICTED BY IDOCK:   -0.17 KCAL/MOL
REMARK 927      BINDING AFFINITY PREDICTED BY RF-SCORE:    0.00 PKD
ROOT
HETATM    1  C   UNL     1      -9.061  14.810  68.013  1.00  0.00    -0.179 C  
HETATM    2  C   UNL     1      -8.375  14.922  66.770  1.00  0.00    -0.158 C  
HETATM    3  C   UNL     1      -9.671  14.216  66.543  1.00  0.00    -0.307 C  
HETATM    4  C   UNL     1     -10.792  14.225  68.235  1.00  0.00    -0.246 C  
HETATM    5  O   UNL     1     -12.133  13.917  68.614  1.00  0.00    -0.380 OA 
HETATM    6  C   UNL     1     -10.793  15.319  67.409  1.00  0.00    -0.304 C  
HETATM    7  C   UNL     1     -11.860  14.172  66.403  1.00  0.00    -0.440 C  
HETATM    8  C   UNL     1     -11.254  16.713  67.654  1.00  0.00    -0.007 C  
HETATM    9  H   UNL     1     -12.658  13.921  69.406  1.00  0.00     0.000 HD 
HETATM   10  C   UNL     1     -11.486  12.433  66.764  1.00  0.00    -0.423 C  
HETATM   11  C   UNL     1      -9.978  11.908  67.460  1.00  0.00    -0.197 C  
HETATM   12  C   UNL     1      -9.865  10.474  67.992  1.00  0.00    -0.166 A  
HETATM   13  C   UNL     1     -10.790   9.479  67.620  1.00  0.00    -0.253 A  
HETATM   14  C   UNL     1     -10.558   8.127  67.910  1.00  0.00    -0.212 A  
HETATM   15  C   UNL     1      -9.392   7.759  68.582  1.00  0.00    -0.148 A  
HETATM   16  C   UNL     1      -8.460   8.722  68.948  1.00  0.00    -0.131 A  
HETATM   17  C   UNL     1      -7.577  12.402  68.387  1.00  0.00    -0.129 C  
HETATM   18  C   UNL     1      -8.670  10.076  68.647  1.00  0.00    -0.127 A  
HETATM   19  C   UNL     1      -8.988  12.971  68.418  1.00  0.00    -0.126 C  
HETATM   20  C   UNL     1      -7.571  11.031  69.057  1.00  0.00    -0.134 C  
ENDROOT
BRANCH  15  21
HETATM   21  O   UNL     1      -9.122   6.394  68.793  1.00  0.00    -0.126 OA 
BRANCH  21  22
HETATM   22  C   UNL     1      -7.786   6.047  68.981  1.00  0.00    -0.096 C  
HETATM   23  O   UNL     1      -7.168   6.130  70.038  1.00  0.00    -0.069 OA 
HETATM   24  N   UNL     1      -7.228   5.466  67.849  1.00  0.00    -0.071 N  
BRANCH  24  25
HETATM   25  C   UNL     1      -6.346   4.320  68.064  1.00  0.00    -0.037 C  
HETATM   26 CL   UNL     1      -5.750   1.857  69.021  1.00  0.00    -0.021 Cl 
HETATM   27  C   UNL     1      -6.934   3.183  68.886  1.00  0.00    -0.048 C  
ENDBRANCH  24  25
BRANCH  24  28
HETATM   28  C   UNL     1      -7.472   6.000  66.506  1.00  0.00    -0.090 C  
HETATM   29 CL   UNL     1      -9.849   4.710  66.066  1.00  0.00    -0.208 Cl 
HETATM   30  C   UNL     1      -8.194   5.072  65.533  1.00  0.00    -0.118 C  
ENDBRANCH  24  28
ENDBRANCH  21  22
ENDBRANCH  15  21
TORSDOF 4
ENDMDL
MODEL      154
REMARK 921   NORMALIZED FREE ENERGY PREDICTED BY IDOCK:   -3.58 KCAL/MOL
REMARK 922        TOTAL FREE ENERGY PREDICTED BY IDOCK:   -5.07 KCAL/MOL
REMARK 923 INTER-LIGAND FREE ENERGY PREDICTED BY IDOCK:   -5.38 KCAL/MOL
REMARK 924 INTRA-LIGAND FREE ENERGY PREDICTED BY IDOCK:    0.30 KCAL/MOL
REMARK 927      BINDING AFFINITY PREDICTED BY RF-SCORE:    0.00 PKD
ROOT
HETATM    1  C   UNL     1      -9.565   4.092  66.256  1.00  0.00    -0.211 C  
HETATM    2  C   UNL     1     -10.564   3.924  65.256  1.00  0.00     0.105 C  
HETATM    3  C   UNL     1      -9.404   4.649  64.660  1.00  0.00    -0.090 C  
HETATM    4  C   UNL     1      -7.858   4.720  65.973  1.00  0.00    -0.095 C  
HETATM    5  O   UNL     1      -6.474   5.069  65.956  1.00  0.00    -0.038 OA 
HETATM    6  C   UNL     1      -8.054   3.600  65.208  1.00  0.00    -0.097 C  
HETATM    7  C   UNL     1      -7.341   4.736  63.915  1.00  0.00    -0.054 C  
HETATM    8  C   UNL     1      -7.502   2.225  65.350  1.00  0.00    -0.070 C  
HETATM    9  H   UNL     1      -5.751   5.102  66.571  1.00  0.00     0.000 HD 
HETATM   10  C   UNL     1      -7.653   6.478  64.322  1.00  0.00    -0.100 C  
HETATM   11  C   UNL     1      -8.924   6.993  65.396  1.00  0.00     0.178 C  
HETATM   12  C   UNL     1      -8.927   8.441  65.901  1.00  0.00    -0.223 A  
HETATM   13  C   UNL     1      -8.171   9.442  65.261  1.00  0.00    -0.133 A  
HETATM   14  C   UNL     1      -8.353  10.798  65.570  1.00  0.00    -0.129 A  
HETATM   15  C   UNL     1      -9.298  11.163  66.530  1.00  0.00    -0.180 A  
HETATM   16  C   UNL     1     -10.063  10.192  67.165  1.00  0.00    -0.260 A  
HETATM   17  C   UNL     1     -10.958   6.479  66.966  1.00  0.00    -0.466 C  
HETATM   18  C   UNL     1      -9.905   8.834  66.852  1.00  0.00    -0.295 A  
HETATM   19  C   UNL     1      -9.577   5.941  66.618  1.00  0.00    -0.174 C  
HETATM   20  C   UNL     1     -10.818   7.870  67.576  1.00  0.00    -0.152 C  
ENDROOT
BRANCH  15  21
HETATM   21  O   UNL     1      -9.539  12.528  66.773  1.00  0.00    -0.218 OA 
BRANCH  21  22
HETATM   22  C   UNL     1     -10.840  12.875  67.132  1.00  0.00    -0.256 C  
HETATM   23  O   UNL     1     -11.852  12.237  66.856  1.00  0.00    -0.524 OA 
HETATM   24  N   UNL     1     -10.879  13.988  67.962  1.00  0.00    -0.242 N  
BRANCH  24  25
HETATM   25  C   UNL     1     -11.826  13.946  69.075  1.00  0.00    -0.358 C  
HETATM   26 CL   UNL     1     -13.392  15.070  70.978  1.00  0.00    -0.467 Cl 
HETATM   27  C   UNL     1     -12.210  15.296  69.663  1.00  0.00    -0.271 C  
ENDBRANCH  24  25
BRANCH  24  28
HETATM   28  C   UNL     1     -10.046  15.168  67.712  1.00  0.00    -0.230 C  
HETATM   29 CL   UNL     1      -7.756  14.205  68.868  1.00  0.00    -0.122 Cl 
HETATM   30  C   UNL     1      -8.987  15.481  68.766  1.00  0.00    -0.204 C  
ENDBRANCH  24  28
ENDBRANCH  21  22
ENDBRANCH  15  21
TORSDOF 4
ENDMDL
MODEL      155
REMARK 921   NORMALIZED FREE ENERGY PREDICTED BY IDOCK:   -3.37 KCAL/MOL
REMARK 922        TOTAL FREE ENERGY PREDICTED BY IDOCK:   -4.82 KCAL/MOL
REMARK 923 INTER-LIGAND FREE ENERGY PREDICTED BY IDOCK:   -4.37 KCAL/MOL
REMARK 924 INTRA-LIGAND FREE ENERGY PREDICTED BY IDOCK:   -0.45 KCAL/MOL
REMARK 927      BINDING AFFINITY PREDICTED BY RF-SCORE:    0.00 PKD
ROOT
HETATM    1  C   UNL     1     -10.795  14.366  66.227  1.00  0.00    -0.313 C  
HETATM    2  C   UNL     1      -9.814  15.059  65.463  1.00  0.00    -0.352 C  
HETATM    3  C   UNL     1     -10.315  13.901  64.665  1.00  0.00    -0.366 C  
HETATM    4  C   UNL     1     -11.874  13.009  65.610  1.00  0.00    -0.399 C  
HETATM    5  O   UNL     1     -12.872  12.034  65.308  1.00  0.00    -0.153 OA 
HETATM    6  C   UNL     1     -12.086  14.128  64.848  1.00  0.00    -0.438 C  
HETATM    7  C   UNL     1     -11.858  12.872  63.493  1.00  0.00    -0.605 C  
HETATM    8  C   UNL     1     -13.252  15.051  64.794  1.00  0.00     1.139 C  
HETATM    9  H   UNL     1     -13.602  11.617  65.750  1.00  0.00     0.000 HD 
HETATM   10  C   UNL     1     -10.836  11.478  64.048  1.00  0.00    -0.453 C  
HETATM   11  C   UNL     1      -9.742  11.578  65.401  1.00  0.00    -0.262 C  
HETATM   12  C   UNL     1      -9.146  10.284  65.969  1.00  0.00    -0.189 A  
HETATM   13  C   UNL     1      -9.160   9.084  65.233  1.00  0.00    -0.226 A  
HETATM   14  C   UNL     1      -8.414   7.970  65.644  1.00  0.00    -0.162 A  
HETATM   15  C   UNL     1      -7.645   8.050  66.807  1.00  0.00    -0.094 A  
HETATM   16  C   UNL     1      -7.607   9.228  67.542  1.00  0.00    -0.088 A  
HETATM   17  C   UNL     1      -8.610  12.915  67.349  1.00  0.00    -0.195 C  
HETATM   18  C   UNL     1      -8.333  10.356  67.131  1.00  0.00    -0.126 A  
HETATM   19  C   UNL     1      -9.965  12.736  66.679  1.00  0.00    -0.246 C  
HETATM   20  C   UNL     1      -8.184  11.595  67.986  1.00  0.00    -0.146 C  
ENDROOT
BRANCH  15  21
HETATM   21  O   UNL     1      -6.831   6.961  67.167  1.00  0.00    -0.067 OA 
BRANCH  21  22
HETATM   22  C   UNL     1      -7.196   6.267  68.319  1.00  0.00    -0.085 C  
HETATM   23  O   UNL     1      -7.345   6.759  69.433  1.00  0.00    -0.086 OA 
HETATM   24  N   UNL     1      -7.503   4.937  68.058  1.00  0.00    -0.074 N  
BRANCH  24  25
HETATM   25  C   UNL     1      -8.658   4.379  68.759  1.00  0.00    -0.085 C  
HETATM   26 CL   UNL     1      -9.875   2.633  70.436  1.00  0.00    -0.019 Cl 
HETATM   27  C   UNL     1      -8.376   3.163  69.629  1.00  0.00    -0.055 C  
ENDBRANCH  24  25
BRANCH  24  28
HETATM   28  C   UNL     1      -6.685   4.117  67.160  1.00  0.00    -0.047 C  
HETATM   29 CL   UNL     1      -8.245   4.418  64.927  1.00  0.00    -0.102 Cl 
HETATM   30  C   UNL     1      -7.439   3.339  66.084  1.00  0.00    -0.076 C  
ENDBRANCH  24  28
ENDBRANCH  21  22
ENDBRANCH  15  21
TORSDOF 4
ENDMDL
MODEL      156
REMARK 921   NORMALIZED FREE ENERGY PREDICTED BY IDOCK:   -3.36 KCAL/MOL
REMARK 922        TOTAL FREE ENERGY PREDICTED BY IDOCK:   -4.81 KCAL/MOL
REMARK 923 INTER-LIGAND FREE ENERGY PREDICTED BY IDOCK:   -5.24 KCAL/MOL
REMARK 924 INTRA-LIGAND FREE ENERGY PREDICTED BY IDOCK:    0.43 KCAL/MOL
REMARK 927      BINDING AFFINITY PREDICTED BY RF-SCORE:    0.00 PKD
ROOT
HETATM    1  C   UNL     1      -8.300   3.302  68.331  1.00  0.00    -0.094 C  
HETATM    2  C   UNL     1      -9.514   2.606  68.066  1.00  0.00    -0.205 C  
HETATM    3  C   UNL     1      -9.082   3.314  66.824  1.00  0.00    -0.186 C  
HETATM    4  C   UNL     1      -7.245   4.138  67.077  1.00  0.00    -0.068 C  
HETATM    5  O   UNL     1      -6.237   4.740  66.264  1.00  0.00    -0.030 OA 
HETATM    6  C   UNL     1      -7.360   2.812  66.750  1.00  0.00    -0.069 C  
HETATM    7  C   UNL     1      -7.754   3.571  65.096  1.00  0.00    -0.081 C  
HETATM    8  C   UNL     1      -6.363   1.709  66.824  1.00  0.00    -0.020 C  
HETATM    9  H   UNL     1      -5.378   5.125  66.382  1.00  0.00     0.000 HD 
HETATM   10  C   UNL     1      -8.434   5.244  65.282  1.00  0.00    -0.147 C  
HETATM   11  C   UNL     1      -9.173   5.814  66.753  1.00  0.00    -0.135 C  
HETATM   12  C   UNL     1      -9.453   7.314  66.910  1.00  0.00    -0.208 A  
HETATM   13  C   UNL     1      -9.471   8.177  65.797  1.00  0.00     0.020 A  
HETATM   14  C   UNL     1      -9.954   9.489  65.903  1.00  0.00    -0.342 A  
HETATM   15  C   UNL     1     -10.424   9.950  67.133  1.00  0.00    -0.242 A  
HETATM   16  C   UNL     1     -10.428   9.112  68.241  1.00  0.00    -0.254 A  
HETATM   17  C   UNL     1      -9.957   5.446  69.226  1.00  0.00    -0.277 C  
HETATM   18  C   UNL     1      -9.965   7.791  68.144  1.00  0.00    -0.207 A  
HETATM   19  C   UNL     1      -8.792   5.120  68.302  1.00  0.00    -0.107 C  
HETATM   20  C   UNL     1     -10.053   6.958  69.404  1.00  0.00    -0.176 C  
ENDROOT
BRANCH  15  21
HETATM   21  O   UNL     1     -10.989  11.236  67.215  1.00  0.00    -0.253 OA 
BRANCH  21  22
HETATM   22  C   UNL     1     -10.550  12.168  66.276  1.00  0.00    -0.250 C  
HETATM   23  O   UNL     1     -10.270  11.926  65.106  1.00  0.00    -0.259 OA 
HETATM   24  N   UNL     1     -10.569  13.465  66.772  1.00  0.00    -0.276 N  
BRANCH  24  25
HETATM   25  C   UNL     1     -11.041  14.510  65.865  1.00  0.00    -0.327 C  
HETATM   26 CL   UNL     1     -11.047  17.015  64.835  1.00  0.00    -0.098 Cl 
HETATM   27  C   UNL     1     -10.388  15.873  66.035  1.00  0.00    -0.348 C  
ENDBRANCH  24  25
BRANCH  24  28
HETATM   28  C   UNL     1     -10.097  13.784  68.123  1.00  0.00    -0.245 C  
HETATM   29 CL   UNL     1      -7.606  14.669  67.402  1.00  0.00    -0.216 Cl 
HETATM   30  C   UNL     1      -8.606  13.578  68.383  1.00  0.00    -0.142 C  
ENDBRANCH  24  28
ENDBRANCH  21  22
ENDBRANCH  15  21
TORSDOF 4
ENDMDL
MODEL      157
REMARK 921   NORMALIZED FREE ENERGY PREDICTED BY IDOCK:   -3.35 KCAL/MOL
REMARK 922        TOTAL FREE ENERGY PREDICTED BY IDOCK:   -4.79 KCAL/MOL
REMARK 923 INTER-LIGAND FREE ENERGY PREDICTED BY IDOCK:   -4.35 KCAL/MOL
REMARK 924 INTRA-LIGAND FREE ENERGY PREDICTED BY IDOCK:   -0.44 KCAL/MOL
REMARK 927      BINDING AFFINITY PREDICTED BY RF-SCORE:    0.00 PKD
ROOT
HETATM    1  C   UNL     1      -8.678  15.442  68.262  1.00  0.00    -0.164 C  
HETATM    2  C   UNL     1      -8.276  16.133  67.084  1.00  0.00    -0.225 C  
HETATM    3  C   UNL     1      -9.432  15.247  66.752  1.00  0.00    -0.264 C  
HETATM    4  C   UNL     1     -10.190  14.408  68.437  1.00  0.00    -0.243 C  
HETATM    5  O   UNL     1     -11.350  13.668  68.818  1.00  0.00    -0.253 OA 
HETATM    6  C   UNL     1     -10.558  15.679  68.082  1.00  0.00    -0.274 C  
HETATM    7  C   UNL     1     -11.558  14.712  66.844  1.00  0.00    -0.374 C  
HETATM    8  C   UNL     1     -11.223  16.749  68.875  1.00  0.00    -0.113 C  
HETATM    9  H   UNL     1     -11.705  13.275  69.606  1.00  0.00     0.000 HD 
HETATM   10  C   UNL     1     -10.794  13.103  66.490  1.00  0.00    -0.291 C  
HETATM   11  C   UNL     1      -9.109  12.765  66.774  1.00  0.00    -0.209 C  
HETATM   12  C   UNL     1      -8.624  11.311  66.719  1.00  0.00    -0.159 A  
HETATM   13  C   UNL     1      -9.394  10.304  66.107  1.00  0.00    -0.211 A  
HETATM   14  C   UNL     1      -8.857   9.035  65.847  1.00  0.00    -0.210 A  
HETATM   15  C   UNL     1      -7.535   8.764  66.204  1.00  0.00    -0.090 A  
HETATM   16  C   UNL     1      -6.753   9.746  66.797  1.00  0.00    -0.079 A  
HETATM   17  C   UNL     1      -6.716  13.497  67.551  1.00  0.00    -0.144 C  
HETATM   18  C   UNL     1      -7.273  11.025  67.046  1.00  0.00    -0.123 A  
HETATM   19  C   UNL     1      -8.178  13.654  67.944  1.00  0.00    -0.171 C  
HETATM   20  C   UNL     1      -6.319  12.027  67.659  1.00  0.00    -0.099 C  
ENDROOT
BRANCH  15  21
HETATM   21  O   UNL     1      -6.973   7.520  65.862  1.00  0.00    -0.059 OA 
BRANCH  21  22
HETATM   22  C   UNL     1      -7.831   6.422  65.890  1.00  0.00    -0.102 C  
HETATM   23  O   UNL     1      -8.588   6.130  66.810  1.00  0.00    -0.109 OA 
HETATM   24  N   UNL     1      -7.837   5.727  64.687  1.00  0.00    -0.108 N  
BRANCH  24  25
HETATM   25  C   UNL     1      -9.135   5.256  64.206  1.00  0.00     0.197 C  
HETATM   26 CL   UNL     1     -10.947   3.344  63.578  1.00  0.00    -0.189 Cl 
HETATM   27  C   UNL     1      -9.307   3.746  64.147  1.00  0.00    -0.146 C  
ENDBRANCH  24  25
BRANCH  24  28
HETATM   28  C   UNL     1      -6.601   5.438  63.955  1.00  0.00    -0.033 C  
HETATM   29 CL   UNL     1      -6.515   7.771  62.520  1.00  0.00    -0.076 Cl 
HETATM   30  C   UNL     1      -6.511   5.995  62.536  1.00  0.00    -0.029 C  
ENDBRANCH  24  28
ENDBRANCH  21  22
ENDBRANCH  15  21
TORSDOF 4
ENDMDL
MODEL      158
REMARK 921   NORMALIZED FREE ENERGY PREDICTED BY IDOCK:   -3.27 KCAL/MOL
REMARK 922        TOTAL FREE ENERGY PREDICTED BY IDOCK:   -4.69 KCAL/MOL
REMARK 923 INTER-LIGAND FREE ENERGY PREDICTED BY IDOCK:   -4.18 KCAL/MOL
REMARK 924 INTRA-LIGAND FREE ENERGY PREDICTED BY IDOCK:   -0.51 KCAL/MOL
REMARK 927      BINDING AFFINITY PREDICTED BY RF-SCORE:    0.00 PKD
ROOT
HETATM    1  C   UNL     1      -9.341   6.802  70.013  1.00  0.00    -0.158 C  
HETATM    2  C   UNL     1     -10.531   7.321  70.597  1.00  0.00    -0.226 C  
HETATM    3  C   UNL     1     -10.473   7.744  69.166  1.00  0.00    -0.219 C  
HETATM    4  C   UNL     1      -8.915   6.847  68.223  1.00  0.00    -0.124 C  
HETATM    5  O   UNL     1      -8.449   6.676  66.885  1.00  0.00    -0.112 OA 
HETATM    6  C   UNL     1     -10.097   6.172  68.383  1.00  0.00    -0.186 C  
HETATM    7  C   UNL     1     -10.589   7.334  67.013  1.00  0.00    -0.415 C  
HETATM    8  C   UNL     1     -10.406   4.722  68.251  1.00  0.00     0.031 C  
HETATM    9  H   UNL     1      -7.720   6.256  66.444  1.00  0.00     0.000 HD 
HETATM   10  C   UNL     1      -9.588   8.849  67.040  1.00  0.00    -0.232 C  
HETATM   11  C   UNL     1      -8.742   9.407  68.457  1.00  0.00    -0.128 C  
HETATM   12  C   UNL     1      -7.701  10.523  68.308  1.00  0.00    -0.101 A  
HETATM   13  C   UNL     1      -7.665  11.344  67.164  1.00  0.00    -0.152 A  
HETATM   14  C   UNL     1      -6.879  12.505  67.127  1.00  0.00    -0.058 A  
HETATM   15  C   UNL     1      -6.114  12.852  68.243  1.00  0.00    -0.082 A  
HETATM   16  C   UNL     1      -6.144  12.063  69.386  1.00  0.00    -0.098 A  
HETATM   17  C   UNL     1      -8.071   9.167  70.978  1.00  0.00    -0.179 C  
HETATM   18  C   UNL     1      -6.941  10.910  69.443  1.00  0.00    -0.125 A  
HETATM   19  C   UNL     1      -8.263   8.321  69.728  1.00  0.00    -0.121 C  
HETATM   20  C   UNL     1      -6.927  10.151  70.751  1.00  0.00     0.150 C  
ENDROOT
BRANCH  15  21
HETATM   21  O   UNL     1      -5.396  14.062  68.234  1.00  0.00    -0.096 OA 
BRANCH  21  22
HETATM   22  C   UNL     1      -6.123  15.213  67.939  1.00  0.00    -0.154 C  
HETATM   23  O   UNL     1      -6.143  15.788  66.855  1.00  0.00    -0.266 OA 
HETATM   24  N   UNL     1      -6.946  15.600  68.989  1.00  0.00    -0.134 N  
BRANCH  24  25
HETATM   25  C   UNL     1      -8.286  16.069  68.637  1.00  0.00    -0.193 C  
HETATM   26 CL   UNL     1     -10.934  16.422  69.085  1.00  0.00    -0.321 Cl 
HETATM   27  C   UNL     1      -9.379  15.754  69.646  1.00  0.00    -0.176 C  
ENDBRANCH  24  25
BRANCH  24  28
HETATM   28  C   UNL     1      -6.484  15.585  70.380  1.00  0.00     0.125 C  
HETATM   29 CL   UNL     1      -5.382  18.094  70.389  1.00  0.00    -0.242 Cl 
HETATM   30  C   UNL     1      -5.196  16.350  70.671  1.00  0.00    -0.191 C  
ENDBRANCH  24  28
ENDBRANCH  21  22
ENDBRANCH  15  21
TORSDOF 4
ENDMDL
MODEL      159
REMARK 921   NORMALIZED FREE ENERGY PREDICTED BY IDOCK:   -3.04 KCAL/MOL
REMARK 922        TOTAL FREE ENERGY PREDICTED BY IDOCK:   -4.41 KCAL/MOL
REMARK 923 INTER-LIGAND FREE ENERGY PREDICTED BY IDOCK:   -4.40 KCAL/MOL
REMARK 924 INTRA-LIGAND FREE ENERGY PREDICTED BY IDOCK:   -0.01 KCAL/MOL
REMARK 927      BINDING AFFINITY PREDICTED BY RF-SCORE:    0.00 PKD
ROOT
HETATM    1  C   UNL     1      -8.585   4.934  65.117  1.00  0.00    -0.144 C  
HETATM    2  C   UNL     1      -7.194   5.129  64.888  1.00  0.00    -0.063 C  
HETATM    3  C   UNL     1      -7.425   4.979  66.356  1.00  0.00    -0.087 C  
HETATM    4  C   UNL     1      -9.356   4.475  66.723  1.00  0.00    -0.150 C  
HETATM    5  O   UNL     1     -10.134   4.014  67.828  1.00  0.00    -0.002 OA 
HETATM    6  C   UNL     1      -8.452   3.507  66.369  1.00  0.00    -0.108 C  
HETATM    7  C   UNL     1      -7.924   3.791  68.132  1.00  0.00    -0.072 C  
HETATM    8  C   UNL     1      -8.668   2.114  65.891  1.00  0.00    -0.120 C  
HETATM    9  H   UNL     1     -11.038   3.778  68.000  1.00  0.00     0.000 HD 
HETATM   10  C   UNL     1      -8.347   5.467  68.687  1.00  0.00    -0.101 C  
HETATM   11  C   UNL     1      -8.633   6.790  67.590  1.00  0.00    -0.121 C  
HETATM   12  C   UNL     1      -9.261   8.080  68.132  1.00  0.00    -0.134 A  
HETATM   13  C   UNL     1      -9.279   8.364  69.511  1.00  0.00    -0.154 A  
HETATM   14  C   UNL     1      -9.634   9.635  69.986  1.00  0.00    -0.281 A  
HETATM   15  C   UNL     1      -9.979  10.636  69.077  1.00  0.00    -0.213 A  
HETATM   16  C   UNL     1      -9.956  10.382  67.712  1.00  0.00    -0.203 A  
HETATM   17  C   UNL     1      -8.774   7.781  65.168  1.00  0.00     0.051 C  
HETATM   18  C   UNL     1      -9.585   9.121  67.222  1.00  0.00    -0.200 A  
HETATM   19  C   UNL     1      -9.147   6.528  65.949  1.00  0.00    -0.065 C  
HETATM   20  C   UNL     1      -9.557   8.969  65.717  1.00  0.00    -0.287 C  
ENDROOT
BRANCH  15  21
HETATM   21  O   UNL     1     -10.249  11.933  69.553  1.00  0.00     0.242 OA 
BRANCH  21  22
HETATM   22  C   UNL     1     -11.576  12.353  69.492  1.00  0.00    -0.286 C  
HETATM   23  O   UNL     1     -12.531  11.785  70.012  1.00  0.00    -0.177 OA 
HETATM   24  N   UNL     1     -11.710  13.584  68.862  1.00  0.00    -0.316 N  
BRANCH  24  25
HETATM   25  C   UNL     1     -12.657  14.527  69.454  1.00  0.00     0.059 C  
HETATM   26 CL   UNL     1     -13.978  15.668  71.526  1.00  0.00    -0.477 Cl 
HETATM   27  C   UNL     1     -12.822  14.432  70.964  1.00  0.00    -0.353 C  
ENDBRANCH  24  25
BRANCH  24  28
HETATM   28  C   UNL     1     -10.974  13.910  67.637  1.00  0.00    -0.264 C  
HETATM   29 CL   UNL     1      -8.557  14.409  68.828  1.00  0.00    -0.157 Cl 
HETATM   30  C   UNL     1      -9.874  14.960  67.770  1.00  0.00    -0.217 C  
ENDBRANCH  24  28
ENDBRANCH  21  22
ENDBRANCH  15  21
TORSDOF 4
ENDMDL
MODEL      160
REMARK 921   NORMALIZED FREE ENERGY PREDICTED BY IDOCK:   -2.88 KCAL/MOL
REMARK 922        TOTAL FREE ENERGY PREDICTED BY IDOCK:   -4.22 KCAL/MOL
REMARK 923 INTER-LIGAND FREE ENERGY PREDICTED BY IDOCK:   -4.57 KCAL/MOL
REMARK 924 INTRA-LIGAND FREE ENERGY PREDICTED BY IDOCK:    0.36 KCAL/MOL
REMARK 927      BINDING AFFINITY PREDICTED BY RF-SCORE:    0.00 PKD
ROOT
HETATM    1  C   UNL     1     -10.862  18.165  68.032  1.00  0.00    -0.189 C  
HETATM    2  C   UNL     1     -10.122  18.831  69.050  1.00  0.00    -0.295 C  
HETATM    3  C   UNL     1      -9.166  18.253  68.059  1.00  0.00    -0.300 C  
HETATM    4  C   UNL     1     -10.168  17.487  66.469  1.00  0.00    -0.342 C  
HETATM    5  O   UNL     1      -9.860  17.001  65.162  1.00  0.00    -0.179 OA 
HETATM    6  C   UNL     1      -9.905  18.831  66.528  1.00  0.00    -0.398 C  
HETATM    7  C   UNL     1      -8.208  18.204  66.086  1.00  0.00    -0.174 C  
HETATM    8  C   UNL     1     -10.485  19.963  65.755  1.00  0.00    -0.518 C  
HETATM    9  H   UNL     1     -10.328  16.643  64.418  1.00  0.00     0.000 HD 
HETATM   10  C   UNL     1      -7.967  16.495  66.648  1.00  0.00    -0.320 C  
HETATM   11  C   UNL     1      -8.912  15.767  67.918  1.00  0.00    -0.180 C  
HETATM   12  C   UNL     1      -8.836  14.249  68.123  1.00  0.00    -0.183 A  
HETATM   13  C   UNL     1      -7.784  13.488  67.578  1.00  0.00    -0.182 A  
HETATM   14  C   UNL     1      -7.582  12.153  67.956  1.00  0.00    -0.123 A  
HETATM   15  C   UNL     1      -8.441  11.566  68.888  1.00  0.00     0.017 A  
HETATM   16  C   UNL     1      -9.477  12.302  69.448  1.00  0.00     1.032 A  
HETATM   17  C   UNL     1     -10.786  15.884  69.745  1.00  0.00    -0.328 C  
HETATM   18  C   UNL     1      -9.678  13.644  69.092  1.00  0.00     0.314 A  
HETATM   19  C   UNL     1     -10.505  16.337  68.319  1.00  0.00    -0.284 C  
HETATM   20  C   UNL     1     -10.811  14.359  69.794  1.00  0.00    -0.087 C  
ENDROOT
BRANCH  15  21
HETATM   21  O   UNL     1      -8.182  10.255  69.330  1.00  0.00    -0.138 OA 
BRANCH  21  22
HETATM   22  C   UNL     1      -8.944   9.243  68.750  1.00  0.00    -0.132 C  
HETATM   23  O   UNL     1      -8.969   8.962  67.556  1.00  0.00    -0.132 OA 
HETATM   24  N   UNL     1      -9.608   8.474  69.698  1.00  0.00    -0.169 N  
BRANCH  24  25
HETATM   25  C   UNL     1      -9.638   7.031  69.471  1.00  0.00    -0.153 C  
HETATM   26 CL   UNL     1     -10.313   4.800  68.089  1.00  0.00    -0.050 Cl 
HETATM   27  C   UNL     1     -10.405   6.574  68.239  1.00  0.00    -0.190 C  
ENDBRANCH  24  25
BRANCH  24  28
HETATM   28  C   UNL     1     -10.286   9.080  70.848  1.00  0.00    -0.257 C  
HETATM   29 CL   UNL     1     -11.948   6.973  71.398  1.00  0.00    -0.355 Cl 
HETATM   30  C   UNL     1     -11.751   8.702  71.043  1.00  0.00    -0.278 C  
ENDBRANCH  24  28
ENDBRANCH  21  22
ENDBRANCH  15  21
TORSDOF 4
ENDMDL
MODEL      161
REMARK 921   NORMALIZED FREE ENERGY PREDICTED BY IDOCK:   -2.30 KCAL/MOL
REMARK 922        TOTAL FREE ENERGY PREDICTED BY IDOCK:   -3.49 KCAL/MOL
REMARK 923 INTER-LIGAND FREE ENERGY PREDICTED BY IDOCK:   -3.61 KCAL/MOL
REMARK 924 INTRA-LIGAND FREE ENERGY PREDICTED BY IDOCK:    0.12 KCAL/MOL
REMARK 927      BINDING AFFINITY PREDICTED BY RF-SCORE:    0.00 PKD
ROOT
HETATM    1  C   UNL     1      -8.467   4.845  63.984  1.00  0.00    -0.137 C  
HETATM    2  C   UNL     1      -7.060   4.626  63.956  1.00  0.00    -0.050 C  
HETATM    3  C   UNL     1      -7.679   3.660  64.912  1.00  0.00    -0.081 C  
HETATM    4  C   UNL     1      -9.703   3.774  64.827  1.00  0.00    -0.184 C  
HETATM    5  O   UNL     1     -10.823   3.028  65.306  1.00  0.00     0.574 OA 
HETATM    6  C   UNL     1      -9.021   3.026  63.902  1.00  0.00    -0.097 C  
HETATM    7  C   UNL     1      -8.891   1.891  65.373  1.00  0.00    -0.120 C  
HETATM    8  C   UNL     1      -9.463   2.472  62.594  1.00  0.00    -0.089 C  
HETATM    9  H   UNL     1     -11.770   3.081  65.266  1.00  0.00     0.000 HD 
HETATM   10  C   UNL     1      -8.991   2.815  66.932  1.00  0.00    -0.171 C  
HETATM   11  C   UNL     1      -8.646   4.518  67.055  1.00  0.00    -0.104 C  
HETATM   12  C   UNL     1      -9.034   5.263  68.338  1.00  0.00    -0.116 A  
HETATM   13  C   UNL     1      -9.319   4.571  69.530  1.00  0.00    -0.221 A  
HETATM   14  C   UNL     1      -9.440   5.248  70.752  1.00  0.00    -0.221 A  
HETATM   15  C   UNL     1      -9.279   6.634  70.788  1.00  0.00    -0.155 A  
HETATM   16  C   UNL     1      -8.985   7.336  69.625  1.00  0.00    -0.141 A  
HETATM   17  C   UNL     1      -7.921   6.800  65.990  1.00  0.00    -0.109 C  
HETATM   18  C   UNL     1      -8.842   6.668  68.400  1.00  0.00    -0.121 A  
HETATM   19  C   UNL     1      -8.786   5.584  65.688  1.00  0.00    -0.154 C  
HETATM   20  C   UNL     1      -8.483   7.528  67.208  1.00  0.00    -0.118 C  
ENDROOT
BRANCH  15  21
HETATM   21  O   UNL     1      -9.315   7.298  72.028  1.00  0.00    -0.134 OA 
BRANCH  21  22
HETATM   22  C   UNL     1      -9.621   8.657  71.996  1.00  0.00    -0.314 C  
HETATM   23  O   UNL     1      -8.807   9.574  72.042  1.00  0.00     0.155 OA 
HETATM   24  N   UNL     1     -10.974   8.888  71.782  1.00  0.00    -0.339 N  
BRANCH  24  25
HETATM   25  C   UNL     1     -11.320   9.979  70.872  1.00  0.00    -0.361 C  
HETATM   26 CL   UNL     1     -10.902  11.581  68.728  1.00  0.00    -0.238 Cl 
HETATM   27  C   UNL     1     -10.314  10.254  69.764  1.00  0.00    -0.246 C  
ENDBRANCH  24  25
BRANCH  24  28
HETATM   28  C   UNL     1     -12.010   8.109  72.467  1.00  0.00    -0.350 C  
HETATM   29 CL   UNL     1     -12.585   6.423  70.385  1.00  0.00     0.391 Cl 
HETATM   30  C   UNL     1     -13.152   7.592  71.596  1.00  0.00    -0.358 C  
ENDBRANCH  24  28
ENDBRANCH  21  22
ENDBRANCH  15  21
TORSDOF 4
ENDMDL
MODEL      162
REMARK 921   NORMALIZED FREE ENERGY PREDICTED BY IDOCK:   -2.11 KCAL/MOL
REMARK 922        TOTAL FREE ENERGY PREDICTED BY IDOCK:   -3.26 KCAL/MOL
REMARK 923 INTER-LIGAND FREE ENERGY PREDICTED BY IDOCK:   -3.04 KCAL/MOL
REMARK 924 INTRA-LIGAND FREE ENERGY PREDICTED BY IDOCK:   -0.22 KCAL/MOL
REMARK 927      BINDING AFFINITY PREDICTED BY RF-SCORE:    0.00 PKD
ROOT
HETATM    1  C   UNL     1      -8.232  17.685  68.664  1.00  0.00    -0.264 C  
HETATM    2  C   UNL     1      -7.746  18.425  67.549  1.00  0.00    -0.231 C  
HETATM    3  C   UNL     1      -8.979  17.690  67.138  1.00  0.00    -0.249 C  
HETATM    4  C   UNL     1      -9.841  16.796  68.743  1.00  0.00    -0.264 C  
HETATM    5  O   UNL     1     -11.075  16.148  69.054  1.00  0.00    -0.294 OA 
HETATM    6  C   UNL     1     -10.076  18.123  68.491  1.00  0.00    -0.413 C  
HETATM    7  C   UNL     1     -11.148  17.364  67.171  1.00  0.00     0.195 C  
HETATM    8  C   UNL     1     -10.643  19.186  69.365  1.00  0.00     0.722 C  
HETATM    9  H   UNL     1     -11.478  15.730  69.805  1.00  0.00     0.000 HD 
HETATM   10  C   UNL     1     -10.543  15.721  66.692  1.00  0.00    -0.307 C  
HETATM   11  C   UNL     1      -8.904  15.195  66.957  1.00  0.00    -0.258 C  
HETATM   12  C   UNL     1      -8.565  13.709  66.787  1.00  0.00    -0.050 A  
HETATM   13  C   UNL     1      -9.423  12.837  66.089  1.00  0.00    -0.169 A  
HETATM   14  C   UNL     1      -9.010  11.546  65.728  1.00  0.00    -0.120 A  
HETATM   15  C   UNL     1      -7.727  11.115  66.071  1.00  0.00    -0.001 A  
HETATM   16  C   UNL     1      -6.860  11.963  66.749  1.00  0.00    -0.006 A  
HETATM   17  C   UNL     1      -6.462  15.617  67.808  1.00  0.00    -0.181 C  
HETATM   18  C   UNL     1      -7.254  13.263  67.098  1.00  0.00     0.108 A  
HETATM   19  C   UNL     1      -7.907  15.887  68.203  1.00  0.00    -0.134 C  
HETATM   20  C   UNL     1      -6.215  14.111  67.798  1.00  0.00    -0.153 C  
ENDROOT
BRANCH  15  21
HETATM   21  O   UNL     1      -7.287   9.852  65.632  1.00  0.00    -0.105 OA 
BRANCH  21  22
HETATM   22  C   UNL     1      -6.720   9.022  66.597  1.00  0.00    -0.075 C  
HETATM   23  O   UNL     1      -5.597   8.529  66.546  1.00  0.00    -0.037 OA 
HETATM   24  N   UNL     1      -7.528   8.892  67.719  1.00  0.00    -0.092 N  
BRANCH  24  25
HETATM   25  C   UNL     1      -6.857   8.912  69.018  1.00  0.00    -0.059 C  
HETATM   26 CL   UNL     1      -6.098   7.823  71.380  1.00  0.00    -0.035 Cl 
HETATM   27  C   UNL     1      -7.001   7.647  69.853  1.00  0.00    -0.054 C  
ENDBRANCH  24  25
BRANCH  24  28
HETATM   28  C   UNL     1      -8.977   8.698  67.612  1.00  0.00    -0.135 C  
HETATM   29 CL   UNL     1      -9.713  10.899  69.069  1.00  0.00    -0.205 Cl 
HETATM   30  C   UNL     1      -9.808   9.144  68.812  1.00  0.00    -0.167 C  
ENDBRANCH  24  28
ENDBRANCH  21  22
ENDBRANCH  15  21
TORSDOF 4
ENDMDL
MODEL      163
REMARK 921   NORMALIZED FREE ENERGY PREDICTED BY IDOCK:   -1.09 KCAL/MOL
REMARK 922        TOTAL FREE ENERGY PREDICTED BY IDOCK:   -2.00 KCAL/MOL
REMARK 923 INTER-LIGAND FREE ENERGY PREDICTED BY IDOCK:   -5.12 KCAL/MOL
REMARK 924 INTRA-LIGAND FREE ENERGY PREDICTED BY IDOCK:    3.12 KCAL/MOL
REMARK 927      BINDING AFFINITY PREDICTED BY RF-SCORE:    0.00 PKD
ROOT
HETATM    1  C   UNL     1     -12.393  12.959  68.806  1.00  0.00     0.175 C  
HETATM    2  C   UNL     1     -11.899  13.993  69.651  1.00  0.00    -0.386 C  
HETATM    3  C   UNL     1     -10.773  13.467  68.824  1.00  0.00    -0.261 C  
HETATM    4  C   UNL     1     -11.460  12.148  67.443  1.00  0.00    -0.345 C  
HETATM    5  O   UNL     1     -10.964  11.480  66.283  1.00  0.00    -0.285 OA 
HETATM    6  C   UNL     1     -11.531  13.495  67.196  1.00  0.00    -0.368 C  
HETATM    7  C   UNL     1      -9.709  13.227  66.919  1.00  0.00    -0.248 C  
HETATM    8  C   UNL     1     -12.316  14.251  66.183  1.00  0.00    -0.411 C  
HETATM    9  H   UNL     1     -11.286  10.863  65.637  1.00  0.00     0.000 HD 
HETATM   10  C   UNL     1      -9.102  11.795  67.857  1.00  0.00    -0.181 C  
HETATM   11  C   UNL     1      -9.922  11.153  69.253  1.00  0.00    -0.034 C  
HETATM   12  C   UNL     1      -9.498   9.784  69.798  1.00  0.00    -0.253 A  
HETATM   13  C   UNL     1      -8.263   9.206  69.447  1.00  0.00    -0.118 A  
HETATM   14  C   UNL     1      -7.771   8.078  70.121  1.00  0.00    -0.087 A  
HETATM   15  C   UNL     1      -8.520   7.516  71.156  1.00  0.00    -0.117 A  
HETATM   16  C   UNL     1      -9.735   8.077  71.527  1.00  0.00    -0.213 A  
HETATM   17  C   UNL     1     -11.880  11.199  70.994  1.00  0.00    -0.128 C  
HETATM   18  C   UNL     1     -10.229   9.216  70.874  1.00  0.00    -0.351 A  
HETATM   19  C   UNL     1     -11.628  11.384  69.504  1.00  0.00    -0.399 C  
HETATM   20  C   UNL     1     -11.542   9.764  71.388  1.00  0.00    -0.452 C  
ENDROOT
BRANCH  15  21
HETATM   21  O   UNL     1      -7.983   6.439  71.886  1.00  0.00    -0.103 OA 
BRANCH  21  22
HETATM   22  C   UNL     1      -8.250   5.162  71.396  1.00  0.00    -0.115 C  
HETATM   23  O   UNL     1      -7.411   4.359  70.999  1.00  0.00    -0.049 OA 
HETATM   24  N   UNL     1      -9.592   4.824  71.511  1.00  0.00    -0.153 N  
BRANCH  24  25
HETATM   25  C   UNL     1      -9.892   3.458  71.935  1.00  0.00    -0.167 C  
HETATM   26 CL   UNL     1     -11.061   1.610  73.535  1.00  0.00    -0.242 Cl 
HETATM   27  C   UNL     1     -10.762   3.331  73.178  1.00  0.00    -0.164 C  
ENDBRANCH  24  25
BRANCH  24  28
HETATM   28  C   UNL     1     -10.660   5.772  71.180  1.00  0.00    -0.251 C  
HETATM   29 CL   UNL     1     -11.427   6.315  73.754  1.00  0.00     0.690 Cl 
HETATM   30  C   UNL     1     -11.865   5.784  72.117  1.00  0.00    -0.108 C  
ENDBRANCH  24  28
ENDBRANCH  21  22
ENDBRANCH  15  21
TORSDOF 4
ENDMDL
MODEL      164
REMARK 921   NORMALIZED FREE ENERGY PREDICTED BY IDOCK:    0.11 KCAL/MOL
REMARK 922        TOTAL FREE ENERGY PREDICTED BY IDOCK:   -0.53 KCAL/MOL
REMARK 923 INTER-LIGAND FREE ENERGY PREDICTED BY IDOCK:   -1.67 KCAL/MOL
REMARK 924 INTRA-LIGAND FREE ENERGY PREDICTED BY IDOCK:    1.14 KCAL/MOL
REMARK 927      BINDING AFFINITY PREDICTED BY RF-SCORE:    0.00 PKD
ROOT
HETATM    1  C   UNL     1      -6.756  14.839  70.321  1.00  0.00    -0.054 C  
HETATM    2  C   UNL     1      -5.406  15.254  70.137  1.00  0.00    -0.124 C  
HETATM    3  C   UNL     1      -5.977  14.870  68.812  1.00  0.00    -0.084 C  
HETATM    4  C   UNL     1      -7.963  14.485  68.978  1.00  0.00    -0.090 C  
HETATM    5  O   UNL     1      -9.074  14.276  68.107  1.00  0.00    -0.180 OA 
HETATM    6  C   UNL     1      -7.525  15.778  68.856  1.00  0.00    -0.173 C  
HETATM    7  C   UNL     1      -7.302  15.209  67.097  1.00  0.00    -0.145 C  
HETATM    8  C   UNL     1      -8.227  17.064  69.119  1.00  0.00    -0.034 C  
HETATM    9  H   UNL     1     -10.003  14.096  68.184  1.00  0.00     0.000 HD 
HETATM   10  C   UNL     1      -7.050  13.413  67.009  1.00  0.00     0.425 C  
HETATM   11  C   UNL     1      -6.492  12.463  68.359  1.00  0.00    -0.058 C  
HETATM   12  C   UNL     1      -6.586  10.934  68.279  1.00  0.00    -0.058 A  
HETATM   13  C   UNL     1      -6.761  10.274  67.048  1.00  0.00    -0.079 A  
HETATM   14  C   UNL     1      -6.611   8.884  66.941  1.00  0.00    -0.061 A  
HETATM   15  C   UNL     1      -6.285   8.139  68.076  1.00  0.00    -0.047 A  
HETATM   16  C   UNL     1      -6.095   8.772  69.298  1.00  0.00    -0.042 A  
HETATM   17  C   UNL     1      -5.680  12.248  70.841  1.00  0.00    -0.028 C  
HETATM   18  C   UNL     1      -6.224  10.164  69.414  1.00  0.00    -0.046 A  
HETATM   19  C   UNL     1      -6.718  12.982  70.004  1.00  0.00     0.327 C  
HETATM   20  C   UNL     1      -5.956  10.748  70.784  1.00  0.00    -0.048 C  
ENDROOT
BRANCH  15  21
HETATM   21  O   UNL     1      -6.050   6.758  67.947  1.00  0.00    -0.029 OA 
BRANCH  21  22
HETATM   22  C   UNL     1      -7.052   5.911  68.414  1.00  0.00    -0.081 C  
HETATM   23  O   UNL     1      -6.945   5.125  69.351  1.00  0.00    -0.052 OA 
HETATM   24  N   UNL     1      -8.266   6.128  67.774  1.00  0.00    -0.116 N  
BRANCH  24  25
HETATM   25  C   UNL     1      -9.465   6.100  68.610  1.00  0.00    -0.124 C  
HETATM   26 CL   UNL     1     -10.961   5.212  70.687  1.00  0.00    -0.024 Cl 
HETATM   27  C   UNL     1      -9.450   5.091  69.749  1.00  0.00    -0.150 C  
ENDBRANCH  24  25
BRANCH  24  28
HETATM   28  C   UNL     1      -8.351   6.331  66.325  1.00  0.00    -0.122 C  
HETATM   29 CL   UNL     1     -10.122   4.304  65.812  1.00  0.00    -0.237 Cl 
HETATM   30  C   UNL     1      -8.558   5.077  65.479  1.00  0.00    -0.139 C  
ENDBRANCH  24  28
ENDBRANCH  21  22
ENDBRANCH  15  21
TORSDOF 4
ENDMDL
MODEL      165
REMARK 921   NORMALIZED FREE ENERGY PREDICTED BY IDOCK:    0.15 KCAL/MOL
REMARK 922        TOTAL FREE ENERGY PREDICTED BY IDOCK:   -0.47 KCAL/MOL
REMARK 923 INTER-LIGAND FREE ENERGY PREDICTED BY IDOCK:   -1.74 KCAL/MOL
REMARK 924 INTRA-LIGAND FREE ENERGY PREDICTED BY IDOCK:    1.27 KCAL/MOL
REMARK 927      BINDING AFFINITY PREDICTED BY RF-SCORE:    0.00 PKD
ROOT
HETATM    1  C   UNL     1      -5.878   7.201  66.573  1.00  0.00    -0.034 C  
HETATM    2  C   UNL     1      -5.368   6.554  67.735  1.00  0.00    -0.005 C  
HETATM    3  C   UNL     1      -6.806   6.188  67.572  1.00  0.00    -0.063 C  
HETATM    4  C   UNL     1      -7.526   6.899  65.812  1.00  0.00    -0.084 C  
HETATM    5  O   UNL     1      -8.693   6.736  65.007  1.00  0.00    -0.352 OA 
HETATM    6  C   UNL     1      -6.824   5.722  65.838  1.00  0.00    -0.060 C  
HETATM    7  C   UNL     1      -8.438   5.132  66.553  1.00  0.00    -0.111 C  
HETATM    8  C   UNL     1      -6.194   4.950  64.732  1.00  0.00    -0.033 C  
HETATM    9  H   UNL     1      -9.030   7.069  64.184  1.00  0.00     0.000 HD 
HETATM   10  C   UNL     1      -9.334   6.486  67.367  1.00  0.00    -0.125 C  
HETATM   11  C   UNL     1      -8.558   7.939  67.931  1.00  0.00    -0.125 C  
HETATM   12  C   UNL     1      -9.427   9.135  68.337  1.00  0.00    -0.150 A  
HETATM   13  C   UNL     1     -10.800   8.984  68.612  1.00  0.00    -0.061 A  
HETATM   14  C   UNL     1     -11.540  10.016  69.207  1.00  0.00    -0.043 A  
HETATM   15  C   UNL     1     -10.905  11.217  69.531  1.00  0.00    -0.188 A  
HETATM   16  C   UNL     1      -9.549  11.383  69.280  1.00  0.00     0.225 A  
HETATM   17  C   UNL     1      -6.422   9.415  68.289  1.00  0.00    -0.054 C  
HETATM   18  C   UNL     1      -8.794  10.352  68.703  1.00  0.00    -0.142 A  
HETATM   19  C   UNL     1      -7.060   8.504  67.250  1.00  0.00    -0.076 C  
HETATM   20  C   UNL     1      -7.319  10.629  68.513  1.00  0.00    -0.090 C  
ENDROOT
BRANCH  15  21
HETATM   21  O   UNL     1     -11.630  12.216  70.207  1.00  0.00    -0.208 OA 
BRANCH  21  22
HETATM   22  C   UNL     1     -11.325  13.535  69.878  1.00  0.00    -0.031 C  
HETATM   23  O   UNL     1     -10.329  13.906  69.264  1.00  0.00    -0.084 OA 
HETATM   24  N   UNL     1     -12.346  14.413  70.219  1.00  0.00    -0.332 N  
BRANCH  24  25
HETATM   25  C   UNL     1     -12.653  15.470  69.257  1.00  0.00     0.215 C  
HETATM   26 CL   UNL     1     -12.018  17.261  67.327  1.00  0.00     1.791 Cl 
HETATM   27  C   UNL     1     -11.467  16.014  68.475  1.00  0.00    -0.357 C  
ENDBRANCH  24  25
BRANCH  24  28
HETATM   28  C   UNL     1     -13.053  14.317  71.499  1.00  0.00    -0.343 C  
HETATM   29 CL   UNL     1     -11.914  16.517  72.670  1.00  0.00    -0.582 Cl 
HETATM   30  C   UNL     1     -12.282  14.781  72.732  1.00  0.00    -0.234 C  
ENDBRANCH  24  28
ENDBRANCH  21  22
ENDBRANCH  15  21
TORSDOF 4
ENDMDL
MODEL      166
REMARK 921   NORMALIZED FREE ENERGY PREDICTED BY IDOCK:    0.25 KCAL/MOL
REMARK 922        TOTAL FREE ENERGY PREDICTED BY IDOCK:   -0.36 KCAL/MOL
REMARK 923 INTER-LIGAND FREE ENERGY PREDICTED BY IDOCK:   -2.44 KCAL/MOL
REMARK 924 INTRA-LIGAND FREE ENERGY PREDICTED BY IDOCK:    2.08 KCAL/MOL
REMARK 927      BINDING AFFINITY PREDICTED BY RF-SCORE:    0.00 PKD
ROOT
HETATM    1  C   UNL     1      -8.491   8.249  64.669  1.00  0.00    -0.069 C  
HETATM    2  C   UNL     1      -9.113   9.529  64.632  1.00  0.00    -0.263 C  
HETATM    3  C   UNL     1      -7.722   9.684  65.153  1.00  0.00    -0.117 C  
HETATM    4  C   UNL     1      -6.713   7.928  65.017  1.00  0.00    -0.051 C  
HETATM    5  O   UNL     1      -5.367   7.472  65.147  1.00  0.00    -0.028 OA 
HETATM    6  C   UNL     1      -6.813   8.745  63.921  1.00  0.00    -0.087 C  
HETATM    7  C   UNL     1      -5.543   9.693  64.898  1.00  0.00    -0.063 C  
HETATM    8  C   UNL     1      -6.560   8.464  62.482  1.00  0.00    -0.091 C  
HETATM    9  H   UNL     1      -4.895   6.650  65.083  1.00  0.00     0.000 HD 
HETATM   10  C   UNL     1      -5.698   9.367  66.678  1.00  0.00    -0.054 C  
HETATM   11  C   UNL     1      -7.158   8.765  67.412  1.00  0.00    -0.079 C  
HETATM   12  C   UNL     1      -7.106   8.251  68.856  1.00  0.00    -0.066 A  
HETATM   13  C   UNL     1      -6.035   8.574  69.710  1.00  0.00    -0.028 A  
HETATM   14  C   UNL     1      -6.097   8.307  71.086  1.00  0.00    -0.035 A  
HETATM   15  C   UNL     1      -7.240   7.708  71.618  1.00  0.00    -0.064 A  
HETATM   16  C   UNL     1      -8.313   7.392  70.795  1.00  0.00    -0.119 A  
HETATM   17  C   UNL     1      -9.654   7.980  67.261  1.00  0.00    -0.210 C  
HETATM   18  C   UNL     1      -8.272   7.671  69.421  1.00  0.00    -0.129 A  
HETATM   19  C   UNL     1      -8.337   7.862  66.507  1.00  0.00    -0.127 C  
HETATM   20  C   UNL     1      -9.512   7.321  68.630  1.00  0.00    -0.137 C  
ENDROOT
BRANCH  15  21
HETATM   21  O   UNL     1      -7.333   7.523  73.010  1.00  0.00    -0.072 OA 
BRANCH  21  22
HETATM   22  C   UNL     1      -8.062   6.416  73.441  1.00  0.00    -0.109 C  
HETATM   23  O   UNL     1      -8.860   6.405  74.373  1.00  0.00    -0.136 OA 
HETATM   24  N   UNL     1      -7.883   5.313  72.616  1.00  0.00    -0.098 N  
BRANCH  24  25
HETATM   25  C   UNL     1      -9.072   4.517  72.315  1.00  0.00    -0.125 C  
HETATM   26 CL   UNL     1     -11.508   3.475  72.879  1.00  0.00     0.132 Cl 
HETATM   27  C   UNL     1     -10.115   4.448  73.420  1.00  0.00    -0.153 C  
ENDBRANCH  24  25
BRANCH  24  28
HETATM   28  C   UNL     1      -6.562   4.934  72.106  1.00  0.00    -0.043 C  
HETATM   29 CL   UNL     1      -5.922   3.185  74.116  1.00  0.00    -0.007 Cl 
HETATM   30  C   UNL     1      -5.499   4.618  73.156  1.00  0.00    -0.008 C  
ENDBRANCH  24  28
ENDBRANCH  21  22
ENDBRANCH  15  21
TORSDOF 4
ENDMDL
MODEL      167
REMARK 921   NORMALIZED FREE ENERGY PREDICTED BY IDOCK:    0.68 KCAL/MOL
REMARK 922        TOTAL FREE ENERGY PREDICTED BY IDOCK:    0.18 KCAL/MOL
REMARK 923 INTER-LIGAND FREE ENERGY PREDICTED BY IDOCK:   -0.10 KCAL/MOL
REMARK 924 INTRA-LIGAND FREE ENERGY PREDICTED BY IDOCK:    0.27 KCAL/MOL
REMARK 927      BINDING AFFINITY PREDICTED BY RF-SCORE:    0.00 PKD
ROOT
HETATM    1  C   UNL     1     -10.496  15.849  66.710  1.00  0.00    -0.309 C  
HETATM    2  C   UNL     1      -9.257  16.121  66.063  1.00  0.00    -0.363 C  
HETATM    3  C   UNL     1      -9.853  14.890  65.465  1.00  0.00    -0.348 C  
HETATM    4  C   UNL     1     -11.723  14.581  66.189  1.00  0.00    -0.350 C  
HETATM    5  O   UNL     1     -12.845  13.748  65.895  1.00  0.00    -0.438 OA 
HETATM    6  C   UNL     1     -11.527  15.461  65.157  1.00  0.00    -0.208 C  
HETATM    7  C   UNL     1     -11.344  13.856  64.231  1.00  0.00    -0.309 C  
HETATM    8  C   UNL     1     -12.418  16.519  64.608  1.00  0.00     2.247 C  
HETATM    9  H   UNL     1     -13.720  13.604  66.234  1.00  0.00     0.000 HD 
HETATM   10  C   UNL     1     -10.792  12.519  65.329  1.00  0.00    -0.321 C  
HETATM   11  C   UNL     1      -9.977  12.803  66.841  1.00  0.00    -0.232 C  
HETATM   12  C   UNL     1      -9.810  11.638  67.825  1.00  0.00    -0.186 A  
HETATM   13  C   UNL     1      -9.963  10.301  67.410  1.00  0.00    -0.230 A  
HETATM   14  C   UNL     1      -9.582   9.236  68.239  1.00  0.00    -0.160 A  
HETATM   15  C   UNL     1      -9.046   9.504  69.500  1.00  0.00    -0.185 A  
HETATM   16  C   UNL     1      -8.875  10.816  69.924  1.00  0.00     0.621 A  
HETATM   17  C   UNL     1      -8.951  14.416  68.634  1.00  0.00    -0.172 C  
HETATM   18  C   UNL     1      -9.234  11.891  69.097  1.00  0.00     0.437 A  
HETATM   19  C   UNL     1     -10.161  14.294  67.719  1.00  0.00    -0.235 C  
HETATM   20  C   UNL     1      -8.966  13.275  69.646  1.00  0.00     1.810 C  
ENDROOT
BRANCH  15  21
HETATM   21  O   UNL     1      -8.586   8.436  70.292  1.00  0.00    -0.121 OA 
BRANCH  21  22
HETATM   22  C   UNL     1      -9.403   7.309  70.351  1.00  0.00    -0.158 C  
HETATM   23  O   UNL     1     -10.618   7.316  70.522  1.00  0.00    -0.215 OA 
HETATM   24  N   UNL     1      -8.708   6.139  70.072  1.00  0.00    -0.135 N  
BRANCH  24  25
HETATM   25  C   UNL     1      -9.389   5.154  69.233  1.00  0.00    -0.123 C  
HETATM   26 CL   UNL     1      -9.555   2.815  67.877  1.00  0.00    -0.186 Cl 
HETATM   27  C   UNL     1      -8.571   3.925  68.866  1.00  0.00    -0.084 C  
ENDBRANCH  24  25
BRANCH  24  28
HETATM   28  C   UNL     1      -7.376   5.880  70.626  1.00  0.00    -0.085 C  
HETATM   29 CL   UNL     1      -5.942   6.835  68.495  1.00  0.00    -0.024 Cl 
HETATM   30  C   UNL     1      -6.289   5.506  69.621  1.00  0.00    -0.033 C  
ENDBRANCH  24  28
ENDBRANCH  21  22
ENDBRANCH  15  21
TORSDOF 4
ENDMDL
MODEL      168
REMARK 921   NORMALIZED FREE ENERGY PREDICTED BY IDOCK:    0.71 KCAL/MOL
REMARK 922        TOTAL FREE ENERGY PREDICTED BY IDOCK:    0.21 KCAL/MOL
REMARK 923 INTER-LIGAND FREE ENERGY PREDICTED BY IDOCK:   -3.76 KCAL/MOL
REMARK 924 INTRA-LIGAND FREE ENERGY PREDICTED BY IDOCK:    3.97 KCAL/MOL
REMARK 927      BINDING AFFINITY PREDICTED BY RF-SCORE:    0.00 PKD
ROOT
HETATM    1  C   UNL     1      -9.858  19.221  68.741  1.00  0.00    -0.514 C  
HETATM    2  C   UNL     1      -9.250  19.385  70.018  1.00  0.00     0.875 C  
HETATM    3  C   UNL     1      -8.302  18.656  69.123  1.00  0.00     0.002 C  
HETATM    4  C   UNL     1      -9.022  18.590  67.227  1.00  0.00    -0.270 C  
HETATM    5  O   UNL     1      -8.545  18.240  65.928  1.00  0.00    -0.502 OA 
HETATM    6  C   UNL     1      -8.362  19.707  67.669  1.00  0.00    -0.343 C  
HETATM    7  C   UNL     1      -6.911  18.565  67.430  1.00  0.00    -0.207 C  
HETATM    8  C   UNL     1      -8.305  21.082  67.103  1.00  0.00     0.012 C  
HETATM    9  H   UNL     1      -8.881  18.210  65.041  1.00  0.00     0.000 HD 
HETATM   10  C   UNL     1      -7.406  16.825  67.585  1.00  0.00    -0.164 C  
HETATM   11  C   UNL     1      -8.846  16.316  68.422  1.00  0.00    -0.202 C  
HETATM   12  C   UNL     1      -9.329  14.870  68.254  1.00  0.00    -0.195 A  
HETATM   13  C   UNL     1      -8.478  13.865  67.756  1.00  0.00    -0.183 A  
HETATM   14  C   UNL     1      -8.835  12.511  67.823  1.00  0.00    -0.178 A  
HETATM   15  C   UNL     1     -10.059  12.151  68.391  1.00  0.00    -0.209 A  
HETATM   16  C   UNL     1     -10.909  13.125  68.900  1.00  0.00    -0.240 A  
HETATM   17  C   UNL     1     -11.004  16.838  69.814  1.00  0.00    -0.096 C  
HETATM   18  C   UNL     1     -10.554  14.481  68.857  1.00  0.00    -0.249 A  
HETATM   19  C   UNL     1     -10.211  17.373  68.630  1.00  0.00    -0.361 C  
HETATM   20  C   UNL     1     -11.538  15.449  69.476  1.00  0.00    -0.346 C  
ENDROOT
BRANCH  15  21
HETATM   21  O   UNL     1     -10.374  10.787  68.535  1.00  0.00    -0.169 OA 
BRANCH  21  22
HETATM   22  C   UNL     1      -9.694   9.901  67.703  1.00  0.00    -0.155 C  
HETATM   23  O   UNL     1     -10.170   9.325  66.729  1.00  0.00    -0.242 OA 
HETATM   24  N   UNL     1      -8.343   9.814  68.017  1.00  0.00    -0.110 N  
BRANCH  24  25
HETATM   25  C   UNL     1      -7.408   9.762  66.895  1.00  0.00    -0.091 C  
HETATM   26 CL   UNL     1      -6.299   8.617  64.705  1.00  0.00    -0.065 Cl 
HETATM   27  C   UNL     1      -7.471   8.502  66.044  1.00  0.00    -0.085 C  
ENDBRANCH  24  25
BRANCH  24  28
HETATM   28  C   UNL     1      -7.876   9.732  69.404  1.00  0.00    -0.114 C  
HETATM   29 CL   UNL     1     -10.336   9.399  70.562  1.00  0.00    -0.314 Cl 
HETATM   30  C   UNL     1      -8.812  10.304  70.466  1.00  0.00     0.954 C  
ENDBRANCH  24  28
ENDBRANCH  21  22
ENDBRANCH  15  21
TORSDOF 4
ENDMDL
MODEL      169
REMARK 921   NORMALIZED FREE ENERGY PREDICTED BY IDOCK:    0.90 KCAL/MOL
REMARK 922        TOTAL FREE ENERGY PREDICTED BY IDOCK:    0.45 KCAL/MOL
REMARK 923 INTER-LIGAND FREE ENERGY PREDICTED BY IDOCK:   -0.59 KCAL/MOL
REMARK 924 INTRA-LIGAND FREE ENERGY PREDICTED BY IDOCK:    1.04 KCAL/MOL
REMARK 927      BINDING AFFINITY PREDICTED BY RF-SCORE:    0.00 PKD
ROOT
HETATM    1  C   UNL     1      -6.707  14.756  70.412  1.00  0.00     0.024 C  
HETATM    2  C   UNL     1      -5.393  15.026  69.935  1.00  0.00    -0.103 C  
HETATM    3  C   UNL     1      -6.224  14.525  68.800  1.00  0.00    -0.087 C  
HETATM    4  C   UNL     1      -8.163  14.336  69.368  1.00  0.00     0.300 C  
HETATM    5  O   UNL     1      -9.428  14.112  68.745  1.00  0.00    -0.298 OA 
HETATM    6  C   UNL     1      -7.678  15.560  68.987  1.00  0.00    -0.192 C  
HETATM    7  C   UNL     1      -7.823  14.752  67.315  1.00  0.00    -0.223 C  
HETATM    8  C   UNL     1      -8.240  16.925  69.184  1.00  0.00    -0.066 C  
HETATM    9  H   UNL     1     -10.335  14.024  69.011  1.00  0.00     0.000 HD 
HETATM   10  C   UNL     1      -7.700  12.945  67.442  1.00  0.00    -0.160 C  
HETATM   11  C   UNL     1      -6.959  12.133  68.793  1.00  0.00    -0.101 C  
HETATM   12  C   UNL     1      -7.158  10.620  68.950  1.00  0.00    -0.078 A  
HETATM   13  C   UNL     1      -7.600   9.824  67.876  1.00  0.00    -0.086 A  
HETATM   14  C   UNL     1      -7.557   8.424  67.944  1.00  0.00    -0.099 A  
HETATM   15  C   UNL     1      -7.070   7.807  69.098  1.00  0.00    -0.073 A  
HETATM   16  C   UNL     1      -6.617   8.574  70.165  1.00  0.00    -0.038 A  
HETATM   17  C   UNL     1      -5.712  12.171  71.097  1.00  0.00     0.159 C  
HETATM   18  C   UNL     1      -6.637   9.975  70.102  1.00  0.00    -0.117 A  
HETATM   19  C   UNL     1      -6.841  12.877  70.361  1.00  0.00     1.137 C  
HETATM   20  C   UNL     1      -6.083  10.706  71.305  1.00  0.00     0.340 C  
ENDROOT
BRANCH  15  21
HETATM   21  O   UNL     1      -6.947   6.406  69.128  1.00  0.00    -0.063 OA 
BRANCH  21  22
HETATM   22  C   UNL     1      -8.126   5.676  68.993  1.00  0.00    -0.097 C  
HETATM   23  O   UNL     1      -8.894   5.728  68.037  1.00  0.00    -0.110 OA 
HETATM   24  N   UNL     1      -8.301   4.761  70.024  1.00  0.00    -0.068 N  
BRANCH  24  25
HETATM   25  C   UNL     1      -8.813   3.443  69.655  1.00  0.00    -0.090 C  
HETATM   26 CL   UNL     1      -9.997   1.677  67.976  1.00  0.00     0.242 Cl 
HETATM   27  C   UNL     1      -9.463   3.350  68.282  1.00  0.00    -0.148 C  
ENDBRANCH  24  25
BRANCH  24  28
HETATM   28  C   UNL     1      -8.029   5.110  71.422  1.00  0.00    -0.112 C  
HETATM   29 CL   UNL     1     -10.389   4.181  72.458  1.00  0.00    -0.238 Cl 
HETATM   30  C   UNL     1      -9.236   5.517  72.262  1.00  0.00    -0.142 C  
ENDBRANCH  24  28
ENDBRANCH  21  22
ENDBRANCH  15  21
TORSDOF 4
ENDMDL
MODEL      170
REMARK 921   NORMALIZED FREE ENERGY PREDICTED BY IDOCK:    1.84 KCAL/MOL
REMARK 922        TOTAL FREE ENERGY PREDICTED BY IDOCK:    1.61 KCAL/MOL
REMARK 923 INTER-LIGAND FREE ENERGY PREDICTED BY IDOCK:    1.23 KCAL/MOL
REMARK 924 INTRA-LIGAND FREE ENERGY PREDICTED BY IDOCK:    0.38 KCAL/MOL
REMARK 927      BINDING AFFINITY PREDICTED BY RF-SCORE:    0.00 PKD
ROOT
HETATM    1  C   UNL     1      -9.334   4.493  63.077  1.00  0.00    -0.074 C  
HETATM    2  C   UNL     1      -8.511   3.480  62.507  1.00  0.00    -0.077 C  
HETATM    3  C   UNL     1      -9.187   2.927  63.719  1.00  0.00    -0.103 C  
HETATM    4  C   UNL     1     -10.543   4.252  64.443  1.00  0.00    -0.052 C  
HETATM    5  O   UNL     1     -11.603   4.261  65.399  1.00  0.00    -0.672 OA 
HETATM    6  C   UNL     1     -10.880   3.431  63.399  1.00  0.00    -0.200 C  
HETATM    7  C   UNL     1     -10.956   2.201  64.795  1.00  0.00     1.772 C  
HETATM    8  C   UNL     1     -12.014   3.508  62.437  1.00  0.00     1.506 C  
HETATM    9  H   UNL     1     -12.238   4.881  65.738  1.00  0.00     0.000 HD 
HETATM   10  C   UNL     1      -9.873   2.691  66.167  1.00  0.00     0.587 C  
HETATM   11  C   UNL     1      -8.528   3.782  65.977  1.00  0.00    -0.110 C  
HETATM   12  C   UNL     1      -7.858   4.359  67.230  1.00  0.00    -0.096 A  
HETATM   13  C   UNL     1      -8.046   3.774  68.497  1.00  0.00    -0.079 A  
HETATM   14  C   UNL     1      -7.256   4.148  69.594  1.00  0.00    -0.049 A  
HETATM   15  C   UNL     1      -6.268   5.120  69.429  1.00  0.00    -0.033 A  
HETATM   16  C   UNL     1      -6.057   5.701  68.185  1.00  0.00    -0.018 A  
HETATM   17  C   UNL     1      -6.999   5.312  64.498  1.00  0.00    -0.049 C  
HETATM   18  C   UNL     1      -6.827   5.322  67.075  1.00  0.00    -0.063 A  
HETATM   19  C   UNL     1      -8.465   4.946  64.686  1.00  0.00    -0.143 C  
HETATM   20  C   UNL     1      -6.483   5.991  65.763  1.00  0.00    -0.043 C  
ENDROOT
BRANCH  15  21
HETATM   21  O   UNL     1      -5.421   5.429  70.510  1.00  0.00    -0.004 OA 
BRANCH  21  22
HETATM   22  C   UNL     1      -5.998   6.120  71.573  1.00  0.00    -0.035 C  
HETATM   23  O   UNL     1      -5.939   7.332  71.755  1.00  0.00    -0.037 OA 
HETATM   24  N   UNL     1      -6.775   5.295  72.378  1.00  0.00    -0.066 N  
BRANCH  24  25
HETATM   25  C   UNL     1      -8.044   5.845  72.852  1.00  0.00    -0.114 C  
HETATM   26 CL   UNL     1     -10.568   6.769  72.521  1.00  0.00    -0.234 Cl 
HETATM   27  C   UNL     1      -9.075   6.144  71.774  1.00  0.00    -0.144 C  
ENDBRANCH  24  25
BRANCH  24  28
HETATM   28  C   UNL     1      -6.329   3.956  72.771  1.00  0.00    -0.013 C  
HETATM   29 CL   UNL     1      -8.779   3.009  73.552  1.00  0.00    -0.076 Cl 
HETATM   30  C   UNL     1      -7.072   3.314  73.940  1.00  0.00    -0.046 C  
ENDBRANCH  24  28
ENDBRANCH  21  22
ENDBRANCH  15  21
TORSDOF 4
ENDMDL
MODEL      171
REMARK 921   NORMALIZED FREE ENERGY PREDICTED BY IDOCK:    2.06 KCAL/MOL
REMARK 922        TOTAL FREE ENERGY PREDICTED BY IDOCK:    1.88 KCAL/MOL
REMARK 923 INTER-LIGAND FREE ENERGY PREDICTED BY IDOCK:    1.51 KCAL/MOL
REMARK 924 INTRA-LIGAND FREE ENERGY PREDICTED BY IDOCK:    0.37 KCAL/MOL
REMARK 927      BINDING AFFINITY PREDICTED BY RF-SCORE:    0.00 PKD
ROOT
HETATM    1  C   UNL     1      -6.595  14.716  69.798  1.00  0.00    -0.164 C  
HETATM    2  C   UNL     1      -5.315  15.057  70.321  1.00  0.00    -0.120 C  
HETATM    3  C   UNL     1      -5.158  14.643  68.895  1.00  0.00    -0.089 C  
HETATM    4  C   UNL     1      -6.973  14.362  68.032  1.00  0.00    -0.143 C  
HETATM    5  O   UNL     1      -7.499  14.169  66.719  1.00  0.00    -0.253 OA 
HETATM    6  C   UNL     1      -6.452  15.626  68.132  1.00  0.00    -0.137 C  
HETATM    7  C   UNL     1      -5.405  14.970  66.740  1.00  0.00     1.775 C  
HETATM    8  C   UNL     1      -7.107  16.955  67.985  1.00  0.00    -0.163 C  
HETATM    9  H   UNL     1      -8.348  14.038  66.315  1.00  0.00     0.000 HD 
HETATM   10  C   UNL     1      -5.259  13.162  66.817  1.00  0.00     1.243 C  
HETATM   11  C   UNL     1      -5.525  12.246  68.275  1.00  0.00    -0.055 C  
HETATM   12  C   UNL     1      -5.663  10.722  68.179  1.00  0.00    -0.043 A  
HETATM   13  C   UNL     1      -5.231  10.017  67.039  1.00  0.00    -0.041 A  
HETATM   14  C   UNL     1      -5.137   8.618  67.042  1.00  0.00    -0.032 A  
HETATM   15  C   UNL     1      -5.480   7.910  68.195  1.00  0.00    -0.033 A  
HETATM   16  C   UNL     1      -5.897   8.585  69.335  1.00  0.00    -0.030 A  
HETATM   17  C   UNL     1      -6.100  12.101  70.827  1.00  0.00     0.328 C  
HETATM   18  C   UNL     1      -5.977   9.986  69.351  1.00  0.00    -0.037 A  
HETATM   19  C   UNL     1      -6.520  12.848  69.569  1.00  0.00    -0.075 C  
HETATM   20  C   UNL     1      -6.404  10.616  70.658  1.00  0.00    -0.015 C  
ENDROOT
BRANCH  15  21
HETATM   21  O   UNL     1      -5.301   6.514  68.222  1.00  0.00    -0.007 OA 
BRANCH  21  22
HETATM   22  C   UNL     1      -5.979   5.782  67.249  1.00  0.00    -0.018 C  
HETATM   23  O   UNL     1      -5.476   5.298  66.240  1.00  0.00    -0.012 OA 
HETATM   24  N   UNL     1      -7.302   5.540  67.597  1.00  0.00    -0.075 N  
BRANCH  24  25
HETATM   25  C   UNL     1      -7.827   4.208  67.304  1.00  0.00    -0.092 C  
HETATM   26 CL   UNL     1      -9.734   2.475  66.469  1.00  0.00     0.282 Cl 
HETATM   27  C   UNL     1      -9.266   4.161  66.813  1.00  0.00    -0.157 C  
ENDBRANCH  24  25
BRANCH  24  28
HETATM   28  C   UNL     1      -8.148   6.581  68.189  1.00  0.00    -0.113 C  
HETATM   29 CL   UNL     1      -7.364   6.205  70.787  1.00  0.00    -0.080 Cl 
HETATM   30  C   UNL     1      -8.676   6.303  69.594  1.00  0.00    -0.136 C  
ENDBRANCH  24  28
ENDBRANCH  21  22
ENDBRANCH  15  21
TORSDOF 4
ENDMDL
MODEL      172
REMARK 921   NORMALIZED FREE ENERGY PREDICTED BY IDOCK:    2.11 KCAL/MOL
REMARK 922        TOTAL FREE ENERGY PREDICTED BY IDOCK:    1.95 KCAL/MOL
REMARK 923 INTER-LIGAND FREE ENERGY PREDICTED BY IDOCK:    0.79 KCAL/MOL
REMARK 924 INTRA-LIGAND FREE ENERGY PREDICTED BY IDOCK:    1.15 KCAL/MOL
REMARK 927      BINDING AFFINITY PREDICTED BY RF-SCORE:    0.00 PKD
ROOT
HETATM    1  C   UNL     1     -12.510   6.333  71.515  1.00  0.00     0.067 C  
HETATM    2  C   UNL     1     -12.139   5.221  72.324  1.00  0.00     0.418 C  
HETATM    3  C   UNL     1     -11.131   6.308  72.507  1.00  0.00    -0.307 C  
HETATM    4  C   UNL     1     -11.727   7.998  71.554  1.00  0.00    -0.284 C  
HETATM    5  O   UNL     1     -11.345   9.373  71.506  1.00  0.00    -0.354 OA 
HETATM    6  C   UNL     1     -12.219   7.706  72.800  1.00  0.00     0.042 C  
HETATM    7  C   UNL     1     -10.506   8.269  73.268  1.00  0.00     0.269 C  
HETATM    8  C   UNL     1     -13.390   8.263  73.530  1.00  0.00     2.313 C  
HETATM    9  H   UNL     1     -11.624  10.163  71.060  1.00  0.00     0.000 HD 
HETATM   10  C   UNL     1      -9.333   8.018  71.905  1.00  0.00    -0.225 C  
HETATM   11  C   UNL     1      -9.605   6.886  70.610  1.00  0.00    -0.171 C  
HETATM   12  C   UNL     1      -8.709   6.952  69.367  1.00  0.00    -0.133 A  
HETATM   13  C   UNL     1      -7.477   7.633  69.386  1.00  0.00    -0.089 A  
HETATM   14  C   UNL     1      -6.555   7.497  68.338  1.00  0.00    -0.050 A  
HETATM   15  C   UNL     1      -6.865   6.674  67.254  1.00  0.00    -0.072 A  
HETATM   16  C   UNL     1      -8.069   5.983  67.220  1.00  0.00    -0.106 A  
HETATM   17  C   UNL     1     -11.050   5.048  69.427  1.00  0.00     1.295 C  
HETATM   18  C   UNL     1      -8.992   6.096  68.270  1.00  0.00    -0.114 A  
HETATM   19  C   UNL     1     -11.204   6.375  70.157  1.00  0.00    -0.454 C  
HETATM   20  C   UNL     1     -10.252   5.267  68.146  1.00  0.00    -0.204 C  
ENDROOT
BRANCH  15  21
HETATM   21  O   UNL     1      -5.902   6.472  66.248  1.00  0.00    -0.020 OA 
BRANCH  21  22
HETATM   22  C   UNL     1      -6.254   6.873  64.961  1.00  0.00    -0.036 C  
HETATM   23  O   UNL     1      -6.341   6.139  63.982  1.00  0.00    -0.029 OA 
HETATM   24  N   UNL     1      -6.627   8.211  64.909  1.00  0.00    -0.055 N  
BRANCH  24  25
HETATM   25  C   UNL     1      -7.779   8.541  64.071  1.00  0.00    -0.137 C  
HETATM   26 CL   UNL     1      -9.420  10.249  62.757  1.00  0.00    -0.328 Cl 
HETATM   27  C   UNL     1      -8.006  10.024  63.820  1.00  0.00    -0.153 C  
ENDBRANCH  24  25
BRANCH  24  28
HETATM   28  C   UNL     1      -5.878   9.250  65.621  1.00  0.00    -0.054 C  
HETATM   29 CL   UNL     1      -7.985  10.241  67.066  1.00  0.00    -0.110 Cl 
HETATM   30  C   UNL     1      -6.643  10.533  65.941  1.00  0.00    -0.129 C  
ENDBRANCH  24  28
ENDBRANCH  21  22
ENDBRANCH  15  21
TORSDOF 4
ENDMDL
MODEL      173
REMARK 921   NORMALIZED FREE ENERGY PREDICTED BY IDOCK:    2.92 KCAL/MOL
REMARK 922        TOTAL FREE ENERGY PREDICTED BY IDOCK:    2.95 KCAL/MOL
REMARK 923 INTER-LIGAND FREE ENERGY PREDICTED BY IDOCK:    3.43 KCAL/MOL
REMARK 924 INTRA-LIGAND FREE ENERGY PREDICTED BY IDOCK:   -0.48 KCAL/MOL
REMARK 927      BINDING AFFINITY PREDICTED BY RF-SCORE:    0.00 PKD
ROOT
HETATM    1  C   UNL     1      -7.260  18.985  67.735  1.00  0.00    -0.258 C  
HETATM    2  C   UNL     1      -8.623  19.362  67.903  1.00  0.00    -0.351 C  
HETATM    3  C   UNL     1      -8.159  18.669  69.141  1.00  0.00    -0.035 C  
HETATM    4  C   UNL     1      -6.164  18.308  69.049  1.00  0.00    -0.234 C  
HETATM    5  O   UNL     1      -5.126  17.886  69.933  1.00  0.00    -0.178 OA 
HETATM    6  C   UNL     1      -6.618  19.542  69.438  1.00  0.00    -0.373 C  
HETATM    7  C   UNL     1      -6.979  18.577  70.989  1.00  0.00     2.744 C  
HETATM    8  C   UNL     1      -5.905  20.844  69.542  1.00  0.00    -0.209 C  
HETATM    9  H   UNL     1      -4.193  17.717  69.890  1.00  0.00     0.000 HD 
HETATM   10  C   UNL     1      -7.227  16.815  70.630  1.00  0.00     2.693 C  
HETATM   11  C   UNL     1      -7.667  16.217  69.054  1.00  0.00    -0.222 C  
HETATM   12  C   UNL     1      -7.571  14.711  68.778  1.00  0.00    -0.138 A  
HETATM   13  C   UNL     1      -7.491  13.777  69.829  1.00  0.00     0.586 A  
HETATM   14  C   UNL     1      -7.641  12.403  69.592  1.00  0.00     0.906 A  
HETATM   15  C   UNL     1      -7.870  11.951  68.291  1.00  0.00    -0.141 A  
HETATM   16  C   UNL     1      -7.964  12.856  67.241  1.00  0.00    -0.151 A  
HETATM   17  C   UNL     1      -8.275  16.603  66.534  1.00  0.00    -0.330 C  
HETATM   18  C   UNL     1      -7.835  14.235  67.467  1.00  0.00    -0.209 A  
HETATM   19  C   UNL     1      -7.313  17.106  67.602  1.00  0.00    -0.179 C  
HETATM   20  C   UNL     1      -7.995  15.129  66.257  1.00  0.00     0.795 C  
ENDROOT
BRANCH  15  21
HETATM   21  O   UNL     1      -8.106  10.582  68.071  1.00  0.00    -0.108 OA 
BRANCH  21  22
HETATM   22  C   UNL     1      -7.403   9.991  67.023  1.00  0.00    -0.091 C  
HETATM   23  O   UNL     1      -6.240  10.232  66.717  1.00  0.00    -0.065 OA 
HETATM   24  N   UNL     1      -8.129   8.980  66.405  1.00  0.00    -0.109 N  
BRANCH  24  25
HETATM   25  C   UNL     1      -7.392   7.771  66.038  1.00  0.00    -0.074 C  
HETATM   26 CL   UNL     1      -6.139   5.431  66.575  1.00  0.00    -0.029 Cl 
HETATM   27  C   UNL     1      -6.991   6.869  67.195  1.00  0.00    -0.074 C  
ENDBRANCH  24  25
BRANCH  24  28
HETATM   28  C   UNL     1      -9.553   9.129  66.094  1.00  0.00    -0.266 C  
HETATM   29 CL   UNL     1     -10.513   8.189  68.483  1.00  0.00    -0.223 Cl 
HETATM   30  C   UNL     1     -10.490   8.093  66.709  1.00  0.00    -0.246 C  
ENDBRANCH  24  28
ENDBRANCH  21  22
ENDBRANCH  15  21
TORSDOF 4
ENDMDL
MODEL      174
REMARK 921   NORMALIZED FREE ENERGY PREDICTED BY IDOCK:    3.19 KCAL/MOL
REMARK 922        TOTAL FREE ENERGY PREDICTED BY IDOCK:    3.28 KCAL/MOL
REMARK 923 INTER-LIGAND FREE ENERGY PREDICTED BY IDOCK:    2.42 KCAL/MOL
REMARK 924 INTRA-LIGAND FREE ENERGY PREDICTED BY IDOCK:    0.86 KCAL/MOL
REMARK 927      BINDING AFFINITY PREDICTED BY RF-SCORE:    0.00 PKD
ROOT
HETATM    1  C   UNL     1      -9.232  15.103  66.815  1.00  0.00    -0.277 C  
HETATM    2  C   UNL     1      -8.189  14.755  65.911  1.00  0.00     1.841 C  
HETATM    3  C   UNL     1      -9.405  13.958  65.573  1.00  0.00     0.314 C  
HETATM    4  C   UNL     1     -10.989  14.572  66.683  1.00  0.00    -0.321 C  
HETATM    5  O   UNL     1     -12.402  14.374  66.705  1.00  0.00    -0.506 OA 
HETATM    6  C   UNL     1     -10.643  15.258  65.548  1.00  0.00    -0.390 C  
HETATM    7  C   UNL     1     -11.439  13.763  64.774  1.00  0.00    -0.366 C  
HETATM    8  C   UNL     1     -11.039  16.615  65.081  1.00  0.00    -0.086 C  
HETATM    9  H   UNL     1     -13.144  14.662  67.224  1.00  0.00     0.000 HD 
HETATM   10  C   UNL     1     -11.341  12.319  65.871  1.00  0.00    -0.406 C  
HETATM   11  C   UNL     1     -10.172  12.175  67.154  1.00  0.00    -0.226 C  
HETATM   12  C   UNL     1     -10.349  11.067  68.199  1.00  0.00    -0.204 A  
HETATM   13  C   UNL     1     -11.193   9.965  67.963  1.00  0.00    -0.129 A  
HETATM   14  C   UNL     1     -11.176   8.843  68.805  1.00  0.00     0.325 A  
HETATM   15  C   UNL     1     -10.310   8.819  69.899  1.00  0.00    -0.206 A  
HETATM   16  C   UNL     1      -9.459   9.890  70.143  1.00  0.00    -0.214 A  
HETATM   17  C   UNL     1      -8.142  13.099  68.530  1.00  0.00    -0.087 C  
HETATM   18  C   UNL     1      -9.453  11.010  69.298  1.00  0.00     0.020 A  
HETATM   19  C   UNL     1      -9.441  13.571  67.892  1.00  0.00    -0.215 C  
HETATM   20  C   UNL     1      -8.458  12.098  69.638  1.00  0.00     1.662 C  
ENDROOT
BRANCH  15  21
HETATM   21  O   UNL     1     -10.234   7.658  70.689  1.00  0.00    -0.198 OA 
BRANCH  21  22
HETATM   22  C   UNL     1      -8.979   7.337  71.202  1.00  0.00    -0.147 C  
HETATM   23  O   UNL     1      -8.309   8.045  71.948  1.00  0.00    -0.111 OA 
HETATM   24  N   UNL     1      -8.590   6.044  70.874  1.00  0.00    -0.130 N  
BRANCH  24  25
HETATM   25  C   UNL     1      -7.929   5.270  71.923  1.00  0.00    -0.113 C  
HETATM   26 CL   UNL     1      -6.228   4.956  74.009  1.00  0.00    -0.056 Cl 
HETATM   27  C   UNL     1      -6.910   6.030  72.759  1.00  0.00    -0.075 C  
ENDBRANCH  24  25
BRANCH  24  28
HETATM   28  C   UNL     1      -8.790   5.493  69.530  1.00  0.00    -0.107 C  
HETATM   29 CL   UNL     1     -11.067   4.075  70.092  1.00  0.00     2.998 Cl 
HETATM   30  C   UNL     1      -9.408   4.099  69.458  1.00  0.00    -0.168 C  
ENDBRANCH  24  28
ENDBRANCH  21  22
ENDBRANCH  15  21
TORSDOF 4
ENDMDL
MODEL      175
REMARK 921   NORMALIZED FREE ENERGY PREDICTED BY IDOCK:    3.30 KCAL/MOL
REMARK 922        TOTAL FREE ENERGY PREDICTED BY IDOCK:    3.41 KCAL/MOL
REMARK 923 INTER-LIGAND FREE ENERGY PREDICTED BY IDOCK:   -1.35 KCAL/MOL
REMARK 924 INTRA-LIGAND FREE ENERGY PREDICTED BY IDOCK:    4.76 KCAL/MOL
REMARK 927      BINDING AFFINITY PREDICTED BY RF-SCORE:    0.00 PKD
ROOT
HETATM    1  C   UNL     1      -5.941   7.328  66.626  1.00  0.00    -0.035 C  
HETATM    2  C   UNL     1      -5.149   6.989  67.759  1.00  0.00    -0.012 C  
HETATM    3  C   UNL     1      -6.551   6.533  67.997  1.00  0.00    -0.062 C  
HETATM    4  C   UNL     1      -7.675   6.788  66.327  1.00  0.00    -0.098 C  
HETATM    5  O   UNL     1      -8.961   6.394  65.850  1.00  0.00    -0.207 OA 
HETATM    6  C   UNL     1      -6.877   5.680  66.452  1.00  0.00    -0.059 C  
HETATM    7  C   UNL     1      -8.253   5.203  67.613  1.00  0.00    -0.099 C  
HETATM    8  C   UNL     1      -6.418   4.701  65.429  1.00  0.00    -0.036 C  
HETATM    9  H   UNL     1      -9.487   6.513  65.068  1.00  0.00     0.000 HD 
HETATM   10  C   UNL     1      -9.085   6.668  68.290  1.00  0.00    -0.123 C  
HETATM   11  C   UNL     1      -8.345   8.244  68.343  1.00  0.00    -0.132 C  
HETATM   12  C   UNL     1      -9.219   9.463  68.661  1.00  0.00    -0.131 A  
HETATM   13  C   UNL     1     -10.488   9.321  69.254  1.00  0.00    -0.228 A  
HETATM   14  C   UNL     1     -11.183  10.430  69.759  1.00  0.00    -0.353 A  
HETATM   15  C   UNL     1     -10.608  11.699  69.669  1.00  0.00     0.268 A  
HETATM   16  C   UNL     1      -9.352  11.861  69.099  1.00  0.00     0.408 A  
HETATM   17  C   UNL     1      -6.325   9.853  67.899  1.00  0.00    -0.055 C  
HETATM   18  C   UNL     1      -8.638  10.757  68.608  1.00  0.00    -0.151 A  
HETATM   19  C   UNL     1      -7.074   8.700  67.246  1.00  0.00    -0.079 C  
HETATM   20  C   UNL     1      -7.264  11.047  68.045  1.00  0.00    -0.086 C  
ENDROOT
BRANCH  15  21
HETATM   21  O   UNL     1     -11.269  12.795  70.255  1.00  0.00     0.224 OA 
BRANCH  21  22
HETATM   22  C   UNL     1     -11.519  13.885  69.425  1.00  0.00    -0.280 C  
HETATM   23  O   UNL     1     -11.998  14.958  69.778  1.00  0.00    -0.291 OA 
HETATM   24  N   UNL     1     -11.051  13.682  68.132  1.00  0.00    -0.247 N  
BRANCH  24  25
HETATM   25  C   UNL     1     -10.401  14.817  67.481  1.00  0.00    -0.238 C  
HETATM   26 CL   UNL     1     -10.035  17.457  66.991  1.00  0.00    -0.284 Cl 
HETATM   27  C   UNL     1     -10.959  16.188  67.837  1.00  0.00    -0.318 C  
ENDBRANCH  24  25
BRANCH  24  28
HETATM   28  C   UNL     1     -11.238  12.406  67.434  1.00  0.00    -0.297 C  
HETATM   29 CL   UNL     1     -13.060  13.302  65.593  1.00  0.00    -0.053 Cl 
HETATM   30  C   UNL     1     -12.632  12.144  66.870  1.00  0.00     1.707 C  
ENDBRANCH  24  28
ENDBRANCH  21  22
ENDBRANCH  15  21
TORSDOF 4
ENDMDL
MODEL      176
REMARK 921   NORMALIZED FREE ENERGY PREDICTED BY IDOCK:    3.59 KCAL/MOL
REMARK 922        TOTAL FREE ENERGY PREDICTED BY IDOCK:    3.78 KCAL/MOL
REMARK 923 INTER-LIGAND FREE ENERGY PREDICTED BY IDOCK:    3.53 KCAL/MOL
REMARK 924 INTRA-LIGAND FREE ENERGY PREDICTED BY IDOCK:    0.24 KCAL/MOL
REMARK 927      BINDING AFFINITY PREDICTED BY RF-SCORE:    0.00 PKD
ROOT
HETATM    1  C   UNL     1      -7.092   6.113  68.858  1.00  0.00    -0.081 C  
HETATM    2  C   UNL     1      -7.954   5.819  69.952  1.00  0.00    -0.096 C  
HETATM    3  C   UNL     1      -8.690   6.678  68.977  1.00  0.00    -0.129 C  
HETATM    4  C   UNL     1      -7.589   6.944  67.293  1.00  0.00    -0.108 C  
HETATM    5  O   UNL     1      -7.783   7.460  65.977  1.00  0.00    -0.088 OA 
HETATM    6  C   UNL     1      -8.335   5.805  67.449  1.00  0.00    -0.104 C  
HETATM    7  C   UNL     1      -9.696   7.012  67.057  1.00  0.00    -0.216 C  
HETATM    8  C   UNL     1      -8.280   4.509  66.720  1.00  0.00    -0.102 C  
HETATM    9  H   UNL     1      -7.268   7.585  65.188  1.00  0.00     0.000 HD 
HETATM   10  C   UNL     1      -9.234   8.705  67.523  1.00  0.00    -0.151 C  
HETATM   11  C   UNL     1      -7.997   9.066  68.695  1.00  0.00    -0.102 C  
HETATM   12  C   UNL     1      -7.480  10.506  68.809  1.00  0.00    -0.097 A  
HETATM   13  C   UNL     1      -8.203  11.589  68.272  1.00  0.00    -0.152 A  
HETATM   14  C   UNL     1      -7.859  12.914  68.576  1.00  0.00    -0.099 A  
HETATM   15  C   UNL     1      -6.779  13.165  69.424  1.00  0.00    -0.022 A  
HETATM   16  C   UNL     1      -6.060  12.112  69.975  1.00  0.00    -0.138 A  
HETATM   17  C   UNL     1      -6.181   8.315  70.427  1.00  0.00    -0.035 C  
HETATM   18  C   UNL     1      -6.406  10.782  69.694  1.00  0.00    -0.089 A  
HETATM   19  C   UNL     1      -6.712   7.949  69.049  1.00  0.00    -0.049 C  
HETATM   20  C   UNL     1      -5.579   9.717  70.380  1.00  0.00    -0.045 C  
ENDROOT
BRANCH  15  21
HETATM   21  O   UNL     1      -6.492  14.491  69.796  1.00  0.00    -0.133 OA 
BRANCH  21  22
HETATM   22  C   UNL     1      -7.584  15.343  69.950  1.00  0.00     0.005 C  
HETATM   23  O   UNL     1      -8.549  15.143  70.681  1.00  0.00     0.984 OA 
HETATM   24  N   UNL     1      -7.419  16.540  69.265  1.00  0.00    -0.226 N  
BRANCH  24  25
HETATM   25  C   UNL     1      -7.855  17.756  69.950  1.00  0.00     1.413 C  
HETATM   26 CL   UNL     1      -9.715  19.421  71.003  1.00  0.00     1.914 Cl 
HETATM   27  C   UNL     1      -9.358  17.913  70.120  1.00  0.00     2.124 C  
ENDBRANCH  24  25
BRANCH  24  28
HETATM   28  C   UNL     1      -6.878  16.584  67.903  1.00  0.00    -0.139 C  
HETATM   29 CL   UNL     1      -8.763  18.273  66.853  1.00  0.00    -0.262 Cl 
HETATM   30  C   UNL     1      -7.898  16.724  66.776  1.00  0.00    -0.246 C  
ENDBRANCH  24  28
ENDBRANCH  21  22
ENDBRANCH  15  21
TORSDOF 4
ENDMDL
MODEL      177
REMARK 921   NORMALIZED FREE ENERGY PREDICTED BY IDOCK:    6.38 KCAL/MOL
REMARK 922        TOTAL FREE ENERGY PREDICTED BY IDOCK:    7.21 KCAL/MOL
REMARK 923 INTER-LIGAND FREE ENERGY PREDICTED BY IDOCK:    5.22 KCAL/MOL
REMARK 924 INTRA-LIGAND FREE ENERGY PREDICTED BY IDOCK:    1.99 KCAL/MOL
REMARK 927      BINDING AFFINITY PREDICTED BY RF-SCORE:    0.00 PKD
ROOT
HETATM    1  C   UNL     1      -6.731  14.720  69.830  1.00  0.00    -0.173 C  
HETATM    2  C   UNL     1      -5.474  15.236  70.255  1.00  0.00    -0.129 C  
HETATM    3  C   UNL     1      -5.260  14.377  69.053  1.00  0.00    -0.082 C  
HETATM    4  C   UNL     1      -7.039  13.795  68.269  1.00  0.00    -0.109 C  
HETATM    5  O   UNL     1      -7.513  13.170  67.076  1.00  0.00    -0.373 OA 
HETATM    6  C   UNL     1      -6.529  15.030  67.963  1.00  0.00    -0.159 C  
HETATM    7  C   UNL     1      -5.424  13.969  66.903  1.00  0.00     1.657 C  
HETATM    8  C   UNL     1      -7.184  16.224  67.361  1.00  0.00    -0.200 C  
HETATM    9  H   UNL     1      -8.345  12.898  66.709  1.00  0.00     0.000 HD 
HETATM   10  C   UNL     1      -5.272  12.291  67.580  1.00  0.00    -0.105 C  
HETATM   11  C   UNL     1      -5.591  11.904  69.248  1.00  0.00    -0.059 C  
HETATM   12  C   UNL     1      -5.717  10.431  69.657  1.00  0.00    -0.040 A  
HETATM   13  C   UNL     1      -5.238   9.397  68.830  1.00  0.00    -0.037 A  
HETATM   14  C   UNL     1      -5.137   8.079  69.299  1.00  0.00    -0.026 A  
HETATM   15  C   UNL     1      -5.521   7.786  70.608  1.00  0.00    -0.026 A  
HETATM   16  C   UNL     1      -5.985   8.793  71.445  1.00  0.00    -0.052 A  
HETATM   17  C   UNL     1      -6.263  12.600  71.683  1.00  0.00     1.984 C  
HETATM   18  C   UNL     1      -6.073  10.118  70.995  1.00  0.00    -0.003 A  
HETATM   19  C   UNL     1      -6.638  12.881  70.234  1.00  0.00     0.446 C  
HETATM   20  C   UNL     1      -6.553  11.137  72.004  1.00  0.00     3.646 C  
ENDROOT
BRANCH  15  21
HETATM   21  O   UNL     1      -5.336   6.481  71.102  1.00  0.00    -0.022 OA 
BRANCH  21  22
HETATM   22  C   UNL     1      -6.336   5.557  70.805  1.00  0.00    -0.031 C  
HETATM   23  O   UNL     1      -6.172   4.488  70.225  1.00  0.00    -0.020 OA 
HETATM   24  N   UNL     1      -7.563   5.916  71.349  1.00  0.00    -0.096 N  
BRANCH  24  25
HETATM   25  C   UNL     1      -8.361   4.841  71.937  1.00  0.00    -0.114 C  
HETATM   26 CL   UNL     1      -8.920   2.980  73.824  1.00  0.00    -0.075 Cl 
HETATM   27  C   UNL     1      -7.814   4.243  73.224  1.00  0.00    -0.086 C  
ENDBRANCH  24  25
BRANCH  24  28
HETATM   28  C   UNL     1      -8.058   7.294  71.299  1.00  0.00    -0.102 C  
HETATM   29 CL   UNL     1      -8.714   7.505  73.951  1.00  0.00    -0.254 Cl 
HETATM   30  C   UNL     1      -9.204   7.634  72.249  1.00  0.00    -0.144 C  
ENDBRANCH  24  28
ENDBRANCH  21  22
ENDBRANCH  15  21
TORSDOF 4
ENDMDL
MODEL      178
REMARK 921   NORMALIZED FREE ENERGY PREDICTED BY IDOCK:    7.12 KCAL/MOL
REMARK 922        TOTAL FREE ENERGY PREDICTED BY IDOCK:    8.13 KCAL/MOL
REMARK 923 INTER-LIGAND FREE ENERGY PREDICTED BY IDOCK:    8.33 KCAL/MOL
REMARK 924 INTRA-LIGAND FREE ENERGY PREDICTED BY IDOCK:   -0.21 KCAL/MOL
REMARK 927      BINDING AFFINITY PREDICTED BY RF-SCORE:    0.00 PKD
ROOT
HETATM    1  C   UNL     1      -6.429  18.781  71.272  1.00  0.00     1.508 C  
HETATM    2  C   UNL     1      -5.220  19.224  70.665  1.00  0.00    -0.230 C  
HETATM    3  C   UNL     1      -6.206  18.898  69.592  1.00  0.00    -0.280 C  
HETATM    4  C   UNL     1      -8.020  18.476  70.398  1.00  0.00     2.758 C  
HETATM    5  O   UNL     1      -9.360  18.294  69.943  1.00  0.00     0.840 OA 
HETATM    6  C   UNL     1      -7.646  19.780  70.202  1.00  0.00     0.593 C  
HETATM    7  C   UNL     1      -8.031  19.302  68.444  1.00  0.00    -0.376 C  
HETATM    8  C   UNL     1      -8.214  21.040  70.753  1.00  0.00     3.853 C  
HETATM    9  H   UNL     1     -10.209  18.096  70.320  1.00  0.00     0.000 HD 
HETATM   10  C   UNL     1      -7.828  17.517  68.184  1.00  0.00    -0.244 C  
HETATM   11  C   UNL     1      -6.850  16.509  69.215  1.00  0.00    -0.224 C  
HETATM   12  C   UNL     1      -6.969  14.985  69.093  1.00  0.00    -0.139 A  
HETATM   13  C   UNL     1      -7.552  14.384  67.960  1.00  0.00    -0.139 A  
HETATM   14  C   UNL     1      -7.450  13.003  67.737  1.00  0.00    -0.146 A  
HETATM   15  C   UNL     1      -6.762  12.208  68.656  1.00  0.00    -0.081 A  
HETATM   16  C   UNL     1      -6.169  12.782  69.773  1.00  0.00    -0.108 A  
HETATM   17  C   UNL     1      -5.248  16.183  71.263  1.00  0.00    -0.040 C  
HETATM   18  C   UNL     1      -6.247  14.165  69.998  1.00  0.00    -0.151 A  
HETATM   19  C   UNL     1      -6.505  16.943  70.864  1.00  0.00     1.775 C  
HETATM   20  C   UNL     1      -5.530  14.684  71.225  1.00  0.00    -0.132 C  
ENDROOT
BRANCH  15  21
HETATM   21  O   UNL     1      -6.587  10.839  68.384  1.00  0.00    -0.054 OA 
BRANCH  21  22
HETATM   22  C   UNL     1      -7.459   9.962  69.026  1.00  0.00    -0.083 C  
HETATM   23  O   UNL     1      -8.661  10.146  69.195  1.00  0.00    -0.142 OA 
HETATM   24  N   UNL     1      -6.845   8.763  69.367  1.00  0.00    -0.048 N  
BRANCH  24  25
HETATM   25  C   UNL     1      -7.624   7.544  69.161  1.00  0.00    -0.100 C  
HETATM   26 CL   UNL     1      -8.100   5.122  68.043  1.00  0.00    -0.098 Cl 
HETATM   27  C   UNL     1      -7.055   6.563  68.146  1.00  0.00    -0.083 C  
ENDBRANCH  24  25
BRANCH  24  28
HETATM   28  C   UNL     1      -5.500   8.721  69.947  1.00  0.00    -0.029 C  
HETATM   29 CL   UNL     1      -5.882   6.496  71.501  1.00  0.00    -0.035 Cl 
HETATM   30  C   UNL     1      -5.399   8.201  71.379  1.00  0.00    -0.033 C  
ENDBRANCH  24  28
ENDBRANCH  21  22
ENDBRANCH  15  21
TORSDOF 4
ENDMDL
MODEL      179
REMARK 921   NORMALIZED FREE ENERGY PREDICTED BY IDOCK:    8.24 KCAL/MOL
REMARK 922        TOTAL FREE ENERGY PREDICTED BY IDOCK:    9.51 KCAL/MOL
REMARK 923 INTER-LIGAND FREE ENERGY PREDICTED BY IDOCK:    8.73 KCAL/MOL
REMARK 924 INTRA-LIGAND FREE ENERGY PREDICTED BY IDOCK:    0.77 KCAL/MOL
REMARK 927      BINDING AFFINITY PREDICTED BY RF-SCORE:    0.00 PKD
ROOT
HETATM    1  C   UNL     1      -8.146  15.538  70.731  1.00  0.00     2.185 C  
HETATM    2  C   UNL     1      -8.450  14.669  71.817  1.00  0.00     5.383 C  
HETATM    3  C   UNL     1      -7.277  14.120  71.074  1.00  0.00     1.865 C  
HETATM    4  C   UNL     1      -6.659  15.430  69.652  1.00  0.00    -0.178 C  
HETATM    5  O   UNL     1      -5.537  15.595  68.785  1.00  0.00    -0.094 OA 
HETATM    6  C   UNL     1      -6.257  15.592  70.952  1.00  0.00     0.489 C  
HETATM    7  C   UNL     1      -5.168  14.161  70.469  1.00  0.00    -0.109 C  
HETATM    8  C   UNL     1      -5.650  16.767  71.636  1.00  0.00     0.718 C  
HETATM    9  H   UNL     1      -5.248  16.208  68.120  1.00  0.00     0.000 HD 
HETATM   10  C   UNL     1      -5.910  13.189  69.127  1.00  0.00    -0.080 C  
HETATM   11  C   UNL     1      -7.615  13.208  68.768  1.00  0.00    -0.033 C  
HETATM   12  C   UNL     1      -8.102  12.590  67.451  1.00  0.00    -0.180 A  
HETATM   13  C   UNL     1      -7.291  11.709  66.711  1.00  0.00    -0.083 A  
HETATM   14  C   UNL     1      -7.814  10.964  65.643  1.00  0.00    -0.011 A  
HETATM   15  C   UNL     1      -9.162  11.101  65.306  1.00  0.00    -0.198 A  
HETATM   16  C   UNL     1      -9.983  11.956  66.031  1.00  0.00    -0.258 A  
HETATM   17  C   UNL     1     -10.058  14.026  69.247  1.00  0.00     0.122 C  
HETATM   18  C   UNL     1      -9.477  12.692  67.112  1.00  0.00    -0.214 A  
HETATM   19  C   UNL     1      -8.630  14.552  69.199  1.00  0.00     0.031 C  
HETATM   20  C   UNL     1     -10.470  13.560  67.854  1.00  0.00    -0.253 C  
ENDROOT
BRANCH  15  21
HETATM   21  O   UNL     1      -9.702  10.289  64.292  1.00  0.00    -0.304 OA 
BRANCH  21  22
HETATM   22  C   UNL     1      -9.074   9.064  64.078  1.00  0.00     0.258 C  
HETATM   23  O   UNL     1      -8.495   8.727  63.049  1.00  0.00    -0.191 OA 
HETATM   24  N   UNL     1      -9.062   8.271  65.218  1.00  0.00     0.042 N  
BRANCH  24  25
HETATM   25  C   UNL     1      -7.830   7.534  65.495  1.00  0.00    -0.114 C  
HETATM   26 CL   UNL     1      -5.501   6.342  64.795  1.00  0.00    -0.017 Cl 
HETATM   27  C   UNL     1      -6.975   7.203  64.281  1.00  0.00    -0.055 C  
ENDBRANCH  24  25
BRANCH  24  28
HETATM   28  C   UNL     1     -10.239   8.140  66.082  1.00  0.00     0.331 C  
HETATM   29 CL   UNL     1      -9.035   8.951  68.406  1.00  0.00    -0.134 Cl 
HETATM   30  C   UNL     1      -9.973   7.726  67.527  1.00  0.00    -0.185 C  
ENDBRANCH  24  28
ENDBRANCH  21  22
ENDBRANCH  15  21
TORSDOF 4
ENDMDL
MODEL      180
REMARK 921   NORMALIZED FREE ENERGY PREDICTED BY IDOCK:    8.34 KCAL/MOL
REMARK 922        TOTAL FREE ENERGY PREDICTED BY IDOCK:    9.64 KCAL/MOL
REMARK 923 INTER-LIGAND FREE ENERGY PREDICTED BY IDOCK:    9.15 KCAL/MOL
REMARK 924 INTRA-LIGAND FREE ENERGY PREDICTED BY IDOCK:    0.48 KCAL/MOL
REMARK 927      BINDING AFFINITY PREDICTED BY RF-SCORE:    0.00 PKD
ROOT
HETATM    1  C   UNL     1      -6.440  18.786  71.293  1.00  0.00     1.508 C  
HETATM    2  C   UNL     1      -5.245  19.223  70.654  1.00  0.00    -0.230 C  
HETATM    3  C   UNL     1      -6.259  18.895  69.608  1.00  0.00    -0.280 C  
HETATM    4  C   UNL     1      -8.053  18.483  70.461  1.00  0.00     3.383 C  
HETATM    5  O   UNL     1      -9.405  18.303  70.041  1.00  0.00     1.099 OA 
HETATM    6  C   UNL     1      -7.680  19.784  70.250  1.00  0.00     0.843 C  
HETATM    7  C   UNL     1      -8.112  19.301  68.504  1.00  0.00    -0.401 C  
HETATM    8  C   UNL     1      -8.231  21.049  70.810  1.00  0.00     3.853 C  
HETATM    9  H   UNL     1     -10.245  18.110  70.440  1.00  0.00     0.000 HD 
HETATM   10  C   UNL     1      -7.920  17.513  68.247  1.00  0.00    -0.259 C  
HETATM   11  C   UNL     1      -6.920  16.507  69.258  1.00  0.00    -0.227 C  
HETATM   12  C   UNL     1      -7.047  14.983  69.145  1.00  0.00    -0.149 A  
HETATM   13  C   UNL     1      -7.660  14.379  68.030  1.00  0.00    -0.139 A  
HETATM   14  C   UNL     1      -7.568  12.997  67.811  1.00  0.00    -0.152 A  
HETATM   15  C   UNL     1      -6.859  12.204  68.715  1.00  0.00    -0.095 A  
HETATM   16  C   UNL     1      -6.237  12.780  69.815  1.00  0.00    -0.108 A  
HETATM   17  C   UNL     1      -5.268  16.185  71.266  1.00  0.00    -0.040 C  
HETATM   18  C   UNL     1      -6.305  14.164  70.035  1.00  0.00    -0.135 A  
HETATM   19  C   UNL     1      -6.532  16.946  70.895  1.00  0.00     1.775 C  
HETATM   20  C   UNL     1      -5.556  14.687  71.241  1.00  0.00    -0.108 C  
ENDROOT
BRANCH  15  21
HETATM   21  O   UNL     1      -6.696  10.833  68.445  1.00  0.00    -0.058 OA 
BRANCH  21  22
HETATM   22  C   UNL     1      -6.899  10.431  67.126  1.00  0.00    -0.083 C  
HETATM   23  O   UNL     1      -6.530  11.042  66.128  1.00  0.00    -0.128 OA 
HETATM   24  N   UNL     1      -7.477   9.171  67.042  1.00  0.00    -0.090 N  
BRANCH  24  25
HETATM   25  C   UNL     1      -6.958   8.277  66.008  1.00  0.00    -0.065 C  
HETATM   26 CL   UNL     1      -5.147   6.549  64.973  1.00  0.00    -0.017 Cl 
HETATM   27  C   UNL     1      -5.614   7.631  66.311  1.00  0.00    -0.028 C  
ENDBRANCH  24  25
BRANCH  24  28
HETATM   28  C   UNL     1      -8.584   8.767  67.915  1.00  0.00    -0.130 C  
HETATM   29 CL   UNL     1      -9.462   6.670  66.385  1.00  0.00    -0.190 Cl 
HETATM   30  C   UNL     1      -9.818   8.197  67.220  1.00  0.00    -0.197 C  
ENDBRANCH  24  28
ENDBRANCH  21  22
ENDBRANCH  15  21
TORSDOF 4
ENDMDL
MODEL      181
REMARK 921   NORMALIZED FREE ENERGY PREDICTED BY IDOCK:   11.18 KCAL/MOL
REMARK 922        TOTAL FREE ENERGY PREDICTED BY IDOCK:   13.13 KCAL/MOL
REMARK 923 INTER-LIGAND FREE ENERGY PREDICTED BY IDOCK:    8.07 KCAL/MOL
REMARK 924 INTRA-LIGAND FREE ENERGY PREDICTED BY IDOCK:    5.06 KCAL/MOL
REMARK 927      BINDING AFFINITY PREDICTED BY RF-SCORE:    0.00 PKD
ROOT
HETATM    1  C   UNL     1      -9.811   4.558  66.810  1.00  0.00    -0.242 C  
HETATM    2  C   UNL     1     -11.024   4.593  67.555  1.00  0.00     1.388 C  
HETATM    3  C   UNL     1     -10.882   5.877  66.806  1.00  0.00    -0.347 C  
HETATM    4  C   UNL     1      -9.288   5.796  65.552  1.00  0.00     0.099 C  
HETATM    5  O   UNL     1      -8.752   6.564  64.475  1.00  0.00    -0.339 OA 
HETATM    6  C   UNL     1     -10.486   5.251  65.170  1.00  0.00     0.655 C  
HETATM    7  C   UNL     1     -10.887   7.057  64.956  1.00  0.00     6.473 C  
HETATM    8  C   UNL     1     -10.808   4.301  64.071  1.00  0.00     0.090 C  
HETATM    9  H   UNL     1      -8.007   6.526  63.889  1.00  0.00     0.000 HD 
HETATM   10  C   UNL     1      -9.868   8.094  66.044  1.00  0.00     0.038 C  
HETATM   11  C   UNL     1      -9.092   7.490  67.482  1.00  0.00    -0.130 C  
HETATM   12  C   UNL     1      -8.029   8.355  68.171  1.00  0.00    -0.119 A  
HETATM   13  C   UNL     1      -7.919   9.733  67.903  1.00  0.00    -0.104 A  
HETATM   14  C   UNL     1      -7.116  10.566  68.696  1.00  0.00    -0.077 A  
HETATM   15  C   UNL     1      -6.409  10.019  69.768  1.00  0.00    -0.058 A  
HETATM   16  C   UNL     1      -6.512   8.664  70.057  1.00  0.00    -0.038 A  
HETATM   17  C   UNL     1      -8.563   5.559  69.172  1.00  0.00    -0.104 C  
HETATM   18  C   UNL     1      -7.327   7.824  69.284  1.00  0.00    -0.087 A  
HETATM   19  C   UNL     1      -8.698   5.807  67.677  1.00  0.00    -0.107 C  
HETATM   20  C   UNL     1      -7.394   6.376  69.715  1.00  0.00    -0.080 C  
ENDROOT
BRANCH  15  21
HETATM   21  O   UNL     1      -5.674  10.872  70.612  1.00  0.00    -0.114 OA 
BRANCH  21  22
HETATM   22  C   UNL     1      -6.082  12.203  70.658  1.00  0.00     0.193 C  
HETATM   23  O   UNL     1      -6.651  12.744  71.601  1.00  0.00     1.812 OA 
HETATM   24  N   UNL     1      -5.668  12.920  69.543  1.00  0.00    -0.089 N  
BRANCH  24  25
HETATM   25  C   UNL     1      -5.177  14.277  69.778  1.00  0.00    -0.092 C  
HETATM   26 CL   UNL     1      -5.466  16.884  70.453  1.00  0.00    -0.218 Cl 
HETATM   27  C   UNL     1      -6.233  15.300  70.169  1.00  0.00    -0.131 C  
ENDBRANCH  24  25
BRANCH  24  28
HETATM   28  C   UNL     1      -5.758  12.365  68.189  1.00  0.00    -0.063 C  
HETATM   29 CL   UNL     1      -7.253  14.388  67.103  1.00  0.00    -0.003 Cl 
HETATM   30  C   UNL     1      -7.049  12.654  67.426  1.00  0.00    -0.138 C  
ENDBRANCH  24  28
ENDBRANCH  21  22
ENDBRANCH  15  21
TORSDOF 4
ENDMDL
MODEL      182
REMARK 921   NORMALIZED FREE ENERGY PREDICTED BY IDOCK:   12.81 KCAL/MOL
REMARK 922        TOTAL FREE ENERGY PREDICTED BY IDOCK:   15.14 KCAL/MOL
REMARK 923 INTER-LIGAND FREE ENERGY PREDICTED BY IDOCK:   12.45 KCAL/MOL
REMARK 924 INTRA-LIGAND FREE ENERGY PREDICTED BY IDOCK:    2.70 KCAL/MOL
REMARK 927      BINDING AFFINITY PREDICTED BY RF-SCORE:    0.00 PKD
ROOT
HETATM    1  C   UNL     1      -9.669   4.969  63.655  1.00  0.00     0.593 C  
HETATM    2  C   UNL     1      -9.087   3.843  63.005  1.00  0.00    -0.110 C  
HETATM    3  C   UNL     1      -9.766   3.381  64.252  1.00  0.00    -0.166 C  
HETATM    4  C   UNL     1     -10.804   4.905  65.102  1.00  0.00     0.261 C  
HETATM    5  O   UNL     1     -11.775   5.073  66.135  1.00  0.00     0.322 OA 
HETATM    6  C   UNL     1     -11.357   4.193  64.070  1.00  0.00     0.604 C  
HETATM    7  C   UNL     1     -11.559   2.951  65.442  1.00  0.00     5.377 C  
HETATM    8  C   UNL     1     -12.522   4.507  63.197  1.00  0.00     4.908 C  
HETATM    9  H   UNL     1     -12.260   5.785  66.533  1.00  0.00     0.000 HD 
HETATM   10  C   UNL     1     -10.312   3.191  66.740  1.00  0.00     1.815 C  
HETATM   11  C   UNL     1      -8.807   4.026  66.472  1.00  0.00    -0.122 C  
HETATM   12  C   UNL     1      -7.957   4.429  67.683  1.00  0.00    -0.092 A  
HETATM   13  C   UNL     1      -8.160   3.846  68.948  1.00  0.00    -0.075 A  
HETATM   14  C   UNL     1      -7.241   4.034  69.991  1.00  0.00    -0.042 A  
HETATM   15  C   UNL     1      -6.105   4.816  69.772  1.00  0.00    -0.018 A  
HETATM   16  C   UNL     1      -5.878   5.391  68.528  1.00  0.00    -0.016 A  
HETATM   17  C   UNL     1      -7.131   5.303  64.915  1.00  0.00    -0.058 C  
HETATM   18  C   UNL     1      -6.780   5.195  67.472  1.00  0.00    -0.055 A  
HETATM   19  C   UNL     1      -8.622   5.202  65.204  1.00  0.00    -0.150 C  
HETATM   20  C   UNL     1      -6.412   5.835  66.151  1.00  0.00    -0.040 C  
ENDROOT
BRANCH  15  21
HETATM   21  O   UNL     1      -5.143   4.930  70.793  1.00  0.00    -0.003 OA 
BRANCH  21  22
HETATM   22  C   UNL     1      -5.619   5.251  72.062  1.00  0.00    -0.016 C  
HETATM   23  O   UNL     1      -5.239   4.750  73.116  1.00  0.00    -0.007 OA 
HETATM   24  N   UNL     1      -6.514   6.313  72.036  1.00  0.00    -0.056 N  
BRANCH  24  25
HETATM   25  C   UNL     1      -6.391   7.303  73.105  1.00  0.00    -0.060 C  
HETATM   26 CL   UNL     1      -5.467   9.606  74.192  1.00  0.00    -0.062 Cl 
HETATM   27  C   UNL     1      -5.475   8.481  72.809  1.00  0.00    -0.056 C  
ENDBRANCH  24  25
BRANCH  24  28
HETATM   28  C   UNL     1      -7.561   6.418  71.015  1.00  0.00    -0.090 C  
HETATM   29 CL   UNL     1      -6.593   8.665  69.781  1.00  0.00    -0.041 Cl 
HETATM   30  C   UNL     1      -7.941   7.831  70.582  1.00  0.00    -0.098 C  
ENDBRANCH  24  28
ENDBRANCH  21  22
ENDBRANCH  15  21
TORSDOF 4
ENDMDL
MODEL      183
REMARK 921   NORMALIZED FREE ENERGY PREDICTED BY IDOCK:   15.62 KCAL/MOL
REMARK 922        TOTAL FREE ENERGY PREDICTED BY IDOCK:   18.61 KCAL/MOL
REMARK 923 INTER-LIGAND FREE ENERGY PREDICTED BY IDOCK:   13.40 KCAL/MOL
REMARK 924 INTRA-LIGAND FREE ENERGY PREDICTED BY IDOCK:    5.20 KCAL/MOL
REMARK 927      BINDING AFFINITY PREDICTED BY RF-SCORE:    0.00 PKD
ROOT
HETATM    1  C   UNL     1      -6.877  18.997  66.262  1.00  0.00    -0.242 C  
HETATM    2  C   UNL     1      -6.117  18.225  65.338  1.00  0.00    -0.248 C  
HETATM    3  C   UNL     1      -7.565  18.096  64.998  1.00  0.00     2.077 C  
HETATM    4  C   UNL     1      -8.678  19.351  66.139  1.00  0.00    -0.279 C  
HETATM    5  O   UNL     1     -10.021  19.835  66.173  1.00  0.00    -0.422 OA 
HETATM    6  C   UNL     1      -8.053  19.823  65.014  1.00  0.00     1.238 C  
HETATM    7  C   UNL     1      -9.455  18.891  64.218  1.00  0.00     8.039 C  
HETATM    8  C   UNL     1      -7.770  21.219  64.581  1.00  0.00     1.659 C  
HETATM    9  H   UNL     1     -10.542  20.422  66.706  1.00  0.00     0.000 HD 
HETATM   10  C   UNL     1     -10.041  17.543  65.283  1.00  0.00     0.593 C  
HETATM   11  C   UNL     1      -9.074  16.839  66.549  1.00  0.00    -0.302 C  
HETATM   12  C   UNL     1      -9.747  15.917  67.573  1.00  0.00    -0.223 A  
HETATM   13  C   UNL     1     -11.008  15.342  67.323  1.00  0.00    -0.327 A  
HETATM   14  C   UNL     1     -11.517  14.322  68.141  1.00  0.00    -0.336 A  
HETATM   15  C   UNL     1     -10.761  13.870  69.224  1.00  0.00    -0.085 A  
HETATM   16  C   UNL     1      -9.509  14.415  69.482  1.00  0.00     0.368 A  
HETATM   17  C   UNL     1      -6.847  16.676  67.922  1.00  0.00    -0.158 C  
HETATM   18  C   UNL     1      -8.981  15.422  68.660  1.00  0.00    -0.191 A  
HETATM   19  C   UNL     1      -7.777  17.714  67.309  1.00  0.00    -0.222 C  
HETATM   20  C   UNL     1      -7.594  15.912  69.011  1.00  0.00    -0.202 C  
ENDROOT
BRANCH  15  21
HETATM   21  O   UNL     1     -11.235  12.788  69.989  1.00  0.00     0.034 OA 
BRANCH  21  22
HETATM   22  C   UNL     1     -11.241  11.543  69.365  1.00  0.00    -0.259 C  
HETATM   23  O   UNL     1     -11.917  10.576  69.705  1.00  0.00    -0.262 OA 
HETATM   24  N   UNL     1     -10.471  11.528  68.209  1.00  0.00    -0.190 N  
BRANCH  24  25
HETATM   25  C   UNL     1     -11.020  10.808  67.061  1.00  0.00    -0.227 C  
HETATM   26 CL   UNL     1     -10.940   8.949  65.092  1.00  0.00     4.244 Cl 
HETATM   27  C   UNL     1     -10.110   9.754  66.449  1.00  0.00    -0.243 C  
ENDBRANCH  24  25
BRANCH  24  28
HETATM   28  C   UNL     1      -9.152  12.164  68.151  1.00  0.00    -0.196 C  
HETATM   29 CL   UNL     1      -7.966  10.313  66.515  1.00  0.00    -0.115 Cl 
HETATM   30  C   UNL     1      -7.954  11.224  68.040  1.00  0.00    -0.119 C  
ENDBRANCH  24  28
ENDBRANCH  21  22
ENDBRANCH  15  21
TORSDOF 4
ENDMDL
MODEL      184
REMARK 921   NORMALIZED FREE ENERGY PREDICTED BY IDOCK:   16.20 KCAL/MOL
REMARK 922        TOTAL FREE ENERGY PREDICTED BY IDOCK:   19.33 KCAL/MOL
REMARK 923 INTER-LIGAND FREE ENERGY PREDICTED BY IDOCK:    6.06 KCAL/MOL
REMARK 924 INTRA-LIGAND FREE ENERGY PREDICTED BY IDOCK:   13.27 KCAL/MOL
REMARK 927      BINDING AFFINITY PREDICTED BY RF-SCORE:    0.00 PKD
ROOT
HETATM    1  C   UNL     1     -10.279  13.387  64.661  1.00  0.00    -0.338 C  
HETATM    2  C   UNL     1      -8.961  12.853  64.731  1.00  0.00     1.616 C  
HETATM    3  C   UNL     1      -9.932  11.796  65.144  1.00  0.00    -0.285 C  
HETATM    4  C   UNL     1     -11.838  12.428  64.849  1.00  0.00    -0.386 C  
HETATM    5  O   UNL     1     -13.149  11.863  64.848  1.00  0.00    -0.046 OA 
HETATM    6  C   UNL     1     -11.120  11.911  63.802  1.00  0.00    -0.510 C  
HETATM    7  C   UNL     1     -11.512  10.336  64.714  1.00  0.00     2.722 C  
HETATM    8  C   UNL     1     -11.364  11.981  62.336  1.00  0.00     2.043 C  
HETATM    9  H   UNL     1     -14.041  12.158  64.709  1.00  0.00     0.000 HD 
HETATM   10  C   UNL     1     -11.776  10.644  66.483  1.00  0.00     1.266 C  
HETATM   11  C   UNL     1     -11.166  12.053  67.306  1.00  0.00    -0.371 C  
HETATM   12  C   UNL     1     -11.679  12.369  68.717  1.00  0.00    -0.379 A  
HETATM   13  C   UNL     1     -12.331  11.393  69.495  1.00  0.00    -0.211 A  
HETATM   14  C   UNL     1     -12.588  11.603  70.858  1.00  0.00    -0.409 A  
HETATM   15  C   UNL     1     -12.192  12.802  71.454  1.00  0.00     0.248 A  
HETATM   16  C   UNL     1     -11.536  13.773  70.708  1.00  0.00     0.296 A  
HETATM   17  C   UNL     1      -9.834  14.309  67.324  1.00  0.00    -0.244 C  
HETATM   18  C   UNL     1     -11.256  13.567  69.349  1.00  0.00    -0.244 A  
HETATM   19  C   UNL     1     -10.817  13.532  66.461  1.00  0.00    -0.283 C  
HETATM   20  C   UNL     1     -10.502  14.675  68.646  1.00  0.00    -0.244 C  
ENDROOT
BRANCH  15  21
HETATM   21  O   UNL     1     -12.372  12.973  72.839  1.00  0.00     0.745 OA 
BRANCH  21  22
HETATM   22  C   UNL     1     -12.670  14.263  73.272  1.00  0.00    -0.149 C  
HETATM   23  O   UNL     1     -13.024  14.573  74.406  1.00  0.00     0.290 OA 
HETATM   24  N   UNL     1     -12.408  15.220  72.299  1.00  0.00    -0.343 N  
BRANCH  24  25
HETATM   25  C   UNL     1     -11.788  16.464  72.750  1.00  0.00    -0.435 C  
HETATM   26 CL   UNL     1     -11.514  18.578  74.422  1.00  0.00     1.476 Cl 
HETATM   27  C   UNL     1     -12.407  17.097  73.987  1.00  0.00     0.314 C  
ENDBRANCH  24  25
BRANCH  24  28
HETATM   28  C   UNL     1     -12.775  15.015  70.895  1.00  0.00    -0.375 C  
HETATM   29 CL   UNL     1     -10.835  16.618  69.811  1.00  0.00    -0.311 Cl 
HETATM   30  C   UNL     1     -12.555  16.201  69.960  1.00  0.00     0.611 C  
ENDBRANCH  24  28
ENDBRANCH  21  22
ENDBRANCH  15  21
TORSDOF 4
ENDMDL
MODEL      185
REMARK 921   NORMALIZED FREE ENERGY PREDICTED BY IDOCK:   17.83 KCAL/MOL
REMARK 922        TOTAL FREE ENERGY PREDICTED BY IDOCK:   21.34 KCAL/MOL
REMARK 923 INTER-LIGAND FREE ENERGY PREDICTED BY IDOCK:   10.18 KCAL/MOL
REMARK 924 INTRA-LIGAND FREE ENERGY PREDICTED BY IDOCK:   11.16 KCAL/MOL
REMARK 927      BINDING AFFINITY PREDICTED BY RF-SCORE:    0.00 PKD
ROOT
HETATM    1  C   UNL     1      -8.537   8.239  64.714  1.00  0.00    -0.047 C  
HETATM    2  C   UNL     1      -8.641   9.657  64.797  1.00  0.00    -0.197 C  
HETATM    3  C   UNL     1      -7.395   9.224  65.498  1.00  0.00    -0.090 C  
HETATM    4  C   UNL     1      -7.077   7.239  65.220  1.00  0.00    -0.060 C  
HETATM    5  O   UNL     1      -6.027   6.297  65.440  1.00  0.00    -0.024 OA 
HETATM    6  C   UNL     1      -6.692   8.134  64.257  1.00  0.00    -0.066 C  
HETATM    7  C   UNL     1      -5.348   8.434  65.511  1.00  0.00    -0.035 C  
HETATM    8  C   UNL     1      -6.320   7.918  62.832  1.00  0.00    -0.076 C  
HETATM    9  H   UNL     1      -5.878   5.369  65.310  1.00  0.00     0.000 HD 
HETATM   10  C   UNL     1      -5.906   8.021  67.189  1.00  0.00    -0.042 C  
HETATM   11  C   UNL     1      -7.586   7.949  67.643  1.00  0.00    -0.109 C  
HETATM   12  C   UNL     1      -7.964   7.317  68.989  1.00  0.00    -0.119 A  
HETATM   13  C   UNL     1      -7.007   7.128  70.004  1.00  0.00    -0.061 A  
HETATM   14  C   UNL     1      -7.390   6.774  71.306  1.00  0.00    -0.082 A  
HETATM   15  C   UNL     1      -8.744   6.603  71.601  1.00  0.00    -0.130 A  
HETATM   16  C   UNL     1      -9.706   6.797  70.618  1.00  0.00    -0.180 A  
HETATM   17  C   UNL     1     -10.134   8.183  67.078  1.00  0.00    -0.350 C  
HETATM   18  C   UNL     1      -9.337   7.169  69.316  1.00  0.00    -0.146 A  
HETATM   19  C   UNL     1      -8.841   7.649  66.478  1.00  0.00    -0.167 C  
HETATM   20  C   UNL     1     -10.470   7.391  68.339  1.00  0.00    -0.220 C  
ENDROOT
BRANCH  15  21
HETATM   21  O   UNL     1      -9.129   6.334  72.928  1.00  0.00    -0.132 OA 
BRANCH  21  22
HETATM   22  C   UNL     1     -10.494   6.173  73.157  1.00  0.00    -0.236 C  
HETATM   23  O   UNL     1     -11.017   5.981  74.251  1.00  0.00     0.073 OA 
HETATM   24  N   UNL     1     -11.249   6.373  72.008  1.00  0.00    -0.266 N  
BRANCH  24  25
HETATM   25  C   UNL     1     -12.496   7.120  72.162  1.00  0.00    -0.158 C  
HETATM   26 CL   UNL     1     -13.949   9.341  72.707  1.00  0.00    -0.348 Cl 
HETATM   27  C   UNL     1     -12.345   8.568  72.604  1.00  0.00    -0.222 C  
ENDBRANCH  24  25
BRANCH  24  28
HETATM   28  C   UNL     1     -10.843   5.825  70.711  1.00  0.00    -0.260 C  
HETATM   29 CL   UNL     1     -12.481   3.629  70.753  1.00  0.00    12.536 Cl 
HETATM   30  C   UNL     1     -10.846   4.303  70.590  1.00  0.00     1.398 C  
ENDBRANCH  24  28
ENDBRANCH  21  22
ENDBRANCH  15  21
TORSDOF 4
ENDMDL
MODEL      186
REMARK 921   NORMALIZED FREE ENERGY PREDICTED BY IDOCK:   19.38 KCAL/MOL
REMARK 922        TOTAL FREE ENERGY PREDICTED BY IDOCK:   23.25 KCAL/MOL
REMARK 923 INTER-LIGAND FREE ENERGY PREDICTED BY IDOCK:   12.50 KCAL/MOL
REMARK 924 INTRA-LIGAND FREE ENERGY PREDICTED BY IDOCK:   10.76 KCAL/MOL
REMARK 927      BINDING AFFINITY PREDICTED BY RF-SCORE:    0.00 PKD
ROOT
HETATM    1  C   UNL     1      -6.808  14.726  69.852  1.00  0.00    -0.158 C  
HETATM    2  C   UNL     1      -5.547  15.224  70.287  1.00  0.00    -0.140 C  
HETATM    3  C   UNL     1      -5.321  14.218  69.207  1.00  0.00    -0.081 C  
HETATM    4  C   UNL     1      -7.088  13.640  68.394  1.00  0.00    -0.107 C  
HETATM    5  O   UNL     1      -7.535  12.902  67.256  1.00  0.00    -0.250 OA 
HETATM    6  C   UNL     1      -6.491  14.801  67.977  1.00  0.00    -0.163 C  
HETATM    7  C   UNL     1      -5.398  13.566  67.114  1.00  0.00     0.640 C  
HETATM    8  C   UNL     1      -7.044  15.947  67.204  1.00  0.00    -0.240 C  
HETATM    9  H   UNL     1      -8.362  12.632  66.875  1.00  0.00     0.000 HD 
HETATM   10  C   UNL     1      -5.379  11.975  67.988  1.00  0.00    -0.053 C  
HETATM   11  C   UNL     1      -5.805  11.806  69.669  1.00  0.00    -0.097 C  
HETATM   12  C   UNL     1      -6.038  10.401  70.238  1.00  0.00    -0.107 A  
HETATM   13  C   UNL     1      -5.578   9.253  69.566  1.00  0.00    -0.034 A  
HETATM   14  C   UNL     1      -5.578   7.997  70.190  1.00  0.00    -0.023 A  
HETATM   15  C   UNL     1      -6.046   7.882  71.500  1.00  0.00    -0.035 A  
HETATM   16  C   UNL     1      -6.493   9.004  72.186  1.00  0.00     0.044 A  
HETATM   17  C   UNL     1      -6.561  12.822  71.963  1.00  0.00     4.252 C  
HETATM   18  C   UNL     1      -6.480  10.269  71.580  1.00  0.00     0.881 A  
HETATM   19  C   UNL     1      -6.843  12.947  70.472  1.00  0.00     1.410 C  
HETATM   20  C   UNL     1      -6.952  11.425  72.435  1.00  0.00     7.283 C  
ENDROOT
BRANCH  15  21
HETATM   21  O   UNL     1      -5.963   6.637  72.152  1.00  0.00    -0.037 OA 
BRANCH  21  22
HETATM   22  C   UNL     1      -5.687   5.533  71.349  1.00  0.00    -0.023 C  
HETATM   23  O   UNL     1      -5.181   4.481  71.729  1.00  0.00    -0.003 OA 
HETATM   24  N   UNL     1      -6.162   5.691  70.053  1.00  0.00    -0.025 N  
BRANCH  24  25
HETATM   25  C   UNL     1      -6.785   4.523  69.434  1.00  0.00    -0.045 C  
HETATM   26 CL   UNL     1      -8.758   2.691  69.134  1.00  0.00    -0.120 Cl 
HETATM   27  C   UNL     1      -8.122   4.099  70.023  1.00  0.00    -0.058 C  
ENDBRANCH  24  25
BRANCH  24  28
HETATM   28  C   UNL     1      -6.009   6.952  69.322  1.00  0.00    -0.019 C  
HETATM   29 CL   UNL     1      -8.612   7.170  68.493  1.00  0.00    -0.124 Cl 
HETATM   30  C   UNL     1      -6.884   7.124  68.083  1.00  0.00    -0.074 C  
ENDBRANCH  24  28
ENDBRANCH  21  22
ENDBRANCH  15  21
TORSDOF 4
ENDMDL
MODEL      187
REMARK 921   NORMALIZED FREE ENERGY PREDICTED BY IDOCK:   20.97 KCAL/MOL
REMARK 922        TOTAL FREE ENERGY PREDICTED BY IDOCK:   25.22 KCAL/MOL
REMARK 923 INTER-LIGAND FREE ENERGY PREDICTED BY IDOCK:   24.22 KCAL/MOL
REMARK 924 INTRA-LIGAND FREE ENERGY PREDICTED BY IDOCK:    1.00 KCAL/MOL
REMARK 927      BINDING AFFINITY PREDICTED BY RF-SCORE:    0.00 PKD
ROOT
HETATM    1  C   UNL     1      -8.283  15.509  70.993  1.00  0.00     3.012 C  
HETATM    2  C   UNL     1      -8.713  14.963  72.235  1.00  0.00     6.766 C  
HETATM    3  C   UNL     1      -7.514  14.207  71.765  1.00  0.00     4.357 C  
HETATM    4  C   UNL     1      -6.723  15.083  70.115  1.00  0.00    -0.097 C  
HETATM    5  O   UNL     1      -5.529  14.986  69.338  1.00  0.00    -0.091 OA 
HETATM    6  C   UNL     1      -6.416  15.569  71.360  1.00  0.00     1.341 C  
HETATM    7  C   UNL     1      -5.365  14.032  71.361  1.00  0.00    -0.191 C  
HETATM    8  C   UNL     1      -5.809  16.865  71.768  1.00  0.00     1.470 C  
HETATM    9  H   UNL     1      -5.159  15.396  68.566  1.00  0.00     0.000 HD 
HETATM   10  C   UNL     1      -6.046  12.764  70.254  1.00  0.00    -0.067 C  
HETATM   11  C   UNL     1      -7.714  12.734  69.752  1.00  0.00     1.376 C  
HETATM   12  C   UNL     1      -8.126  11.807  68.602  1.00  0.00    -0.104 A  
HETATM   13  C   UNL     1      -7.304  10.741  68.189  1.00  0.00    -0.088 A  
HETATM   14  C   UNL     1      -7.777   9.758  67.307  1.00  0.00    -0.095 A  
HETATM   15  C   UNL     1      -9.085   9.839  66.828  1.00  0.00    -0.146 A  
HETATM   16  C   UNL     1      -9.917  10.875  67.231  1.00  0.00    -0.216 A  
HETATM   17  C   UNL     1     -10.143  13.714  69.785  1.00  0.00     1.034 C  
HETATM   18  C   UNL     1      -9.463  11.854  68.127  1.00  0.00    -0.195 A  
HETATM   19  C   UNL     1      -8.693  14.171  69.731  1.00  0.00     1.065 C  
HETATM   20  C   UNL     1     -10.467  12.912  68.528  1.00  0.00    -0.260 C  
ENDROOT
BRANCH  15  21
HETATM   21  O   UNL     1      -9.583   8.804  66.014  1.00  0.00    -0.245 OA 
BRANCH  21  22
HETATM   22  C   UNL     1      -9.847   7.591  66.645  1.00  0.00    -0.204 C  
HETATM   23  O   UNL     1      -9.317   6.516  66.378  1.00  0.00    -0.160 OA 
HETATM   24  N   UNL     1     -10.713   7.733  67.722  1.00  0.00    -0.174 N  
BRANCH  24  25
HETATM   25  C   UNL     1     -10.403   6.958  68.922  1.00  0.00    -0.189 C  
HETATM   26 CL   UNL     1     -10.855   4.993  70.731  1.00  0.00    -0.048 Cl 
HETATM   27  C   UNL     1     -11.397   5.861  69.271  1.00  0.00    -0.003 C  
ENDBRANCH  24  25
BRANCH  24  28
HETATM   28  C   UNL     1     -11.904   8.584  67.649  1.00  0.00     3.346 C  
HETATM   29 CL   UNL     1     -11.318  10.158  69.814  1.00  0.00    -0.300 Cl 
HETATM   30  C   UNL     1     -12.459   9.083  68.981  1.00  0.00     3.328 C  
ENDBRANCH  24  28
ENDBRANCH  21  22
ENDBRANCH  15  21
TORSDOF 4
ENDMDL
MODEL      188
REMARK 921   NORMALIZED FREE ENERGY PREDICTED BY IDOCK:   25.24 KCAL/MOL
REMARK 922        TOTAL FREE ENERGY PREDICTED BY IDOCK:   30.48 KCAL/MOL
REMARK 923 INTER-LIGAND FREE ENERGY PREDICTED BY IDOCK:   28.58 KCAL/MOL
REMARK 924 INTRA-LIGAND FREE ENERGY PREDICTED BY IDOCK:    1.91 KCAL/MOL
REMARK 927      BINDING AFFINITY PREDICTED BY RF-SCORE:    0.00 PKD
ROOT
HETATM    1  C   UNL     1      -8.717   3.312  71.643  1.00  0.00    -0.118 C  
HETATM    2  C   UNL     1      -7.593   3.403  72.512  1.00  0.00    -0.058 C  
HETATM    3  C   UNL     1      -8.741   4.129  73.133  1.00  0.00    -0.095 C  
HETATM    4  C   UNL     1     -10.432   3.844  72.048  1.00  0.00     0.060 C  
HETATM    5  O   UNL     1     -11.832   4.080  72.195  1.00  0.00     1.391 OA 
HETATM    6  C   UNL     1     -10.034   2.896  72.954  1.00  0.00    -0.204 C  
HETATM    7  C   UNL     1     -10.696   4.183  74.126  1.00  0.00    -0.289 C  
HETATM    8  C   UNL     1     -10.457   1.479  73.117  1.00  0.00    -0.197 C  
HETATM    9  H   UNL     1     -12.624   3.947  71.687  1.00  0.00     0.000 HD 
HETATM   10  C   UNL     1     -10.614   5.844  73.398  1.00  0.00    -0.279 C  
HETATM   11  C   UNL     1      -9.540   6.260  72.091  1.00  0.00    -0.158 C  
HETATM   12  C   UNL     1      -9.744   7.591  71.358  1.00  0.00    -0.180 A  
HETATM   13  C   UNL     1     -10.514   8.627  71.920  1.00  0.00    -0.410 A  
HETATM   14  C   UNL     1     -10.508   9.918  71.371  1.00  0.00     0.343 A  
HETATM   15  C   UNL     1      -9.728  10.180  70.244  1.00  0.00     0.080 A  
HETATM   16  C   UNL     1      -8.950   9.176  69.680  1.00  0.00    -0.158 A  
HETATM   17  C   UNL     1      -7.668   5.638  70.367  1.00  0.00    -0.094 C  
HETATM   18  C   UNL     1      -8.933   7.886  70.232  1.00  0.00    -0.151 A  
HETATM   19  C   UNL     1      -8.935   5.063  70.983  1.00  0.00    -0.162 C  
HETATM   20  C   UNL     1      -8.020   6.884  69.560  1.00  0.00    -0.125 C  
ENDROOT
BRANCH  15  21
HETATM   21  O   UNL     1      -9.657  11.495  69.748  1.00  0.00     0.779 OA 
BRANCH  21  22
HETATM   22  C   UNL     1      -9.645  12.516  70.696  1.00  0.00     6.955 C  
HETATM   23  O   UNL     1      -8.644  12.983  71.232  1.00  0.00     9.506 OA 
HETATM   24  N   UNL     1     -10.907  13.058  70.903  1.00  0.00     2.773 N  
BRANCH  24  25
HETATM   25  C   UNL     1     -10.984  14.511  71.044  1.00  0.00     0.488 C  
HETATM   26 CL   UNL     1     -10.177  16.905  72.023  1.00  0.00     4.387 Cl 
HETATM   27  C   UNL     1      -9.972  15.134  71.995  1.00  0.00     3.161 C  
ENDBRANCH  24  25
BRANCH  24  28
HETATM   28  C   UNL     1     -12.101  12.216  71.019  1.00  0.00     0.047 C  
HETATM   29 CL   UNL     1     -13.899  14.064  70.090  1.00  0.00     1.353 Cl 
HETATM   30  C   UNL     1     -13.402  12.935  71.368  1.00  0.00    -0.069 C  
ENDBRANCH  24  28
ENDBRANCH  21  22
ENDBRANCH  15  21
TORSDOF 4
ENDMDL
MODEL      189
REMARK 921   NORMALIZED FREE ENERGY PREDICTED BY IDOCK:   47.63 KCAL/MOL
REMARK 922        TOTAL FREE ENERGY PREDICTED BY IDOCK:   58.11 KCAL/MOL
REMARK 923 INTER-LIGAND FREE ENERGY PREDICTED BY IDOCK:   51.91 KCAL/MOL
REMARK 924 INTRA-LIGAND FREE ENERGY PREDICTED BY IDOCK:    6.20 KCAL/MOL
REMARK 927      BINDING AFFINITY PREDICTED BY RF-SCORE:    0.00 PKD
ROOT
HETATM    1  C   UNL     1      -8.549   8.307  64.782  1.00  0.00    -0.047 C  
HETATM    2  C   UNL     1      -8.610   9.556  64.102  1.00  0.00    -0.217 C  
HETATM    3  C   UNL     1      -7.322   9.479  64.854  1.00  0.00    -0.111 C  
HETATM    4  C   UNL     1      -7.079   7.632  65.660  1.00  0.00    -0.061 C  
HETATM    5  O   UNL     1      -6.038   6.883  66.287  1.00  0.00    -0.033 OA 
HETATM    6  C   UNL     1      -6.753   7.853  64.347  1.00  0.00    -0.056 C  
HETATM    7  C   UNL     1      -5.302   8.682  65.169  1.00  0.00    -0.039 C  
HETATM    8  C   UNL     1      -6.507   6.891  63.239  1.00  0.00    -0.043 C  
HETATM    9  H   UNL     1      -5.925   6.019  66.664  1.00  0.00     0.000 HD 
HETATM   10  C   UNL     1      -5.728   9.259  66.837  1.00  0.00    -0.048 C  
HETATM   11  C   UNL     1      -7.365   9.550  67.355  1.00  0.00    -0.087 C  
HETATM   12  C   UNL     1      -7.646   9.753  68.849  1.00  0.00    -0.081 A  
HETATM   13  C   UNL     1      -6.613  10.068  69.753  1.00  0.00    -0.074 A  
HETATM   14  C   UNL     1      -6.894  10.484  71.062  1.00  0.00     0.842 A  
HETATM   15  C   UNL     1      -8.223  10.585  71.480  1.00  0.00     4.852 A  
HETATM   16  C   UNL     1      -9.258  10.291  70.601  1.00  0.00     1.009 A  
HETATM   17  C   UNL     1      -9.945   9.617  66.899  1.00  0.00    -0.272 C  
HETATM   18  C   UNL     1      -8.990   9.892  69.283  1.00  0.00    -0.184 A  
HETATM   19  C   UNL     1      -8.721   8.761  66.603  1.00  0.00    -0.138 C  
HETATM   20  C   UNL     1     -10.195   9.637  68.404  1.00  0.00    -0.214 C  
ENDROOT
BRANCH  15  21
HETATM   21  O   UNL     1      -8.503  11.085  72.765  1.00  0.00    11.923 OA 
BRANCH  21  22
HETATM   22  C   UNL     1      -9.606  10.539  73.417  1.00  0.00    13.688 C  
HETATM   23  O   UNL     1     -10.025  10.880  74.519  1.00  0.00    16.878 OA 
HETATM   24  N   UNL     1     -10.284   9.620  72.627  1.00  0.00     2.479 N  
BRANCH  24  25
HETATM   25  C   UNL     1     -11.745   9.664  72.672  1.00  0.00     1.453 C  
HETATM   26 CL   UNL     1     -14.157  10.815  72.232  1.00  0.00     0.413 Cl 
HETATM   27  C   UNL     1     -12.381  10.939  72.140  1.00  0.00     0.697 C  
ENDBRANCH  24  25
BRANCH  24  28
HETATM   28  C   UNL     1      -9.575   8.622  71.820  1.00  0.00    -0.290 C  
HETATM   29 CL   UNL     1      -9.853   6.529  73.566  1.00  0.00    -0.190 Cl 
HETATM   30  C   UNL     1      -8.790   7.565  72.592  1.00  0.00    -0.139 C  
ENDBRANCH  24  28
ENDBRANCH  21  22
ENDBRANCH  15  21
TORSDOF 4
ENDMDL
MODEL      190
REMARK 921   NORMALIZED FREE ENERGY PREDICTED BY IDOCK:   54.33 KCAL/MOL
REMARK 922        TOTAL FREE ENERGY PREDICTED BY IDOCK:   66.37 KCAL/MOL
REMARK 923 INTER-LIGAND FREE ENERGY PREDICTED BY IDOCK:   64.09 KCAL/MOL
REMARK 924 INTRA-LIGAND FREE ENERGY PREDICTED BY IDOCK:    2.28 KCAL/MOL
REMARK 927      BINDING AFFINITY PREDICTED BY RF-SCORE:    0.00 PKD
ROOT
HETATM    1  C   UNL     1     -11.625   7.764  72.208  1.00  0.00    -0.390 C  
HETATM    2  C   UNL     1     -12.716   8.638  72.479  1.00  0.00    -0.357 C  
HETATM    3  C   UNL     1     -12.183   8.941  71.117  1.00  0.00    -0.303 C  
HETATM    4  C   UNL     1     -10.774   7.580  70.587  1.00  0.00    -0.230 C  
HETATM    5  O   UNL     1     -10.062   7.203  69.408  1.00  0.00    -0.169 OA 
HETATM    6  C   UNL     1     -12.103   7.285  70.429  1.00  0.00    -0.067 C  
HETATM    7  C   UNL     1     -11.876   8.457  69.000  1.00  0.00     1.677 C  
HETATM    8  C   UNL     1     -12.781   5.980  70.198  1.00  0.00     2.939 C  
HETATM    9  H   UNL     1      -9.403   6.566  69.160  1.00  0.00     0.000 HD 
HETATM   10  C   UNL     1     -10.514   9.618  69.306  1.00  0.00    -0.232 C  
HETATM   11  C   UNL     1      -9.921   9.990  70.901  1.00  0.00     0.333 C  
HETATM   12  C   UNL     1      -8.595  10.749  71.041  1.00  0.00     4.257 A  
HETATM   13  C   UNL     1      -8.037  11.456  69.958  1.00  0.00     1.636 A  
HETATM   14  C   UNL     1      -6.962  12.337  70.143  1.00  0.00     0.928 A  
HETATM   15  C   UNL     1      -6.431  12.514  71.422  1.00  0.00     2.564 A  
HETATM   16  C   UNL     1      -6.974  11.836  72.506  1.00  0.00     8.490 A  
HETATM   17  C   UNL     1      -9.998   9.716  73.506  1.00  0.00     6.856 C  
HETATM   18  C   UNL     1      -8.062  10.967  72.338  1.00  0.00    11.174 A  
HETATM   19  C   UNL     1     -10.113   8.889  72.233  1.00  0.00    -0.190 C  
HETATM   20  C   UNL     1      -8.596  10.313  73.594  1.00  0.00     9.322 C  
ENDROOT
BRANCH  15  21
HETATM   21  O   UNL     1      -5.411  13.463  71.617  1.00  0.00    -0.190 OA 
BRANCH  21  22
HETATM   22  C   UNL     1      -5.721  14.551  72.430  1.00  0.00     0.125 C  
HETATM   23  O   UNL     1      -5.162  14.839  73.484  1.00  0.00    -0.221 OA 
HETATM   24  N   UNL     1      -6.681  15.378  71.860  1.00  0.00     2.058 N  
BRANCH  24  25
HETATM   25  C   UNL     1      -6.474  16.819  71.999  1.00  0.00     4.211 C  
HETATM   26 CL   UNL     1      -5.191  19.011  72.940  1.00  0.00     2.669 Cl 
HETATM   27  C   UNL     1      -5.328  17.234  72.910  1.00  0.00     3.529 C  
ENDBRANCH  24  25
BRANCH  24  28
HETATM   28  C   UNL     1      -7.867  14.839  71.188  1.00  0.00     2.717 C  
HETATM   29 CL   UNL     1      -7.536  16.169  68.816  1.00  0.00    -0.180 Cl 
HETATM   30  C   UNL     1      -8.569  15.772  70.205  1.00  0.00     1.135 C  
ENDBRANCH  24  28
ENDBRANCH  21  22
ENDBRANCH  15  21
TORSDOF 4
ENDMDL
