MODEL        1
REMARK 921   NORMALIZED FREE ENERGY PREDICTED BY IDOCK:   -7.76 KCAL/MOL
REMARK 922        TOTAL FREE ENERGY PREDICTED BY IDOCK:   -9.72 KCAL/MOL
REMARK 923 INTER-LIGAND FREE ENERGY PREDICTED BY IDOCK:   -9.12 KCAL/MOL
REMARK 924 INTRA-LIGAND FREE ENERGY PREDICTED BY IDOCK:   -0.60 KCAL/MOL
REMARK 927      BINDING AFFINITY PREDICTED BY RF-SCORE:    0.00 PKD
ROOT
HETATM    1  C   UNL     1     -10.586   9.635  70.305  1.00  0.00    -0.278 C  
HETATM    2  N   UNL     1     -10.866  10.033  68.926  1.00  0.00    -0.219 NA 
HETATM    3  C   UNL     1     -12.065  10.897  68.851  1.00  0.00    -0.116 C  
HETATM    4  C   UNL     1     -11.849  12.329  69.374  1.00  0.00    -0.310 C  
HETATM    5  N   UNL     1     -10.690  12.949  68.735  1.00  0.00    -0.242 N  
HETATM    6  C   UNL     1      -9.458  12.164  68.807  1.00  0.00     0.059 C  
HETATM    7  C   UNL     1     -10.878  14.094  67.992  1.00  0.00    -0.246 C  
HETATM    8  O   UNL     1     -11.984  14.594  67.830  1.00  0.00    -0.348 OA 
HETATM    9  C   UNL     1      -9.711  10.722  68.304  1.00  0.00    -0.164 C  
ENDROOT
BRANCH   7  10
HETATM   10  O   UNL     1      -9.737  14.633  67.491  1.00  0.00    -0.208 OA 
BRANCH  10  11
HETATM   11  C   UNL     1      -9.672  14.760  66.053  1.00  0.00    -0.321 C  
HETATM   12  N   UNL     1     -10.104  16.064  65.589  1.00  0.00    -0.358 N  
HETATM   13  C   UNL     1     -11.160  15.948  64.672  1.00  0.00    -0.354 C  
HETATM   14  C   UNL     1     -10.513  13.789  65.261  1.00  0.00    -0.363 A  
HETATM   15  N   UNL     1     -10.393  12.443  65.216  1.00  0.00    -0.277 NA 
HETATM   16  C   UNL     1     -11.390  14.503  64.467  1.00  0.00    -0.316 A  
HETATM   17  O   UNL     1     -11.762  16.807  64.054  1.00  0.00    -1.120 OA 
HETATM   18  C   UNL     1     -11.244  11.860  64.327  1.00  0.00    -0.357 A  
HETATM   19  N   UNL     1     -12.220  13.942  63.565  1.00  0.00    -0.666 NA 
HETATM   20  C   UNL     1     -12.132  12.590  63.530  1.00  0.00    -0.562 A  
BRANCH  12  21
HETATM   21  C   UNL     1      -9.509  17.276  65.978  1.00  0.00    -0.115 A  
HETATM   22 CL   UNL     1      -7.493  21.061  67.287  1.00  0.00    -0.368 Cl 
HETATM   23  C   UNL     1      -9.641  19.447  67.035  1.00  0.00    -0.412 A  
HETATM   24  C   UNL     1      -7.615  18.621  66.128  1.00  0.00    -0.246 A  
HETATM   25  N   UNL     1      -8.195  17.459  65.739  1.00  0.00    -0.506 NA 
HETATM   26  C   UNL     1     -10.261  18.266  66.614  1.00  0.00    -0.399 A  
HETATM   27  C   UNL     1      -8.291  19.629  66.785  1.00  0.00    -0.308 A  
ENDBRANCH  12  21
ENDBRANCH  10  11
ENDBRANCH   7  10
TORSDOF 3
ENDMDL
MODEL        2
REMARK 921   NORMALIZED FREE ENERGY PREDICTED BY IDOCK:   -7.65 KCAL/MOL
REMARK 922        TOTAL FREE ENERGY PREDICTED BY IDOCK:   -9.59 KCAL/MOL
REMARK 923 INTER-LIGAND FREE ENERGY PREDICTED BY IDOCK:   -9.52 KCAL/MOL
REMARK 924 INTRA-LIGAND FREE ENERGY PREDICTED BY IDOCK:   -0.07 KCAL/MOL
REMARK 927      BINDING AFFINITY PREDICTED BY RF-SCORE:    0.00 PKD
ROOT
HETATM    1  C   UNL     1     -10.037   6.385  71.641  1.00  0.00    -0.186 C  
HETATM    2  N   UNL     1     -10.965   6.911  70.640  1.00  0.00    -0.252 NA 
HETATM    3  C   UNL     1     -12.251   7.306  71.256  1.00  0.00    -0.354 C  
HETATM    4  C   UNL     1     -12.186   8.601  72.088  1.00  0.00    -0.386 C  
HETATM    5  N   UNL     1     -11.596   9.690  71.312  1.00  0.00    -0.365 N  
HETATM    6  C   UNL     1     -10.302   9.380  70.705  1.00  0.00    -0.298 C  
HETATM    7  C   UNL     1     -12.353  10.817  71.073  1.00  0.00    -0.404 C  
HETATM    8  O   UNL     1     -13.508  10.925  71.468  1.00  0.00    -0.243 OA 
HETATM    9  C   UNL     1     -10.389   8.060  69.902  1.00  0.00    -0.221 C  
ENDROOT
BRANCH   7  10
HETATM   10  O   UNL     1     -11.702  11.799  70.400  1.00  0.00    -0.300 OA 
BRANCH  10  11
HETATM   11  C   UNL     1     -12.430  13.033  70.212  1.00  0.00    -0.147 C  
HETATM   12  N   UNL     1     -11.910  13.825  69.114  1.00  0.00    -0.334 N  
HETATM   13  C   UNL     1     -11.543  15.108  69.547  1.00  0.00    -0.319 C  
HETATM   14  C   UNL     1     -12.436  13.986  71.383  1.00  0.00    -0.356 A  
HETATM   15  N   UNL     1     -12.966  13.779  72.609  1.00  0.00    -0.364 NA 
HETATM   16  C   UNL     1     -11.898  15.193  70.979  1.00  0.00    -0.333 A  
HETATM   17  O   UNL     1     -11.097  16.052  68.920  1.00  0.00    -0.287 OA 
HETATM   18  C   UNL     1     -12.894  14.874  73.414  1.00  0.00    -0.515 A  
HETATM   19  N   UNL     1     -11.842  16.293  71.756  1.00  0.00    -0.490 NA 
HETATM   20  C   UNL     1     -12.344  16.092  72.999  1.00  0.00    -0.520 A  
BRANCH  12  21
HETATM   21  C   UNL     1     -11.830  13.373  67.786  1.00  0.00    -0.358 A  
HETATM   22 CL   UNL     1     -11.732  11.964  63.531  1.00  0.00    -0.561 Cl 
HETATM   23  C   UNL     1     -11.201  11.695  66.163  1.00  0.00    -0.314 A  
HETATM   24  C   UNL     1     -12.299  13.696  65.529  1.00  0.00    -0.482 A  
HETATM   25  N   UNL     1     -12.359  14.137  66.809  1.00  0.00    -0.394 NA 
HETATM   26  C   UNL     1     -11.229  12.150  67.485  1.00  0.00    -0.357 A  
HETATM   27  C   UNL     1     -11.745  12.485  65.163  1.00  0.00    -0.378 A  
ENDBRANCH  12  21
ENDBRANCH  10  11
ENDBRANCH   7  10
TORSDOF 3
ENDMDL
MODEL        3
REMARK 921   NORMALIZED FREE ENERGY PREDICTED BY IDOCK:   -7.65 KCAL/MOL
REMARK 922        TOTAL FREE ENERGY PREDICTED BY IDOCK:   -9.59 KCAL/MOL
REMARK 923 INTER-LIGAND FREE ENERGY PREDICTED BY IDOCK:   -8.73 KCAL/MOL
REMARK 924 INTRA-LIGAND FREE ENERGY PREDICTED BY IDOCK:   -0.86 KCAL/MOL
REMARK 927      BINDING AFFINITY PREDICTED BY RF-SCORE:    0.00 PKD
ROOT
HETATM    1  C   UNL     1      -6.274  19.210  64.928  1.00  0.00    -0.260 C  
HETATM    2  N   UNL     1      -6.574  19.104  66.356  1.00  0.00    -0.189 NA 
HETATM    3  C   UNL     1      -7.820  19.826  66.698  1.00  0.00    -0.297 C  
HETATM    4  C   UNL     1      -9.108  19.126  66.227  1.00  0.00    -0.310 C  
HETATM    5  N   UNL     1      -9.142  17.736  66.678  1.00  0.00    -0.259 N  
HETATM    6  C   UNL     1      -7.955  16.952  66.339  1.00  0.00    -0.317 C  
HETATM    7  C   UNL     1     -10.167  17.335  67.508  1.00  0.00    -0.328 C  
HETATM    8  O   UNL     1     -11.034  18.109  67.897  1.00  0.00    -0.298 OA 
HETATM    9  C   UNL     1      -6.675  17.692  66.796  1.00  0.00    -0.191 C  
ENDROOT
BRANCH   7  10
HETATM   10  O   UNL     1     -10.152  16.016  67.823  1.00  0.00    -0.236 OA 
BRANCH  10  11
HETATM   11  C   UNL     1     -11.377  15.289  67.580  1.00  0.00    -0.312 C  
HETATM   12  N   UNL     1     -11.750  14.439  68.695  1.00  0.00    -0.316 N  
HETATM   13  C   UNL     1     -11.885  13.103  68.287  1.00  0.00    -0.349 C  
HETATM   14  C   UNL     1     -11.373  14.358  66.392  1.00  0.00    -0.350 A  
HETATM   15  N   UNL     1     -11.230  14.688  65.089  1.00  0.00    -0.355 NA 
HETATM   16  C   UNL     1     -11.658  13.078  66.827  1.00  0.00    -0.368 A  
HETATM   17  O   UNL     1     -12.207  12.116  68.923  1.00  0.00    -0.203 OA 
HETATM   18  C   UNL     1     -11.369  13.625  64.250  1.00  0.00    -0.350 A  
HETATM   19  N   UNL     1     -11.823  12.021  66.007  1.00  0.00    -0.531 NA 
HETATM   20  C   UNL     1     -11.654  12.331  64.699  1.00  0.00    -0.344 A  
BRANCH  12  21
HETATM   21  C   UNL     1     -11.989  14.908  69.998  1.00  0.00    -0.329 A  
HETATM   22 CL   UNL     1     -12.645  16.297  74.210  1.00  0.00    -0.615 Cl 
HETATM   23  C   UNL     1     -13.510  15.479  71.788  1.00  0.00    -0.576 A  
HETATM   24  C   UNL     1     -11.161  15.634  72.049  1.00  0.00    -0.172 A  
HETATM   25  N   UNL     1     -10.934  15.198  70.786  1.00  0.00    -0.258 NA 
HETATM   26  C   UNL     1     -13.293  15.056  70.472  1.00  0.00    -0.177 A  
HETATM   27  C   UNL     1     -12.422  15.777  72.592  1.00  0.00    -0.448 A  
ENDBRANCH  12  21
ENDBRANCH  10  11
ENDBRANCH   7  10
TORSDOF 3
ENDMDL
MODEL        4
REMARK 921   NORMALIZED FREE ENERGY PREDICTED BY IDOCK:   -7.52 KCAL/MOL
REMARK 922        TOTAL FREE ENERGY PREDICTED BY IDOCK:   -9.44 KCAL/MOL
REMARK 923 INTER-LIGAND FREE ENERGY PREDICTED BY IDOCK:   -9.55 KCAL/MOL
REMARK 924 INTRA-LIGAND FREE ENERGY PREDICTED BY IDOCK:    0.11 KCAL/MOL
REMARK 927      BINDING AFFINITY PREDICTED BY RF-SCORE:    0.00 PKD
ROOT
HETATM    1  C   UNL     1      -9.575   9.845  64.340  1.00  0.00    -0.189 C  
HETATM    2  N   UNL     1      -9.324  11.275  64.522  1.00  0.00    -0.175 NA 
HETATM    3  C   UNL     1     -10.168  12.087  63.619  1.00  0.00    -0.444 C  
HETATM    4  C   UNL     1     -11.653  12.149  64.023  1.00  0.00    -0.423 C  
HETATM    5  N   UNL     1     -11.798  12.558  65.419  1.00  0.00    -0.409 N  
HETATM    6  C   UNL     1     -11.018  11.769  66.372  1.00  0.00    -0.294 C  
HETATM    7  C   UNL     1     -12.488  13.717  65.700  1.00  0.00    -0.503 C  
HETATM    8  O   UNL     1     -12.963  14.425  64.821  1.00  0.00    -0.616 OA 
HETATM    9  C   UNL     1      -9.538  11.699  65.926  1.00  0.00    -0.229 C  
ENDROOT
BRANCH   7  10
HETATM   10  O   UNL     1     -12.626  13.982  67.024  1.00  0.00    -0.215 OA 
BRANCH  10  11
HETATM   11  C   UNL     1     -11.426  14.386  67.721  1.00  0.00    -0.336 C  
HETATM   12  N   UNL     1     -11.599  14.410  69.160  1.00  0.00    -0.287 N  
HETATM   13  C   UNL     1     -11.300  15.678  69.682  1.00  0.00    -0.329 C  
HETATM   14  C   UNL     1     -10.896  15.760  67.389  1.00  0.00    -0.306 A  
HETATM   15  N   UNL     1     -10.433  16.198  66.197  1.00  0.00    -0.325 NA 
HETATM   16  C   UNL     1     -10.843  16.509  68.549  1.00  0.00    -0.349 A  
HETATM   17  O   UNL     1     -11.303  16.075  70.834  1.00  0.00    -0.370 OA 
HETATM   18  C   UNL     1      -9.934  17.463  66.250  1.00  0.00    -0.297 A  
HETATM   19  N   UNL     1     -10.328  17.753  68.622  1.00  0.00    -0.367 NA 
HETATM   20  C   UNL     1      -9.887  18.217  67.427  1.00  0.00    -0.313 A  
BRANCH  12  21
HETATM   21  C   UNL     1     -11.974  13.294  69.928  1.00  0.00    -0.330 A  
HETATM   22 CL   UNL     1     -13.213   9.661  72.244  1.00  0.00    -0.519 Cl 
HETATM   23  C   UNL     1     -13.186  12.320  71.779  1.00  0.00    -0.428 A  
HETATM   24  C   UNL     1     -11.921  10.994  70.278  1.00  0.00    -0.365 A  
HETATM   25  N   UNL     1     -11.547  12.073  69.549  1.00  0.00    -0.313 NA 
HETATM   26  C   UNL     1     -12.785  13.446  71.054  1.00  0.00    -0.387 A  
HETATM   27  C   UNL     1     -12.743  11.068  71.385  1.00  0.00    -0.429 A  
ENDBRANCH  12  21
ENDBRANCH  10  11
ENDBRANCH   7  10
TORSDOF 3
ENDMDL
MODEL        5
REMARK 921   NORMALIZED FREE ENERGY PREDICTED BY IDOCK:   -7.51 KCAL/MOL
REMARK 922        TOTAL FREE ENERGY PREDICTED BY IDOCK:   -9.43 KCAL/MOL
REMARK 923 INTER-LIGAND FREE ENERGY PREDICTED BY IDOCK:   -8.69 KCAL/MOL
REMARK 924 INTRA-LIGAND FREE ENERGY PREDICTED BY IDOCK:   -0.74 KCAL/MOL
REMARK 927      BINDING AFFINITY PREDICTED BY RF-SCORE:    0.00 PKD
ROOT
HETATM    1  C   UNL     1     -11.251  15.605  64.610  1.00  0.00    -0.369 C  
HETATM    2  N   UNL     1     -11.660  14.206  64.481  1.00  0.00    -0.391 NA 
HETATM    3  C   UNL     1     -10.508  13.293  64.653  1.00  0.00    -0.402 C  
HETATM    4  C   UNL     1     -10.010  13.165  66.105  1.00  0.00    -0.291 C  
HETATM    5  N   UNL     1     -11.111  12.830  67.006  1.00  0.00    -0.267 N  
HETATM    6  C   UNL     1     -12.270  13.717  66.915  1.00  0.00    -0.366 C  
HETATM    7  C   UNL     1     -11.049  11.649  67.714  1.00  0.00    -0.249 C  
HETATM    8  O   UNL     1     -10.116  10.863  67.596  1.00  0.00    -0.173 OA 
HETATM    9  C   UNL     1     -12.729  13.851  65.444  1.00  0.00    -0.490 C  
ENDROOT
BRANCH   7  10
HETATM   10  O   UNL     1     -12.083  11.453  68.571  1.00  0.00    -0.550 OA 
BRANCH  10  11
HETATM   11  C   UNL     1     -11.797  11.662  69.972  1.00  0.00    -0.355 C  
HETATM   12  N   UNL     1     -12.151  10.518  70.790  1.00  0.00    -0.337 N  
HETATM   13  C   UNL     1     -13.053  10.881  71.801  1.00  0.00    -0.459 C  
HETATM   14  C   UNL     1     -12.509  12.820  70.629  1.00  0.00    -0.246 A  
HETATM   15  N   UNL     1     -12.387  14.134  70.337  1.00  0.00    -0.339 NA 
HETATM   16  C   UNL     1     -13.252  12.341  71.691  1.00  0.00    -0.257 A  
HETATM   17  O   UNL     1     -13.552  10.211  72.687  1.00  0.00    -0.083 OA 
HETATM   18  C   UNL     1     -13.092  14.937  71.180  1.00  0.00    -0.396 A  
HETATM   19  N   UNL     1     -13.936  13.125  72.549  1.00  0.00    -0.677 NA 
HETATM   20  C   UNL     1     -13.846  14.444  72.250  1.00  0.00    -0.491 A  
BRANCH  12  21
HETATM   21  C   UNL     1     -11.619   9.229  70.614  1.00  0.00    -0.252 A  
HETATM   22 CL   UNL     1      -9.997   5.072  70.185  1.00  0.00    -0.308 Cl 
HETATM   23  C   UNL     1      -9.740   7.758  70.229  1.00  0.00    -0.179 A  
HETATM   24  C   UNL     1     -11.931   6.923  70.561  1.00  0.00    -0.305 A  
HETATM   25  N   UNL     1     -12.445   8.168  70.714  1.00  0.00     0.015 NA 
HETATM   26  C   UNL     1     -10.259   9.050  70.355  1.00  0.00    -0.250 A  
HETATM   27  C   UNL     1     -10.593   6.672  70.332  1.00  0.00    -0.223 A  
ENDBRANCH  12  21
ENDBRANCH  10  11
ENDBRANCH   7  10
TORSDOF 3
ENDMDL
MODEL        6
REMARK 921   NORMALIZED FREE ENERGY PREDICTED BY IDOCK:   -7.48 KCAL/MOL
REMARK 922        TOTAL FREE ENERGY PREDICTED BY IDOCK:   -9.39 KCAL/MOL
REMARK 923 INTER-LIGAND FREE ENERGY PREDICTED BY IDOCK:   -9.63 KCAL/MOL
REMARK 924 INTRA-LIGAND FREE ENERGY PREDICTED BY IDOCK:    0.24 KCAL/MOL
REMARK 927      BINDING AFFINITY PREDICTED BY RF-SCORE:    0.00 PKD
ROOT
HETATM    1  C   UNL     1     -14.099  15.129  71.099  1.00  0.00    -0.374 C  
HETATM    2  N   UNL     1     -12.699  14.840  71.412  1.00  0.00    -0.308 NA 
HETATM    3  C   UNL     1     -12.330  13.467  71.000  1.00  0.00    -0.338 C  
HETATM    4  C   UNL     1     -12.179  13.281  69.478  1.00  0.00    -0.178 C  
HETATM    5  N   UNL     1     -11.273  14.281  68.917  1.00  0.00    -0.251 N  
HETATM    6  C   UNL     1     -11.604  15.665  69.255  1.00  0.00    -0.366 C  
HETATM    7  C   UNL     1     -10.124  13.854  68.288  1.00  0.00    -0.241 C  
HETATM    8  O   UNL     1      -9.827  12.668  68.204  1.00  0.00    -0.215 OA 
HETATM    9  C   UNL     1     -11.779  15.817  70.785  1.00  0.00    -0.399 C  
ENDROOT
BRANCH   7  10
HETATM   10  O   UNL     1      -9.378  14.848  67.743  1.00  0.00    -0.191 OA 
BRANCH  10  11
HETATM   11  C   UNL     1      -9.407  14.950  66.302  1.00  0.00    -0.296 C  
HETATM   12  N   UNL     1      -9.797  16.269  65.845  1.00  0.00    -0.333 N  
HETATM   13  C   UNL     1     -10.919  16.202  65.006  1.00  0.00    -0.344 C  
HETATM   14  C   UNL     1     -10.357  14.018  65.590  1.00  0.00    -0.329 A  
HETATM   15  N   UNL     1     -10.318  12.666  65.562  1.00  0.00    -0.282 NA 
HETATM   16  C   UNL     1     -11.246  14.769  64.846  1.00  0.00    -0.406 A  
HETATM   17  O   UNL     1     -11.514  17.085  64.416  1.00  0.00    -1.048 OA 
HETATM   18  C   UNL     1     -11.262  12.121  64.747  1.00  0.00    -0.323 A  
HETATM   19  N   UNL     1     -12.169  14.245  64.015  1.00  0.00    -0.625 NA 
HETATM   20  C   UNL     1     -12.161  12.890  64.000  1.00  0.00    -0.455 A  
BRANCH  12  21
HETATM   21  C   UNL     1      -9.107  17.451  66.168  1.00  0.00    -0.145 A  
HETATM   22 CL   UNL     1      -6.785  21.130  67.249  1.00  0.00    -0.422 Cl 
HETATM   23  C   UNL     1      -9.010  19.604  67.263  1.00  0.00    -0.387 A  
HETATM   24  C   UNL     1      -7.157  18.719  66.084  1.00  0.00    -0.259 A  
HETATM   25  N   UNL     1      -7.829  17.588  65.759  1.00  0.00    -0.518 NA 
HETATM   26  C   UNL     1      -9.728  18.456  66.911  1.00  0.00    -0.324 A  
HETATM   27  C   UNL     1      -7.699  19.740  66.839  1.00  0.00    -0.272 A  
ENDBRANCH  12  21
ENDBRANCH  10  11
ENDBRANCH   7  10
TORSDOF 3
ENDMDL
MODEL        7
REMARK 921   NORMALIZED FREE ENERGY PREDICTED BY IDOCK:   -7.45 KCAL/MOL
REMARK 922        TOTAL FREE ENERGY PREDICTED BY IDOCK:   -9.35 KCAL/MOL
REMARK 923 INTER-LIGAND FREE ENERGY PREDICTED BY IDOCK:   -8.78 KCAL/MOL
REMARK 924 INTRA-LIGAND FREE ENERGY PREDICTED BY IDOCK:   -0.57 KCAL/MOL
REMARK 927      BINDING AFFINITY PREDICTED BY RF-SCORE:    0.00 PKD
ROOT
HETATM    1  C   UNL     1      -7.809  20.005  68.138  1.00  0.00    -0.227 C  
HETATM    2  N   UNL     1      -9.112  19.830  67.495  1.00  0.00    -0.319 NA 
HETATM    3  C   UNL     1      -9.035  18.853  66.387  1.00  0.00    -0.310 C  
HETATM    4  C   UNL     1      -8.902  17.387  66.841  1.00  0.00    -0.242 C  
HETATM    5  N   UNL     1      -9.947  17.041  67.803  1.00  0.00    -0.271 N  
HETATM    6  C   UNL     1     -10.052  17.947  68.946  1.00  0.00    -0.348 C  
HETATM    7  C   UNL     1     -10.833  16.035  67.483  1.00  0.00    -0.292 C  
HETATM    8  O   UNL     1     -10.787  15.439  66.413  1.00  0.00    -0.314 OA 
HETATM    9  C   UNL     1     -10.154  19.413  68.462  1.00  0.00    -0.437 C  
ENDROOT
BRANCH   7  10
HETATM   10  O   UNL     1     -11.726  15.741  68.461  1.00  0.00    -0.383 OA 
BRANCH  10  11
HETATM   11  C   UNL     1     -11.250  14.884  69.522  1.00  0.00    -0.277 C  
HETATM   12  N   UNL     1     -11.519  13.482  69.268  1.00  0.00    -0.279 N  
HETATM   13  C   UNL     1     -12.268  12.916  70.311  1.00  0.00    -0.289 C  
HETATM   14  C   UNL     1     -11.837  15.131  70.890  1.00  0.00    -0.325 A  
HETATM   15  N   UNL     1     -11.723  16.246  71.646  1.00  0.00    -0.475 NA 
HETATM   16  C   UNL     1     -12.444  13.970  71.331  1.00  0.00    -0.356 A  
HETATM   17  O   UNL     1     -12.660  11.773  70.467  1.00  0.00    -0.240 OA 
HETATM   18  C   UNL     1     -12.288  16.117  72.877  1.00  0.00    -0.511 A  
HETATM   19  N   UNL     1     -12.986  13.820  72.557  1.00  0.00    -0.365 NA 
HETATM   20  C   UNL     1     -12.904  14.940  73.315  1.00  0.00    -0.530 A  
BRANCH  12  21
HETATM   21  C   UNL     1     -11.049  12.780  68.145  1.00  0.00    -0.256 A  
HETATM   22 CL   UNL     1      -9.672  10.440  64.578  1.00  0.00    -0.367 Cl 
HETATM   23  C   UNL     1      -9.276  11.638  66.963  1.00  0.00    -0.185 A  
HETATM   24  C   UNL     1     -11.466  11.797  66.077  1.00  0.00    -0.215 A  
HETATM   25  N   UNL     1     -11.914  12.489  67.153  1.00  0.00    -0.516 NA 
HETATM   26  C   UNL     1      -9.715  12.377  68.067  1.00  0.00    -0.210 A  
HETATM   27  C   UNL     1     -10.169  11.344  65.946  1.00  0.00    -0.246 A  
ENDBRANCH  12  21
ENDBRANCH  10  11
ENDBRANCH   7  10
TORSDOF 3
ENDMDL
MODEL        8
REMARK 921   NORMALIZED FREE ENERGY PREDICTED BY IDOCK:   -7.25 KCAL/MOL
REMARK 922        TOTAL FREE ENERGY PREDICTED BY IDOCK:   -9.13 KCAL/MOL
REMARK 923 INTER-LIGAND FREE ENERGY PREDICTED BY IDOCK:   -8.11 KCAL/MOL
REMARK 924 INTRA-LIGAND FREE ENERGY PREDICTED BY IDOCK:   -1.02 KCAL/MOL
REMARK 927      BINDING AFFINITY PREDICTED BY RF-SCORE:    0.00 PKD
ROOT
HETATM    1  C   UNL     1      -8.827  20.529  67.561  1.00  0.00    -0.242 C  
HETATM    2  N   UNL     1      -9.815  19.541  67.993  1.00  0.00    -0.372 NA 
HETATM    3  C   UNL     1     -10.895  19.390  66.992  1.00  0.00    -0.432 C  
HETATM    4  C   UNL     1     -10.479  18.631  65.718  1.00  0.00    -0.256 C  
HETATM    5  N   UNL     1      -9.862  17.349  66.053  1.00  0.00    -0.228 N  
HETATM    6  C   UNL     1      -8.760  17.429  67.010  1.00  0.00    -0.234 C  
HETATM    7  C   UNL     1     -10.457  16.191  65.597  1.00  0.00    -0.383 C  
HETATM    8  O   UNL     1     -11.493  16.201  64.944  1.00  0.00    -0.217 OA 
HETATM    9  C   UNL     1      -9.196  18.222  68.265  1.00  0.00    -0.309 C  
ENDROOT
BRANCH   7  10
HETATM   10  O   UNL     1      -9.780  15.055  65.902  1.00  0.00    -0.306 OA 
BRANCH  10  11
HETATM   11  C   UNL     1     -10.579  13.861  66.059  1.00  0.00    -0.293 C  
HETATM   12  N   UNL     1     -10.503  13.312  67.398  1.00  0.00    -0.242 N  
HETATM   13  C   UNL     1     -10.062  11.979  67.373  1.00  0.00    -0.194 C  
HETATM   14  C   UNL     1     -10.221  12.700  65.163  1.00  0.00    -0.280 A  
HETATM   15  N   UNL     1     -10.287  12.650  63.814  1.00  0.00    -0.397 NA 
HETATM   16  C   UNL     1      -9.906  11.610  65.951  1.00  0.00    -0.233 A  
HETATM   17  O   UNL     1      -9.900  11.188  68.284  1.00  0.00    -0.175 OA 
HETATM   18  C   UNL     1      -9.987  11.423  63.309  1.00  0.00    -0.401 A  
HETATM   19  N   UNL     1      -9.631  10.382  65.467  1.00  0.00    -0.215 NA 
HETATM   20  C   UNL     1      -9.665  10.324  64.113  1.00  0.00    -0.291 A  
BRANCH  12  21
HETATM   21  C   UNL     1     -10.868  14.014  68.560  1.00  0.00    -0.254 A  
HETATM   22 CL   UNL     1     -11.901  16.198  72.337  1.00  0.00    -0.619 Cl 
HETATM   23  C   UNL     1     -12.490  14.574  70.263  1.00  0.00    -0.405 A  
HETATM   24  C   UNL     1     -10.288  15.446  70.301  1.00  0.00    -0.183 A  
HETATM   25  N   UNL     1      -9.943  14.782  69.171  1.00  0.00    -0.210 NA 
HETATM   26  C   UNL     1     -12.158  13.905  69.080  1.00  0.00    -0.377 A  
HETATM   27  C   UNL     1     -11.536  15.363  70.885  1.00  0.00    -0.358 A  
ENDBRANCH  12  21
ENDBRANCH  10  11
ENDBRANCH   7  10
TORSDOF 3
ENDMDL
MODEL        9
REMARK 921   NORMALIZED FREE ENERGY PREDICTED BY IDOCK:   -7.24 KCAL/MOL
REMARK 922        TOTAL FREE ENERGY PREDICTED BY IDOCK:   -9.11 KCAL/MOL
REMARK 923 INTER-LIGAND FREE ENERGY PREDICTED BY IDOCK:   -8.10 KCAL/MOL
REMARK 924 INTRA-LIGAND FREE ENERGY PREDICTED BY IDOCK:   -1.01 KCAL/MOL
REMARK 927      BINDING AFFINITY PREDICTED BY RF-SCORE:    0.00 PKD
ROOT
HETATM    1  C   UNL     1      -9.854  12.211  63.210  1.00  0.00    -0.092 C  
HETATM    2  N   UNL     1     -10.803  11.193  63.661  1.00  0.00    -0.328 NA 
HETATM    3  C   UNL     1     -10.113  10.093  64.371  1.00  0.00    -0.027 C  
HETATM    4  C   UNL     1      -9.617  10.463  65.782  1.00  0.00    -0.216 C  
HETATM    5  N   UNL     1     -10.697  11.036  66.582  1.00  0.00    -0.260 N  
HETATM    6  C   UNL     1     -11.398  12.155  65.954  1.00  0.00    -0.356 C  
HETATM    7  C   UNL     1     -11.074  10.393  67.742  1.00  0.00    -0.299 C  
HETATM    8  O   UNL     1     -10.550   9.348  68.109  1.00  0.00    -0.221 OA 
HETATM    9  C   UNL     1     -11.859  11.766  64.528  1.00  0.00    -0.152 C  
ENDROOT
BRANCH   7  10
HETATM   10  O   UNL     1     -12.039  11.032  68.450  1.00  0.00    -0.594 OA 
BRANCH  10  11
HETATM   11  C   UNL     1     -11.601  11.729  69.637  1.00  0.00    -0.323 C  
HETATM   12  N   UNL     1     -12.230  11.225  70.843  1.00  0.00    -0.371 N  
HETATM   13  C   UNL     1     -12.901  12.249  71.528  1.00  0.00    -0.280 C  
HETATM   14  C   UNL     1     -11.872  13.213  69.674  1.00  0.00    -0.324 A  
HETATM   15  N   UNL     1     -11.373  14.162  68.850  1.00  0.00    -0.260 NA 
HETATM   16  C   UNL     1     -12.648  13.498  70.781  1.00  0.00    -0.309 A  
HETATM   17  O   UNL     1     -13.516  12.220  72.579  1.00  0.00    -0.358 OA 
HETATM   18  C   UNL     1     -11.734  15.424  69.207  1.00  0.00    -0.349 A  
HETATM   19  N   UNL     1     -12.993  14.745  71.162  1.00  0.00    -0.337 NA 
HETATM   20  C   UNL     1     -12.523  15.704  70.328  1.00  0.00    -0.334 A  
BRANCH  12  21
HETATM   21  C   UNL     1     -12.136   9.893  71.283  1.00  0.00    -0.394 A  
HETATM   22 CL   UNL     1     -11.710   5.626  72.590  1.00  0.00    -0.320 Cl 
HETATM   23  C   UNL     1     -13.140   7.733  71.695  1.00  0.00    -0.378 A  
HETATM   24  C   UNL     1     -10.838   8.134  72.083  1.00  0.00    -0.303 A  
HETATM   25  N   UNL     1     -10.934   9.423  71.674  1.00  0.00    -0.366 NA 
HETATM   26  C   UNL     1     -13.262   9.068  71.299  1.00  0.00    -0.262 A  
HETATM   27  C   UNL     1     -11.903   7.256  72.098  1.00  0.00    -0.286 A  
ENDBRANCH  12  21
ENDBRANCH  10  11
ENDBRANCH   7  10
TORSDOF 3
ENDMDL
MODEL       10
REMARK 921   NORMALIZED FREE ENERGY PREDICTED BY IDOCK:   -7.21 KCAL/MOL
REMARK 922        TOTAL FREE ENERGY PREDICTED BY IDOCK:   -9.08 KCAL/MOL
REMARK 923 INTER-LIGAND FREE ENERGY PREDICTED BY IDOCK:   -8.31 KCAL/MOL
REMARK 924 INTRA-LIGAND FREE ENERGY PREDICTED BY IDOCK:   -0.77 KCAL/MOL
REMARK 927      BINDING AFFINITY PREDICTED BY RF-SCORE:    0.00 PKD
ROOT
HETATM    1  C   UNL     1     -11.106   6.365  72.694  1.00  0.00    -0.261 C  
HETATM    2  N   UNL     1     -10.919   7.803  72.886  1.00  0.00    -0.391 NA 
HETATM    3  C   UNL     1      -9.546   8.218  72.525  1.00  0.00    -0.295 C  
HETATM    4  C   UNL     1      -9.266   8.237  71.010  1.00  0.00    -0.158 C  
HETATM    5  N   UNL     1     -10.276   9.020  70.302  1.00  0.00    -0.190 N  
HETATM    6  C   UNL     1     -11.659   8.636  70.584  1.00  0.00    -0.200 C  
HETATM    7  C   UNL     1      -9.874  10.131  69.591  1.00  0.00    -0.225 C  
HETATM    8  O   UNL     1      -8.704  10.493  69.552  1.00  0.00    -0.129 OA 
HETATM    9  C   UNL     1     -11.903   8.596  72.112  1.00  0.00    -0.377 C  
ENDROOT
BRANCH   7  10
HETATM   10  O   UNL     1     -10.870  10.757  68.916  1.00  0.00    -0.196 OA 
BRANCH  10  11
HETATM   11  C   UNL     1     -10.458  11.745  67.945  1.00  0.00    -0.196 C  
HETATM   12  N   UNL     1     -11.297  12.928  67.965  1.00  0.00    -0.272 N  
HETATM   13  C   UNL     1     -11.857  13.170  66.701  1.00  0.00    -0.391 C  
HETATM   14  C   UNL     1     -10.475  11.305  66.501  1.00  0.00    -0.253 A  
HETATM   15  N   UNL     1      -9.731  10.332  65.928  1.00  0.00    -0.210 NA 
HETATM   16  C   UNL     1     -11.312  12.143  65.789  1.00  0.00    -0.354 A  
HETATM   17  O   UNL     1     -12.583  14.071  66.323  1.00  0.00    -0.451 OA 
HETATM   18  C   UNL     1      -9.911  10.245  64.582  1.00  0.00    -0.327 A  
HETATM   19  N   UNL     1     -11.481  12.085  64.453  1.00  0.00    -0.344 NA 
HETATM   20  C   UNL     1     -10.763  11.095  63.869  1.00  0.00    -0.337 A  
BRANCH  12  21
HETATM   21  C   UNL     1     -11.481  13.744  69.094  1.00  0.00    -0.298 A  
HETATM   22 CL   UNL     1     -11.911  16.369  72.703  1.00  0.00    -0.635 Cl 
HETATM   23  C   UNL     1     -12.417  14.126  71.290  1.00  0.00    -0.446 A  
HETATM   24  C   UNL     1     -11.020  15.720  70.234  1.00  0.00    -0.357 A  
HETATM   25  N   UNL     1     -10.857  14.939  69.139  1.00  0.00    -0.242 NA 
HETATM   26  C   UNL     1     -12.282  13.320  70.155  1.00  0.00    -0.376 A  
HETATM   27  C   UNL     1     -11.774  15.352  71.330  1.00  0.00    -0.395 A  
ENDBRANCH  12  21
ENDBRANCH  10  11
ENDBRANCH   7  10
TORSDOF 3
ENDMDL
MODEL       11
REMARK 921   NORMALIZED FREE ENERGY PREDICTED BY IDOCK:   -7.20 KCAL/MOL
REMARK 922        TOTAL FREE ENERGY PREDICTED BY IDOCK:   -9.06 KCAL/MOL
REMARK 923 INTER-LIGAND FREE ENERGY PREDICTED BY IDOCK:   -8.32 KCAL/MOL
REMARK 924 INTRA-LIGAND FREE ENERGY PREDICTED BY IDOCK:   -0.74 KCAL/MOL
REMARK 927      BINDING AFFINITY PREDICTED BY RF-SCORE:    0.00 PKD
ROOT
HETATM    1  C   UNL     1     -11.362  15.591  64.590  1.00  0.00    -0.357 C  
HETATM    2  N   UNL     1     -11.592  14.155  64.431  1.00  0.00    -0.383 NA 
HETATM    3  C   UNL     1     -10.345  13.386  64.639  1.00  0.00    -0.381 C  
HETATM    4  C   UNL     1      -9.893  13.298  66.109  1.00  0.00    -0.280 C  
HETATM    5  N   UNL     1     -10.979  12.819  66.962  1.00  0.00    -0.257 N  
HETATM    6  C   UNL     1     -12.232  13.560  66.833  1.00  0.00    -0.327 C  
HETATM    7  C   UNL     1     -10.801  11.644  67.661  1.00  0.00    -0.225 C  
HETATM    8  O   UNL     1      -9.775  10.979  67.572  1.00  0.00    -0.170 OA 
HETATM    9  C   UNL     1     -12.647  13.659  65.346  1.00  0.00    -0.491 C  
ENDROOT
BRANCH   7  10
HETATM   10  O   UNL     1     -11.835  11.312  68.474  1.00  0.00    -0.438 OA 
BRANCH  10  11
HETATM   11  C   UNL     1     -11.598  11.446  69.893  1.00  0.00    -0.323 C  
HETATM   12  N   UNL     1     -11.936  10.243  70.629  1.00  0.00    -0.315 N  
HETATM   13  C   UNL     1     -12.880  10.514  71.632  1.00  0.00    -0.475 C  
HETATM   14  C   UNL     1     -12.369  12.537  70.595  1.00  0.00    -0.282 A  
HETATM   15  N   UNL     1     -12.285  13.870  70.385  1.00  0.00    -0.347 NA 
HETATM   16  C   UNL     1     -13.127  11.970  71.602  1.00  0.00    -0.318 A  
HETATM   17  O   UNL     1     -13.380   9.775  72.460  1.00  0.00    -0.349 OA 
HETATM   18  C   UNL     1     -13.043  14.596  71.251  1.00  0.00    -0.359 A  
HETATM   19  N   UNL     1     -13.863  12.678  72.483  1.00  0.00    -0.365 NA 
HETATM   20  C   UNL     1     -13.810  14.014  72.267  1.00  0.00    -0.557 A  
BRANCH  12  21
HETATM   21  C   UNL     1     -11.354   8.985  70.394  1.00  0.00    -0.210 A  
HETATM   22 CL   UNL     1      -9.435   5.031  69.509  1.00  0.00    -0.187 Cl 
HETATM   23  C   UNL     1     -11.540   6.585  70.173  1.00  0.00    -0.466 A  
HETATM   24  C   UNL     1      -9.483   7.714  69.847  1.00  0.00    -0.160 A  
HETATM   25  N   UNL     1     -10.042   8.924  70.091  1.00  0.00    -0.183 NA 
HETATM   26  C   UNL     1     -12.125   7.823  70.456  1.00  0.00     0.069 A  
HETATM   27  C   UNL     1     -10.190   6.528  69.864  1.00  0.00    -0.184 A  
ENDBRANCH  12  21
ENDBRANCH  10  11
ENDBRANCH   7  10
TORSDOF 3
ENDMDL
MODEL       12
REMARK 921   NORMALIZED FREE ENERGY PREDICTED BY IDOCK:   -7.17 KCAL/MOL
REMARK 922        TOTAL FREE ENERGY PREDICTED BY IDOCK:   -9.03 KCAL/MOL
REMARK 923 INTER-LIGAND FREE ENERGY PREDICTED BY IDOCK:   -8.32 KCAL/MOL
REMARK 924 INTRA-LIGAND FREE ENERGY PREDICTED BY IDOCK:   -0.72 KCAL/MOL
REMARK 927      BINDING AFFINITY PREDICTED BY RF-SCORE:    0.00 PKD
ROOT
HETATM    1  C   UNL     1      -8.412  18.762  66.805  1.00  0.00    -0.287 C  
HETATM    2  N   UNL     1      -8.477  18.123  68.120  1.00  0.00    -0.266 NA 
HETATM    3  C   UNL     1      -9.839  18.215  68.693  1.00  0.00    -0.377 C  
HETATM    4  C   UNL     1     -10.871  17.285  68.028  1.00  0.00    -0.297 C  
HETATM    5  N   UNL     1     -10.386  15.907  67.993  1.00  0.00    -0.256 N  
HETATM    6  C   UNL     1      -9.059  15.739  67.402  1.00  0.00    -0.197 C  
HETATM    7  C   UNL     1     -11.108  14.935  68.652  1.00  0.00    -0.263 C  
HETATM    8  O   UNL     1     -12.126  15.191  69.283  1.00  0.00    -0.298 OA 
HETATM    9  C   UNL     1      -8.049  16.705  68.067  1.00  0.00    -0.180 C  
ENDROOT
BRANCH   7  10
HETATM   10  O   UNL     1     -10.617  13.678  68.511  1.00  0.00    -0.240 OA 
BRANCH  10  11
HETATM   11  C   UNL     1     -11.443  12.750  67.773  1.00  0.00    -0.326 C  
HETATM   12  N   UNL     1     -10.962  11.385  67.859  1.00  0.00    -0.222 N  
HETATM   13  C   UNL     1     -10.721  10.854  66.583  1.00  0.00    -0.230 C  
HETATM   14  C   UNL     1     -11.567  13.005  66.291  1.00  0.00    -0.360 A  
HETATM   15  N   UNL     1     -12.114  14.082  65.683  1.00  0.00    -0.394 NA 
HETATM   16  C   UNL     1     -11.125  11.888  65.608  1.00  0.00    -0.310 A  
HETATM   17  O   UNL     1     -10.340   9.746  66.252  1.00  0.00    -0.235 OA 
HETATM   18  C   UNL     1     -12.160  13.965  64.328  1.00  0.00    -0.440 A  
HETATM   19  N   UNL     1     -11.188  11.747  64.268  1.00  0.00    -0.346 NA 
HETATM   20  C   UNL     1     -11.707  12.832  63.644  1.00  0.00    -0.519 A  
BRANCH  12  21
HETATM   21  C   UNL     1     -10.804  10.680  69.065  1.00  0.00    -0.235 A  
HETATM   22 CL   UNL     1     -10.241   8.307  72.827  1.00  0.00    -0.364 Cl 
HETATM   23  C   UNL     1     -11.701   9.829  71.142  1.00  0.00    -0.465 A  
HETATM   24  C   UNL     1      -9.469   9.399  70.477  1.00  0.00    -0.269 A  
HETATM   25  N   UNL     1      -9.618  10.093  69.323  1.00  0.00    -0.214 NA 
HETATM   26  C   UNL     1     -11.861  10.575  69.970  1.00  0.00    -0.388 A  
HETATM   27  C   UNL     1     -10.479   9.231  71.403  1.00  0.00    -0.338 A  
ENDBRANCH  12  21
ENDBRANCH  10  11
ENDBRANCH   7  10
TORSDOF 3
ENDMDL
MODEL       13
REMARK 921   NORMALIZED FREE ENERGY PREDICTED BY IDOCK:   -7.17 KCAL/MOL
REMARK 922        TOTAL FREE ENERGY PREDICTED BY IDOCK:   -9.03 KCAL/MOL
REMARK 923 INTER-LIGAND FREE ENERGY PREDICTED BY IDOCK:   -8.47 KCAL/MOL
REMARK 924 INTRA-LIGAND FREE ENERGY PREDICTED BY IDOCK:   -0.56 KCAL/MOL
REMARK 927      BINDING AFFINITY PREDICTED BY RF-SCORE:    0.00 PKD
ROOT
HETATM    1  C   UNL     1      -8.930  18.792  66.934  1.00  0.00    -0.297 C  
HETATM    2  N   UNL     1      -9.342  17.597  66.198  1.00  0.00    -0.488 NA 
HETATM    3  C   UNL     1      -8.326  16.525  66.306  1.00  0.00    -0.329 C  
HETATM    4  C   UNL     1      -8.274  15.837  67.682  1.00  0.00    -0.151 C  
HETATM    5  N   UNL     1      -9.601  15.374  68.085  1.00  0.00    -0.202 N  
HETATM    6  C   UNL     1     -10.647  16.395  68.039  1.00  0.00    -0.314 C  
HETATM    7  C   UNL     1      -9.794  14.026  68.298  1.00  0.00    -0.233 C  
HETATM    8  O   UNL     1      -8.900  13.204  68.138  1.00  0.00    -0.185 OA 
HETATM    9  C   UNL     1     -10.657  17.090  66.656  1.00  0.00    -0.182 C  
ENDROOT
BRANCH   7  10
HETATM   10  O   UNL     1     -11.038  13.698  68.730  1.00  0.00    -0.250 OA 
BRANCH  10  11
HETATM   11  C   UNL     1     -11.767  12.754  67.914  1.00  0.00    -0.357 C  
HETATM   12  N   UNL     1     -11.211  11.416  67.980  1.00  0.00    -0.257 N  
HETATM   13  C   UNL     1     -10.870  10.949  66.701  1.00  0.00    -0.197 C  
HETATM   14  C   UNL     1     -11.825  13.057  66.437  1.00  0.00    -0.405 A  
HETATM   15  N   UNL     1     -12.401  14.124  65.838  1.00  0.00    -0.465 NA 
HETATM   16  C   UNL     1     -11.281  11.995  65.742  1.00  0.00    -0.334 A  
HETATM   17  O   UNL     1     -10.407   9.878  66.354  1.00  0.00    -0.227 OA 
HETATM   18  C   UNL     1     -12.366  14.057  64.479  1.00  0.00    -0.378 A  
HETATM   19  N   UNL     1     -11.262  11.902  64.397  1.00  0.00    -0.330 NA 
HETATM   20  C   UNL     1     -11.810  12.979  63.782  1.00  0.00    -0.502 A  
BRANCH  12  21
HETATM   21  C   UNL     1     -11.078  10.675  69.167  1.00  0.00    -0.255 A  
HETATM   22 CL   UNL     1     -10.607   8.186  72.866  1.00  0.00    -0.397 Cl 
HETATM   23  C   UNL     1     -11.974   9.875  71.264  1.00  0.00    -0.489 A  
HETATM   24  C   UNL     1      -9.821   9.244  70.504  1.00  0.00    -0.253 A  
HETATM   25  N   UNL     1      -9.945   9.972  69.368  1.00  0.00    -0.210 NA 
HETATM   26  C   UNL     1     -12.105  10.655  70.111  1.00  0.00    -0.414 A  
HETATM   27  C   UNL     1     -10.807   9.156  71.467  1.00  0.00    -0.366 A  
ENDBRANCH  12  21
ENDBRANCH  10  11
ENDBRANCH   7  10
TORSDOF 3
ENDMDL
MODEL       14
REMARK 921   NORMALIZED FREE ENERGY PREDICTED BY IDOCK:   -7.15 KCAL/MOL
REMARK 922        TOTAL FREE ENERGY PREDICTED BY IDOCK:   -9.00 KCAL/MOL
REMARK 923 INTER-LIGAND FREE ENERGY PREDICTED BY IDOCK:   -8.16 KCAL/MOL
REMARK 924 INTRA-LIGAND FREE ENERGY PREDICTED BY IDOCK:   -0.85 KCAL/MOL
REMARK 927      BINDING AFFINITY PREDICTED BY RF-SCORE:    0.00 PKD
ROOT
HETATM    1  C   UNL     1     -12.820  11.989  63.500  1.00  0.00    -0.341 C  
HETATM    2  N   UNL     1     -12.803  12.517  64.865  1.00  0.00    -0.800 NA 
HETATM    3  C   UNL     1     -11.651  11.989  65.629  1.00  0.00    -0.296 C  
HETATM    4  C   UNL     1     -10.292  12.590  65.224  1.00  0.00    -0.287 C  
HETATM    5  N   UNL     1     -10.339  14.051  65.248  1.00  0.00    -0.364 N  
HETATM    6  C   UNL     1     -11.433  14.641  64.479  1.00  0.00    -0.335 C  
HETATM    7  C   UNL     1      -9.492  14.725  66.101  1.00  0.00    -0.292 C  
HETATM    8  O   UNL     1      -8.722  14.142  66.854  1.00  0.00    -0.215 OA 
HETATM    9  C   UNL     1     -12.781  13.999  64.884  1.00  0.00    -0.273 C  
ENDROOT
BRANCH   7  10
HETATM   10  O   UNL     1      -9.562  16.077  66.008  1.00  0.00    -0.302 OA 
BRANCH  10  11
HETATM   11  C   UNL     1      -8.824  16.823  67.003  1.00  0.00    -0.207 C  
HETATM   12  N   UNL     1      -9.673  17.322  68.067  1.00  0.00    -0.268 N  
HETATM   13  C   UNL     1      -9.566  18.717  68.184  1.00  0.00    -0.331 C  
HETATM   14  C   UNL     1      -8.093  18.047  66.508  1.00  0.00    -0.269 A  
HETATM   15  N   UNL     1      -7.076  18.095  65.618  1.00  0.00    -0.530 NA 
HETATM   16  C   UNL     1      -8.551  19.150  67.202  1.00  0.00    -0.285 A  
HETATM   17  O   UNL     1     -10.097  19.482  68.968  1.00  0.00    -0.442 OA 
HETATM   18  C   UNL     1      -6.567  19.347  65.456  1.00  0.00    -0.267 A  
HETATM   19  N   UNL     1      -8.040  20.391  67.070  1.00  0.00    -0.319 NA 
HETATM   20  C   UNL     1      -7.039  20.460  66.159  1.00  0.00    -0.233 A  
BRANCH  12  21
HETATM   21  C   UNL     1     -10.461  16.506  68.896  1.00  0.00    -0.304 A  
HETATM   22 CL   UNL     1     -12.854  13.797  71.548  1.00  0.00    -0.433 Cl 
HETATM   23  C   UNL     1     -12.524  15.331  69.352  1.00  0.00    -0.072 A  
HETATM   24  C   UNL     1     -10.674  15.227  70.829  1.00  0.00    -0.131 A  
HETATM   25  N   UNL     1      -9.922  16.028  70.036  1.00  0.00    -0.080 NA 
HETATM   26  C   UNL     1     -11.771  16.183  68.538  1.00  0.00    -0.170 A  
HETATM   27  C   UNL     1     -11.965  14.844  70.523  1.00  0.00    -0.309 A  
ENDBRANCH  12  21
ENDBRANCH  10  11
ENDBRANCH   7  10
TORSDOF 3
ENDMDL
MODEL       15
REMARK 921   NORMALIZED FREE ENERGY PREDICTED BY IDOCK:   -7.12 KCAL/MOL
REMARK 922        TOTAL FREE ENERGY PREDICTED BY IDOCK:   -8.97 KCAL/MOL
REMARK 923 INTER-LIGAND FREE ENERGY PREDICTED BY IDOCK:   -8.17 KCAL/MOL
REMARK 924 INTRA-LIGAND FREE ENERGY PREDICTED BY IDOCK:   -0.80 KCAL/MOL
REMARK 927      BINDING AFFINITY PREDICTED BY RF-SCORE:    0.00 PKD
ROOT
HETATM    1  C   UNL     1     -10.827   6.219  73.080  1.00  0.00    -0.254 C  
HETATM    2  N   UNL     1      -9.760   6.788  72.256  1.00  0.00    -0.149 NA 
HETATM    3  C   UNL     1      -9.976   6.493  70.822  1.00  0.00    -0.184 C  
HETATM    4  C   UNL     1     -11.110   7.305  70.171  1.00  0.00    -0.258 C  
HETATM    5  N   UNL     1     -10.933   8.736  70.413  1.00  0.00    -0.234 N  
HETATM    6  C   UNL     1     -10.753   9.102  71.817  1.00  0.00    -0.335 C  
HETATM    7  C   UNL     1     -10.778   9.575  69.330  1.00  0.00    -0.225 C  
HETATM    8  O   UNL     1     -10.760   9.160  68.178  1.00  0.00    -0.206 OA 
HETATM    9  C   UNL     1      -9.629   8.251  72.453  1.00  0.00    -0.294 C  
ENDROOT
BRANCH   7  10
HETATM   10  O   UNL     1     -10.684  10.891  69.648  1.00  0.00    -0.238 OA 
BRANCH  10  11
HETATM   11  C   UNL     1     -11.831  11.708  69.324  1.00  0.00    -0.331 C  
HETATM   12  N   UNL     1     -11.543  12.689  68.297  1.00  0.00    -0.311 N  
HETATM   13  C   UNL     1     -11.821  13.989  68.748  1.00  0.00    -0.361 C  
HETATM   14  C   UNL     1     -12.410  12.520  70.457  1.00  0.00    -0.262 A  
HETATM   15  N   UNL     1     -12.974  12.058  71.596  1.00  0.00    -0.391 NA 
HETATM   16  C   UNL     1     -12.383  13.856  70.108  1.00  0.00    -0.334 A  
HETATM   17  O   UNL     1     -11.732  15.057  68.170  1.00  0.00    -0.333 OA 
HETATM   18  C   UNL     1     -13.490  13.047  72.376  1.00  0.00    -0.515 A  
HETATM   19  N   UNL     1     -12.912  14.844  70.858  1.00  0.00    -0.365 NA 
HETATM   20  C   UNL     1     -13.456  14.398  72.017  1.00  0.00    -0.402 A  
BRANCH  12  21
HETATM   21  C   UNL     1     -11.088  12.369  67.006  1.00  0.00    -0.278 A  
HETATM   22 CL   UNL     1      -9.510  11.439  62.914  1.00  0.00    -0.395 Cl 
HETATM   23  C   UNL     1     -11.456  12.198  64.623  1.00  0.00    -0.388 A  
HETATM   24  C   UNL     1      -9.364  11.677  65.603  1.00  0.00    -0.180 A  
HETATM   25  N   UNL     1      -9.809  11.971  66.849  1.00  0.00    -0.202 NA 
HETATM   26  C   UNL     1     -11.940  12.476  65.905  1.00  0.00    -0.472 A  
HETATM   27  C   UNL     1     -10.142  11.787  64.468  1.00  0.00    -0.274 A  
ENDBRANCH  12  21
ENDBRANCH  10  11
ENDBRANCH   7  10
TORSDOF 3
ENDMDL
MODEL       16
REMARK 921   NORMALIZED FREE ENERGY PREDICTED BY IDOCK:   -6.96 KCAL/MOL
REMARK 922        TOTAL FREE ENERGY PREDICTED BY IDOCK:   -8.78 KCAL/MOL
REMARK 923 INTER-LIGAND FREE ENERGY PREDICTED BY IDOCK:   -7.85 KCAL/MOL
REMARK 924 INTRA-LIGAND FREE ENERGY PREDICTED BY IDOCK:   -0.93 KCAL/MOL
REMARK 927      BINDING AFFINITY PREDICTED BY RF-SCORE:    0.00 PKD
ROOT
HETATM    1  C   UNL     1      -8.537   6.815  67.014  1.00  0.00    -0.114 C  
HETATM    2  N   UNL     1      -8.303   8.127  67.617  1.00  0.00    -0.126 NA 
HETATM    3  C   UNL     1      -8.375   9.203  66.605  1.00  0.00    -0.122 C  
HETATM    4  C   UNL     1      -9.801   9.522  66.118  1.00  0.00    -0.272 C  
HETATM    5  N   UNL     1     -10.694   9.774  67.247  1.00  0.00    -0.255 N  
HETATM    6  C   UNL     1     -10.701   8.728  68.269  1.00  0.00    -0.067 C  
HETATM    7  C   UNL     1     -11.302  11.007  67.347  1.00  0.00    -0.230 C  
HETATM    8  O   UNL     1     -11.100  11.903  66.536  1.00  0.00    -0.279 OA 
HETATM    9  C   UNL     1      -9.255   8.407  68.718  1.00  0.00    -0.143 C  
ENDROOT
BRANCH   7  10
HETATM   10  O   UNL     1     -12.161  11.127  68.390  1.00  0.00    -0.610 OA 
BRANCH  10  11
HETATM   11  C   UNL     1     -11.654  11.813  69.557  1.00  0.00    -0.332 C  
HETATM   12  N   UNL     1     -12.269  11.349  70.786  1.00  0.00    -0.383 N  
HETATM   13  C   UNL     1     -12.868  12.410  71.481  1.00  0.00    -0.274 C  
HETATM   14  C   UNL     1     -11.852  13.308  69.587  1.00  0.00    -0.327 A  
HETATM   15  N   UNL     1     -11.333  14.225  68.739  1.00  0.00    -0.259 NA 
HETATM   16  C   UNL     1     -12.578  13.640  70.714  1.00  0.00    -0.325 A  
HETATM   17  O   UNL     1     -13.452  12.420  72.550  1.00  0.00    -0.412 OA 
HETATM   18  C   UNL     1     -11.621  15.506  69.095  1.00  0.00    -0.362 A  
HETATM   19  N   UNL     1     -12.851  14.905  71.093  1.00  0.00    -0.333 NA 
HETATM   20  C   UNL     1     -12.361  15.833  70.236  1.00  0.00    -0.310 A  
BRANCH  12  21
HETATM   21  C   UNL     1     -12.226  10.018  71.235  1.00  0.00    -0.402 A  
HETATM   22 CL   UNL     1     -11.960   5.749  72.579  1.00  0.00    -0.259 Cl 
HETATM   23  C   UNL     1     -13.300   7.886  71.618  1.00  0.00    -0.374 A  
HETATM   24  C   UNL     1     -11.006   8.233  72.096  1.00  0.00    -0.326 A  
HETATM   25  N   UNL     1     -11.054   9.520  71.677  1.00  0.00    -0.347 NA 
HETATM   26  C   UNL     1     -13.372   9.222  71.210  1.00  0.00    -0.322 A  
HETATM   27  C   UNL     1     -12.092   7.381  72.072  1.00  0.00    -0.289 A  
ENDBRANCH  12  21
ENDBRANCH  10  11
ENDBRANCH   7  10
TORSDOF 3
ENDMDL
MODEL       17
REMARK 921   NORMALIZED FREE ENERGY PREDICTED BY IDOCK:   -6.86 KCAL/MOL
REMARK 922        TOTAL FREE ENERGY PREDICTED BY IDOCK:   -8.66 KCAL/MOL
REMARK 923 INTER-LIGAND FREE ENERGY PREDICTED BY IDOCK:   -7.96 KCAL/MOL
REMARK 924 INTRA-LIGAND FREE ENERGY PREDICTED BY IDOCK:   -0.70 KCAL/MOL
REMARK 927      BINDING AFFINITY PREDICTED BY RF-SCORE:    0.00 PKD
ROOT
HETATM    1  C   UNL     1      -8.120  18.669  66.829  1.00  0.00    -0.265 C  
HETATM    2  N   UNL     1      -8.169  18.011  68.135  1.00  0.00    -0.263 NA 
HETATM    3  C   UNL     1      -9.509  18.142  68.750  1.00  0.00    -0.272 C  
HETATM    4  C   UNL     1     -10.593  17.260  68.103  1.00  0.00    -0.386 C  
HETATM    5  N   UNL     1     -10.159  15.866  68.032  1.00  0.00    -0.228 N  
HETATM    6  C   UNL     1      -8.857  15.662  67.398  1.00  0.00    -0.191 C  
HETATM    7  C   UNL     1     -10.895  14.910  68.698  1.00  0.00    -0.251 C  
HETATM    8  O   UNL     1     -11.884  15.192  69.364  1.00  0.00    -0.305 OA 
HETATM    9  C   UNL     1      -7.794  16.580  68.047  1.00  0.00    -0.157 C  
ENDROOT
BRANCH   7  10
HETATM   10  O   UNL     1     -10.454  13.638  68.522  1.00  0.00    -0.237 OA 
BRANCH  10  11
HETATM   11  C   UNL     1     -11.338  12.751  67.802  1.00  0.00    -0.294 C  
HETATM   12  N   UNL     1     -10.877  11.377  67.813  1.00  0.00    -0.216 N  
HETATM   13  C   UNL     1     -10.719  10.887  66.508  1.00  0.00    -0.209 C  
HETATM   14  C   UNL     1     -11.541  13.060  66.339  1.00  0.00    -0.363 A  
HETATM   15  N   UNL     1     -12.102  14.167  65.801  1.00  0.00    -0.404 NA 
HETATM   16  C   UNL     1     -11.159  11.961  65.594  1.00  0.00    -0.310 A  
HETATM   17  O   UNL     1     -10.378   9.785  66.117  1.00  0.00    -0.231 OA 
HETATM   18  C   UNL     1     -12.227  14.098  64.448  1.00  0.00    -0.439 A  
HETATM   19  N   UNL     1     -11.300  11.869  64.256  1.00  0.00    -0.350 NA 
HETATM   20  C   UNL     1     -11.835  12.983  63.700  1.00  0.00    -0.516 A  
BRANCH  12  21
HETATM   21  C   UNL     1     -10.664  10.626  68.983  1.00  0.00    -0.221 A  
HETATM   22 CL   UNL     1     -10.048   8.351  72.796  1.00  0.00    -0.331 Cl 
HETATM   23  C   UNL     1      -9.210   9.352  70.434  1.00  0.00    -0.305 A  
HETATM   24  C   UNL     1     -11.474   9.772  70.990  1.00  0.00    -0.383 A  
HETATM   25  N   UNL     1     -11.682  10.481  69.854  1.00  0.00    -0.280 NA 
HETATM   26  C   UNL     1      -9.417  10.056  69.244  1.00  0.00    -0.227 A  
HETATM   27  C   UNL     1     -10.260   9.205  71.325  1.00  0.00    -0.329 A  
ENDBRANCH  12  21
ENDBRANCH  10  11
ENDBRANCH   7  10
TORSDOF 3
ENDMDL
MODEL       18
REMARK 921   NORMALIZED FREE ENERGY PREDICTED BY IDOCK:   -6.81 KCAL/MOL
REMARK 922        TOTAL FREE ENERGY PREDICTED BY IDOCK:   -8.60 KCAL/MOL
REMARK 923 INTER-LIGAND FREE ENERGY PREDICTED BY IDOCK:   -8.25 KCAL/MOL
REMARK 924 INTRA-LIGAND FREE ENERGY PREDICTED BY IDOCK:   -0.35 KCAL/MOL
REMARK 927      BINDING AFFINITY PREDICTED BY RF-SCORE:    0.00 PKD
ROOT
HETATM    1  C   UNL     1      -8.321  17.152  66.086  1.00  0.00    -0.223 C  
HETATM    2  N   UNL     1      -9.588  16.839  66.748  1.00  0.00    -0.239 NA 
HETATM    3  C   UNL     1     -10.509  16.129  65.833  1.00  0.00    -0.352 C  
HETATM    4  C   UNL     1     -10.125  14.664  65.555  1.00  0.00    -0.377 C  
HETATM    5  N   UNL     1      -9.925  13.931  66.803  1.00  0.00    -0.263 N  
HETATM    6  C   UNL     1      -8.993  14.558  67.740  1.00  0.00    -0.190 C  
HETATM    7  C   UNL     1     -10.729  12.843  67.067  1.00  0.00    -0.257 C  
HETATM    8  O   UNL     1     -11.618  12.487  66.303  1.00  0.00    -0.351 OA 
HETATM    9  C   UNL     1      -9.386  16.036  67.977  1.00  0.00    -0.202 C  
ENDROOT
BRANCH   7  10
HETATM   10  O   UNL     1     -10.429  12.188  68.217  1.00  0.00    -0.200 OA 
BRANCH  10  11
HETATM   11  C   UNL     1     -11.344  11.142  68.612  1.00  0.00    -0.277 C  
HETATM   12  N   UNL     1     -11.648  11.175  70.029  1.00  0.00    -0.321 N  
HETATM   13  C   UNL     1     -11.335   9.951  70.640  1.00  0.00    -0.339 C  
HETATM   14  C   UNL     1     -10.882   9.727  68.366  1.00  0.00    -0.201 A  
HETATM   15  N   UNL     1     -10.619   9.142  67.176  1.00  0.00    -0.251 NA 
HETATM   16  C   UNL     1     -10.868   9.047  69.568  1.00  0.00    -0.166 A  
HETATM   17  O   UNL     1     -11.473   9.591  71.795  1.00  0.00    -0.384 OA 
HETATM   18  C   UNL     1     -10.314   7.820  67.286  1.00  0.00    -0.301 A  
HETATM   19  N   UNL     1     -10.593   7.732  69.690  1.00  0.00    -0.243 NA 
HETATM   20  C   UNL     1     -10.299   7.139  68.508  1.00  0.00    -0.183 A  
BRANCH  12  21
HETATM   21  C   UNL     1     -12.223  12.276  70.687  1.00  0.00    -0.287 A  
HETATM   22 CL   UNL     1     -13.911  15.842  72.816  1.00  0.00    -0.634 Cl 
HETATM   23  C   UNL     1     -13.742  13.193  72.329  1.00  0.00    -0.647 A  
HETATM   24  C   UNL     1     -12.330  14.576  71.025  1.00  0.00    -0.347 A  
HETATM   25  N   UNL     1     -11.789  13.514  70.380  1.00  0.00    -0.269 NA 
HETATM   26  C   UNL     1     -13.214  12.089  71.652  1.00  0.00    -0.361 A  
HETATM   27  C   UNL     1     -13.292  14.463  72.008  1.00  0.00    -0.384 A  
ENDBRANCH  12  21
ENDBRANCH  10  11
ENDBRANCH   7  10
TORSDOF 3
ENDMDL
MODEL       19
REMARK 921   NORMALIZED FREE ENERGY PREDICTED BY IDOCK:   -6.75 KCAL/MOL
REMARK 922        TOTAL FREE ENERGY PREDICTED BY IDOCK:   -8.53 KCAL/MOL
REMARK 923 INTER-LIGAND FREE ENERGY PREDICTED BY IDOCK:   -7.60 KCAL/MOL
REMARK 924 INTRA-LIGAND FREE ENERGY PREDICTED BY IDOCK:   -0.94 KCAL/MOL
REMARK 927      BINDING AFFINITY PREDICTED BY RF-SCORE:    0.00 PKD
ROOT
HETATM    1  C   UNL     1     -14.181  15.317  71.583  1.00  0.00    -0.552 C  
HETATM    2  N   UNL     1     -12.889  14.791  72.023  1.00  0.00    -0.312 NA 
HETATM    3  C   UNL     1     -13.043  13.480  72.692  1.00  0.00    -0.298 C  
HETATM    4  C   UNL     1     -13.357  12.313  71.737  1.00  0.00    -0.254 C  
HETATM    5  N   UNL     1     -12.387  12.258  70.644  1.00  0.00    -0.337 N  
HETATM    6  C   UNL     1     -12.213  13.512  69.914  1.00  0.00    -0.292 C  
HETATM    7  C   UNL     1     -11.613  11.126  70.505  1.00  0.00    -0.187 C  
HETATM    8  O   UNL     1     -11.694  10.179  71.278  1.00  0.00    -0.366 OA 
HETATM    9  C   UNL     1     -11.929  14.671  70.899  1.00  0.00    -0.326 C  
ENDROOT
BRANCH   7  10
HETATM   10  O   UNL     1     -10.788  11.138  69.427  1.00  0.00    -0.237 OA 
BRANCH  10  11
HETATM   11  C   UNL     1     -11.221  10.367  68.285  1.00  0.00    -0.267 C  
HETATM   12  N   UNL     1     -10.400   9.193  68.063  1.00  0.00    -0.212 N  
HETATM   13  C   UNL     1      -9.853   9.197  66.771  1.00  0.00    -0.226 C  
HETATM   14  C   UNL     1     -11.208  11.083  66.956  1.00  0.00    -0.181 A  
HETATM   15  N   UNL     1     -11.942  12.159  66.594  1.00  0.00    -0.629 NA 
HETATM   16  C   UNL     1     -10.389  10.391  66.085  1.00  0.00    -0.200 A  
HETATM   17  O   UNL     1      -9.142   8.379  66.215  1.00  0.00    -0.170 OA 
HETATM   18  C   UNL     1     -11.771  12.508  65.290  1.00  0.00    -0.386 A  
HETATM   19  N   UNL     1     -10.229  10.710  64.785  1.00  0.00    -0.341 NA 
HETATM   20  C   UNL     1     -10.936  11.805  64.415  1.00  0.00    -0.339 A  
BRANCH  12  21
HETATM   21  C   UNL     1     -10.220   8.167  69.007  1.00  0.00    -0.220 A  
HETATM   22 CL   UNL     1      -9.490   4.896  71.984  1.00  0.00    -0.175 Cl 
HETATM   23  C   UNL     1     -10.805   5.999  69.902  1.00  0.00    -0.434 A  
HETATM   24  C   UNL     1      -9.054   7.299  70.825  1.00  0.00    -0.152 A  
HETATM   25  N   UNL     1      -9.241   8.295  69.924  1.00  0.00    -0.154 NA 
HETATM   26  C   UNL     1     -11.030   7.030  68.984  1.00  0.00    -0.169 A  
HETATM   27  C   UNL     1      -9.799   6.137  70.843  1.00  0.00    -0.182 A  
ENDBRANCH  12  21
ENDBRANCH  10  11
ENDBRANCH   7  10
TORSDOF 3
ENDMDL
MODEL       20
REMARK 921   NORMALIZED FREE ENERGY PREDICTED BY IDOCK:   -6.65 KCAL/MOL
REMARK 922        TOTAL FREE ENERGY PREDICTED BY IDOCK:   -8.42 KCAL/MOL
REMARK 923 INTER-LIGAND FREE ENERGY PREDICTED BY IDOCK:   -7.19 KCAL/MOL
REMARK 924 INTRA-LIGAND FREE ENERGY PREDICTED BY IDOCK:   -1.23 KCAL/MOL
REMARK 927      BINDING AFFINITY PREDICTED BY RF-SCORE:    0.00 PKD
ROOT
HETATM    1  C   UNL     1     -10.833   7.498  73.307  1.00  0.00    -0.355 C  
HETATM    2  N   UNL     1     -11.576   7.424  72.049  1.00  0.00    -0.276 NA 
HETATM    3  C   UNL     1     -12.579   8.508  71.955  1.00  0.00    -0.364 C  
HETATM    4  C   UNL     1     -11.983   9.902  71.689  1.00  0.00    -0.346 C  
HETATM    5  N   UNL     1     -11.096   9.878  70.527  1.00  0.00    -0.307 N  
HETATM    6  C   UNL     1     -10.054   8.853  70.573  1.00  0.00    -0.205 C  
HETATM    7  C   UNL     1     -11.405  10.671  69.443  1.00  0.00    -0.284 C  
HETATM    8  O   UNL     1     -12.407  11.375  69.411  1.00  0.00    -0.254 OA 
HETATM    9  C   UNL     1     -10.677   7.468  70.872  1.00  0.00    -0.235 C  
ENDROOT
BRANCH   7  10
HETATM   10  O   UNL     1     -10.492  10.631  68.440  1.00  0.00    -0.170 OA 
BRANCH  10  11
HETATM   11  C   UNL     1     -11.000  10.294  67.129  1.00  0.00    -0.165 C  
HETATM   12  N   UNL     1     -10.174   9.316  66.447  1.00  0.00    -0.260 N  
HETATM   13  C   UNL     1      -9.734   9.805  65.208  1.00  0.00    -0.300 C  
HETATM   14  C   UNL     1     -11.111  11.433  66.146  1.00  0.00    -0.198 A  
HETATM   15  N   UNL     1     -11.894  12.531  66.243  1.00  0.00    -0.505 NA 
HETATM   16  C   UNL     1     -10.350  11.136  65.032  1.00  0.00    -0.301 A  
HETATM   17  O   UNL     1      -9.053   9.272  64.350  1.00  0.00    -0.189 OA 
HETATM   18  C   UNL     1     -11.838  13.327  65.141  1.00  0.00    -0.348 A  
HETATM   19  N   UNL     1     -10.304  11.902  63.923  1.00  0.00    -0.350 NA 
HETATM   20  C   UNL     1     -11.062  13.021  64.017  1.00  0.00    -0.395 A  
BRANCH  12  21
HETATM   21  C   UNL     1      -9.896   8.033  66.948  1.00  0.00    -0.248 A  
HETATM   22 CL   UNL     1      -9.139   3.947  68.633  1.00  0.00    -0.176 Cl 
HETATM   23  C   UNL     1      -8.388   6.461  67.998  1.00  0.00    -0.115 A  
HETATM   24  C   UNL     1     -10.613   5.873  67.436  1.00  0.00    -0.282 A  
HETATM   25  N   UNL     1     -10.874   7.106  66.938  1.00  0.00    -0.331 NA 
HETATM   26  C   UNL     1      -8.633   7.729  67.461  1.00  0.00    -0.122 A  
HETATM   27  C   UNL     1      -9.398   5.512  67.983  1.00  0.00    -0.110 A  
ENDBRANCH  12  21
ENDBRANCH  10  11
ENDBRANCH   7  10
TORSDOF 3
ENDMDL
MODEL       21
REMARK 921   NORMALIZED FREE ENERGY PREDICTED BY IDOCK:   -6.64 KCAL/MOL
REMARK 922        TOTAL FREE ENERGY PREDICTED BY IDOCK:   -8.41 KCAL/MOL
REMARK 923 INTER-LIGAND FREE ENERGY PREDICTED BY IDOCK:   -7.16 KCAL/MOL
REMARK 924 INTRA-LIGAND FREE ENERGY PREDICTED BY IDOCK:   -1.25 KCAL/MOL
REMARK 927      BINDING AFFINITY PREDICTED BY RF-SCORE:    0.00 PKD
ROOT
HETATM    1  C   UNL     1     -11.164  15.312  64.751  1.00  0.00    -0.396 C  
HETATM    2  N   UNL     1     -10.266  14.719  65.742  1.00  0.00    -0.317 NA 
HETATM    3  C   UNL     1     -10.617  15.155  67.112  1.00  0.00    -0.295 C  
HETATM    4  C   UNL     1     -11.898  14.511  67.674  1.00  0.00    -0.364 C  
HETATM    5  N   UNL     1     -11.844  13.055  67.562  1.00  0.00    -0.366 N  
HETATM    6  C   UNL     1     -11.539  12.554  66.223  1.00  0.00    -0.394 C  
HETATM    7  C   UNL     1     -11.905  12.301  68.715  1.00  0.00    -0.306 C  
HETATM    8  O   UNL     1     -11.979  12.810  69.826  1.00  0.00    -0.314 OA 
HETATM    9  C   UNL     1     -10.266  13.239  65.671  1.00  0.00    -0.289 C  
ENDROOT
BRANCH   7  10
HETATM   10  O   UNL     1     -11.911  10.960  68.508  1.00  0.00    -0.520 OA 
BRANCH  10  11
HETATM   11  C   UNL     1     -10.893  10.204  69.201  1.00  0.00    -0.226 C  
HETATM   12  N   UNL     1     -10.226   9.248  68.338  1.00  0.00    -0.195 N  
HETATM   13  C   UNL     1     -10.329   7.947  68.852  1.00  0.00    -0.213 C  
HETATM   14  C   UNL     1     -11.361   9.378  70.374  1.00  0.00    -0.248 A  
HETATM   15  N   UNL     1     -11.912   9.822  71.526  1.00  0.00    -0.395 NA 
HETATM   16  C   UNL     1     -11.035   8.054  70.146  1.00  0.00    -0.226 A  
HETATM   17  O   UNL     1      -9.880   6.897  68.429  1.00  0.00    -0.139 OA 
HETATM   18  C   UNL     1     -12.136   8.828  72.429  1.00  0.00    -0.309 A  
HETATM   19  N   UNL     1     -11.229   7.064  71.040  1.00  0.00    -0.263 NA 
HETATM   20  C   UNL     1     -11.807   7.490  72.189  1.00  0.00    -0.298 A  
BRANCH  12  21
HETATM   21  C   UNL     1      -9.531   9.595  67.166  1.00  0.00    -0.148 A  
HETATM   22 CL   UNL     1      -7.344  10.556  63.373  1.00  0.00    -0.028 Cl 
HETATM   23  C   UNL     1      -7.565  10.465  66.061  1.00  0.00    -0.137 A  
HETATM   24  C   UNL     1      -9.432   9.667  64.842  1.00  0.00    -0.220 A  
HETATM   25  N   UNL     1     -10.108   9.349  65.973  1.00  0.00    -0.283 NA 
HETATM   26  C   UNL     1      -8.261  10.169  67.238  1.00  0.00    -0.117 A  
HETATM   27  C   UNL     1      -8.163  10.211  64.838  1.00  0.00    -0.157 A  
ENDBRANCH  12  21
ENDBRANCH  10  11
ENDBRANCH   7  10
TORSDOF 3
ENDMDL
MODEL       22
REMARK 921   NORMALIZED FREE ENERGY PREDICTED BY IDOCK:   -6.63 KCAL/MOL
REMARK 922        TOTAL FREE ENERGY PREDICTED BY IDOCK:   -8.40 KCAL/MOL
REMARK 923 INTER-LIGAND FREE ENERGY PREDICTED BY IDOCK:   -7.58 KCAL/MOL
REMARK 924 INTRA-LIGAND FREE ENERGY PREDICTED BY IDOCK:   -0.82 KCAL/MOL
REMARK 927      BINDING AFFINITY PREDICTED BY RF-SCORE:    0.00 PKD
ROOT
HETATM    1  C   UNL     1     -13.212  14.381  73.027  1.00  0.00    -0.446 C  
HETATM    2  N   UNL     1     -13.723  14.125  71.681  1.00  0.00    -0.371 NA 
HETATM    3  C   UNL     1     -13.649  15.340  70.839  1.00  0.00    -0.340 C  
HETATM    4  C   UNL     1     -12.224  15.711  70.385  1.00  0.00    -0.395 C  
HETATM    5  N   UNL     1     -11.563  14.569  69.755  1.00  0.00    -0.280 N  
HETATM    6  C   UNL     1     -11.567  13.343  70.551  1.00  0.00     0.135 C  
HETATM    7  C   UNL     1     -11.161  14.681  68.441  1.00  0.00    -0.274 C  
HETATM    8  O   UNL     1     -11.360  15.693  67.780  1.00  0.00    -0.326 OA 
HETATM    9  C   UNL     1     -13.004  13.011  71.019  1.00  0.00    -0.116 C  
ENDROOT
BRANCH   7  10
HETATM   10  O   UNL     1     -10.501  13.596  67.962  1.00  0.00    -0.237 OA 
BRANCH  10  11
HETATM   11  C   UNL     1     -11.311  12.599  67.301  1.00  0.00    -0.318 C  
HETATM   12  N   UNL     1     -10.717  11.277  67.352  1.00  0.00    -0.227 N  
HETATM   13  C   UNL     1     -10.543  10.752  66.062  1.00  0.00    -0.156 C  
HETATM   14  C   UNL     1     -11.579  12.826  65.833  1.00  0.00    -0.382 A  
HETATM   15  N   UNL     1     -12.259  13.850  65.270  1.00  0.00    -0.408 NA 
HETATM   16  C   UNL     1     -11.109  11.740  65.120  1.00  0.00    -0.282 A  
HETATM   17  O   UNL     1     -10.106   9.673  65.705  1.00  0.00    -0.296 OA 
HETATM   18  C   UNL     1     -12.410  13.715  63.924  1.00  0.00    -0.316 A  
HETATM   19  N   UNL     1     -11.273  11.580  63.792  1.00  0.00    -0.404 NA 
HETATM   20  C   UNL     1     -11.928  12.614  63.209  1.00  0.00    -0.441 A  
BRANCH  12  21
HETATM   21  C   UNL     1     -10.403  10.599  68.543  1.00  0.00    -0.183 A  
HETATM   22 CL   UNL     1      -9.507   8.527  72.416  1.00  0.00    -0.358 Cl 
HETATM   23  C   UNL     1      -8.783   9.798  70.148  1.00  0.00    -0.215 A  
HETATM   24  C   UNL     1     -11.110   9.485  70.460  1.00  0.00    -0.283 A  
HETATM   25  N   UNL     1     -11.410  10.124  69.304  1.00  0.00    -0.193 NA 
HETATM   26  C   UNL     1      -9.074  10.434  68.937  1.00  0.00    -0.175 A  
HETATM   27  C   UNL     1      -9.821   9.311  70.925  1.00  0.00    -0.293 A  
ENDBRANCH  12  21
ENDBRANCH  10  11
ENDBRANCH   7  10
TORSDOF 3
ENDMDL
MODEL       23
REMARK 921   NORMALIZED FREE ENERGY PREDICTED BY IDOCK:   -6.62 KCAL/MOL
REMARK 922        TOTAL FREE ENERGY PREDICTED BY IDOCK:   -8.38 KCAL/MOL
REMARK 923 INTER-LIGAND FREE ENERGY PREDICTED BY IDOCK:   -7.89 KCAL/MOL
REMARK 924 INTRA-LIGAND FREE ENERGY PREDICTED BY IDOCK:   -0.49 KCAL/MOL
REMARK 927      BINDING AFFINITY PREDICTED BY RF-SCORE:    0.00 PKD
ROOT
HETATM    1  C   UNL     1     -12.291  13.144  62.845  1.00  0.00     0.417 C  
HETATM    2  N   UNL     1     -11.585  12.606  64.007  1.00  0.00    -0.383 NA 
HETATM    3  C   UNL     1     -10.392  13.419  64.333  1.00  0.00    -0.325 C  
HETATM    4  C   UNL     1     -10.710  14.782  64.975  1.00  0.00    -0.433 C  
HETATM    5  N   UNL     1     -11.593  14.623  66.129  1.00  0.00    -0.355 N  
HETATM    6  C   UNL     1     -12.812  13.860  65.866  1.00  0.00    -0.339 C  
HETATM    7  C   UNL     1     -11.145  15.032  67.367  1.00  0.00    -0.324 C  
HETATM    8  O   UNL     1     -10.026  15.502  67.534  1.00  0.00    -0.228 OA 
HETATM    9  C   UNL     1     -12.466  12.510  65.195  1.00  0.00    -0.379 C  
ENDROOT
BRANCH   7  10
HETATM   10  O   UNL     1     -12.055  14.904  68.365  1.00  0.00    -0.249 OA 
BRANCH  10  11
HETATM   11  C   UNL     1     -11.570  14.334  69.600  1.00  0.00    -0.296 C  
HETATM   12  N   UNL     1     -11.646  12.886  69.612  1.00  0.00    -0.274 N  
HETATM   13  C   UNL     1     -12.406  12.430  70.700  1.00  0.00    -0.279 C  
HETATM   14  C   UNL     1     -12.295  14.752  70.855  1.00  0.00    -0.319 A  
HETATM   15  N   UNL     1     -12.379  15.994  71.383  1.00  0.00    -0.420 NA 
HETATM   16  C   UNL     1     -12.792  13.624  71.480  1.00  0.00    -0.359 A  
HETATM   17  O   UNL     1     -12.670  11.295  71.055  1.00  0.00    -0.368 OA 
HETATM   18  C   UNL     1     -13.027  16.024  72.579  1.00  0.00    -0.387 A  
HETATM   19  N   UNL     1     -13.413  13.635  72.677  1.00  0.00    -0.639 NA 
HETATM   20  C   UNL     1     -13.530  14.878  73.204  1.00  0.00    -0.291 A  
BRANCH  12  21
HETATM   21  C   UNL     1     -11.002  12.054  68.679  1.00  0.00    -0.240 A  
HETATM   22 CL   UNL     1      -8.996   9.277  65.788  1.00  0.00    -0.213 Cl 
HETATM   23  C   UNL     1      -9.043  11.437  67.405  1.00  0.00    -0.160 A  
HETATM   24  C   UNL     1     -11.054  10.192  67.284  1.00  0.00    -0.092 A  
HETATM   25  N   UNL     1     -11.678  11.005  68.171  1.00  0.00    -0.556 NA 
HETATM   26  C   UNL     1      -9.682  12.302  68.299  1.00  0.00    -0.219 A  
HETATM   27  C   UNL     1      -9.743  10.361  66.885  1.00  0.00    -0.181 A  
ENDBRANCH  12  21
ENDBRANCH  10  11
ENDBRANCH   7  10
TORSDOF 3
ENDMDL
MODEL       24
REMARK 921   NORMALIZED FREE ENERGY PREDICTED BY IDOCK:   -6.59 KCAL/MOL
REMARK 922        TOTAL FREE ENERGY PREDICTED BY IDOCK:   -8.35 KCAL/MOL
REMARK 923 INTER-LIGAND FREE ENERGY PREDICTED BY IDOCK:   -8.35 KCAL/MOL
REMARK 924 INTRA-LIGAND FREE ENERGY PREDICTED BY IDOCK:    0.00 KCAL/MOL
REMARK 927      BINDING AFFINITY PREDICTED BY RF-SCORE:    0.00 PKD
ROOT
HETATM    1  C   UNL     1      -8.541   9.099  63.695  1.00  0.00    -0.166 C  
HETATM    2  N   UNL     1      -8.498  10.538  63.958  1.00  0.00    -0.152 NA 
HETATM    3  C   UNL     1      -9.412  11.276  63.058  1.00  0.00    -0.367 C  
HETATM    4  C   UNL     1     -10.905  11.112  63.398  1.00  0.00    -0.129 C  
HETATM    5  N   UNL     1     -11.158  11.420  64.805  1.00  0.00    -0.239 N  
HETATM    6  C   UNL     1     -10.312  10.695  65.752  1.00  0.00    -0.219 C  
HETATM    7  C   UNL     1     -12.012  12.457  65.111  1.00  0.00    -0.400 C  
HETATM    8  O   UNL     1     -12.547  13.141  64.247  1.00  0.00    -0.610 OA 
HETATM    9  C   UNL     1      -8.821  10.851  65.370  1.00  0.00    -0.180 C  
ENDROOT
BRANCH   7  10
HETATM   10  O   UNL     1     -12.235  12.628  66.439  1.00  0.00    -0.550 OA 
BRANCH  10  11
HETATM   11  C   UNL     1     -11.178  13.272  67.184  1.00  0.00    -0.299 C  
HETATM   12  N   UNL     1     -11.428  13.279  68.612  1.00  0.00    -0.280 N  
HETATM   13  C   UNL     1     -11.415  14.587  69.120  1.00  0.00    -0.294 C  
HETATM   14  C   UNL     1     -10.915  14.719  66.849  1.00  0.00    -0.328 A  
HETATM   15  N   UNL     1     -10.487  15.227  65.671  1.00  0.00    -0.331 NA 
HETATM   16  C   UNL     1     -11.073  15.478  67.992  1.00  0.00    -0.322 A  
HETATM   17  O   UNL     1     -11.558  14.989  70.261  1.00  0.00    -0.255 OA 
HETATM   18  C   UNL     1     -10.253  16.567  65.719  1.00  0.00    -0.329 A  
HETATM   19  N   UNL     1     -10.821  16.801  68.062  1.00  0.00    -0.358 NA 
HETATM   20  C   UNL     1     -10.418  17.329  66.881  1.00  0.00    -0.272 A  
BRANCH  12  21
HETATM   21  C   UNL     1     -11.613  12.120  69.386  1.00  0.00    -0.317 A  
HETATM   22 CL   UNL     1     -12.186   8.512  71.984  1.00  0.00    -0.397 Cl 
HETATM   23  C   UNL     1     -11.053   9.830  69.920  1.00  0.00    -0.293 A  
HETATM   24  C   UNL     1     -12.659  11.045  71.166  1.00  0.00    -0.418 A  
HETATM   25  N   UNL     1     -12.491  12.156  70.408  1.00  0.00    -0.199 NA 
HETATM   26  C   UNL     1     -10.890  10.959  69.110  1.00  0.00    -0.280 A  
HETATM   27  C   UNL     1     -11.958   9.873  70.968  1.00  0.00    -0.365 A  
ENDBRANCH  12  21
ENDBRANCH  10  11
ENDBRANCH   7  10
TORSDOF 3
ENDMDL
MODEL       25
REMARK 921   NORMALIZED FREE ENERGY PREDICTED BY IDOCK:   -6.58 KCAL/MOL
REMARK 922        TOTAL FREE ENERGY PREDICTED BY IDOCK:   -8.33 KCAL/MOL
REMARK 923 INTER-LIGAND FREE ENERGY PREDICTED BY IDOCK:   -7.25 KCAL/MOL
REMARK 924 INTRA-LIGAND FREE ENERGY PREDICTED BY IDOCK:   -1.08 KCAL/MOL
REMARK 927      BINDING AFFINITY PREDICTED BY RF-SCORE:    0.00 PKD
ROOT
HETATM    1  C   UNL     1      -9.600   3.594  68.369  1.00  0.00    -0.096 C  
HETATM    2  N   UNL     1      -8.925   4.852  68.688  1.00  0.00    -0.102 NA 
HETATM    3  C   UNL     1      -8.340   5.469  67.477  1.00  0.00    -0.100 C  
HETATM    4  C   UNL     1      -9.374   6.097  66.522  1.00  0.00    -0.153 C  
HETATM    5  N   UNL     1     -10.250   7.023  67.237  1.00  0.00    -0.207 N  
HETATM    6  C   UNL     1     -10.892   6.465  68.427  1.00  0.00    -0.311 C  
HETATM    7  C   UNL     1     -10.264   8.347  66.855  1.00  0.00    -0.313 C  
HETATM    8  O   UNL     1      -9.553   8.776  65.955  1.00  0.00    -0.245 OA 
HETATM    9  C   UNL     1      -9.835   5.815  69.352  1.00  0.00    -0.167 C  
ENDROOT
BRANCH   7  10
HETATM   10  O   UNL     1     -11.153   9.117  67.532  1.00  0.00    -0.068 OA 
BRANCH  10  11
HETATM   11  C   UNL     1     -10.634  10.343  68.096  1.00  0.00    -0.211 C  
HETATM   12  N   UNL     1     -11.119  10.585  69.441  1.00  0.00    -0.240 N  
HETATM   13  C   UNL     1     -11.765  11.828  69.527  1.00  0.00    -0.343 C  
HETATM   14  C   UNL     1     -10.966  11.611  67.350  1.00  0.00    -0.261 A  
HETATM   15  N   UNL     1     -10.593  11.950  66.095  1.00  0.00    -0.249 NA 
HETATM   16  C   UNL     1     -11.643  12.465  68.199  1.00  0.00    -0.341 A  
HETATM   17  O   UNL     1     -12.273  12.385  70.483  1.00  0.00    -0.361 OA 
HETATM   18  C   UNL     1     -10.974  13.208  65.745  1.00  0.00    -0.277 A  
HETATM   19  N   UNL     1     -12.005  13.723  67.876  1.00  0.00    -0.372 NA 
HETATM   20  C   UNL     1     -11.662  14.066  66.611  1.00  0.00    -0.399 A  
BRANCH  12  21
HETATM   21  C   UNL     1     -10.922   9.707  70.521  1.00  0.00    -0.313 A  
HETATM   22 CL   UNL     1     -10.388   6.998  74.053  1.00  0.00    -0.384 Cl 
HETATM   23  C   UNL     1      -9.457   8.460  71.984  1.00  0.00    -0.339 A  
HETATM   24  C   UNL     1     -11.809   8.446  72.265  1.00  0.00    -0.389 A  
HETATM   25  N   UNL     1     -11.997   9.280  71.213  1.00  0.00    -0.319 NA 
HETATM   26  C   UNL     1      -9.637   9.297  70.878  1.00  0.00    -0.339 A  
HETATM   27  C   UNL     1     -10.565   8.023  72.691  1.00  0.00    -0.350 A  
ENDBRANCH  12  21
ENDBRANCH  10  11
ENDBRANCH   7  10
TORSDOF 3
ENDMDL
MODEL       26
REMARK 921   NORMALIZED FREE ENERGY PREDICTED BY IDOCK:   -6.54 KCAL/MOL
REMARK 922        TOTAL FREE ENERGY PREDICTED BY IDOCK:   -8.29 KCAL/MOL
REMARK 923 INTER-LIGAND FREE ENERGY PREDICTED BY IDOCK:   -7.60 KCAL/MOL
REMARK 924 INTRA-LIGAND FREE ENERGY PREDICTED BY IDOCK:   -0.69 KCAL/MOL
REMARK 927      BINDING AFFINITY PREDICTED BY RF-SCORE:    0.00 PKD
ROOT
HETATM    1  C   UNL     1     -11.834   8.036  70.928  1.00  0.00    -0.224 C  
HETATM    2  N   UNL     1     -11.255   9.296  71.392  1.00  0.00    -0.335 NA 
HETATM    3  C   UNL     1      -9.794   9.332  71.157  1.00  0.00    -0.272 C  
HETATM    4  C   UNL     1      -9.393   9.523  69.682  1.00  0.00    -0.200 C  
HETATM    5  N   UNL     1     -10.068  10.683  69.103  1.00  0.00    -0.215 N  
HETATM    6  C   UNL     1     -11.521  10.691  69.266  1.00  0.00    -0.281 C  
HETATM    7  C   UNL     1      -9.301  11.724  68.625  1.00  0.00    -0.090 C  
HETATM    8  O   UNL     1      -8.077  11.718  68.690  1.00  0.00    -0.148 OA 
HETATM    9  C   UNL     1     -11.895  10.468  70.751  1.00  0.00    -0.365 C  
ENDROOT
BRANCH   7  10
HETATM   10  O   UNL     1     -10.010  12.727  68.049  1.00  0.00    -0.212 OA 
BRANCH  10  11
HETATM   11  C   UNL     1      -9.583  13.133  66.730  1.00  0.00    -0.249 C  
HETATM   12  N   UNL     1     -10.261  14.329  66.270  1.00  0.00    -0.291 N  
HETATM   13  C   UNL     1     -10.916  14.100  65.050  1.00  0.00    -0.384 C  
HETATM   14  C   UNL     1      -9.805  12.134  65.622  1.00  0.00    -0.237 A  
HETATM   15  N   UNL     1      -9.251  10.906  65.497  1.00  0.00    -0.202 NA 
HETATM   16  C   UNL     1     -10.601  12.712  64.652  1.00  0.00    -0.333 A  
HETATM   17  O   UNL     1     -11.560  14.859  64.349  1.00  0.00    -0.362 OA 
HETATM   18  C   UNL     1      -9.580  10.288  64.330  1.00  0.00    -0.316 A  
HETATM   19  N   UNL     1     -10.914  12.122  63.481  1.00  0.00    -0.440 NA 
HETATM   20  C   UNL     1     -10.390  10.879  63.355  1.00  0.00    -0.235 A  
BRANCH  12  21
HETATM   21  C   UNL     1     -10.223  15.564  66.940  1.00  0.00    -0.279 A  
HETATM   22 CL   UNL     1      -9.947  19.487  69.093  1.00  0.00    -0.496 Cl 
HETATM   23  C   UNL     1     -11.017  17.044  68.679  1.00  0.00    -0.217 A  
HETATM   24  C   UNL     1      -9.266  17.668  67.211  1.00  0.00    -0.241 A  
HETATM   25  N   UNL     1      -9.315  16.483  66.556  1.00  0.00    -0.252 NA 
HETATM   26  C   UNL     1     -11.100  15.828  67.993  1.00  0.00    -0.337 A  
HETATM   27  C   UNL     1     -10.083  17.985  68.278  1.00  0.00    -0.385 A  
ENDBRANCH  12  21
ENDBRANCH  10  11
ENDBRANCH   7  10
TORSDOF 3
ENDMDL
MODEL       27
REMARK 921   NORMALIZED FREE ENERGY PREDICTED BY IDOCK:   -6.50 KCAL/MOL
REMARK 922        TOTAL FREE ENERGY PREDICTED BY IDOCK:   -8.25 KCAL/MOL
REMARK 923 INTER-LIGAND FREE ENERGY PREDICTED BY IDOCK:   -7.29 KCAL/MOL
REMARK 924 INTRA-LIGAND FREE ENERGY PREDICTED BY IDOCK:   -0.96 KCAL/MOL
REMARK 927      BINDING AFFINITY PREDICTED BY RF-SCORE:    0.00 PKD
ROOT
HETATM    1  C   UNL     1      -9.499  18.796  67.184  1.00  0.00    -0.305 C  
HETATM    2  N   UNL     1      -9.033  17.953  68.285  1.00  0.00    -0.269 NA 
HETATM    3  C   UNL     1     -10.149  17.571  69.178  1.00  0.00    -0.231 C  
HETATM    4  C   UNL     1     -11.105  16.519  68.586  1.00  0.00    -0.329 C  
HETATM    5  N   UNL     1     -10.366  15.352  68.108  1.00  0.00    -0.236 N  
HETATM    6  C   UNL     1      -9.270  15.656  67.188  1.00  0.00    -0.212 C  
HETATM    7  C   UNL     1     -10.632  14.124  68.674  1.00  0.00    -0.249 C  
HETATM    8  O   UNL     1     -11.447  13.983  69.577  1.00  0.00    -0.259 OA 
HETATM    9  C   UNL     1      -8.343  16.736  67.796  1.00  0.00    -0.188 C  
ENDROOT
BRANCH   7  10
HETATM   10  O   UNL     1      -9.944  13.091  68.124  1.00  0.00    -0.220 OA 
BRANCH  10  11
HETATM   11  C   UNL     1     -10.738  12.074  67.473  1.00  0.00    -0.226 C  
HETATM   12  N   UNL     1     -10.219  10.738  67.695  1.00  0.00    -0.182 N  
HETATM   13  C   UNL     1      -9.950  10.093  66.478  1.00  0.00    -0.224 C  
HETATM   14  C   UNL     1     -10.853  12.180  65.972  1.00  0.00    -0.282 A  
HETATM   15  N   UNL     1     -11.424  13.177  65.259  1.00  0.00    -0.295 NA 
HETATM   16  C   UNL     1     -10.373  11.016  65.404  1.00  0.00    -0.268 A  
HETATM   17  O   UNL     1      -9.535   8.969  66.258  1.00  0.00    -0.201 OA 
HETATM   18  C   UNL     1     -11.453  12.929  63.922  1.00  0.00    -0.446 A  
HETATM   19  N   UNL     1     -10.418  10.745  64.084  1.00  0.00    -0.329 NA 
HETATM   20  C   UNL     1     -10.962  11.749  63.354  1.00  0.00    -0.380 A  
BRANCH  12  21
HETATM   21  C   UNL     1     -10.053  10.157  68.964  1.00  0.00    -0.205 A  
HETATM   22 CL   UNL     1      -9.448   8.183  72.944  1.00  0.00    -0.339 Cl 
HETATM   23  C   UNL     1     -10.969   9.380  71.062  1.00  0.00    -0.409 A  
HETATM   24  C   UNL     1      -8.667   9.161  70.547  1.00  0.00    -0.221 A  
HETATM   25  N   UNL     1      -8.826   9.737  69.330  1.00  0.00    -0.168 NA 
HETATM   26  C   UNL     1     -11.143  10.003  69.822  1.00  0.00    -0.319 A  
HETATM   27  C   UNL     1      -9.705   8.952  71.434  1.00  0.00    -0.300 A  
ENDBRANCH  12  21
ENDBRANCH  10  11
ENDBRANCH   7  10
TORSDOF 3
ENDMDL
MODEL       28
REMARK 921   NORMALIZED FREE ENERGY PREDICTED BY IDOCK:   -6.50 KCAL/MOL
REMARK 922        TOTAL FREE ENERGY PREDICTED BY IDOCK:   -8.24 KCAL/MOL
REMARK 923 INTER-LIGAND FREE ENERGY PREDICTED BY IDOCK:   -7.09 KCAL/MOL
REMARK 924 INTRA-LIGAND FREE ENERGY PREDICTED BY IDOCK:   -1.15 KCAL/MOL
REMARK 927      BINDING AFFINITY PREDICTED BY RF-SCORE:    0.00 PKD
ROOT
HETATM    1  C   UNL     1      -8.034   8.049  64.815  1.00  0.00    -0.143 C  
HETATM    2  N   UNL     1      -7.850   8.826  66.040  1.00  0.00    -0.103 NA 
HETATM    3  C   UNL     1      -8.033  10.273  65.789  1.00  0.00    -0.144 C  
HETATM    4  C   UNL     1      -9.495  10.699  65.565  1.00  0.00    -0.214 C  
HETATM    5  N   UNL     1     -10.350  10.222  66.651  1.00  0.00    -0.230 N  
HETATM    6  C   UNL     1     -10.248   8.790  66.927  1.00  0.00    -0.287 C  
HETATM    7  C   UNL     1     -11.026  11.148  67.417  1.00  0.00    -0.290 C  
HETATM    8  O   UNL     1     -10.915  12.354  67.233  1.00  0.00    -0.241 OA 
HETATM    9  C   UNL     1      -8.767   8.384  67.118  1.00  0.00    -0.126 C  
ENDROOT
BRANCH   7  10
HETATM   10  O   UNL     1     -11.843  10.611  68.357  1.00  0.00    -0.439 OA 
BRANCH  10  11
HETATM   11  C   UNL     1     -11.486  10.870  69.734  1.00  0.00    -0.313 C  
HETATM   12  N   UNL     1     -11.724   9.728  70.595  1.00  0.00    -0.286 N  
HETATM   13  C   UNL     1     -12.584  10.064  71.652  1.00  0.00    -0.427 C  
HETATM   14  C   UNL     1     -12.222  12.001  70.409  1.00  0.00    -0.294 A  
HETATM   15  N   UNL     1     -12.193  13.313  70.083  1.00  0.00    -0.328 NA 
HETATM   16  C   UNL     1     -12.872  11.508  71.523  1.00  0.00    -0.380 A  
HETATM   17  O   UNL     1     -12.989   9.388  72.580  1.00  0.00    -0.380 OA 
HETATM   18  C   UNL     1     -12.892  14.095  70.950  1.00  0.00    -0.334 A  
HETATM   19  N   UNL     1     -13.547  12.273  72.405  1.00  0.00    -0.289 NA 
HETATM   20  C   UNL     1     -13.551  13.587  72.075  1.00  0.00    -0.499 A  
BRANCH  12  21
HETATM   21  C   UNL     1     -11.132   8.466  70.413  1.00  0.00    -0.231 A  
HETATM   22 CL   UNL     1      -9.360   4.378  69.916  1.00  0.00    -0.207 Cl 
HETATM   23  C   UNL     1      -9.218   6.996  70.555  1.00  0.00    -0.159 A  
HETATM   24  C   UNL     1     -11.332   6.226  69.814  1.00  0.00    -0.436 A  
HETATM   25  N   UNL     1     -11.897   7.447  69.974  1.00  0.00     0.073 NA 
HETATM   26  C   UNL     1      -9.779   8.269  70.697  1.00  0.00    -0.191 A  
HETATM   27  C   UNL     1     -10.009   5.953  70.102  1.00  0.00    -0.191 A  
ENDBRANCH  12  21
ENDBRANCH  10  11
ENDBRANCH   7  10
TORSDOF 3
ENDMDL
MODEL       29
REMARK 921   NORMALIZED FREE ENERGY PREDICTED BY IDOCK:   -6.46 KCAL/MOL
REMARK 922        TOTAL FREE ENERGY PREDICTED BY IDOCK:   -8.20 KCAL/MOL
REMARK 923 INTER-LIGAND FREE ENERGY PREDICTED BY IDOCK:   -7.97 KCAL/MOL
REMARK 924 INTRA-LIGAND FREE ENERGY PREDICTED BY IDOCK:   -0.23 KCAL/MOL
REMARK 927      BINDING AFFINITY PREDICTED BY RF-SCORE:    0.00 PKD
ROOT
HETATM    1  C   UNL     1      -9.021   8.672  69.687  1.00  0.00    -0.145 C  
HETATM    2  N   UNL     1      -9.479   9.129  68.375  1.00  0.00    -0.142 NA 
HETATM    3  C   UNL     1     -10.895   9.557  68.421  1.00  0.00    -0.137 C  
HETATM    4  C   UNL     1     -11.129  10.902  69.132  1.00  0.00    -0.245 C  
HETATM    5  N   UNL     1     -10.262  11.942  68.581  1.00  0.00    -0.213 N  
HETATM    6  C   UNL     1      -8.842  11.599  68.542  1.00  0.00    -0.131 C  
HETATM    7  C   UNL     1     -10.845  13.048  67.999  1.00  0.00    -0.242 C  
HETATM    8  O   UNL     1     -12.060  13.176  67.910  1.00  0.00    -0.321 OA 
HETATM    9  C   UNL     1      -8.639  10.231  67.849  1.00  0.00    -0.118 C  
ENDROOT
BRANCH   7  10
HETATM   10  O   UNL     1      -9.964  13.988  67.573  1.00  0.00    -0.232 OA 
BRANCH  10  11
HETATM   11  C   UNL     1      -9.983  14.284  66.159  1.00  0.00    -0.314 C  
HETATM   12  N   UNL     1     -10.821  15.424  65.840  1.00  0.00    -0.327 N  
HETATM   13  C   UNL     1     -11.811  15.078  64.908  1.00  0.00    -0.298 C  
HETATM   14  C   UNL     1     -10.495  13.187  65.257  1.00  0.00    -0.307 A  
HETATM   15  N   UNL     1      -9.956  11.963  65.063  1.00  0.00    -0.256 NA 
HETATM   16  C   UNL     1     -11.576  13.665  64.542  1.00  0.00    -0.390 A  
HETATM   17  O   UNL     1     -12.673  15.762  64.386  1.00  0.00    -0.135 OA 
HETATM   18  C   UNL     1     -10.603  11.239  64.110  1.00  0.00    -0.373 A  
HETATM   19  N   UNL     1     -12.211  12.970  63.578  1.00  0.00    -0.681 NA 
HETATM   20  C   UNL     1     -11.699  11.729  63.393  1.00  0.00    -0.322 A  
BRANCH  12  21
HETATM   21  C   UNL     1     -10.630  16.714  66.366  1.00  0.00    -0.200 A  
HETATM   22 CL   UNL     1      -9.903  20.848  67.939  1.00  0.00    -0.227 Cl 
HETATM   23  C   UNL     1     -10.292  18.195  68.246  1.00  0.00    -0.377 A  
HETATM   24  C   UNL     1     -10.332  18.996  66.017  1.00  0.00    -0.446 A  
HETATM   25  N   UNL     1     -10.533  17.754  65.514  1.00  0.00    -0.636 NA 
HETATM   26  C   UNL     1     -10.528  16.912  67.744  1.00  0.00    -0.340 A  
HETATM   27  C   UNL     1     -10.194  19.260  67.365  1.00  0.00    -0.414 A  
ENDBRANCH  12  21
ENDBRANCH  10  11
ENDBRANCH   7  10
TORSDOF 3
ENDMDL
MODEL       30
REMARK 921   NORMALIZED FREE ENERGY PREDICTED BY IDOCK:   -6.46 KCAL/MOL
REMARK 922        TOTAL FREE ENERGY PREDICTED BY IDOCK:   -8.19 KCAL/MOL
REMARK 923 INTER-LIGAND FREE ENERGY PREDICTED BY IDOCK:   -8.14 KCAL/MOL
REMARK 924 INTRA-LIGAND FREE ENERGY PREDICTED BY IDOCK:   -0.06 KCAL/MOL
REMARK 927      BINDING AFFINITY PREDICTED BY RF-SCORE:    0.00 PKD
ROOT
HETATM    1  C   UNL     1      -9.944  11.525  63.092  1.00  0.00    -0.377 C  
HETATM    2  N   UNL     1     -10.754  11.204  64.266  1.00  0.00    -0.358 NA 
HETATM    3  C   UNL     1     -10.055  10.250  65.155  1.00  0.00    -0.285 C  
HETATM    4  C   UNL     1      -8.885  10.862  65.949  1.00  0.00    -0.186 C  
HETATM    5  N   UNL     1      -9.313  12.063  66.666  1.00  0.00    -0.214 N  
HETATM    6  C   UNL     1      -9.978  13.067  65.837  1.00  0.00    -0.267 C  
HETATM    7  C   UNL     1      -9.220  12.080  68.041  1.00  0.00    -0.192 C  
HETATM    8  O   UNL     1      -8.814  11.117  68.681  1.00  0.00    -0.159 OA 
HETATM    9  C   UNL     1     -11.128  12.419  65.029  1.00  0.00    -0.304 C  
ENDROOT
BRANCH   7  10
HETATM   10  O   UNL     1      -9.579  13.257  68.614  1.00  0.00    -0.166 OA 
BRANCH  10  11
HETATM   11  C   UNL     1     -10.998  13.485  68.764  1.00  0.00    -0.261 C  
HETATM   12  N   UNL     1     -11.302  14.842  69.174  1.00  0.00    -0.266 N  
HETATM   13  C   UNL     1     -12.044  14.854  70.365  1.00  0.00    -0.330 C  
HETATM   14  C   UNL     1     -11.704  12.624  69.783  1.00  0.00    -0.284 A  
HETATM   15  N   UNL     1     -11.853  11.281  69.765  1.00  0.00    -0.332 NA 
HETATM   16  C   UNL     1     -12.300  13.444  70.723  1.00  0.00    -0.354 A  
HETATM   17  O   UNL     1     -12.502  15.790  70.997  1.00  0.00    -0.428 OA 
HETATM   18  C   UNL     1     -12.628  10.814  70.781  1.00  0.00    -0.383 A  
HETATM   19  N   UNL     1     -13.090  12.999  71.720  1.00  0.00    -0.400 NA 
HETATM   20  C   UNL     1     -13.225  11.650  71.731  1.00  0.00    -0.333 A  
BRANCH  12  21
HETATM   21  C   UNL     1     -10.939  15.987  68.444  1.00  0.00    -0.331 A  
HETATM   22 CL   UNL     1      -9.685  19.546  66.024  1.00  0.00    -0.418 Cl 
HETATM   23  C   UNL     1     -10.113  18.257  68.356  1.00  0.00    -0.412 A  
HETATM   24  C   UNL     1     -10.626  17.038  66.391  1.00  0.00    -0.172 A  
HETATM   25  N   UNL     1     -10.992  15.941  67.098  1.00  0.00    -0.267 NA 
HETATM   26  C   UNL     1     -10.515  17.143  69.100  1.00  0.00    -0.296 A  
HETATM   27  C   UNL     1     -10.171  18.204  66.973  1.00  0.00    -0.365 A  
ENDBRANCH  12  21
ENDBRANCH  10  11
ENDBRANCH   7  10
TORSDOF 3
ENDMDL
MODEL       31
REMARK 921   NORMALIZED FREE ENERGY PREDICTED BY IDOCK:   -6.45 KCAL/MOL
REMARK 922        TOTAL FREE ENERGY PREDICTED BY IDOCK:   -8.19 KCAL/MOL
REMARK 923 INTER-LIGAND FREE ENERGY PREDICTED BY IDOCK:   -7.75 KCAL/MOL
REMARK 924 INTRA-LIGAND FREE ENERGY PREDICTED BY IDOCK:   -0.44 KCAL/MOL
REMARK 927      BINDING AFFINITY PREDICTED BY RF-SCORE:    0.00 PKD
ROOT
HETATM    1  C   UNL     1      -8.903   4.800  67.092  1.00  0.00    -0.107 C  
HETATM    2  N   UNL     1      -9.865   5.286  68.081  1.00  0.00    -0.143 NA 
HETATM    3  C   UNL     1      -9.186   6.014  69.177  1.00  0.00    -0.126 C  
HETATM    4  C   UNL     1      -8.664   7.409  68.784  1.00  0.00    -0.128 C  
HETATM    5  N   UNL     1      -9.722   8.209  68.172  1.00  0.00    -0.157 N  
HETATM    6  C   UNL     1     -10.411   7.564  67.055  1.00  0.00    -0.338 C  
HETATM    7  C   UNL     1     -10.095   9.388  68.781  1.00  0.00    -0.193 C  
HETATM    8  O   UNL     1      -9.587   9.774  69.826  1.00  0.00    -0.203 OA 
HETATM    9  C   UNL     1     -10.898   6.154  67.468  1.00  0.00    -0.332 C  
ENDROOT
BRANCH   7  10
HETATM   10  O   UNL     1     -11.039  10.094  68.108  1.00  0.00    -0.266 OA 
BRANCH  10  11
HETATM   11  C   UNL     1     -10.586  11.299  67.451  1.00  0.00    -0.224 C  
HETATM   12  N   UNL     1     -11.502  12.408  67.631  1.00  0.00    -0.315 N  
HETATM   13  C   UNL     1     -11.925  12.918  66.394  1.00  0.00    -0.395 C  
HETATM   14  C   UNL     1     -10.401  11.211  65.956  1.00  0.00    -0.254 A  
HETATM   15  N   UNL     1      -9.528  10.432  65.279  1.00  0.00    -0.215 NA 
HETATM   16  C   UNL     1     -11.205  12.158  65.351  1.00  0.00    -0.333 A  
HETATM   17  O   UNL     1     -12.663  13.853  66.140  1.00  0.00    -0.429 OA 
HETATM   18  C   UNL     1      -9.540  10.657  63.937  1.00  0.00    -0.306 A  
HETATM   19  N   UNL     1     -11.209  12.410  64.027  1.00  0.00    -0.362 NA 
HETATM   20  C   UNL     1     -10.360  11.616  63.331  1.00  0.00    -0.435 A  
BRANCH  12  21
HETATM   21  C   UNL     1     -11.876  12.927  68.882  1.00  0.00    -0.309 A  
HETATM   22 CL   UNL     1     -12.935  14.670  72.875  1.00  0.00    -0.549 Cl 
HETATM   23  C   UNL     1     -12.594  12.607  71.169  1.00  0.00    -0.354 A  
HETATM   24  C   UNL     1     -12.176  14.763  70.281  1.00  0.00    -0.338 A  
HETATM   25  N   UNL     1     -11.832  14.262  69.071  1.00  0.00    -0.320 NA 
HETATM   26  C   UNL     1     -12.270  12.076  69.916  1.00  0.00    -0.249 A  
HETATM   27  C   UNL     1     -12.548  13.979  71.355  1.00  0.00    -0.372 A  
ENDBRANCH  12  21
ENDBRANCH  10  11
ENDBRANCH   7  10
TORSDOF 3
ENDMDL
MODEL       32
REMARK 921   NORMALIZED FREE ENERGY PREDICTED BY IDOCK:   -6.45 KCAL/MOL
REMARK 922        TOTAL FREE ENERGY PREDICTED BY IDOCK:   -8.18 KCAL/MOL
REMARK 923 INTER-LIGAND FREE ENERGY PREDICTED BY IDOCK:   -7.56 KCAL/MOL
REMARK 924 INTRA-LIGAND FREE ENERGY PREDICTED BY IDOCK:   -0.63 KCAL/MOL
REMARK 927      BINDING AFFINITY PREDICTED BY RF-SCORE:    0.00 PKD
ROOT
HETATM    1  C   UNL     1     -10.894   5.656  73.243  1.00  0.00    -0.282 C  
HETATM    2  N   UNL     1     -10.954   7.118  73.213  1.00  0.00    -0.316 NA 
HETATM    3  C   UNL     1      -9.604   7.707  73.073  1.00  0.00    -0.235 C  
HETATM    4  C   UNL     1      -8.990   7.559  71.668  1.00  0.00    -0.123 C  
HETATM    5  N   UNL     1      -9.908   8.048  70.642  1.00  0.00    -0.184 N  
HETATM    6  C   UNL     1     -11.252   7.476  70.699  1.00  0.00    -0.268 C  
HETATM    7  C   UNL     1      -9.508   9.099  69.844  1.00  0.00    -0.186 C  
HETATM    8  O   UNL     1      -8.422   9.648  69.982  1.00  0.00    -0.172 OA 
HETATM    9  C   UNL     1     -11.833   7.612  72.127  1.00  0.00    -0.309 C  
ENDROOT
BRANCH   7  10
HETATM   10  O   UNL     1     -10.399   9.443  68.880  1.00  0.00    -0.201 OA 
BRANCH  10  11
HETATM   11  C   UNL     1     -10.082  10.626  68.113  1.00  0.00    -0.158 C  
HETATM   12  N   UNL     1     -11.174  11.580  68.086  1.00  0.00    -0.248 N  
HETATM   13  C   UNL     1     -11.556  11.872  66.768  1.00  0.00    -0.268 C  
HETATM   14  C   UNL     1      -9.749  10.406  66.658  1.00  0.00    -0.190 A  
HETATM   15  N   UNL     1      -8.705   9.714  66.149  1.00  0.00    -0.134 NA 
HETATM   16  C   UNL     1     -10.632  11.132  65.883  1.00  0.00    -0.234 A  
HETATM   17  O   UNL     1     -12.406  12.635  66.346  1.00  0.00    -0.521 OA 
HETATM   18  C   UNL     1      -8.629   9.784  64.792  1.00  0.00    -0.179 A  
HETATM   19  N   UNL     1     -10.554  11.231  64.541  1.00  0.00    -0.331 NA 
HETATM   20  C   UNL     1      -9.529  10.518  64.013  1.00  0.00    -0.289 A  
BRANCH  12  21
HETATM   21  C   UNL     1     -11.739  12.165  69.233  1.00  0.00    -0.328 A  
HETATM   22 CL   UNL     1     -13.407  14.114  72.910  1.00  0.00    -0.608 Cl 
HETATM   23  C   UNL     1     -12.841  11.967  71.376  1.00  0.00    -0.411 A  
HETATM   24  C   UNL     1     -12.219  14.070  70.481  1.00  0.00    -0.365 A  
HETATM   25  N   UNL     1     -11.690  13.505  69.368  1.00  0.00    -0.306 NA 
HETATM   26  C   UNL     1     -12.326  11.371  70.220  1.00  0.00    -0.379 A  
HETATM   27  C   UNL     1     -12.789  13.344  71.508  1.00  0.00    -0.337 A  
ENDBRANCH  12  21
ENDBRANCH  10  11
ENDBRANCH   7  10
TORSDOF 3
ENDMDL
MODEL       33
REMARK 921   NORMALIZED FREE ENERGY PREDICTED BY IDOCK:   -6.42 KCAL/MOL
REMARK 922        TOTAL FREE ENERGY PREDICTED BY IDOCK:   -8.15 KCAL/MOL
REMARK 923 INTER-LIGAND FREE ENERGY PREDICTED BY IDOCK:   -7.06 KCAL/MOL
REMARK 924 INTRA-LIGAND FREE ENERGY PREDICTED BY IDOCK:   -1.09 KCAL/MOL
REMARK 927      BINDING AFFINITY PREDICTED BY RF-SCORE:    0.00 PKD
ROOT
HETATM    1  C   UNL     1      -8.795   5.374  72.049  1.00  0.00    -0.134 C  
HETATM    2  N   UNL     1      -9.499   5.975  70.917  1.00  0.00    -0.167 NA 
HETATM    3  C   UNL     1     -10.965   5.933  71.113  1.00  0.00    -0.260 C  
HETATM    4  C   UNL     1     -11.494   6.932  72.159  1.00  0.00    -0.279 C  
HETATM    5  N   UNL     1     -11.021   8.285  71.875  1.00  0.00    -0.266 N  
HETATM    6  C   UNL     1      -9.573   8.406  71.708  1.00  0.00    -0.234 C  
HETATM    7  C   UNL     1     -11.950   9.271  71.621  1.00  0.00    -0.378 C  
HETATM    8  O   UNL     1     -13.154   9.045  71.603  1.00  0.00    -0.331 OA 
HETATM    9  C   UNL     1      -9.065   7.372  70.674  1.00  0.00    -0.156 C  
ENDROOT
BRANCH   7  10
HETATM   10  O   UNL     1     -11.422  10.506  71.432  1.00  0.00    -0.115 OA 
BRANCH  10  11
HETATM   11  C   UNL     1     -12.147  11.379  70.538  1.00  0.00    -0.394 C  
HETATM   12  N   UNL     1     -11.325  11.867  69.447  1.00  0.00    -0.268 N  
HETATM   13  C   UNL     1     -11.305  13.270  69.419  1.00  0.00    -0.219 C  
HETATM   14  C   UNL     1     -12.723  12.631  71.154  1.00  0.00    -0.254 A  
HETATM   15  N   UNL     1     -13.670  12.715  72.115  1.00  0.00    -0.418 NA 
HETATM   16  C   UNL     1     -12.207  13.730  70.495  1.00  0.00    -0.369 A  
HETATM   17  O   UNL     1     -10.755  14.032  68.646  1.00  0.00    -0.246 OA 
HETATM   18  C   UNL     1     -14.044  13.995  72.386  1.00  0.00    -0.476 A  
HETATM   19  N   UNL     1     -12.586  15.002  70.735  1.00  0.00    -0.343 NA 
HETATM   20  C   UNL     1     -13.514  15.103  71.717  1.00  0.00    -0.433 A  
BRANCH  12  21
HETATM   21  C   UNL     1     -10.676  11.036  68.518  1.00  0.00    -0.202 A  
HETATM   22 CL   UNL     1      -8.724   8.284  65.566  1.00  0.00    -0.188 Cl 
HETATM   23  C   UNL     1      -8.710   9.846  67.766  1.00  0.00    -0.129 A  
HETATM   24  C   UNL     1     -10.764   9.733  66.591  1.00  0.00    -0.036 A  
HETATM   25  N   UNL     1     -11.384  10.547  67.480  1.00  0.00    -0.409 NA 
HETATM   26  C   UNL     1      -9.328  10.711  68.675  1.00  0.00    -0.177 A  
HETATM   27  C   UNL     1      -9.442   9.348  66.701  1.00  0.00    -0.177 A  
ENDBRANCH  12  21
ENDBRANCH  10  11
ENDBRANCH   7  10
TORSDOF 3
ENDMDL
MODEL       34
REMARK 921   NORMALIZED FREE ENERGY PREDICTED BY IDOCK:   -6.38 KCAL/MOL
REMARK 922        TOTAL FREE ENERGY PREDICTED BY IDOCK:   -8.11 KCAL/MOL
REMARK 923 INTER-LIGAND FREE ENERGY PREDICTED BY IDOCK:   -7.10 KCAL/MOL
REMARK 924 INTRA-LIGAND FREE ENERGY PREDICTED BY IDOCK:   -1.01 KCAL/MOL
REMARK 927      BINDING AFFINITY PREDICTED BY RF-SCORE:    0.00 PKD
ROOT
HETATM    1  C   UNL     1     -13.895  15.584  71.467  1.00  0.00    -0.441 C  
HETATM    2  N   UNL     1     -12.516  15.119  71.617  1.00  0.00    -0.324 NA 
HETATM    3  C   UNL     1     -12.471  13.731  72.129  1.00  0.00     0.001 C  
HETATM    4  C   UNL     1     -12.872  12.661  71.097  1.00  0.00    -0.220 C  
HETATM    5  N   UNL     1     -12.105  12.812  69.862  1.00  0.00    -0.292 N  
HETATM    6  C   UNL     1     -12.138  14.153  69.280  1.00  0.00    -0.324 C  
HETATM    7  C   UNL     1     -11.298  11.772  69.454  1.00  0.00    -0.272 C  
HETATM    8  O   UNL     1     -11.186  10.738  70.102  1.00  0.00    -0.284 OA 
HETATM    9  C   UNL     1     -11.760  15.210  70.346  1.00  0.00    -0.293 C  
ENDROOT
BRANCH   7  10
HETATM   10  O   UNL     1     -10.675  11.978  68.266  1.00  0.00    -0.207 OA 
BRANCH  10  11
HETATM   11  C   UNL     1     -11.248  11.307  67.122  1.00  0.00    -0.275 C  
HETATM   12  N   UNL     1     -10.345  10.335  66.537  1.00  0.00    -0.228 N  
HETATM   13  C   UNL     1     -10.116  10.612  65.180  1.00  0.00    -0.307 C  
HETATM   14  C   UNL     1     -11.641  12.190  65.963  1.00  0.00    -0.358 A  
HETATM   15  N   UNL     1     -12.581  13.162  65.950  1.00  0.00    -0.447 NA 
HETATM   16  C   UNL     1     -10.957  11.777  64.836  1.00  0.00    -0.300 A  
HETATM   17  O   UNL     1      -9.446  10.014  64.358  1.00  0.00    -0.277 OA 
HETATM   18  C   UNL     1     -12.765  13.711  64.718  1.00  0.00    -0.219 A  
HETATM   19  N   UNL     1     -11.147  12.294  63.605  1.00  0.00    -0.435 NA 
HETATM   20  C   UNL     1     -12.065  13.290  63.583  1.00  0.00    -0.485 A  
BRANCH  12  21
HETATM   21  C   UNL     1      -9.811   9.236  67.232  1.00  0.00    -0.182 A  
HETATM   22 CL   UNL     1      -8.241   5.726  69.537  1.00  0.00    -0.107 Cl 
HETATM   23  C   UNL     1      -8.023   8.204  68.490  1.00  0.00    -0.126 A  
HETATM   24  C   UNL     1     -10.068   7.083  68.077  1.00  0.00    -0.169 A  
HETATM   25  N   UNL     1     -10.575   8.137  67.392  1.00  0.00    -0.279 NA 
HETATM   26  C   UNL     1      -8.520   9.289  67.761  1.00  0.00    -0.116 A  
HETATM   27  C   UNL     1      -8.812   7.076  68.649  1.00  0.00    -0.128 A  
ENDBRANCH  12  21
ENDBRANCH  10  11
ENDBRANCH   7  10
TORSDOF 3
ENDMDL
MODEL       35
REMARK 921   NORMALIZED FREE ENERGY PREDICTED BY IDOCK:   -6.29 KCAL/MOL
REMARK 922        TOTAL FREE ENERGY PREDICTED BY IDOCK:   -8.00 KCAL/MOL
REMARK 923 INTER-LIGAND FREE ENERGY PREDICTED BY IDOCK:   -8.63 KCAL/MOL
REMARK 924 INTRA-LIGAND FREE ENERGY PREDICTED BY IDOCK:    0.63 KCAL/MOL
REMARK 927      BINDING AFFINITY PREDICTED BY RF-SCORE:    0.00 PKD
ROOT
HETATM    1  C   UNL     1     -12.371  15.296  64.093  1.00  0.00    -0.044 C  
HETATM    2  N   UNL     1     -12.577  13.879  64.391  1.00  0.00    -0.675 NA 
HETATM    3  C   UNL     1     -11.394  13.074  64.011  1.00  0.00    -0.410 C  
HETATM    4  C   UNL     1     -10.183  13.245  64.947  1.00  0.00    -0.296 C  
HETATM    5  N   UNL     1     -10.566  13.027  66.341  1.00  0.00    -0.281 N  
HETATM    6  C   UNL     1     -11.706  13.822  66.795  1.00  0.00    -0.391 C  
HETATM    7  C   UNL     1      -9.962  12.004  67.040  1.00  0.00    -0.204 C  
HETATM    8  O   UNL     1      -9.136  11.259  66.526  1.00  0.00    -0.172 OA 
HETATM    9  C   UNL     1     -12.897  13.655  65.821  1.00  0.00    -0.333 C  
ENDROOT
BRANCH   7  10
HETATM   10  O   UNL     1     -10.333  11.918  68.342  1.00  0.00    -0.198 OA 
BRANCH  10  11
HETATM   11  C   UNL     1     -11.321  10.913  68.658  1.00  0.00    -0.295 C  
HETATM   12  N   UNL     1     -11.718  10.941  70.053  1.00  0.00    -0.313 N  
HETATM   13  C   UNL     1     -11.505   9.695  70.663  1.00  0.00    -0.306 C  
HETATM   14  C   UNL     1     -10.911   9.480  68.421  1.00  0.00    -0.137 A  
HETATM   15  N   UNL     1     -10.597   8.899  67.241  1.00  0.00    -0.275 NA 
HETATM   16  C   UNL     1     -11.010   8.784  69.610  1.00  0.00    -0.105 A  
HETATM   17  O   UNL     1     -11.736   9.328  71.800  1.00  0.00    -0.359 OA 
HETATM   18  C   UNL     1     -10.363   7.562  67.349  1.00  0.00    -0.276 A  
HETATM   19  N   UNL     1     -10.806   7.457  69.728  1.00  0.00    -0.247 NA 
HETATM   20  C   UNL     1     -10.462   6.866  68.558  1.00  0.00    -0.203 A  
BRANCH  12  21
HETATM   21  C   UNL     1     -12.283  12.060  70.689  1.00  0.00    -0.316 A  
HETATM   22 CL   UNL     1     -13.941  15.693  72.725  1.00  0.00    -0.623 Cl 
HETATM   23  C   UNL     1     -13.647  13.026  72.435  1.00  0.00    -0.628 A  
HETATM   24  C   UNL     1     -12.509  14.370  70.852  1.00  0.00    -0.354 A  
HETATM   25  N   UNL     1     -11.978  13.290  70.230  1.00  0.00    -0.327 NA 
HETATM   26  C   UNL     1     -13.131  11.900  71.786  1.00  0.00    -0.465 A  
HETATM   27  C   UNL     1     -13.331  14.288  71.958  1.00  0.00    -0.398 A  
ENDBRANCH  12  21
ENDBRANCH  10  11
ENDBRANCH   7  10
TORSDOF 3
ENDMDL
MODEL       36
REMARK 921   NORMALIZED FREE ENERGY PREDICTED BY IDOCK:   -6.29 KCAL/MOL
REMARK 922        TOTAL FREE ENERGY PREDICTED BY IDOCK:   -8.00 KCAL/MOL
REMARK 923 INTER-LIGAND FREE ENERGY PREDICTED BY IDOCK:   -6.94 KCAL/MOL
REMARK 924 INTRA-LIGAND FREE ENERGY PREDICTED BY IDOCK:   -1.05 KCAL/MOL
REMARK 927      BINDING AFFINITY PREDICTED BY RF-SCORE:    0.00 PKD
ROOT
HETATM    1  C   UNL     1      -7.541  10.177  63.240  1.00  0.00    -0.143 C  
HETATM    2  N   UNL     1      -8.730   9.608  63.873  1.00  0.00    -0.207 NA 
HETATM    3  C   UNL     1      -8.406   8.357  64.594  1.00  0.00    -0.127 C  
HETATM    4  C   UNL     1      -7.629   8.564  65.907  1.00  0.00    -0.085 C  
HETATM    5  N   UNL     1      -8.308   9.530  66.769  1.00  0.00    -0.116 N  
HETATM    6  C   UNL     1      -8.624  10.806  66.129  1.00  0.00    -0.168 C  
HETATM    7  C   UNL     1      -8.740   9.118  68.012  1.00  0.00    -0.129 C  
HETATM    8  O   UNL     1      -8.595   7.968  68.406  1.00  0.00    -0.127 OA 
HETATM    9  C   UNL     1      -9.377  10.567  64.799  1.00  0.00    -0.238 C  
ENDROOT
BRANCH   7  10
HETATM   10  O   UNL     1      -9.301  10.098  68.764  1.00  0.00    -0.152 OA 
BRANCH  10  11
HETATM   11  C   UNL     1     -10.736  10.034  68.926  1.00  0.00    -0.219 C  
HETATM   12  N   UNL     1     -11.341  11.346  69.040  1.00  0.00    -0.252 N  
HETATM   13  C   UNL     1     -12.073  11.463  70.231  1.00  0.00    -0.374 C  
HETATM   14  C   UNL     1     -11.235   9.291  70.141  1.00  0.00    -0.208 A  
HETATM   15  N   UNL     1     -11.075   7.979  70.427  1.00  0.00    -0.250 NA 
HETATM   16  C   UNL     1     -12.005  10.148  70.903  1.00  0.00    -0.365 A  
HETATM   17  O   UNL     1     -12.734  12.391  70.661  1.00  0.00    -0.180 OA 
HETATM   18  C   UNL     1     -11.730   7.595  71.556  1.00  0.00    -0.281 A  
HETATM   19  N   UNL     1     -12.680   9.776  72.009  1.00  0.00    -0.389 NA 
HETATM   20  C   UNL     1     -12.506   8.470  72.324  1.00  0.00    -0.387 A  
BRANCH  12  21
HETATM   21  C   UNL     1     -11.242  12.348  68.059  1.00  0.00    -0.268 A  
HETATM   22 CL   UNL     1     -10.912  15.430  64.819  1.00  0.00    -0.434 Cl 
HETATM   23  C   UNL     1     -10.226  14.368  67.204  1.00  0.00    -0.257 A  
HETATM   24  C   UNL     1     -11.913  13.216  66.005  1.00  0.00    -0.433 A  
HETATM   25  N   UNL     1     -12.019  12.260  66.960  1.00  0.00    -0.590 NA 
HETATM   26  C   UNL     1     -10.344  13.406  68.212  1.00  0.00    -0.251 A  
HETATM   27  C   UNL     1     -11.028  14.273  66.078  1.00  0.00    -0.312 A  
ENDBRANCH  12  21
ENDBRANCH  10  11
ENDBRANCH   7  10
TORSDOF 3
ENDMDL
MODEL       37
REMARK 921   NORMALIZED FREE ENERGY PREDICTED BY IDOCK:   -6.20 KCAL/MOL
REMARK 922        TOTAL FREE ENERGY PREDICTED BY IDOCK:   -7.89 KCAL/MOL
REMARK 923 INTER-LIGAND FREE ENERGY PREDICTED BY IDOCK:   -7.17 KCAL/MOL
REMARK 924 INTRA-LIGAND FREE ENERGY PREDICTED BY IDOCK:   -0.72 KCAL/MOL
REMARK 927      BINDING AFFINITY PREDICTED BY RF-SCORE:    0.00 PKD
ROOT
HETATM    1  C   UNL     1     -10.389  17.606  68.632  1.00  0.00    -0.359 C  
HETATM    2  N   UNL     1      -9.861  16.570  69.520  1.00  0.00    -0.147 NA 
HETATM    3  C   UNL     1     -10.949  15.894  70.261  1.00  0.00    -0.362 C  
HETATM    4  C   UNL     1     -11.796  14.933  69.406  1.00  0.00    -0.324 C  
HETATM    5  N   UNL     1     -10.947  13.980  68.694  1.00  0.00    -0.254 N  
HETATM    6  C   UNL     1      -9.872  14.586  67.909  1.00  0.00    -0.222 C  
HETATM    7  C   UNL     1     -11.106  12.635  68.947  1.00  0.00    -0.259 C  
HETATM    8  O   UNL     1     -11.916  12.215  69.764  1.00  0.00    -0.315 OA 
HETATM    9  C   UNL     1      -9.056  15.568  68.783  1.00  0.00    -0.207 C  
ENDROOT
BRANCH   7  10
HETATM   10  O   UNL     1     -10.320  11.825  68.195  1.00  0.00    -0.187 OA 
BRANCH  10  11
HETATM   11  C   UNL     1     -10.985  11.091  67.142  1.00  0.00    -0.283 C  
HETATM   12  N   UNL     1     -10.161  10.028  66.599  1.00  0.00    -0.226 N  
HETATM   13  C   UNL     1      -9.993  10.179  65.214  1.00  0.00    -0.311 C  
HETATM   14  C   UNL     1     -11.398  11.893  65.932  1.00  0.00    -0.308 A  
HETATM   15  N   UNL     1     -12.290  12.908  65.882  1.00  0.00    -0.540 NA 
HETATM   16  C   UNL     1     -10.795  11.353  64.812  1.00  0.00    -0.273 A  
HETATM   17  O   UNL     1      -9.397   9.481  64.414  1.00  0.00    -0.216 OA 
HETATM   18  C   UNL     1     -12.515  13.361  64.619  1.00  0.00    -0.331 A  
HETATM   19  N   UNL     1     -11.027  11.774  63.552  1.00  0.00    -0.418 NA 
HETATM   20  C   UNL     1     -11.898  12.811  63.490  1.00  0.00    -0.546 A  
BRANCH  12  21
HETATM   21  C   UNL     1      -9.643   8.966  67.359  1.00  0.00    -0.157 A  
HETATM   22 CL   UNL     1      -7.854   5.587  69.701  1.00  0.00    -0.088 Cl 
HETATM   23  C   UNL     1      -9.823   6.724  68.246  1.00  0.00    -0.144 A  
HETATM   24  C   UNL     1      -7.911   8.070  68.630  1.00  0.00    -0.123 A  
HETATM   25  N   UNL     1      -8.420   9.099  67.911  1.00  0.00    -0.117 NA 
HETATM   26  C   UNL     1     -10.374   7.789  67.526  1.00  0.00    -0.333 A  
HETATM   27  C   UNL     1      -8.567   6.868  68.812  1.00  0.00    -0.124 A  
ENDBRANCH  12  21
ENDBRANCH  10  11
ENDBRANCH   7  10
TORSDOF 3
ENDMDL
MODEL       38
REMARK 921   NORMALIZED FREE ENERGY PREDICTED BY IDOCK:   -6.20 KCAL/MOL
REMARK 922        TOTAL FREE ENERGY PREDICTED BY IDOCK:   -7.89 KCAL/MOL
REMARK 923 INTER-LIGAND FREE ENERGY PREDICTED BY IDOCK:   -7.10 KCAL/MOL
REMARK 924 INTRA-LIGAND FREE ENERGY PREDICTED BY IDOCK:   -0.79 KCAL/MOL
REMARK 927      BINDING AFFINITY PREDICTED BY RF-SCORE:    0.00 PKD
ROOT
HETATM    1  C   UNL     1     -10.740  17.152  68.588  1.00  0.00    -0.306 C  
HETATM    2  N   UNL     1     -10.316  16.141  69.556  1.00  0.00    -0.269 NA 
HETATM    3  C   UNL     1     -11.476  15.406  70.107  1.00  0.00    -0.317 C  
HETATM    4  C   UNL     1     -12.118  14.407  69.127  1.00  0.00    -0.281 C  
HETATM    5  N   UNL     1     -11.113  13.502  68.571  1.00  0.00    -0.260 N  
HETATM    6  C   UNL     1      -9.955  14.165  67.974  1.00  0.00    -0.226 C  
HETATM    7  C   UNL     1     -11.243  12.149  68.801  1.00  0.00    -0.264 C  
HETATM    8  O   UNL     1     -12.156  11.684  69.472  1.00  0.00    -0.304 OA 
HETATM    9  C   UNL     1      -9.348  15.184  68.969  1.00  0.00    -0.219 C  
ENDROOT
BRANCH   7  10
HETATM   10  O   UNL     1     -10.301  11.384  68.194  1.00  0.00    -0.177 OA 
BRANCH  10  11
HETATM   11  C   UNL     1     -10.753  10.584  67.078  1.00  0.00    -0.250 C  
HETATM   12  N   UNL     1     -10.151   9.265  67.060  1.00  0.00    -0.227 N  
HETATM   13  C   UNL     1      -9.482   9.033  65.848  1.00  0.00    -0.249 C  
HETATM   14  C   UNL     1     -10.467  11.139  65.704  1.00  0.00    -0.248 A  
HETATM   15  N   UNL     1     -10.942  12.284  65.164  1.00  0.00    -0.294 NA 
HETATM   16  C   UNL     1      -9.709  10.223  65.002  1.00  0.00    -0.305 A  
HETATM   17  O   UNL     1      -8.886   8.046  65.456  1.00  0.00    -0.148 OA 
HETATM   18  C   UNL     1     -10.574  12.454  63.865  1.00  0.00    -0.437 A  
HETATM   19  N   UNL     1      -9.358  10.365  63.707  1.00  0.00    -0.265 NA 
HETATM   20  C   UNL     1      -9.803  11.523  63.161  1.00  0.00    -0.390 A  
BRANCH  12  21
HETATM   21  C   UNL     1     -10.266   8.331  68.104  1.00  0.00    -0.210 A  
HETATM   22 CL   UNL     1     -10.478   5.355  71.450  1.00  0.00    -0.295 Cl 
HETATM   23  C   UNL     1     -11.088   6.229  68.971  1.00  0.00    -0.446 A  
HETATM   24  C   UNL     1      -9.718   7.664  70.265  1.00  0.00    -0.179 A  
HETATM   25  N   UNL     1      -9.622   8.571  69.263  1.00  0.00    -0.168 NA 
HETATM   26  C   UNL     1     -11.022   7.169  67.937  1.00  0.00    -0.154 A  
HETATM   27  C   UNL     1     -10.424   6.482  70.160  1.00  0.00    -0.214 A  
ENDBRANCH  12  21
ENDBRANCH  10  11
ENDBRANCH   7  10
TORSDOF 3
ENDMDL
MODEL       39
REMARK 921   NORMALIZED FREE ENERGY PREDICTED BY IDOCK:   -6.19 KCAL/MOL
REMARK 922        TOTAL FREE ENERGY PREDICTED BY IDOCK:   -7.88 KCAL/MOL
REMARK 923 INTER-LIGAND FREE ENERGY PREDICTED BY IDOCK:   -7.18 KCAL/MOL
REMARK 924 INTRA-LIGAND FREE ENERGY PREDICTED BY IDOCK:   -0.70 KCAL/MOL
REMARK 927      BINDING AFFINITY PREDICTED BY RF-SCORE:    0.00 PKD
ROOT
HETATM    1  C   UNL     1      -7.365   8.263  67.208  1.00  0.00    -0.089 C  
HETATM    2  N   UNL     1      -6.782   9.604  67.269  1.00  0.00    -0.071 NA 
HETATM    3  C   UNL     1      -7.169  10.411  66.091  1.00  0.00    -0.131 C  
HETATM    4  C   UNL     1      -8.633  10.889  66.101  1.00  0.00    -0.169 C  
HETATM    5  N   UNL     1      -8.952  11.568  67.356  1.00  0.00    -0.153 N  
HETATM    6  C   UNL     1      -8.630  10.808  68.563  1.00  0.00    -0.148 C  
HETATM    7  C   UNL     1      -9.349  12.887  67.311  1.00  0.00    -0.212 C  
HETATM    8  O   UNL     1      -9.420  13.513  66.260  1.00  0.00    -0.255 OA 
HETATM    9  C   UNL     1      -7.164  10.316  68.512  1.00  0.00    -0.080 C  
ENDROOT
BRANCH   7  10
HETATM   10  O   UNL     1      -9.684  13.414  68.515  1.00  0.00    -0.218 OA 
BRANCH  10  11
HETATM   11  C   UNL     1     -11.089  13.677  68.726  1.00  0.00    -0.270 C  
HETATM   12  N   UNL     1     -11.339  15.026  69.195  1.00  0.00    -0.278 N  
HETATM   13  C   UNL     1     -12.037  15.016  70.412  1.00  0.00    -0.333 C  
HETATM   14  C   UNL     1     -11.784  12.800  69.739  1.00  0.00    -0.282 A  
HETATM   15  N   UNL     1     -11.974  11.463  69.678  1.00  0.00    -0.334 NA 
HETATM   16  C   UNL     1     -12.322  13.601  70.728  1.00  0.00    -0.371 A  
HETATM   17  O   UNL     1     -12.444  15.940  71.093  1.00  0.00    -0.445 OA 
HETATM   18  C   UNL     1     -12.725  10.982  70.705  1.00  0.00    -0.323 A  
HETATM   19  N   UNL     1     -13.089  13.143  71.738  1.00  0.00    -0.403 NA 
HETATM   20  C   UNL     1     -13.263  11.799  71.705  1.00  0.00    -0.329 A  
BRANCH  12  21
HETATM   21  C   UNL     1     -10.967  16.186  68.493  1.00  0.00    -0.338 A  
HETATM   22 CL   UNL     1      -9.691  19.796  66.160  1.00  0.00    -0.498 Cl 
HETATM   23  C   UNL     1     -10.117  18.449  68.460  1.00  0.00    -0.413 A  
HETATM   24  C   UNL     1     -10.657  17.289  66.467  1.00  0.00    -0.178 A  
HETATM   25  N   UNL     1     -11.030  16.177  67.146  1.00  0.00    -0.213 NA 
HETATM   26  C   UNL     1     -10.526  17.320  69.177  1.00  0.00    -0.263 A  
HETATM   27  C   UNL     1     -10.185  18.434  67.077  1.00  0.00    -0.379 A  
ENDBRANCH  12  21
ENDBRANCH  10  11
ENDBRANCH   7  10
TORSDOF 3
ENDMDL
MODEL       40
REMARK 921   NORMALIZED FREE ENERGY PREDICTED BY IDOCK:   -6.17 KCAL/MOL
REMARK 922        TOTAL FREE ENERGY PREDICTED BY IDOCK:   -7.86 KCAL/MOL
REMARK 923 INTER-LIGAND FREE ENERGY PREDICTED BY IDOCK:   -7.58 KCAL/MOL
REMARK 924 INTRA-LIGAND FREE ENERGY PREDICTED BY IDOCK:   -0.28 KCAL/MOL
REMARK 927      BINDING AFFINITY PREDICTED BY RF-SCORE:    0.00 PKD
ROOT
HETATM    1  C   UNL     1     -12.216  14.944  64.401  1.00  0.00    -0.381 C  
HETATM    2  N   UNL     1     -12.856  13.822  65.089  1.00  0.00    -0.748 NA 
HETATM    3  C   UNL     1     -12.633  12.551  64.365  1.00  0.00    -0.410 C  
HETATM    4  C   UNL     1     -11.201  11.996  64.484  1.00  0.00    -0.332 C  
HETATM    5  N   UNL     1     -10.791  11.906  65.884  1.00  0.00    -0.287 N  
HETATM    6  C   UNL     1     -10.950  13.141  66.650  1.00  0.00    -0.283 C  
HETATM    7  C   UNL     1     -10.468  10.669  66.400  1.00  0.00    -0.213 C  
HETATM    8  O   UNL     1     -10.535   9.644  65.732  1.00  0.00    -0.105 OA 
HETATM    9  C   UNL     1     -12.387  13.692  66.488  1.00  0.00    -0.361 C  
ENDROOT
BRANCH   7  10
HETATM   10  O   UNL     1     -10.038  10.692  67.687  1.00  0.00    -0.169 OA 
BRANCH  10  11
HETATM   11  C   UNL     1     -10.363   9.533  68.487  1.00  0.00    -0.207 C  
HETATM   12  N   UNL     1     -10.485   9.847  69.897  1.00  0.00    -0.250 N  
HETATM   13  C   UNL     1      -9.608   9.066  70.665  1.00  0.00    -0.237 C  
HETATM   14  C   UNL     1      -9.368   8.398  68.447  1.00  0.00    -0.135 A  
HETATM   15  N   UNL     1      -9.018   7.648  67.378  1.00  0.00    -0.126 NA 
HETATM   16  C   UNL     1      -8.925   8.148  69.731  1.00  0.00    -0.144 A  
HETATM   17  O   UNL     1      -9.443   9.025  71.871  1.00  0.00    -0.313 OA 
HETATM   18  C   UNL     1      -8.164   6.636  67.692  1.00  0.00    -0.122 A  
HETATM   19  N   UNL     1      -8.099   7.135  70.061  1.00  0.00    -0.125 NA 
HETATM   20  C   UNL     1      -7.717   6.391  68.994  1.00  0.00    -0.101 A  
BRANCH  12  21
HETATM   21  C   UNL     1     -11.398  10.778  70.421  1.00  0.00    -0.255 A  
HETATM   22 CL   UNL     1     -14.188  13.846  72.125  1.00  0.00    -0.616 Cl 
HETATM   23  C   UNL     1     -13.243  11.330  71.882  1.00  0.00    -0.491 A  
HETATM   24  C   UNL     1     -12.172  12.970  70.550  1.00  0.00    -0.313 A  
HETATM   25  N   UNL     1     -11.304  12.066  70.033  1.00  0.00    -0.077 NA 
HETATM   26  C   UNL     1     -12.374  10.380  71.336  1.00  0.00    -0.500 A  
HETATM   27  C   UNL     1     -13.143  12.652  71.479  1.00  0.00    -0.278 A  
ENDBRANCH  12  21
ENDBRANCH  10  11
ENDBRANCH   7  10
TORSDOF 3
ENDMDL
MODEL       41
REMARK 921   NORMALIZED FREE ENERGY PREDICTED BY IDOCK:   -6.17 KCAL/MOL
REMARK 922        TOTAL FREE ENERGY PREDICTED BY IDOCK:   -7.86 KCAL/MOL
REMARK 923 INTER-LIGAND FREE ENERGY PREDICTED BY IDOCK:   -7.09 KCAL/MOL
REMARK 924 INTRA-LIGAND FREE ENERGY PREDICTED BY IDOCK:   -0.77 KCAL/MOL
REMARK 927      BINDING AFFINITY PREDICTED BY RF-SCORE:    0.00 PKD
ROOT
HETATM    1  C   UNL     1     -12.628  16.407  72.034  1.00  0.00     0.178 C  
HETATM    2  N   UNL     1     -11.723  15.289  72.300  1.00  0.00    -0.432 NA 
HETATM    3  C   UNL     1     -12.347  14.299  73.207  1.00  0.00     0.061 C  
HETATM    4  C   UNL     1     -13.446  13.443  72.551  1.00  0.00    -0.536 C  
HETATM    5  N   UNL     1     -12.961  12.824  71.319  1.00  0.00    -0.284 N  
HETATM    6  C   UNL     1     -12.366  13.754  70.360  1.00  0.00    -0.353 C  
HETATM    7  C   UNL     1     -12.940  11.449  71.233  1.00  0.00    -0.316 C  
HETATM    8  O   UNL     1     -13.291  10.731  72.161  1.00  0.00    -0.442 OA 
HETATM    9  C   UNL     1     -11.287  14.621  71.051  1.00  0.00    -0.080 C  
ENDROOT
BRANCH   7  10
HETATM   10  O   UNL     1     -12.535  10.967  70.031  1.00  0.00    -0.323 OA 
BRANCH  10  11
HETATM   11  C   UNL     1     -11.121  10.700  69.896  1.00  0.00    -0.298 C  
HETATM   12  N   UNL     1     -10.676  10.747  68.517  1.00  0.00    -0.195 N  
HETATM   13  C   UNL     1     -10.065   9.540  68.143  1.00  0.00    -0.182 C  
HETATM   14  C   UNL     1     -10.648   9.355  70.391  1.00  0.00    -0.261 A  
HETATM   15  N   UNL     1     -10.686   8.884  71.658  1.00  0.00    -0.321 NA 
HETATM   16  C   UNL     1     -10.045   8.682  69.346  1.00  0.00    -0.204 A  
HETATM   17  O   UNL     1      -9.550   9.213  67.089  1.00  0.00    -0.150 OA 
HETATM   18  C   UNL     1     -10.091   7.668  71.794  1.00  0.00    -0.173 A  
HETATM   19  N   UNL     1      -9.430   7.489  69.471  1.00  0.00    -0.156 NA 
HETATM   20  C   UNL     1      -9.485   6.991  70.730  1.00  0.00    -0.161 A  
BRANCH  12  21
HETATM   21  C   UNL     1     -10.801  11.873  67.686  1.00  0.00    -0.227 A  
HETATM   22 CL   UNL     1     -11.252  15.372  64.918  1.00  0.00    -0.421 Cl 
HETATM   23  C   UNL     1      -9.877  13.876  66.696  1.00  0.00    -0.288 A  
HETATM   24  C   UNL     1     -12.064  13.124  66.183  1.00  0.00    -0.417 A  
HETATM   25  N   UNL     1     -11.947  12.048  66.998  1.00  0.00    -0.606 NA 
HETATM   26  C   UNL     1      -9.752  12.786  67.563  1.00  0.00    -0.201 A  
HETATM   27  C   UNL     1     -11.058  14.050  65.993  1.00  0.00    -0.303 A  
ENDBRANCH  12  21
ENDBRANCH  10  11
ENDBRANCH   7  10
TORSDOF 3
ENDMDL
MODEL       42
REMARK 921   NORMALIZED FREE ENERGY PREDICTED BY IDOCK:   -6.14 KCAL/MOL
REMARK 922        TOTAL FREE ENERGY PREDICTED BY IDOCK:   -7.81 KCAL/MOL
REMARK 923 INTER-LIGAND FREE ENERGY PREDICTED BY IDOCK:   -8.64 KCAL/MOL
REMARK 924 INTRA-LIGAND FREE ENERGY PREDICTED BY IDOCK:    0.83 KCAL/MOL
REMARK 927      BINDING AFFINITY PREDICTED BY RF-SCORE:    0.00 PKD
ROOT
HETATM    1  C   UNL     1      -6.075  17.849  69.552  1.00  0.00    -0.249 C  
HETATM    2  N   UNL     1      -6.623  18.040  68.209  1.00  0.00    -0.196 NA 
HETATM    3  C   UNL     1      -6.447  16.826  67.381  1.00  0.00    -0.162 C  
HETATM    4  C   UNL     1      -7.384  15.662  67.755  1.00  0.00    -0.150 C  
HETATM    5  N   UNL     1      -8.777  16.103  67.788  1.00  0.00    -0.171 N  
HETATM    6  C   UNL     1      -9.028  17.278  68.620  1.00  0.00    -0.265 C  
HETATM    7  C   UNL     1      -9.678  15.511  66.928  1.00  0.00    -0.233 C  
HETATM    8  O   UNL     1      -9.345  14.648  66.125  1.00  0.00    -0.285 OA 
HETATM    9  C   UNL     1      -8.055  18.420  68.244  1.00  0.00    -0.298 C  
ENDROOT
BRANCH   7  10
HETATM   10  O   UNL     1     -10.957  15.939  67.074  1.00  0.00    -0.291 OA 
BRANCH  10  11
HETATM   11  C   UNL     1     -11.986  14.935  66.921  1.00  0.00    -0.100 C  
HETATM   12  N   UNL     1     -11.962  13.948  67.983  1.00  0.00    -0.374 N  
HETATM   13  C   UNL     1     -11.821  12.652  67.464  1.00  0.00    -0.334 C  
HETATM   14  C   UNL     1     -11.930  14.115  65.655  1.00  0.00    -0.396 A  
HETATM   15  N   UNL     1     -12.073  14.554  64.384  1.00  0.00    -0.486 NA 
HETATM   16  C   UNL     1     -11.819  12.780  65.992  1.00  0.00    -0.439 A  
HETATM   17  O   UNL     1     -11.787  11.576  68.034  1.00  0.00    -0.545 OA 
HETATM   18  C   UNL     1     -12.069  13.547  63.468  1.00  0.00    -0.364 A  
HETATM   19  N   UNL     1     -11.839  11.771  65.098  1.00  0.00    -0.192 NA 
HETATM   20  C   UNL     1     -11.952  12.198  63.817  1.00  0.00    -0.513 A  
BRANCH  12  21
HETATM   21  C   UNL     1     -12.110  14.254  69.347  1.00  0.00    -0.318 A  
HETATM   22 CL   UNL     1     -12.726  15.172  73.692  1.00  0.00    -0.658 Cl 
HETATM   23  C   UNL     1     -11.974  15.822  71.182  1.00  0.00    -0.469 A  
HETATM   24  C   UNL     1     -12.750  13.605  71.488  1.00  0.00    -0.332 A  
HETATM   25  N   UNL     1     -12.592  13.307  70.176  1.00  0.00    -0.121 NA 
HETATM   26  C   UNL     1     -11.777  15.520  69.831  1.00  0.00    -0.368 A  
HETATM   27  C   UNL     1     -12.469  14.843  72.029  1.00  0.00    -0.334 A  
ENDBRANCH  12  21
ENDBRANCH  10  11
ENDBRANCH   7  10
TORSDOF 3
ENDMDL
MODEL       43
REMARK 921   NORMALIZED FREE ENERGY PREDICTED BY IDOCK:   -6.10 KCAL/MOL
REMARK 922        TOTAL FREE ENERGY PREDICTED BY IDOCK:   -7.77 KCAL/MOL
REMARK 923 INTER-LIGAND FREE ENERGY PREDICTED BY IDOCK:   -7.44 KCAL/MOL
REMARK 924 INTRA-LIGAND FREE ENERGY PREDICTED BY IDOCK:   -0.34 KCAL/MOL
REMARK 927      BINDING AFFINITY PREDICTED BY RF-SCORE:    0.00 PKD
ROOT
HETATM    1  C   UNL     1     -12.876  11.647  63.772  1.00  0.00    -0.024 C  
HETATM    2  N   UNL     1     -11.924  12.563  63.143  1.00  0.00    -0.384 NA 
HETATM    3  C   UNL     1     -12.391  13.965  63.230  1.00  0.00     0.288 C  
HETATM    4  C   UNL     1     -12.280  14.585  64.635  1.00  0.00    -0.460 C  
HETATM    5  N   UNL     1     -10.930  14.426  65.171  1.00  0.00    -0.350 N  
HETATM    6  C   UNL     1     -10.420  13.055  65.151  1.00  0.00    -0.320 C  
HETATM    7  C   UNL     1     -10.202  15.556  65.476  1.00  0.00    -0.386 C  
HETATM    8  O   UNL     1     -10.641  16.685  65.292  1.00  0.00    -0.596 OA 
HETATM    9  C   UNL     1     -10.571  12.447  63.736  1.00  0.00    -0.452 C  
ENDROOT
BRANCH   7  10
HETATM   10  O   UNL     1      -8.986  15.310  66.026  1.00  0.00    -0.292 OA 
BRANCH  10  11
HETATM   11  C   UNL     1      -8.805  15.747  67.392  1.00  0.00    -0.186 C  
HETATM   12  N   UNL     1      -9.816  15.215  68.285  1.00  0.00    -0.219 N  
HETATM   13  C   UNL     1     -10.496  16.247  68.949  1.00  0.00    -0.273 C  
HETATM   14  C   UNL     1      -8.856  17.237  67.625  1.00  0.00    -0.220 A  
HETATM   15  N   UNL     1      -8.010  18.175  67.140  1.00  0.00    -0.216 NA 
HETATM   16  C   UNL     1      -9.862  17.514  68.529  1.00  0.00    -0.330 A  
HETATM   17  O   UNL     1     -11.380  16.195  69.785  1.00  0.00    -0.331 OA 
HETATM   18  C   UNL     1      -8.269  19.424  67.615  1.00  0.00    -0.294 A  
HETATM   19  N   UNL     1     -10.115  18.741  69.028  1.00  0.00    -0.345 NA 
HETATM   20  C   UNL     1      -9.293  19.696  68.529  1.00  0.00    -0.342 A  
BRANCH  12  21
HETATM   21  C   UNL     1     -10.046  13.843  68.487  1.00  0.00    -0.234 A  
HETATM   22 CL   UNL     1     -10.702   9.437  68.995  1.00  0.00    -0.232 Cl 
HETATM   23  C   UNL     1     -11.543  12.001  68.945  1.00  0.00    -0.377 A  
HETATM   24  C   UNL     1      -9.234  11.662  68.541  1.00  0.00    -0.163 A  
HETATM   25  N   UNL     1      -9.012  12.987  68.363  1.00  0.00    -0.166 NA 
HETATM   26  C   UNL     1     -11.324  13.374  68.794  1.00  0.00    -0.332 A  
HETATM   27  C   UNL     1     -10.476  11.127  68.819  1.00  0.00    -0.203 A  
ENDBRANCH  12  21
ENDBRANCH  10  11
ENDBRANCH   7  10
TORSDOF 3
ENDMDL
MODEL       44
REMARK 921   NORMALIZED FREE ENERGY PREDICTED BY IDOCK:   -6.08 KCAL/MOL
REMARK 922        TOTAL FREE ENERGY PREDICTED BY IDOCK:   -7.75 KCAL/MOL
REMARK 923 INTER-LIGAND FREE ENERGY PREDICTED BY IDOCK:   -7.40 KCAL/MOL
REMARK 924 INTRA-LIGAND FREE ENERGY PREDICTED BY IDOCK:   -0.35 KCAL/MOL
REMARK 927      BINDING AFFINITY PREDICTED BY RF-SCORE:    0.00 PKD
ROOT
HETATM    1  C   UNL     1     -12.275  15.077  63.999  1.00  0.00    -0.090 C  
HETATM    2  N   UNL     1     -12.768  13.766  64.421  1.00  0.00    -0.656 NA 
HETATM    3  C   UNL     1     -12.342  12.705  63.482  1.00  0.00    -0.496 C  
HETATM    4  C   UNL     1     -10.850  12.336  63.576  1.00  0.00    -0.454 C  
HETATM    5  N   UNL     1     -10.475  12.027  64.955  1.00  0.00    -0.276 N  
HETATM    6  C   UNL     1     -10.834  13.053  65.932  1.00  0.00    -0.272 C  
HETATM    7  C   UNL     1      -9.994  10.767  65.243  1.00  0.00    -0.282 C  
HETATM    8  O   UNL     1      -9.893   9.895  64.389  1.00  0.00    -0.236 OA 
HETATM    9  C   UNL     1     -12.329  13.426  65.795  1.00  0.00    -0.460 C  
ENDROOT
BRANCH   7  10
HETATM   10  O   UNL     1      -9.613  10.593  66.533  1.00  0.00    -0.172 OA 
BRANCH  10  11
HETATM   11  C   UNL     1     -10.618  10.067  67.429  1.00  0.00    -0.271 C  
HETATM   12  N   UNL     1     -10.557  10.667  68.747  1.00  0.00    -0.193 N  
HETATM   13  C   UNL     1     -10.390   9.688  69.739  1.00  0.00    -0.241 C  
HETATM   14  C   UNL     1     -10.558   8.583  67.696  1.00  0.00    -0.198 A  
HETATM   15  N   UNL     1     -10.727   7.579  66.806  1.00  0.00    -0.247 NA 
HETATM   16  C   UNL     1     -10.410   8.380  69.054  1.00  0.00    -0.218 A  
HETATM   17  O   UNL     1     -10.323   9.800  70.950  1.00  0.00    -0.286 OA 
HETATM   18  C   UNL     1     -10.710   6.346  67.382  1.00  0.00    -0.336 A  
HETATM   19  N   UNL     1     -10.416   7.166  69.642  1.00  0.00    -0.222 NA 
HETATM   20  C   UNL     1     -10.556   6.148  68.758  1.00  0.00    -0.273 A  
BRANCH  12  21
HETATM   21  C   UNL     1     -10.695  12.044  68.994  1.00  0.00    -0.136 A  
HETATM   22 CL   UNL     1     -10.998  16.432  69.863  1.00  0.00    -0.361 Cl 
HETATM   23  C   UNL     1     -12.002  13.929  69.756  1.00  0.00    -0.398 A  
HETATM   24  C   UNL     1      -9.763  14.177  69.026  1.00  0.00     0.009 A  
HETATM   25  N   UNL     1      -9.637  12.851  68.774  1.00  0.00     0.009 NA 
HETATM   26  C   UNL     1     -11.898  12.563  69.473  1.00  0.00    -0.375 A  
HETATM   27  C   UNL     1     -10.913  14.753  69.527  1.00  0.00    -0.266 A  
ENDBRANCH  12  21
ENDBRANCH  10  11
ENDBRANCH   7  10
TORSDOF 3
ENDMDL
MODEL       45
REMARK 921   NORMALIZED FREE ENERGY PREDICTED BY IDOCK:   -6.08 KCAL/MOL
REMARK 922        TOTAL FREE ENERGY PREDICTED BY IDOCK:   -7.75 KCAL/MOL
REMARK 923 INTER-LIGAND FREE ENERGY PREDICTED BY IDOCK:   -7.86 KCAL/MOL
REMARK 924 INTRA-LIGAND FREE ENERGY PREDICTED BY IDOCK:    0.11 KCAL/MOL
REMARK 927      BINDING AFFINITY PREDICTED BY RF-SCORE:    0.00 PKD
ROOT
HETATM    1  C   UNL     1      -8.828   4.820  74.369  1.00  0.00    -0.112 C  
HETATM    2  N   UNL     1      -8.684   5.381  73.025  1.00  0.00    -0.121 NA 
HETATM    3  C   UNL     1      -9.796   4.956  72.145  1.00  0.00    -0.173 C  
HETATM    4  C   UNL     1     -11.141   5.642  72.446  1.00  0.00    -0.271 C  
HETATM    5  N   UNL     1     -10.991   7.096  72.471  1.00  0.00    -0.257 N  
HETATM    6  C   UNL     1      -9.933   7.588  73.352  1.00  0.00    -0.323 C  
HETATM    7  C   UNL     1     -11.707   7.851  71.567  1.00  0.00    -0.283 C  
HETATM    8  O   UNL     1     -12.445   7.343  70.731  1.00  0.00    -0.218 OA 
HETATM    9  C   UNL     1      -8.601   6.860  73.049  1.00  0.00    -0.118 C  
ENDROOT
BRANCH   7  10
HETATM   10  O   UNL     1     -11.553   9.191  71.707  1.00  0.00    -0.349 OA 
BRANCH  10  11
HETATM   11  C   UNL     1     -10.760   9.850  70.694  1.00  0.00    -0.303 C  
HETATM   12  N   UNL     1     -11.511  10.855  69.966  1.00  0.00    -0.308 N  
HETATM   13  C   UNL     1     -11.498  10.594  68.587  1.00  0.00    -0.263 C  
HETATM   14  C   UNL     1     -10.190   8.963  69.615  1.00  0.00    -0.206 A  
HETATM   15  N   UNL     1      -9.294   7.961  69.761  1.00  0.00    -0.153 NA 
HETATM   16  C   UNL     1     -10.645   9.404  68.387  1.00  0.00    -0.204 A  
HETATM   17  O   UNL     1     -11.988  11.219  67.664  1.00  0.00    -0.634 OA 
HETATM   18  C   UNL     1      -8.906   7.414  68.577  1.00  0.00    -0.126 A  
HETATM   19  N   UNL     1     -10.250   8.889  67.205  1.00  0.00    -0.237 NA 
HETATM   20  C   UNL     1      -9.373   7.864  67.338  1.00  0.00    -0.141 A  
BRANCH  12  21
HETATM   21  C   UNL     1     -12.129  11.966  70.566  1.00  0.00    -0.331 A  
HETATM   22 CL   UNL     1     -13.956  15.577  72.495  1.00  0.00    -0.649 Cl 
HETATM   23  C   UNL     1     -13.610  12.914  72.225  1.00  0.00    -0.611 A  
HETATM   24  C   UNL     1     -12.394  14.273  70.714  1.00  0.00    -0.357 A  
HETATM   25  N   UNL     1     -11.812  13.200  70.126  1.00  0.00    -0.295 NA 
HETATM   26  C   UNL     1     -13.041  11.795  71.608  1.00  0.00    -0.443 A  
HETATM   27  C   UNL     1     -13.282  14.179  71.767  1.00  0.00    -0.373 A  
ENDBRANCH  12  21
ENDBRANCH  10  11
ENDBRANCH   7  10
TORSDOF 3
ENDMDL
MODEL       46
REMARK 921   NORMALIZED FREE ENERGY PREDICTED BY IDOCK:   -6.07 KCAL/MOL
REMARK 922        TOTAL FREE ENERGY PREDICTED BY IDOCK:   -7.74 KCAL/MOL
REMARK 923 INTER-LIGAND FREE ENERGY PREDICTED BY IDOCK:   -7.07 KCAL/MOL
REMARK 924 INTRA-LIGAND FREE ENERGY PREDICTED BY IDOCK:   -0.67 KCAL/MOL
REMARK 927      BINDING AFFINITY PREDICTED BY RF-SCORE:    0.00 PKD
ROOT
HETATM    1  C   UNL     1     -10.950  15.941  64.942  1.00  0.00    -0.411 C  
HETATM    2  N   UNL     1     -10.659  15.533  66.317  1.00  0.00    -0.301 NA 
HETATM    3  C   UNL     1     -11.855  14.956  66.969  1.00  0.00    -0.199 C  
HETATM    4  C   UNL     1     -12.228  13.546  66.476  1.00  0.00    -0.380 C  
HETATM    5  N   UNL     1     -11.079  12.645  66.549  1.00  0.00    -0.270 N  
HETATM    6  C   UNL     1      -9.871  13.139  65.889  1.00  0.00    -0.233 C  
HETATM    7  C   UNL     1     -11.164  11.528  67.353  1.00  0.00    -0.304 C  
HETATM    8  O   UNL     1     -12.159  11.279  68.022  1.00  0.00    -0.638 OA 
HETATM    9  C   UNL     1      -9.536  14.567  66.381  1.00  0.00    -0.303 C  
ENDROOT
BRANCH   7  10
HETATM   10  O   UNL     1     -10.076  10.720  67.308  1.00  0.00    -0.184 OA 
BRANCH  10  11
HETATM   11  C   UNL     1     -10.201   9.527  66.502  1.00  0.00    -0.237 C  
HETATM   12  N   UNL     1      -9.704   8.344  67.178  1.00  0.00    -0.173 N  
HETATM   13  C   UNL     1      -8.704   7.714  66.422  1.00  0.00    -0.151 C  
HETATM   14  C   UNL     1      -9.466   9.535  65.185  1.00  0.00    -0.236 A  
HETATM   15  N   UNL     1      -9.677  10.353  64.129  1.00  0.00    -0.318 NA 
HETATM   16  C   UNL     1      -8.581   8.474  65.161  1.00  0.00    -0.152 A  
HETATM   17  O   UNL     1      -8.075   6.695  66.644  1.00  0.00    -0.107 OA 
HETATM   18  C   UNL     1      -8.910  10.040  63.049  1.00  0.00    -0.234 A  
HETATM   19  N   UNL     1      -7.834   8.137  64.090  1.00  0.00    -0.136 NA 
HETATM   20  C   UNL     1      -8.014   8.966  63.034  1.00  0.00    -0.161 A  
BRANCH  12  21
HETATM   21  C   UNL     1     -10.198   7.873  68.407  1.00  0.00    -0.202 A  
HETATM   22 CL   UNL     1     -11.628   6.389  72.389  1.00  0.00    -0.321 Cl 
HETATM   23  C   UNL     1     -11.369   6.205  69.708  1.00  0.00    -0.452 A  
HETATM   24  C   UNL     1     -10.403   8.121  70.712  1.00  0.00    -0.196 A  
HETATM   25  N   UNL     1      -9.942   8.582  69.524  1.00  0.00    -0.189 NA 
HETATM   26  C   UNL     1     -10.926   6.683  68.471  1.00  0.00    -0.314 A  
HETATM   27  C   UNL     1     -11.104   6.940  70.853  1.00  0.00    -0.272 A  
ENDBRANCH  12  21
ENDBRANCH  10  11
ENDBRANCH   7  10
TORSDOF 3
ENDMDL
MODEL       47
REMARK 921   NORMALIZED FREE ENERGY PREDICTED BY IDOCK:   -6.01 KCAL/MOL
REMARK 922        TOTAL FREE ENERGY PREDICTED BY IDOCK:   -7.67 KCAL/MOL
REMARK 923 INTER-LIGAND FREE ENERGY PREDICTED BY IDOCK:   -8.02 KCAL/MOL
REMARK 924 INTRA-LIGAND FREE ENERGY PREDICTED BY IDOCK:    0.36 KCAL/MOL
REMARK 927      BINDING AFFINITY PREDICTED BY RF-SCORE:    0.00 PKD
ROOT
HETATM    1  C   UNL     1     -13.229  13.735  72.821  1.00  0.00    -0.387 C  
HETATM    2  N   UNL     1     -13.379  15.113  72.354  1.00  0.00    -0.382 NA 
HETATM    3  C   UNL     1     -12.101  15.854  72.451  1.00  0.00    -0.506 C  
HETATM    4  C   UNL     1     -11.055  15.456  71.394  1.00  0.00    -0.259 C  
HETATM    5  N   UNL     1     -11.621  15.521  70.048  1.00  0.00    -0.312 N  
HETATM    6  C   UNL     1     -12.867  14.777  69.871  1.00  0.00     0.014 C  
HETATM    7  C   UNL     1     -11.058  16.386  69.135  1.00  0.00    -0.303 C  
HETATM    8  O   UNL     1     -10.117  17.116  69.420  1.00  0.00    -0.226 OA 
HETATM    9  C   UNL     1     -13.889  15.174  70.963  1.00  0.00    -0.349 C  
ENDROOT
BRANCH   7  10
HETATM   10  O   UNL     1     -11.608  16.331  67.896  1.00  0.00    -0.145 OA 
BRANCH  10  11
HETATM   11  C   UNL     1     -10.780  16.803  66.809  1.00  0.00    -0.117 C  
HETATM   12  N   UNL     1      -9.656  15.925  66.546  1.00  0.00    -0.249 N  
HETATM   13  C   UNL     1      -8.441  16.621  66.637  1.00  0.00    -0.259 C  
HETATM   14  C   UNL     1     -10.151  18.162  66.995  1.00  0.00    -0.351 A  
HETATM   15  N   UNL     1     -10.782  19.351  67.120  1.00  0.00    -0.479 NA 
HETATM   16  C   UNL     1      -8.778  18.034  66.906  1.00  0.00    -0.251 A  
HETATM   17  O   UNL     1      -7.300  16.236  66.459  1.00  0.00    -0.214 OA 
HETATM   18  C   UNL     1      -9.926  20.407  67.176  1.00  0.00    -0.428 A  
HETATM   19  N   UNL     1      -7.919  19.073  66.934  1.00  0.00    -0.252 NA 
HETATM   20  C   UNL     1      -8.537  20.269  67.088  1.00  0.00    -0.338 A  
BRANCH  12  21
HETATM   21  C   UNL     1      -9.780  14.568  66.199  1.00  0.00    -0.316 A  
HETATM   22 CL   UNL     1     -10.017  10.225  65.113  1.00  0.00    -0.387 Cl 
HETATM   23  C   UNL     1     -10.554  12.838  64.700  1.00  0.00    -0.371 A  
HETATM   24  C   UNL     1      -9.299  12.335  66.644  1.00  0.00    -0.228 A  
HETATM   25  N   UNL     1      -9.195  13.642  66.985  1.00  0.00    -0.242 NA 
HETATM   26  C   UNL     1     -10.482  14.189  65.054  1.00  0.00    -0.447 A  
HETATM   27  C   UNL     1      -9.953  11.891  65.512  1.00  0.00    -0.238 A  
ENDBRANCH  12  21
ENDBRANCH  10  11
ENDBRANCH   7  10
TORSDOF 3
ENDMDL
MODEL       48
REMARK 921   NORMALIZED FREE ENERGY PREDICTED BY IDOCK:   -5.97 KCAL/MOL
REMARK 922        TOTAL FREE ENERGY PREDICTED BY IDOCK:   -7.62 KCAL/MOL
REMARK 923 INTER-LIGAND FREE ENERGY PREDICTED BY IDOCK:   -6.51 KCAL/MOL
REMARK 924 INTRA-LIGAND FREE ENERGY PREDICTED BY IDOCK:   -1.11 KCAL/MOL
REMARK 927      BINDING AFFINITY PREDICTED BY RF-SCORE:    0.00 PKD
ROOT
HETATM    1  C   UNL     1      -9.897   4.140  66.076  1.00  0.00    -0.196 C  
HETATM    2  N   UNL     1      -9.383   4.916  67.204  1.00  0.00    -0.124 NA 
HETATM    3  C   UNL     1      -8.359   5.889  66.763  1.00  0.00    -0.109 C  
HETATM    4  C   UNL     1      -8.922   7.101  65.998  1.00  0.00    -0.111 C  
HETATM    5  N   UNL     1      -9.995   7.744  66.755  1.00  0.00    -0.252 N  
HETATM    6  C   UNL     1     -11.062   6.844  67.190  1.00  0.00    -0.292 C  
HETATM    7  C   UNL     1      -9.837   9.058  67.139  1.00  0.00    -0.203 C  
HETATM    8  O   UNL     1      -8.822   9.696  66.887  1.00  0.00    -0.130 OA 
HETATM    9  C   UNL     1     -10.466   5.622  67.929  1.00  0.00    -0.211 C  
ENDROOT
BRANCH   7  10
HETATM   10  O   UNL     1     -10.908   9.589  67.781  1.00  0.00    -0.269 OA 
BRANCH  10  11
HETATM   11  C   UNL     1     -10.620  10.377  68.957  1.00  0.00    -0.221 C  
HETATM   12  N   UNL     1     -11.225   9.830  70.156  1.00  0.00    -0.260 N  
HETATM   13  C   UNL     1     -12.056  10.775  70.777  1.00  0.00    -0.372 C  
HETATM   14  C   UNL     1     -11.090  11.811  68.927  1.00  0.00    -0.243 A  
HETATM   15  N   UNL     1     -10.689  12.792  68.087  1.00  0.00    -0.219 NA 
HETATM   16  C   UNL     1     -11.943  12.023  69.993  1.00  0.00    -0.324 A  
HETATM   17  O   UNL     1     -12.706  10.696  71.804  1.00  0.00    -0.420 OA 
HETATM   18  C   UNL     1     -11.232  14.004  68.383  1.00  0.00    -0.266 A  
HETATM   19  N   UNL     1     -12.469  13.222  70.313  1.00  0.00    -0.235 NA 
HETATM   20  C   UNL     1     -12.098  14.209  69.462  1.00  0.00    -0.340 A  
BRANCH  12  21
HETATM   21  C   UNL     1     -10.970   8.539  70.649  1.00  0.00    -0.239 A  
HETATM   22 CL   UNL     1     -10.058   4.397  72.101  1.00  0.00    -0.254 Cl 
HETATM   23  C   UNL     1     -11.751   6.384  71.419  1.00  0.00    -0.364 A  
HETATM   24  C   UNL     1      -9.443   6.888  71.247  1.00  0.00    -0.165 A  
HETATM   25  N   UNL     1      -9.691   8.138  70.788  1.00  0.00    -0.169 NA 
HETATM   26  C   UNL     1     -12.023   7.682  70.974  1.00  0.00    -0.296 A  
HETATM   27  C   UNL     1     -10.434   5.979  71.561  1.00  0.00    -0.228 A  
ENDBRANCH  12  21
ENDBRANCH  10  11
ENDBRANCH   7  10
TORSDOF 3
ENDMDL
MODEL       49
REMARK 921   NORMALIZED FREE ENERGY PREDICTED BY IDOCK:   -5.91 KCAL/MOL
REMARK 922        TOTAL FREE ENERGY PREDICTED BY IDOCK:   -7.55 KCAL/MOL
REMARK 923 INTER-LIGAND FREE ENERGY PREDICTED BY IDOCK:   -6.90 KCAL/MOL
REMARK 924 INTRA-LIGAND FREE ENERGY PREDICTED BY IDOCK:   -0.64 KCAL/MOL
REMARK 927      BINDING AFFINITY PREDICTED BY RF-SCORE:    0.00 PKD
ROOT
HETATM    1  C   UNL     1      -6.458   7.493  71.227  1.00  0.00    -0.038 C  
HETATM    2  N   UNL     1      -7.287   7.544  70.023  1.00  0.00    -0.079 NA 
HETATM    3  C   UNL     1      -8.691   7.183  70.323  1.00  0.00    -0.144 C  
HETATM    4  C   UNL     1      -9.476   8.267  71.085  1.00  0.00    -0.164 C  
HETATM    5  N   UNL     1      -9.378   9.558  70.407  1.00  0.00    -0.258 N  
HETATM    6  C   UNL     1      -8.014   9.994  70.114  1.00  0.00    -0.101 C  
HETATM    7  C   UNL     1     -10.534  10.156  69.954  1.00  0.00    -0.275 C  
HETATM    8  O   UNL     1     -11.634   9.632  70.081  1.00  0.00    -0.226 OA 
HETATM    9  C   UNL     1      -7.239   8.876  69.375  1.00  0.00    -0.061 C  
ENDROOT
BRANCH   7  10
HETATM   10  O   UNL     1     -10.352  11.378  69.394  1.00  0.00    -0.100 OA 
BRANCH  10  11
HETATM   11  C   UNL     1     -11.551  12.083  69.000  1.00  0.00    -0.313 C  
HETATM   12  N   UNL     1     -11.372  12.848  67.781  1.00  0.00    -0.280 N  
HETATM   13  C   UNL     1     -11.673  14.203  67.987  1.00  0.00    -0.359 C  
HETATM   14  C   UNL     1     -12.086  13.088  69.990  1.00  0.00    -0.297 A  
HETATM   15  N   UNL     1     -12.555  12.848  71.236  1.00  0.00    -0.321 NA 
HETATM   16  C   UNL     1     -12.137  14.329  69.384  1.00  0.00    -0.318 A  
HETATM   17  O   UNL     1     -11.666  15.137  67.205  1.00  0.00    -0.295 OA 
HETATM   18  C   UNL     1     -13.058  13.958  71.841  1.00  0.00    -0.385 A  
HETATM   19  N   UNL     1     -12.655  15.431  69.961  1.00  0.00    -0.298 NA 
HETATM   20  C   UNL     1     -13.102  15.212  71.221  1.00  0.00    -0.441 A  
BRANCH  12  21
HETATM   21  C   UNL     1     -10.991  12.289  66.549  1.00  0.00    -0.279 A  
HETATM   22 CL   UNL     1      -9.640  10.588  62.627  1.00  0.00    -0.316 Cl 
HETATM   23  C   UNL     1     -11.453  11.783  64.230  1.00  0.00    -0.386 A  
HETATM   24  C   UNL     1      -9.384  11.228  65.241  1.00  0.00    -0.203 A  
HETATM   25  N   UNL     1      -9.759  11.753  66.433  1.00  0.00    -0.209 NA 
HETATM   26  C   UNL     1     -11.866  12.302  65.462  1.00  0.00    -0.420 A  
HETATM   27  C   UNL     1     -10.186  11.233  64.118  1.00  0.00    -0.335 A  
ENDBRANCH  12  21
ENDBRANCH  10  11
ENDBRANCH   7  10
TORSDOF 3
ENDMDL
MODEL       50
REMARK 921   NORMALIZED FREE ENERGY PREDICTED BY IDOCK:   -5.84 KCAL/MOL
REMARK 922        TOTAL FREE ENERGY PREDICTED BY IDOCK:   -7.47 KCAL/MOL
REMARK 923 INTER-LIGAND FREE ENERGY PREDICTED BY IDOCK:   -7.65 KCAL/MOL
REMARK 924 INTRA-LIGAND FREE ENERGY PREDICTED BY IDOCK:    0.18 KCAL/MOL
REMARK 927      BINDING AFFINITY PREDICTED BY RF-SCORE:    0.00 PKD
ROOT
HETATM    1  C   UNL     1      -7.331  16.567  67.927  1.00  0.00    -0.136 C  
HETATM    2  N   UNL     1      -8.545  16.578  68.743  1.00  0.00    -0.253 NA 
HETATM    3  C   UNL     1      -9.725  16.974  67.942  1.00  0.00    -0.263 C  
HETATM    4  C   UNL     1     -10.219  15.893  66.962  1.00  0.00    -0.283 C  
HETATM    5  N   UNL     1     -10.429  14.620  67.651  1.00  0.00    -0.242 N  
HETATM    6  C   UNL     1      -9.285  14.150  68.431  1.00  0.00    -0.203 C  
HETATM    7  C   UNL     1     -11.694  14.073  67.656  1.00  0.00    -0.377 C  
HETATM    8  O   UNL     1     -12.649  14.627  67.126  1.00  0.00     0.064 OA 
HETATM    9  C   UNL     1      -8.792  15.265  69.385  1.00  0.00    -0.220 C  
ENDROOT
BRANCH   7  10
HETATM   10  O   UNL     1     -11.779  12.862  68.263  1.00  0.00    -0.312 OA 
BRANCH  10  11
HETATM   11  C   UNL     1     -11.502  12.840  69.681  1.00  0.00    -0.185 C  
HETATM   12  N   UNL     1     -11.630  11.513  70.253  1.00  0.00    -0.274 N  
HETATM   13  C   UNL     1     -12.559  11.506  71.305  1.00  0.00    -0.347 C  
HETATM   14  C   UNL     1     -12.389  13.701  70.545  1.00  0.00    -0.355 A  
HETATM   15  N   UNL     1     -12.506  15.048  70.520  1.00  0.00    -0.349 NA 
HETATM   16  C   UNL     1     -13.013  12.901  71.483  1.00  0.00    -0.294 A  
HETATM   17  O   UNL     1     -12.911  10.597  72.035  1.00  0.00    -0.461 OA 
HETATM   18  C   UNL     1     -13.322  15.533  71.496  1.00  0.00    -0.509 A  
HETATM   19  N   UNL     1     -13.803  13.368  72.470  1.00  0.00    -0.738 NA 
HETATM   20  C   UNL     1     -13.953  14.714  72.439  1.00  0.00    -0.476 A  
BRANCH  12  21
HETATM   21  C   UNL     1     -10.886  10.398  69.832  1.00  0.00    -0.298 A  
HETATM   22 CL   UNL     1      -8.379   6.911  68.544  1.00  0.00    -0.120 Cl 
HETATM   23  C   UNL     1     -10.250   8.810  68.123  1.00  0.00    -0.250 A  
HETATM   24  C   UNL     1      -9.284   8.771  70.286  1.00  0.00    -0.174 A  
HETATM   25  N   UNL     1     -10.016   9.836  70.695  1.00  0.00    -0.223 NA 
HETATM   26  C   UNL     1     -11.033   9.892  68.540  1.00  0.00    -0.226 A  
HETATM   27  C   UNL     1      -9.359   8.236  69.015  1.00  0.00    -0.147 A  
ENDBRANCH  12  21
ENDBRANCH  10  11
ENDBRANCH   7  10
TORSDOF 3
ENDMDL
MODEL       51
REMARK 921   NORMALIZED FREE ENERGY PREDICTED BY IDOCK:   -5.82 KCAL/MOL
REMARK 922        TOTAL FREE ENERGY PREDICTED BY IDOCK:   -7.45 KCAL/MOL
REMARK 923 INTER-LIGAND FREE ENERGY PREDICTED BY IDOCK:   -6.79 KCAL/MOL
REMARK 924 INTRA-LIGAND FREE ENERGY PREDICTED BY IDOCK:   -0.65 KCAL/MOL
REMARK 927      BINDING AFFINITY PREDICTED BY RF-SCORE:    0.00 PKD
ROOT
HETATM    1  C   UNL     1     -11.755  15.394  64.212  1.00  0.00    -0.206 C  
HETATM    2  N   UNL     1     -12.489  14.183  64.579  1.00  0.00    -0.655 NA 
HETATM    3  C   UNL     1     -12.091  13.037  63.731  1.00  0.00    -0.502 C  
HETATM    4  C   UNL     1     -10.698  12.464  64.053  1.00  0.00    -0.404 C  
HETATM    5  N   UNL     1     -10.576  12.158  65.477  1.00  0.00    -0.268 N  
HETATM    6  C   UNL     1     -10.918  13.261  66.373  1.00  0.00    -0.289 C  
HETATM    7  C   UNL     1     -10.330  10.855  65.855  1.00  0.00    -0.250 C  
HETATM    8  O   UNL     1     -10.234   9.945  65.040  1.00  0.00    -0.221 OA 
HETATM    9  C   UNL     1     -12.308  13.837  66.009  1.00  0.00    -0.457 C  
ENDROOT
BRANCH   7  10
HETATM   10  O   UNL     1     -10.169  10.678  67.191  1.00  0.00    -0.198 OA 
BRANCH  10  11
HETATM   11  C   UNL     1      -9.050   9.857  67.594  1.00  0.00    -0.131 C  
HETATM   12  N   UNL     1      -9.020   9.622  69.024  1.00  0.00    -0.141 N  
HETATM   13  C   UNL     1      -7.803  10.048  69.579  1.00  0.00    -0.154 C  
HETATM   14  C   UNL     1      -7.679  10.403  67.280  1.00  0.00    -0.099 A  
HETATM   15  N   UNL     1      -7.149  10.645  66.060  1.00  0.00    -0.133 NA 
HETATM   16  C   UNL     1      -6.966  10.522  68.457  1.00  0.00    -0.066 A  
HETATM   17  O   UNL     1      -7.401   9.994  70.727  1.00  0.00    -0.323 OA 
HETATM   18  C   UNL     1      -5.849  11.045  66.112  1.00  0.00    -0.142 A  
HETATM   19  N   UNL     1      -5.671  10.893  68.522  1.00  0.00    -0.043 NA 
HETATM   20  C   UNL     1      -5.135  11.167  67.308  1.00  0.00    -0.047 A  
BRANCH  12  21
HETATM   21  C   UNL     1     -10.058   9.007  69.745  1.00  0.00    -0.200 A  
HETATM   22 CL   UNL     1     -13.420   6.978  71.908  1.00  0.00    -0.314 Cl 
HETATM   23  C   UNL     1     -11.911   9.129  71.293  1.00  0.00    -0.396 A  
HETATM   24  C   UNL     1     -11.291   7.097  70.245  1.00  0.00    -0.269 A  
HETATM   25  N   UNL     1     -10.280   7.689  69.564  1.00  0.00    -0.203 NA 
HETATM   26  C   UNL     1     -10.853   9.749  70.620  1.00  0.00    -0.396 A  
HETATM   27  C   UNL     1     -12.133   7.775  71.104  1.00  0.00    -0.286 A  
ENDBRANCH  12  21
ENDBRANCH  10  11
ENDBRANCH   7  10
TORSDOF 3
ENDMDL
MODEL       52
REMARK 921   NORMALIZED FREE ENERGY PREDICTED BY IDOCK:   -5.80 KCAL/MOL
REMARK 922        TOTAL FREE ENERGY PREDICTED BY IDOCK:   -7.42 KCAL/MOL
REMARK 923 INTER-LIGAND FREE ENERGY PREDICTED BY IDOCK:   -6.49 KCAL/MOL
REMARK 924 INTRA-LIGAND FREE ENERGY PREDICTED BY IDOCK:   -0.93 KCAL/MOL
REMARK 927      BINDING AFFINITY PREDICTED BY RF-SCORE:    0.00 PKD
ROOT
HETATM    1  C   UNL     1     -13.227  15.584  71.045  1.00  0.00    -0.474 C  
HETATM    2  N   UNL     1     -12.214  14.710  71.635  1.00  0.00    -0.339 NA 
HETATM    3  C   UNL     1     -12.796  13.849  72.688  1.00  0.00    -0.258 C  
HETATM    4  C   UNL     1     -13.680  12.705  72.154  1.00  0.00    -0.312 C  
HETATM    5  N   UNL     1     -12.970  11.926  71.142  1.00  0.00    -0.250 N  
HETATM    6  C   UNL     1     -12.401  12.714  70.050  1.00  0.00    -0.094 C  
HETATM    7  C   UNL     1     -12.747  10.586  71.376  1.00  0.00    -0.442 C  
HETATM    8  O   UNL     1     -13.103  10.034  72.410  1.00  0.00    -0.351 OA 
HETATM    9  C   UNL     1     -11.543  13.872  70.614  1.00  0.00    -0.001 C  
ENDROOT
BRANCH   7  10
HETATM   10  O   UNL     1     -12.139   9.931  70.354  1.00  0.00    -0.238 OA 
BRANCH  10  11
HETATM   11  C   UNL     1     -10.700   9.819  70.437  1.00  0.00    -0.308 C  
HETATM   12  N   UNL     1     -10.069   9.791  69.132  1.00  0.00    -0.181 N  
HETATM   13  C   UNL     1      -9.291   8.634  68.973  1.00  0.00    -0.146 C  
HETATM   14  C   UNL     1     -10.168   8.589  71.131  1.00  0.00    -0.214 A  
HETATM   15  N   UNL     1     -10.338   8.236  72.425  1.00  0.00    -0.311 NA 
HETATM   16  C   UNL     1      -9.356   7.898  70.253  1.00  0.00    -0.159 A  
HETATM   17  O   UNL     1      -8.599   8.274  68.038  1.00  0.00    -0.130 OA 
HETATM   18  C   UNL     1      -9.648   7.115  72.768  1.00  0.00    -0.152 A  
HETATM   19  N   UNL     1      -8.646   6.801  70.585  1.00  0.00    -0.141 NA 
HETATM   20  C   UNL     1      -8.829   6.418  71.872  1.00  0.00    -0.138 A  
BRANCH  12  21
HETATM   21  C   UNL     1     -10.189  10.814  68.176  1.00  0.00    -0.172 A  
HETATM   22 CL   UNL     1     -10.576  14.184  65.244  1.00  0.00    -0.359 Cl 
HETATM   23  C   UNL     1     -11.267  11.770  66.235  1.00  0.00    -0.370 A  
HETATM   24  C   UNL     1      -9.512  12.889  67.366  1.00  0.00    -0.198 A  
HETATM   25  N   UNL     1      -9.387  11.893  68.277  1.00  0.00    -0.191 NA 
HETATM   26  C   UNL     1     -11.131  10.721  67.150  1.00  0.00    -0.297 A  
HETATM   27  C   UNL     1     -10.440  12.876  66.343  1.00  0.00    -0.267 A  
ENDBRANCH  12  21
ENDBRANCH  10  11
ENDBRANCH   7  10
TORSDOF 3
ENDMDL
MODEL       53
REMARK 921   NORMALIZED FREE ENERGY PREDICTED BY IDOCK:   -5.80 KCAL/MOL
REMARK 922        TOTAL FREE ENERGY PREDICTED BY IDOCK:   -7.42 KCAL/MOL
REMARK 923 INTER-LIGAND FREE ENERGY PREDICTED BY IDOCK:   -6.50 KCAL/MOL
REMARK 924 INTRA-LIGAND FREE ENERGY PREDICTED BY IDOCK:   -0.92 KCAL/MOL
REMARK 927      BINDING AFFINITY PREDICTED BY RF-SCORE:    0.00 PKD
ROOT
HETATM    1  C   UNL     1      -7.346   5.597  65.123  1.00  0.00    -0.075 C  
HETATM    2  N   UNL     1      -6.707   6.856  65.506  1.00  0.00    -0.050 NA 
HETATM    3  C   UNL     1      -7.118   7.960  64.611  1.00  0.00    -0.076 C  
HETATM    4  C   UNL     1      -8.559   8.455  64.834  1.00  0.00    -0.080 C  
HETATM    5  N   UNL     1      -8.787   8.780  66.241  1.00  0.00    -0.148 N  
HETATM    6  C   UNL     1      -8.438   7.716  67.180  1.00  0.00    -0.121 C  
HETATM    7  C   UNL     1      -9.132  10.073  66.573  1.00  0.00    -0.148 C  
HETATM    8  O   UNL     1      -9.229  10.960  65.734  1.00  0.00    -0.186 OA 
HETATM    9  C   UNL     1      -6.997   7.217  66.914  1.00  0.00    -0.077 C  
ENDROOT
BRANCH   7  10
HETATM   10  O   UNL     1      -9.385  10.266  67.892  1.00  0.00    -0.137 OA 
BRANCH  10  11
HETATM   11  C   UNL     1     -10.777  10.259  68.280  1.00  0.00    -0.237 C  
HETATM   12  N   UNL     1     -11.286  11.590  68.550  1.00  0.00    -0.233 N  
HETATM   13  C   UNL     1     -11.812  11.676  69.848  1.00  0.00    -0.358 C  
HETATM   14  C   UNL     1     -11.116   9.476  69.525  1.00  0.00    -0.142 A  
HETATM   15  N   UNL     1     -10.985   8.144  69.721  1.00  0.00    -0.187 NA 
HETATM   16  C   UNL     1     -11.709  10.325  70.439  1.00  0.00    -0.319 A  
HETATM   17  O   UNL     1     -12.344  12.609  70.420  1.00  0.00    -0.312 OA 
HETATM   18  C   UNL     1     -11.472   7.730  70.922  1.00  0.00    -0.279 A  
HETATM   19  N   UNL     1     -12.218   9.926  71.622  1.00  0.00    -0.401 NA 
HETATM   20  C   UNL     1     -12.067   8.598  71.844  1.00  0.00    -0.356 A  
BRANCH  12  21
HETATM   21  C   UNL     1     -11.290  12.637  67.612  1.00  0.00    -0.310 A  
HETATM   22 CL   UNL     1     -11.293  15.870  64.506  1.00  0.00    -0.403 Cl 
HETATM   23  C   UNL     1     -10.405  14.730  66.785  1.00  0.00    -0.268 A  
HETATM   24  C   UNL     1     -12.132  13.570  65.653  1.00  0.00    -0.430 A  
HETATM   25  N   UNL     1     -12.138  12.569  66.567  1.00  0.00    -0.585 NA 
HETATM   26  C   UNL     1     -10.420  13.720  67.753  1.00  0.00    -0.240 A  
HETATM   27  C   UNL     1     -11.281  14.655  65.714  1.00  0.00    -0.336 A  
ENDBRANCH  12  21
ENDBRANCH  10  11
ENDBRANCH   7  10
TORSDOF 3
ENDMDL
MODEL       54
REMARK 921   NORMALIZED FREE ENERGY PREDICTED BY IDOCK:   -5.79 KCAL/MOL
REMARK 922        TOTAL FREE ENERGY PREDICTED BY IDOCK:   -7.41 KCAL/MOL
REMARK 923 INTER-LIGAND FREE ENERGY PREDICTED BY IDOCK:   -6.45 KCAL/MOL
REMARK 924 INTRA-LIGAND FREE ENERGY PREDICTED BY IDOCK:   -0.96 KCAL/MOL
REMARK 927      BINDING AFFINITY PREDICTED BY RF-SCORE:    0.00 PKD
ROOT
HETATM    1  C   UNL     1      -6.881   4.968  69.603  1.00  0.00    -0.052 C  
HETATM    2  N   UNL     1      -6.440   6.275  69.115  1.00  0.00    -0.041 NA 
HETATM    3  C   UNL     1      -6.909   6.517  67.732  1.00  0.00    -0.080 C  
HETATM    4  C   UNL     1      -8.414   6.820  67.616  1.00  0.00    -0.122 C  
HETATM    5  N   UNL     1      -8.800   7.902  68.520  1.00  0.00    -0.134 N  
HETATM    6  C   UNL     1      -8.401   7.708  69.914  1.00  0.00    -0.132 C  
HETATM    7  C   UNL     1      -9.330   9.055  67.983  1.00  0.00    -0.141 C  
HETATM    8  O   UNL     1      -9.467   9.211  66.775  1.00  0.00    -0.154 OA 
HETATM    9  C   UNL     1      -6.892   7.376  69.998  1.00  0.00    -0.055 C  
ENDROOT
BRANCH   7  10
HETATM   10  O   UNL     1      -9.717   9.977  68.901  1.00  0.00    -0.165 OA 
BRANCH  10  11
HETATM   11  C   UNL     1     -11.142  10.130  69.087  1.00  0.00    -0.212 C  
HETATM   12  N   UNL     1     -11.541  11.519  69.208  1.00  0.00    -0.292 N  
HETATM   13  C   UNL     1     -12.226  11.744  70.412  1.00  0.00    -0.330 C  
HETATM   14  C   UNL     1     -11.727   9.471  70.312  1.00  0.00    -0.117 A  
HETATM   15  N   UNL     1     -11.763   8.149  70.597  1.00  0.00    -0.205 NA 
HETATM   16  C   UNL     1     -12.346  10.434  71.085  1.00  0.00    -0.400 A  
HETATM   17  O   UNL     1     -12.731  12.761  70.851  1.00  0.00    -0.288 OA 
HETATM   18  C   UNL     1     -12.449   7.868  71.738  1.00  0.00    -0.323 A  
HETATM   19  N   UNL     1     -13.050  10.167  72.204  1.00  0.00    -0.419 NA 
HETATM   20  C   UNL     1     -13.070   8.849  72.518  1.00  0.00    -0.364 A  
BRANCH  12  21
HETATM   21  C   UNL     1     -11.308  12.495  68.224  1.00  0.00    -0.286 A  
HETATM   22 CL   UNL     1     -10.563  15.492  64.974  1.00  0.00    -0.449 Cl 
HETATM   23  C   UNL     1     -10.053  14.382  67.380  1.00  0.00    -0.243 A  
HETATM   24  C   UNL     1     -11.831  13.414  66.150  1.00  0.00    -0.385 A  
HETATM   25  N   UNL     1     -12.064  12.484  67.108  1.00  0.00    -0.495 NA 
HETATM   26  C   UNL     1     -10.301  13.448  68.391  1.00  0.00    -0.253 A  
HETATM   27  C   UNL     1     -10.835  14.366  66.237  1.00  0.00    -0.313 A  
ENDBRANCH  12  21
ENDBRANCH  10  11
ENDBRANCH   7  10
TORSDOF 3
ENDMDL
MODEL       55
REMARK 921   NORMALIZED FREE ENERGY PREDICTED BY IDOCK:   -5.79 KCAL/MOL
REMARK 922        TOTAL FREE ENERGY PREDICTED BY IDOCK:   -7.40 KCAL/MOL
REMARK 923 INTER-LIGAND FREE ENERGY PREDICTED BY IDOCK:   -6.54 KCAL/MOL
REMARK 924 INTRA-LIGAND FREE ENERGY PREDICTED BY IDOCK:   -0.86 KCAL/MOL
REMARK 927      BINDING AFFINITY PREDICTED BY RF-SCORE:    0.00 PKD
ROOT
HETATM    1  C   UNL     1      -6.102  10.279  68.184  1.00  0.00    -0.047 C  
HETATM    2  N   UNL     1      -7.167  10.675  67.262  1.00  0.00    -0.088 NA 
HETATM    3  C   UNL     1      -8.498  10.556  67.897  1.00  0.00    -0.119 C  
HETATM    4  C   UNL     1      -8.801  11.644  68.944  1.00  0.00     0.089 C  
HETATM    5  N   UNL     1      -8.579  12.978  68.390  1.00  0.00    -0.151 N  
HETATM    6  C   UNL     1      -7.265  13.177  67.779  1.00  0.00    -0.147 C  
HETATM    7  C   UNL     1      -9.641  13.854  68.328  1.00  0.00    -0.218 C  
HETATM    8  O   UNL     1     -10.767  13.544  68.700  1.00  0.00    -0.245 OA 
HETATM    9  C   UNL     1      -6.974  12.054  66.755  1.00  0.00     0.052 C  
ENDROOT
BRANCH   7  10
HETATM   10  O   UNL     1      -9.326  15.088  67.859  1.00  0.00    -0.181 OA 
BRANCH  10  11
HETATM   11  C   UNL     1     -10.439  15.959  67.560  1.00  0.00    -0.298 C  
HETATM   12  N   UNL     1     -10.808  15.929  66.158  1.00  0.00    -0.260 N  
HETATM   13  C   UNL     1     -10.761  17.214  65.597  1.00  0.00    -0.136 C  
HETATM   14  C   UNL     1     -10.234  17.424  67.856  1.00  0.00    -0.348 A  
HETATM   15  N   UNL     1     -10.021  17.999  69.062  1.00  0.00    -0.332 NA 
HETATM   16  C   UNL     1     -10.412  18.144  66.691  1.00  0.00    -0.339 A  
HETATM   17  O   UNL     1     -11.024  17.589  64.469  1.00  0.00    -0.744 OA 
HETATM   18  C   UNL     1      -9.972  19.357  69.006  1.00  0.00    -0.406 A  
HETATM   19  N   UNL     1     -10.392  19.491  66.624  1.00  0.00    -0.428 NA 
HETATM   20  C   UNL     1     -10.150  20.079  67.820  1.00  0.00    -0.424 A  
BRANCH  12  21
HETATM   21  C   UNL     1     -11.204  14.768  65.472  1.00  0.00    -0.346 A  
HETATM   22 CL   UNL     1     -12.398  11.122  63.151  1.00  0.00     0.536 Cl 
HETATM   23  C   UNL     1     -12.910  13.187  64.812  1.00  0.00    -0.298 A  
HETATM   24  C   UNL     1     -10.672  12.996  64.059  1.00  0.00    -0.357 A  
HETATM   25  N   UNL     1     -10.289  14.106  64.735  1.00  0.00    -0.421 NA 
HETATM   26  C   UNL     1     -12.523  14.318  65.539  1.00  0.00    -0.434 A  
HETATM   27  C   UNL     1     -11.965  12.511  64.058  1.00  0.00    -0.454 A  
ENDBRANCH  12  21
ENDBRANCH  10  11
ENDBRANCH   7  10
TORSDOF 3
ENDMDL
MODEL       56
REMARK 921   NORMALIZED FREE ENERGY PREDICTED BY IDOCK:   -5.75 KCAL/MOL
REMARK 922        TOTAL FREE ENERGY PREDICTED BY IDOCK:   -7.37 KCAL/MOL
REMARK 923 INTER-LIGAND FREE ENERGY PREDICTED BY IDOCK:   -6.68 KCAL/MOL
REMARK 924 INTRA-LIGAND FREE ENERGY PREDICTED BY IDOCK:   -0.69 KCAL/MOL
REMARK 927      BINDING AFFINITY PREDICTED BY RF-SCORE:    0.00 PKD
ROOT
HETATM    1  C   UNL     1      -8.587   7.422  69.860  1.00  0.00    -0.140 C  
HETATM    2  N   UNL     1      -8.947   7.998  68.564  1.00  0.00    -0.134 NA 
HETATM    3  C   UNL     1     -10.354   8.458  68.554  1.00  0.00    -0.200 C  
HETATM    4  C   UNL     1     -10.605   9.746  69.359  1.00  0.00    -0.228 C  
HETATM    5  N   UNL     1      -9.682  10.804  68.954  1.00  0.00    -0.195 N  
HETATM    6  C   UNL     1      -8.270  10.428  68.978  1.00  0.00    -0.141 C  
HETATM    7  C   UNL     1     -10.201  11.970  68.431  1.00  0.00    -0.209 C  
HETATM    8  O   UNL     1     -11.404  12.137  68.274  1.00  0.00    -0.244 OA 
HETATM    9  C   UNL     1      -8.050   9.116  68.187  1.00  0.00    -0.104 C  
ENDROOT
BRANCH   7  10
HETATM   10  O   UNL     1      -9.274  12.918  68.143  1.00  0.00    -0.204 OA 
BRANCH  10  11
HETATM   11  C   UNL     1      -9.166  13.302  66.754  1.00  0.00    -0.233 C  
HETATM   12  N   UNL     1      -9.989  14.450  66.429  1.00  0.00    -0.283 N  
HETATM   13  C   UNL     1     -10.882  14.152  65.388  1.00  0.00    -0.337 C  
HETATM   14  C   UNL     1      -9.573  12.258  65.743  1.00  0.00    -0.176 A  
HETATM   15  N   UNL     1      -8.998  11.054  65.525  1.00  0.00    -0.203 NA 
HETATM   16  C   UNL     1     -10.591  12.768  64.960  1.00  0.00    -0.308 A  
HETATM   17  O   UNL     1     -11.703  14.858  64.830  1.00  0.00    -0.382 OA 
HETATM   18  C   UNL     1      -9.541  10.384  64.472  1.00  0.00    -0.309 A  
HETATM   19  N   UNL     1     -11.122  12.128  63.898  1.00  0.00    -0.365 NA 
HETATM   20  C   UNL     1     -10.574  10.907  63.686  1.00  0.00    -0.156 A  
BRANCH  12  21
HETATM   21  C   UNL     1      -9.870  15.706  67.048  1.00  0.00    -0.233 A  
HETATM   22 CL   UNL     1      -9.647  19.727  69.019  1.00  0.00    -0.370 Cl 
HETATM   23  C   UNL     1      -8.898  17.917  67.163  1.00  0.00    -0.250 A  
HETATM   24  C   UNL     1     -10.551  17.199  68.700  1.00  0.00    -0.352 A  
HETATM   25  N   UNL     1     -10.652  15.982  68.111  1.00  0.00    -0.275 NA 
HETATM   26  C   UNL     1      -8.969  16.656  66.562  1.00  0.00    -0.310 A  
HETATM   27  C   UNL     1      -9.703  18.194  68.255  1.00  0.00    -0.337 A  
ENDBRANCH  12  21
ENDBRANCH  10  11
ENDBRANCH   7  10
TORSDOF 3
ENDMDL
MODEL       57
REMARK 921   NORMALIZED FREE ENERGY PREDICTED BY IDOCK:   -5.75 KCAL/MOL
REMARK 922        TOTAL FREE ENERGY PREDICTED BY IDOCK:   -7.37 KCAL/MOL
REMARK 923 INTER-LIGAND FREE ENERGY PREDICTED BY IDOCK:   -6.52 KCAL/MOL
REMARK 924 INTRA-LIGAND FREE ENERGY PREDICTED BY IDOCK:   -0.85 KCAL/MOL
REMARK 927      BINDING AFFINITY PREDICTED BY RF-SCORE:    0.00 PKD
ROOT
HETATM    1  C   UNL     1     -10.820   7.164  72.492  1.00  0.00    -0.264 C  
HETATM    2  N   UNL     1     -10.406   8.546  72.250  1.00  0.00    -0.332 NA 
HETATM    3  C   UNL     1      -8.983   8.618  71.852  1.00  0.00    -0.231 C  
HETATM    4  C   UNL     1      -8.699   8.129  70.420  1.00  0.00    -0.136 C  
HETATM    5  N   UNL     1      -9.569   8.802  69.457  1.00  0.00    -0.165 N  
HETATM    6  C   UNL     1     -10.996   8.736  69.770  1.00  0.00    -0.140 C  
HETATM    7  C   UNL     1      -8.992   9.566  68.465  1.00  0.00    -0.128 C  
HETATM    8  O   UNL     1      -7.779   9.718  68.380  1.00  0.00    -0.080 OA 
HETATM    9  C   UNL     1     -11.248   9.203  71.223  1.00  0.00    -0.337 C  
ENDROOT
BRANCH   7  10
HETATM   10  O   UNL     1      -9.873  10.098  67.582  1.00  0.00    -0.164 OA 
BRANCH  10  11
HETATM   11  C   UNL     1      -9.316  10.974  66.576  1.00  0.00    -0.180 C  
HETATM   12  N   UNL     1     -10.124  12.159  66.360  1.00  0.00    -0.216 N  
HETATM   13  C   UNL     1     -10.508  12.269  65.015  1.00  0.00    -0.290 C  
HETATM   14  C   UNL     1      -9.153  10.383  65.197  1.00  0.00    -0.198 A  
HETATM   15  N   UNL     1      -8.361   9.349  64.833  1.00  0.00    -0.140 NA 
HETATM   16  C   UNL     1      -9.871  11.146  64.297  1.00  0.00    -0.286 A  
HETATM   17  O   UNL     1     -11.159  13.130  64.452  1.00  0.00    -0.345 OA 
HETATM   18  C   UNL     1      -8.364   9.120  63.492  1.00  0.00    -0.188 A  
HETATM   19  N   UNL     1      -9.864  10.947  62.963  1.00  0.00    -0.333 NA 
HETATM   20  C   UNL     1      -9.097   9.895  62.586  1.00  0.00    -0.286 A  
BRANCH  12  21
HETATM   21  C   UNL     1     -10.437  13.092  67.363  1.00  0.00    -0.242 A  
HETATM   22 CL   UNL     1     -11.283  16.075  70.602  1.00  0.00    -0.390 Cl 
HETATM   23  C   UNL     1     -11.752  13.772  69.275  1.00  0.00    -0.376 A  
HETATM   24  C   UNL     1      -9.987  15.109  68.434  1.00  0.00    -0.222 A  
HETATM   25  N   UNL     1      -9.697  14.215  67.457  1.00  0.00    -0.230 NA 
HETATM   26  C   UNL     1     -11.485  12.854  68.254  1.00  0.00    -0.348 A  
HETATM   27  C   UNL     1     -10.989  14.925  69.365  1.00  0.00    -0.271 A  
ENDBRANCH  12  21
ENDBRANCH  10  11
ENDBRANCH   7  10
TORSDOF 3
ENDMDL
MODEL       58
REMARK 921   NORMALIZED FREE ENERGY PREDICTED BY IDOCK:   -5.73 KCAL/MOL
REMARK 922        TOTAL FREE ENERGY PREDICTED BY IDOCK:   -7.34 KCAL/MOL
REMARK 923 INTER-LIGAND FREE ENERGY PREDICTED BY IDOCK:   -6.49 KCAL/MOL
REMARK 924 INTRA-LIGAND FREE ENERGY PREDICTED BY IDOCK:   -0.85 KCAL/MOL
REMARK 927      BINDING AFFINITY PREDICTED BY RF-SCORE:    0.00 PKD
ROOT
HETATM    1  C   UNL     1     -10.465   6.159  71.655  1.00  0.00    -0.222 C  
HETATM    2  N   UNL     1     -11.559   6.631  70.807  1.00  0.00    -0.356 NA 
HETATM    3  C   UNL     1     -11.719   8.099  70.906  1.00  0.00    -0.244 C  
HETATM    4  C   UNL     1     -10.622   8.907  70.188  1.00  0.00    -0.222 C  
HETATM    5  N   UNL     1     -10.471   8.467  68.802  1.00  0.00    -0.210 N  
HETATM    6  C   UNL     1     -10.270   7.029  68.635  1.00  0.00    -0.176 C  
HETATM    7  C   UNL     1     -10.698   9.377  67.792  1.00  0.00    -0.229 C  
HETATM    8  O   UNL     1     -11.043  10.530  68.016  1.00  0.00    -0.266 OA 
HETATM    9  C   UNL     1     -11.368   6.242  69.389  1.00  0.00    -0.378 C  
ENDROOT
BRANCH   7  10
HETATM   10  O   UNL     1     -10.472   8.896  66.543  1.00  0.00    -0.238 OA 
BRANCH  10  11
HETATM   11  C   UNL     1      -9.226   9.288  65.925  1.00  0.00    -0.219 C  
HETATM   12  N   UNL     1      -9.423  10.031  64.696  1.00  0.00    -0.290 N  
HETATM   13  C   UNL     1      -8.770   9.410  63.621  1.00  0.00    -0.202 C  
HETATM   14  C   UNL     1      -8.298   8.165  65.532  1.00  0.00    -0.153 A  
HETATM   15  N   UNL     1      -7.692   7.273  66.348  1.00  0.00    -0.091 NA 
HETATM   16  C   UNL     1      -8.053   8.243  64.175  1.00  0.00    -0.136 A  
HETATM   17  O   UNL     1      -8.685   9.746  62.453  1.00  0.00    -0.179 OA 
HETATM   18  C   UNL     1      -6.837   6.443  65.692  1.00  0.00    -0.052 A  
HETATM   19  N   UNL     1      -7.189   7.445  63.515  1.00  0.00    -0.070 NA 
HETATM   20  C   UNL     1      -6.597   6.526  64.316  1.00  0.00    -0.037 A  
BRANCH  12  21
HETATM   21  C   UNL     1     -10.137  11.239  64.612  1.00  0.00    -0.290 A  
HETATM   22 CL   UNL     1     -12.392  15.091  64.185  1.00  0.00    -0.362 Cl 
HETATM   23  C   UNL     1     -10.522  13.516  65.328  1.00  0.00    -0.345 A  
HETATM   24  C   UNL     1     -11.791  12.521  63.593  1.00  0.00    -0.530 A  
HETATM   25  N   UNL     1     -11.113  11.352  63.688  1.00  0.00    -0.385 NA 
HETATM   26  C   UNL     1      -9.832  12.306  65.458  1.00  0.00    -0.223 A  
HETATM   27  C   UNL     1     -11.524  13.626  64.378  1.00  0.00    -0.386 A  
ENDBRANCH  12  21
ENDBRANCH  10  11
ENDBRANCH   7  10
TORSDOF 3
ENDMDL
MODEL       59
REMARK 921   NORMALIZED FREE ENERGY PREDICTED BY IDOCK:   -5.72 KCAL/MOL
REMARK 922        TOTAL FREE ENERGY PREDICTED BY IDOCK:   -7.33 KCAL/MOL
REMARK 923 INTER-LIGAND FREE ENERGY PREDICTED BY IDOCK:   -6.41 KCAL/MOL
REMARK 924 INTRA-LIGAND FREE ENERGY PREDICTED BY IDOCK:   -0.92 KCAL/MOL
REMARK 927      BINDING AFFINITY PREDICTED BY RF-SCORE:    0.00 PKD
ROOT
HETATM    1  C   UNL     1      -8.315  11.877  66.722  1.00  0.00    -0.153 C  
HETATM    2  N   UNL     1      -9.444  11.404  67.523  1.00  0.00    -0.166 NA 
HETATM    3  C   UNL     1     -10.383  10.603  66.707  1.00  0.00    -0.245 C  
HETATM    4  C   UNL     1      -9.867   9.199  66.342  1.00  0.00    -0.280 C  
HETATM    5  N   UNL     1      -9.429   8.477  67.535  1.00  0.00    -0.146 N  
HETATM    6  C   UNL     1      -8.468   9.197  68.369  1.00  0.00    -0.128 C  
HETATM    7  C   UNL     1     -10.061   7.297  67.863  1.00  0.00    -0.177 C  
HETATM    8  O   UNL     1     -10.991   6.848  67.204  1.00  0.00    -0.361 OA 
HETATM    9  C   UNL     1      -8.998  10.614  68.695  1.00  0.00    -0.170 C  
ENDROOT
BRANCH   7  10
HETATM   10  O   UNL     1      -9.546   6.666  68.949  1.00  0.00    -0.131 OA 
BRANCH  10  11
HETATM   11  C   UNL     1     -10.438   5.770  69.648  1.00  0.00    -0.293 C  
HETATM   12  N   UNL     1     -10.810   6.265  70.959  1.00  0.00    -0.258 N  
HETATM   13  C   UNL     1     -10.479   5.339  71.960  1.00  0.00    -0.222 C  
HETATM   14  C   UNL     1      -9.910   4.381  69.914  1.00  0.00    -0.220 A  
HETATM   15  N   UNL     1      -9.568   3.441  69.004  1.00  0.00    -0.125 NA 
HETATM   16  C   UNL     1      -9.927   4.151  71.276  1.00  0.00    -0.146 A  
HETATM   17  O   UNL     1     -10.657   5.387  73.164  1.00  0.00    -0.202 OA 
HETATM   18  C   UNL     1      -9.218   2.254  69.568  1.00  0.00    -0.117 A  
HETATM   19  N   UNL     1      -9.607   2.973  71.848  1.00  0.00    -0.141 NA 
HETATM   20  C   UNL     1      -9.235   2.030  70.949  1.00  0.00    -0.113 A  
BRANCH  12  21
HETATM   21  C   UNL     1     -11.457   7.492  71.183  1.00  0.00    -0.273 A  
HETATM   22 CL   UNL     1     -13.410  11.444  72.002  1.00  0.00    -0.518 Cl 
HETATM   23  C   UNL     1     -13.443   8.760  71.727  1.00  0.00    -0.436 A  
HETATM   24  C   UNL     1     -11.350   9.810  71.372  1.00  0.00    -0.337 A  
HETATM   25  N   UNL     1     -10.730   8.627  71.140  1.00  0.00    -0.226 NA 
HETATM   26  C   UNL     1     -12.825   7.534  71.460  1.00  0.00    -0.397 A  
HETATM   27  C   UNL     1     -12.691   9.922  71.680  1.00  0.00    -0.429 A  
ENDBRANCH  12  21
ENDBRANCH  10  11
ENDBRANCH   7  10
TORSDOF 3
ENDMDL
MODEL       60
REMARK 921   NORMALIZED FREE ENERGY PREDICTED BY IDOCK:   -5.60 KCAL/MOL
REMARK 922        TOTAL FREE ENERGY PREDICTED BY IDOCK:   -7.19 KCAL/MOL
REMARK 923 INTER-LIGAND FREE ENERGY PREDICTED BY IDOCK:   -6.18 KCAL/MOL
REMARK 924 INTRA-LIGAND FREE ENERGY PREDICTED BY IDOCK:   -1.01 KCAL/MOL
REMARK 927      BINDING AFFINITY PREDICTED BY RF-SCORE:    0.00 PKD
ROOT
HETATM    1  C   UNL     1      -6.703   8.782  64.524  1.00  0.00    -0.070 C  
HETATM    2  N   UNL     1      -7.806   7.881  64.860  1.00  0.00    -0.119 NA 
HETATM    3  C   UNL     1      -7.467   7.026  66.019  1.00  0.00    -0.080 C  
HETATM    4  C   UNL     1      -7.464   7.763  67.371  1.00  0.00    -0.093 C  
HETATM    5  N   UNL     1      -8.719   8.485  67.575  1.00  0.00    -0.135 N  
HETATM    6  C   UNL     1      -9.096   9.379  66.482  1.00  0.00    -0.153 C  
HETATM    7  C   UNL     1      -9.508   8.148  68.655  1.00  0.00    -0.147 C  
HETATM    8  O   UNL     1      -9.203   7.252  69.432  1.00  0.00    -0.149 OA 
HETATM    9  C   UNL     1      -9.061   8.621  65.133  1.00  0.00     0.017 C  
ENDROOT
BRANCH   7  10
HETATM   10  O   UNL     1     -10.619   8.913  68.799  1.00  0.00    -0.214 OA 
BRANCH  10  11
HETATM   11  C   UNL     1     -10.582   9.897  69.856  1.00  0.00    -0.273 C  
HETATM   12  N   UNL     1     -11.463   9.563  70.958  1.00  0.00    -0.319 N  
HETATM   13  C   UNL     1     -12.384  10.594  71.199  1.00  0.00    -0.400 C  
HETATM   14  C   UNL     1     -10.987  11.300  69.473  1.00  0.00    -0.191 A  
HETATM   15  N   UNL     1     -10.373  12.122  68.593  1.00  0.00    -0.218 NA 
HETATM   16  C   UNL     1     -12.054  11.687  70.260  1.00  0.00    -0.358 A  
HETATM   17  O   UNL     1     -13.253  10.690  72.046  1.00  0.00    -0.473 OA 
HETATM   18  C   UNL     1     -10.930  13.363  68.542  1.00  0.00    -0.268 A  
HETATM   19  N   UNL     1     -12.601  12.919  70.239  1.00  0.00    -0.090 NA 
HETATM   20  C   UNL     1     -12.013  13.746  69.340  1.00  0.00    -0.347 A  
BRANCH  12  21
HETATM   21  C   UNL     1     -11.370   8.379  71.711  1.00  0.00    -0.300 A  
HETATM   22 CL   UNL     1     -10.918   4.598  74.077  1.00  0.00    -0.329 Cl 
HETATM   23  C   UNL     1     -12.135   6.146  72.231  1.00  0.00    -0.237 A  
HETATM   24  C   UNL     1     -10.282   7.121  73.339  1.00  0.00    -0.325 A  
HETATM   25  N   UNL     1     -10.384   8.267  72.624  1.00  0.00    -0.322 NA 
HETATM   26  C   UNL     1     -12.271   7.334  71.506  1.00  0.00    -0.387 A  
HETATM   27  C   UNL     1     -11.121   6.037  73.168  1.00  0.00    -0.203 A  
ENDBRANCH  12  21
ENDBRANCH  10  11
ENDBRANCH   7  10
TORSDOF 3
ENDMDL
MODEL       61
REMARK 921   NORMALIZED FREE ENERGY PREDICTED BY IDOCK:   -5.60 KCAL/MOL
REMARK 922        TOTAL FREE ENERGY PREDICTED BY IDOCK:   -7.18 KCAL/MOL
REMARK 923 INTER-LIGAND FREE ENERGY PREDICTED BY IDOCK:   -6.23 KCAL/MOL
REMARK 924 INTRA-LIGAND FREE ENERGY PREDICTED BY IDOCK:   -0.95 KCAL/MOL
REMARK 927      BINDING AFFINITY PREDICTED BY RF-SCORE:    0.00 PKD
ROOT
HETATM    1  C   UNL     1     -11.070   6.063  72.768  1.00  0.00    -0.269 C  
HETATM    2  N   UNL     1     -12.147   6.845  72.161  1.00  0.00    -0.275 NA 
HETATM    3  C   UNL     1     -12.064   8.269  72.554  1.00  0.00    -0.337 C  
HETATM    4  C   UNL     1     -10.921   9.049  71.878  1.00  0.00    -0.353 C  
HETATM    5  N   UNL     1     -10.965   8.886  70.426  1.00  0.00    -0.240 N  
HETATM    6  C   UNL     1     -11.010   7.498  69.966  1.00  0.00    -0.240 C  
HETATM    7  C   UNL     1     -11.135  10.005  69.640  1.00  0.00    -0.259 C  
HETATM    8  O   UNL     1     -11.272  11.125  70.118  1.00  0.00    -0.250 OA 
HETATM    9  C   UNL     1     -12.147   6.732  70.683  1.00  0.00    -0.314 C  
ENDROOT
BRANCH   7  10
HETATM   10  O   UNL     1     -11.099   9.765  68.305  1.00  0.00    -0.203 OA 
BRANCH  10  11
HETATM   11  C   UNL     1      -9.836  10.009  67.647  1.00  0.00    -0.162 C  
HETATM   12  N   UNL     1      -9.880  11.161  66.768  1.00  0.00    -0.196 N  
HETATM   13  C   UNL     1      -9.516  10.810  65.459  1.00  0.00    -0.210 C  
HETATM   14  C   UNL     1      -9.318   8.895  66.771  1.00  0.00    -0.175 A  
HETATM   15  N   UNL     1      -8.958   7.648  67.150  1.00  0.00    -0.123 NA 
HETATM   16  C   UNL     1      -9.150   9.379  65.487  1.00  0.00    -0.218 A  
HETATM   17  O   UNL     1      -9.410  11.500  64.461  1.00  0.00    -0.143 OA 
HETATM   18  C   UNL     1      -8.437   6.909  66.133  1.00  0.00    -0.136 A  
HETATM   19  N   UNL     1      -8.612   8.667  64.476  1.00  0.00    -0.124 NA 
HETATM   20  C   UNL     1      -8.274   7.406  64.835  1.00  0.00    -0.077 A  
BRANCH  12  21
HETATM   21  C   UNL     1     -10.200  12.463  67.190  1.00  0.00    -0.216 A  
HETATM   22 CL   UNL     1     -11.266  16.650  68.387  1.00  0.00    -0.316 Cl 
HETATM   23  C   UNL     1      -9.611  14.519  68.317  1.00  0.00    -0.212 A  
HETATM   24  C   UNL     1     -11.698  14.245  67.229  1.00  0.00    -0.395 A  
HETATM   25  N   UNL     1     -11.393  12.983  66.838  1.00  0.00    -0.296 NA 
HETATM   26  C   UNL     1      -9.294  13.208  67.946  1.00  0.00    -0.215 A  
HETATM   27  C   UNL     1     -10.839  15.048  67.953  1.00  0.00    -0.280 A  
ENDBRANCH  12  21
ENDBRANCH  10  11
ENDBRANCH   7  10
TORSDOF 3
ENDMDL
MODEL       62
REMARK 921   NORMALIZED FREE ENERGY PREDICTED BY IDOCK:   -5.58 KCAL/MOL
REMARK 922        TOTAL FREE ENERGY PREDICTED BY IDOCK:   -7.16 KCAL/MOL
REMARK 923 INTER-LIGAND FREE ENERGY PREDICTED BY IDOCK:   -7.24 KCAL/MOL
REMARK 924 INTRA-LIGAND FREE ENERGY PREDICTED BY IDOCK:    0.08 KCAL/MOL
REMARK 927      BINDING AFFINITY PREDICTED BY RF-SCORE:    0.00 PKD
ROOT
HETATM    1  C   UNL     1      -8.411   7.148  69.516  1.00  0.00    -0.133 C  
HETATM    2  N   UNL     1      -9.843   7.265  69.787  1.00  0.00    -0.176 NA 
HETATM    3  C   UNL     1     -10.099   8.155  70.942  1.00  0.00    -0.188 C  
HETATM    4  C   UNL     1      -9.885   9.651  70.650  1.00  0.00    -0.200 C  
HETATM    5  N   UNL     1     -10.636  10.065  69.466  1.00  0.00    -0.227 N  
HETATM    6  C   UNL     1     -10.400   9.250  68.275  1.00  0.00    -0.217 C  
HETATM    7  C   UNL     1     -11.602  11.039  69.602  1.00  0.00    -0.318 C  
HETATM    8  O   UNL     1     -11.867  11.550  70.684  1.00  0.00    -0.328 OA 
HETATM    9  C   UNL     1     -10.592   7.751  68.604  1.00  0.00    -0.120 C  
ENDROOT
BRANCH   7  10
HETATM   10  O   UNL     1     -12.201  11.403  68.440  1.00  0.00    -0.571 OA 
BRANCH  10  11
HETATM   11  C   UNL     1     -11.983  12.765  68.011  1.00  0.00    -0.264 C  
HETATM   12  N   UNL     1     -10.734  12.930  67.294  1.00  0.00    -0.243 N  
HETATM   13  C   UNL     1      -9.925  13.900  67.906  1.00  0.00    -0.242 C  
HETATM   14  C   UNL     1     -11.921  13.804  69.104  1.00  0.00    -0.361 A  
HETATM   15  N   UNL     1     -12.905  14.159  69.960  1.00  0.00    -0.113 NA 
HETATM   16  C   UNL     1     -10.701  14.450  69.037  1.00  0.00    -0.250 A  
HETATM   17  O   UNL     1      -8.831  14.327  67.585  1.00  0.00    -0.177 OA 
HETATM   18  C   UNL     1     -12.563  15.200  70.767  1.00  0.00    -0.393 A  
HETATM   19  N   UNL     1     -10.357  15.498  69.812  1.00  0.00    -0.294 NA 
HETATM   20  C   UNL     1     -11.324  15.846  70.695  1.00  0.00    -0.397 A  
BRANCH  12  21
HETATM   21  C   UNL     1     -10.404  12.238  66.116  1.00  0.00    -0.242 A  
HETATM   22 CL   UNL     1      -9.506   9.992  62.341  1.00  0.00    -0.290 Cl 
HETATM   23  C   UNL     1      -9.065  10.611  64.930  1.00  0.00    -0.231 A  
HETATM   24  C   UNL     1     -10.831  11.783  63.873  1.00  0.00    -0.404 A  
HETATM   25  N   UNL     1     -11.137  12.462  65.006  1.00  0.00    -0.295 NA 
HETATM   26  C   UNL     1      -9.349  11.325  66.099  1.00  0.00    -0.230 A  
HETATM   27  C   UNL     1      -9.820  10.847  63.793  1.00  0.00    -0.337 A  
ENDBRANCH  12  21
ENDBRANCH  10  11
ENDBRANCH   7  10
TORSDOF 3
ENDMDL
MODEL       63
REMARK 921   NORMALIZED FREE ENERGY PREDICTED BY IDOCK:   -5.57 KCAL/MOL
REMARK 922        TOTAL FREE ENERGY PREDICTED BY IDOCK:   -7.15 KCAL/MOL
REMARK 923 INTER-LIGAND FREE ENERGY PREDICTED BY IDOCK:   -6.69 KCAL/MOL
REMARK 924 INTRA-LIGAND FREE ENERGY PREDICTED BY IDOCK:   -0.46 KCAL/MOL
REMARK 927      BINDING AFFINITY PREDICTED BY RF-SCORE:    0.00 PKD
ROOT
HETATM    1  C   UNL     1      -5.153  13.711  67.843  1.00  0.00    -0.076 C  
HETATM    2  N   UNL     1      -5.143  12.249  67.811  1.00  0.00    -0.070 NA 
HETATM    3  C   UNL     1      -5.344  11.682  69.163  1.00  0.00    -0.047 C  
HETATM    4  C   UNL     1      -6.784  11.804  69.695  1.00  0.00    -0.034 C  
HETATM    5  N   UNL     1      -7.744  11.270  68.730  1.00  0.00    -0.134 N  
HETATM    6  C   UNL     1      -7.626  11.817  67.380  1.00  0.00    -0.143 C  
HETATM    7  C   UNL     1      -8.536  10.206  69.107  1.00  0.00    -0.165 C  
HETATM    8  O   UNL     1      -8.446   9.682  70.210  1.00  0.00    -0.189 OA 
HETATM    9  C   UNL     1      -6.164  11.708  66.883  1.00  0.00    -0.149 C  
ENDROOT
BRANCH   7  10
HETATM   10  O   UNL     1      -9.440   9.820  68.171  1.00  0.00    -0.135 OA 
BRANCH  10  11
HETATM   11  C   UNL     1     -10.824   9.820  68.584  1.00  0.00    -0.188 C  
HETATM   12  N   UNL     1     -11.323  11.153  68.858  1.00  0.00    -0.250 N  
HETATM   13  C   UNL     1     -11.825  11.245  70.165  1.00  0.00    -0.364 C  
HETATM   14  C   UNL     1     -11.143   9.042  69.837  1.00  0.00    -0.142 A  
HETATM   15  N   UNL     1     -11.013   7.711  70.035  1.00  0.00    -0.251 NA 
HETATM   16  C   UNL     1     -11.716   9.897  70.759  1.00  0.00    -0.341 A  
HETATM   17  O   UNL     1     -12.344  12.182  70.743  1.00  0.00    -0.376 OA 
HETATM   18  C   UNL     1     -11.479   7.303  71.247  1.00  0.00    -0.276 A  
HETATM   19  N   UNL     1     -12.206   9.503  71.952  1.00  0.00    -0.374 NA 
HETATM   20  C   UNL     1     -12.055   8.175  72.177  1.00  0.00    -0.357 A  
BRANCH  12  21
HETATM   21  C   UNL     1     -11.340  12.197  67.917  1.00  0.00    -0.300 A  
HETATM   22 CL   UNL     1     -11.344  15.425  64.805  1.00  0.00    -0.411 Cl 
HETATM   23  C   UNL     1     -10.720  14.433  67.236  1.00  0.00    -0.285 A  
HETATM   24  C   UNL     1     -11.944  12.988  65.812  1.00  0.00    -0.429 A  
HETATM   25  N   UNL     1     -11.940  11.989  66.728  1.00  0.00    -0.610 NA 
HETATM   26  C   UNL     1     -10.734  13.422  68.203  1.00  0.00    -0.267 A  
HETATM   27  C   UNL     1     -11.340  14.213  66.017  1.00  0.00    -0.330 A  
ENDBRANCH  12  21
ENDBRANCH  10  11
ENDBRANCH   7  10
TORSDOF 3
ENDMDL
MODEL       64
REMARK 921   NORMALIZED FREE ENERGY PREDICTED BY IDOCK:   -5.57 KCAL/MOL
REMARK 922        TOTAL FREE ENERGY PREDICTED BY IDOCK:   -7.15 KCAL/MOL
REMARK 923 INTER-LIGAND FREE ENERGY PREDICTED BY IDOCK:   -6.24 KCAL/MOL
REMARK 924 INTRA-LIGAND FREE ENERGY PREDICTED BY IDOCK:   -0.91 KCAL/MOL
REMARK 927      BINDING AFFINITY PREDICTED BY RF-SCORE:    0.00 PKD
ROOT
HETATM    1  C   UNL     1     -12.307  15.241  64.538  1.00  0.00    -0.133 C  
HETATM    2  N   UNL     1     -11.227  14.258  64.458  1.00  0.00    -0.354 NA 
HETATM    3  C   UNL     1     -10.117  14.607  65.373  1.00  0.00    -0.372 C  
HETATM    4  C   UNL     1     -10.423  14.365  66.863  1.00  0.00    -0.269 C  
HETATM    5  N   UNL     1     -10.904  13.002  67.083  1.00  0.00    -0.257 N  
HETATM    6  C   UNL     1     -12.028  12.605  66.237  1.00  0.00    -0.374 C  
HETATM    7  C   UNL     1     -10.179  12.171  67.910  1.00  0.00    -0.198 C  
HETATM    8  O   UNL     1      -9.136  12.528  68.445  1.00  0.00    -0.194 OA 
HETATM    9  C   UNL     1     -11.705  12.886  64.750  1.00  0.00    -0.346 C  
ENDROOT
BRANCH   7  10
HETATM   10  O   UNL     1     -10.735  10.949  68.105  1.00  0.00    -0.186 OA 
BRANCH  10  11
HETATM   11  C   UNL     1     -10.456  10.318  69.375  1.00  0.00    -0.236 C  
HETATM   12  N   UNL     1     -10.057   8.931  69.231  1.00  0.00    -0.197 N  
HETATM   13  C   UNL     1     -10.900   8.085  69.968  1.00  0.00    -0.235 C  
HETATM   14  C   UNL     1     -11.600  10.273  70.359  1.00  0.00    -0.328 A  
HETATM   15  N   UNL     1     -12.228  11.320  70.939  1.00  0.00    -0.371 NA 
HETATM   16  C   UNL     1     -11.856   8.955  70.685  1.00  0.00    -0.128 A  
HETATM   17  O   UNL     1     -10.868   6.877  70.115  1.00  0.00    -0.239 OA 
HETATM   18  C   UNL     1     -13.158  10.943  71.858  1.00  0.00    -0.432 A  
HETATM   19  N   UNL     1     -12.756   8.567  71.611  1.00  0.00    -0.322 NA 
HETATM   20  C   UNL     1     -13.414   9.606  72.180  1.00  0.00    -0.429 A  
BRANCH  12  21
HETATM   21  C   UNL     1      -8.944   8.504  68.487  1.00  0.00    -0.139 A  
HETATM   22 CL   UNL     1      -5.473   7.012  66.073  1.00  0.00    -0.026 Cl 
HETATM   23  C   UNL     1      -6.582   8.017  68.319  1.00  0.00    -0.056 A  
HETATM   24  C   UNL     1      -8.061   7.667  66.503  1.00  0.00    -0.119 A  
HETATM   25  N   UNL     1      -9.131   8.095  67.217  1.00  0.00    -0.136 NA 
HETATM   26  C   UNL     1      -7.671   8.489  69.059  1.00  0.00    -0.096 A  
HETATM   27  C   UNL     1      -6.780   7.599  67.013  1.00  0.00    -0.067 A  
ENDBRANCH  12  21
ENDBRANCH  10  11
ENDBRANCH   7  10
TORSDOF 3
ENDMDL
MODEL       65
REMARK 921   NORMALIZED FREE ENERGY PREDICTED BY IDOCK:   -5.56 KCAL/MOL
REMARK 922        TOTAL FREE ENERGY PREDICTED BY IDOCK:   -7.14 KCAL/MOL
REMARK 923 INTER-LIGAND FREE ENERGY PREDICTED BY IDOCK:   -6.44 KCAL/MOL
REMARK 924 INTRA-LIGAND FREE ENERGY PREDICTED BY IDOCK:   -0.70 KCAL/MOL
REMARK 927      BINDING AFFINITY PREDICTED BY RF-SCORE:    0.00 PKD
ROOT
HETATM    1  C   UNL     1     -12.048   7.891  70.611  1.00  0.00     0.013 C  
HETATM    2  N   UNL     1     -10.893   8.766  70.812  1.00  0.00    -0.224 NA 
HETATM    3  C   UNL     1      -9.796   8.430  69.876  1.00  0.00    -0.186 C  
HETATM    4  C   UNL     1     -10.051   8.859  68.420  1.00  0.00    -0.189 C  
HETATM    5  N   UNL     1     -10.415  10.273  68.348  1.00  0.00    -0.189 N  
HETATM    6  C   UNL     1     -11.520  10.667  69.221  1.00  0.00    -0.281 C  
HETATM    7  C   UNL     1      -9.609  11.128  67.627  1.00  0.00    -0.170 C  
HETATM    8  O   UNL     1      -8.588  10.747  67.067  1.00  0.00    -0.128 OA 
HETATM    9  C   UNL     1     -11.252  10.197  70.671  1.00  0.00    -0.340 C  
ENDROOT
BRANCH   7  10
HETATM   10  O   UNL     1     -10.059  12.406  67.565  1.00  0.00    -0.199 OA 
BRANCH  10  11
HETATM   11  C   UNL     1      -9.810  13.109  66.327  1.00  0.00    -0.283 C  
HETATM   12  N   UNL     1      -9.722  14.545  66.510  1.00  0.00    -0.273 N  
HETATM   13  C   UNL     1     -10.655  15.214  65.704  1.00  0.00    -0.356 C  
HETATM   14  C   UNL     1     -10.848  12.938  65.245  1.00  0.00    -0.292 A  
HETATM   15  N   UNL     1     -11.192  11.797  64.607  1.00  0.00    -0.307 NA 
HETATM   16  C   UNL     1     -11.344  14.181  64.902  1.00  0.00    -0.365 A  
HETATM   17  O   UNL     1     -10.862  16.406  65.566  1.00  0.00    -0.307 OA 
HETATM   18  C   UNL     1     -12.097  11.994  63.610  1.00  0.00    -0.527 A  
HETATM   19  N   UNL     1     -12.221  14.395  63.901  1.00  0.00    -0.657 NA 
HETATM   20  C   UNL     1     -12.597  13.256  63.271  1.00  0.00     0.043 A  
BRANCH  12  21
HETATM   21  C   UNL     1      -8.790  15.176  67.352  1.00  0.00    -0.186 A  
HETATM   22 CL   UNL     1      -5.764  17.048  70.080  1.00  0.00    -0.225 Cl 
HETATM   23  C   UNL     1      -8.263  16.758  69.103  1.00  0.00    -0.098 A  
HETATM   24  C   UNL     1      -6.602  15.386  68.118  1.00  0.00    -0.133 A  
HETATM   25  N   UNL     1      -7.499  14.790  67.296  1.00  0.00    -0.189 NA 
HETATM   26  C   UNL     1      -9.196  16.173  68.240  1.00  0.00    -0.197 A  
HETATM   27  C   UNL     1      -6.938  16.358  69.039  1.00  0.00    -0.200 A  
ENDBRANCH  12  21
ENDBRANCH  10  11
ENDBRANCH   7  10
TORSDOF 3
ENDMDL
MODEL       66
REMARK 921   NORMALIZED FREE ENERGY PREDICTED BY IDOCK:   -5.55 KCAL/MOL
REMARK 922        TOTAL FREE ENERGY PREDICTED BY IDOCK:   -7.13 KCAL/MOL
REMARK 923 INTER-LIGAND FREE ENERGY PREDICTED BY IDOCK:   -6.20 KCAL/MOL
REMARK 924 INTRA-LIGAND FREE ENERGY PREDICTED BY IDOCK:   -0.93 KCAL/MOL
REMARK 927      BINDING AFFINITY PREDICTED BY RF-SCORE:    0.00 PKD
ROOT
HETATM    1  C   UNL     1     -14.349  14.240  72.427  1.00  0.00    -0.303 C  
HETATM    2  N   UNL     1     -12.961  13.785  72.350  1.00  0.00    -0.363 NA 
HETATM    3  C   UNL     1     -12.698  13.083  71.074  1.00  0.00    -0.262 C  
HETATM    4  C   UNL     1     -12.615  14.008  69.846  1.00  0.00    -0.142 C  
HETATM    5  N   UNL     1     -11.668  15.097  70.075  1.00  0.00    -0.284 N  
HETATM    6  C   UNL     1     -11.894  15.859  71.302  1.00  0.00    -0.449 C  
HETATM    7  C   UNL     1     -10.573  15.206  69.244  1.00  0.00    -0.253 C  
HETATM    8  O   UNL     1     -10.357  14.409  68.339  1.00  0.00    -0.231 OA 
HETATM    9  C   UNL     1     -12.003  14.904  72.514  1.00  0.00    -0.265 C  
ENDROOT
BRANCH   7  10
HETATM   10  O   UNL     1      -9.784  16.282  69.492  1.00  0.00    -0.224 OA 
BRANCH  10  11
HETATM   11  C   UNL     1      -8.802  16.598  68.481  1.00  0.00    -0.235 C  
HETATM   12  N   UNL     1      -7.442  16.400  68.945  1.00  0.00    -0.202 N  
HETATM   13  C   UNL     1      -6.691  17.579  68.822  1.00  0.00    -0.225 C  
HETATM   14  C   UNL     1      -8.813  18.016  67.965  1.00  0.00    -0.275 A  
HETATM   15  N   UNL     1      -9.806  18.640  67.292  1.00  0.00    -0.308 NA 
HETATM   16  C   UNL     1      -7.571  18.581  68.186  1.00  0.00    -0.274 A  
HETATM   17  O   UNL     1      -5.521  17.795  69.079  1.00  0.00    -0.175 OA 
HETATM   18  C   UNL     1      -9.468  19.891  66.879  1.00  0.00    -0.386 A  
HETATM   19  N   UNL     1      -7.213  19.809  67.761  1.00  0.00    -0.267 NA 
HETATM   20  C   UNL     1      -8.209  20.458  67.110  1.00  0.00    -0.320 A  
BRANCH  12  21
HETATM   21  C   UNL     1      -6.939  15.173  69.411  1.00  0.00    -0.178 A  
HETATM   22 CL   UNL     1      -5.208  11.336  70.955  1.00  0.00    -0.113 Cl 
HETATM   23  C   UNL     1      -6.329  12.864  69.033  1.00  0.00    -0.100 A  
HETATM   24  C   UNL     1      -6.004  13.915  71.131  1.00  0.00    -0.135 A  
HETATM   25  N   UNL     1      -6.505  15.092  70.685  1.00  0.00     0.031 NA 
HETATM   26  C   UNL     1      -6.876  14.064  68.566  1.00  0.00    -0.104 A  
HETATM   27  C   UNL     1      -5.886  12.787  70.344  1.00  0.00    -0.153 A  
ENDBRANCH  12  21
ENDBRANCH  10  11
ENDBRANCH   7  10
TORSDOF 3
ENDMDL
MODEL       67
REMARK 921   NORMALIZED FREE ENERGY PREDICTED BY IDOCK:   -5.49 KCAL/MOL
REMARK 922        TOTAL FREE ENERGY PREDICTED BY IDOCK:   -7.05 KCAL/MOL
REMARK 923 INTER-LIGAND FREE ENERGY PREDICTED BY IDOCK:   -6.60 KCAL/MOL
REMARK 924 INTRA-LIGAND FREE ENERGY PREDICTED BY IDOCK:   -0.45 KCAL/MOL
REMARK 927      BINDING AFFINITY PREDICTED BY RF-SCORE:    0.00 PKD
ROOT
HETATM    1  C   UNL     1     -12.364  13.622  63.628  1.00  0.00    -0.265 C  
HETATM    2  N   UNL     1     -12.877  13.296  64.959  1.00  0.00    -0.727 NA 
HETATM    3  C   UNL     1     -12.273  12.048  65.476  1.00  0.00     0.163 C  
HETATM    4  C   UNL     1     -10.804  12.190  65.917  1.00  0.00    -0.278 C  
HETATM    5  N   UNL     1     -10.645  13.301  66.853  1.00  0.00    -0.263 N  
HETATM    6  C   UNL     1     -11.187  14.577  66.387  1.00  0.00    -0.341 C  
HETATM    7  C   UNL     1     -10.176  13.035  68.122  1.00  0.00    -0.239 C  
HETATM    8  O   UNL     1      -9.912  11.899  68.496  1.00  0.00    -0.207 OA 
HETATM    9  C   UNL     1     -12.652  14.400  65.923  1.00  0.00    -0.254 C  
ENDROOT
BRANCH   7  10
HETATM   10  O   UNL     1     -10.001  14.134  68.898  1.00  0.00    -0.210 OA 
BRANCH  10  11
HETATM   11  C   UNL     1     -11.205  14.786  69.361  1.00  0.00    -0.284 C  
HETATM   12  N   UNL     1     -10.955  16.121  69.869  1.00  0.00    -0.340 N  
HETATM   13  C   UNL     1     -11.403  16.248  71.193  1.00  0.00    -0.246 C  
HETATM   14  C   UNL     1     -11.944  14.097  70.482  1.00  0.00    -0.323 A  
HETATM   15  N   UNL     1     -12.531  12.879  70.454  1.00  0.00    -0.228 NA 
HETATM   16  C   UNL     1     -12.038  14.964  71.553  1.00  0.00    -0.348 A  
HETATM   17  O   UNL     1     -11.391  17.212  71.937  1.00  0.00     0.297 OA 
HETATM   18  C   UNL     1     -13.203  12.584  71.601  1.00  0.00    -0.284 A  
HETATM   19  N   UNL     1     -12.721  14.695  72.685  1.00  0.00    -0.371 NA 
HETATM   20  C   UNL     1     -13.290  13.466  72.683  1.00  0.00    -0.392 A  
BRANCH  12  21
HETATM   21  C   UNL     1     -10.382  17.157  69.113  1.00  0.00    -0.297 A  
HETATM   22 CL   UNL     1      -8.496  20.527  66.835  1.00  0.00    -0.309 Cl 
HETATM   23  C   UNL     1     -10.569  18.920  67.468  1.00  0.00    -0.524 A  
HETATM   24  C   UNL     1      -8.536  18.481  68.602  1.00  0.00    -0.296 A  
HETATM   25  N   UNL     1      -9.087  17.470  69.318  1.00  0.00     0.096 NA 
HETATM   26  C   UNL     1     -11.144  17.860  68.178  1.00  0.00     0.173 A  
HETATM   27  C   UNL     1      -9.237  19.235  67.683  1.00  0.00    -0.304 A  
ENDBRANCH  12  21
ENDBRANCH  10  11
ENDBRANCH   7  10
TORSDOF 3
ENDMDL
MODEL       68
REMARK 921   NORMALIZED FREE ENERGY PREDICTED BY IDOCK:   -5.47 KCAL/MOL
REMARK 922        TOTAL FREE ENERGY PREDICTED BY IDOCK:   -7.03 KCAL/MOL
REMARK 923 INTER-LIGAND FREE ENERGY PREDICTED BY IDOCK:   -6.51 KCAL/MOL
REMARK 924 INTRA-LIGAND FREE ENERGY PREDICTED BY IDOCK:   -0.52 KCAL/MOL
REMARK 927      BINDING AFFINITY PREDICTED BY RF-SCORE:    0.00 PKD
ROOT
HETATM    1  C   UNL     1     -11.735  12.000  65.681  1.00  0.00    -0.246 C  
HETATM    2  N   UNL     1     -10.333  12.284  65.373  1.00  0.00    -0.263 NA 
HETATM    3  C   UNL     1     -10.205  13.488  64.522  1.00  0.00    -0.269 C  
HETATM    4  C   UNL     1     -10.464  14.816  65.257  1.00  0.00    -0.404 C  
HETATM    5  N   UNL     1      -9.646  14.913  66.465  1.00  0.00    -0.260 N  
HETATM    6  C   UNL     1      -9.755  13.771  67.372  1.00  0.00    -0.235 C  
HETATM    7  C   UNL     1      -8.738  15.945  66.568  1.00  0.00    -0.315 C  
HETATM    8  O   UNL     1      -8.579  16.766  65.674  1.00  0.00    -0.415 OA 
HETATM    9  C   UNL     1      -9.520  12.449  66.601  1.00  0.00    -0.232 C  
ENDROOT
BRANCH   7  10
HETATM   10  O   UNL     1      -8.071  15.990  67.748  1.00  0.00    -0.138 OA 
BRANCH  10  11
HETATM   11  C   UNL     1      -8.186  17.220  68.498  1.00  0.00    -0.267 C  
HETATM   12  N   UNL     1      -9.564  17.634  68.678  1.00  0.00    -0.304 N  
HETATM   13  C   UNL     1      -9.772  18.927  68.173  1.00  0.00    -0.347 C  
HETATM   14  C   UNL     1      -7.513  18.430  67.898  1.00  0.00    -0.236 A  
HETATM   15  N   UNL     1      -6.191  18.610  67.675  1.00  0.00    -0.190 NA 
HETATM   16  C   UNL     1      -8.460  19.416  67.700  1.00  0.00    -0.304 A  
HETATM   17  O   UNL     1     -10.776  19.616  68.165  1.00  0.00    -0.358 OA 
HETATM   18  C   UNL     1      -5.892  19.854  67.211  1.00  0.00    -0.178 A  
HETATM   19  N   UNL     1      -8.176  20.660  67.265  1.00  0.00    -0.306 NA 
HETATM   20  C   UNL     1      -6.858  20.846  67.010  1.00  0.00    -0.333 A  
BRANCH  12  21
HETATM   21  C   UNL     1     -10.545  16.855  69.316  1.00  0.00    -0.325 A  
HETATM   22 CL   UNL     1     -13.784  14.466  71.290  1.00  0.00    -0.396 Cl 
HETATM   23  C   UNL     1     -11.446  15.815  71.303  1.00  0.00    -0.481 A  
HETATM   24  C   UNL     1     -12.553  15.684  69.214  1.00  0.00     0.282 A  
HETATM   25  N   UNL     1     -11.598  16.421  68.596  1.00  0.00    -0.238 NA 
HETATM   26  C   UNL     1     -10.438  16.551  70.674  1.00  0.00     0.669 A  
HETATM   27  C   UNL     1     -12.526  15.370  70.558  1.00  0.00    -0.422 A  
ENDBRANCH  12  21
ENDBRANCH  10  11
ENDBRANCH   7  10
TORSDOF 3
ENDMDL
MODEL       69
REMARK 921   NORMALIZED FREE ENERGY PREDICTED BY IDOCK:   -5.46 KCAL/MOL
REMARK 922        TOTAL FREE ENERGY PREDICTED BY IDOCK:   -7.02 KCAL/MOL
REMARK 923 INTER-LIGAND FREE ENERGY PREDICTED BY IDOCK:   -6.86 KCAL/MOL
REMARK 924 INTRA-LIGAND FREE ENERGY PREDICTED BY IDOCK:   -0.16 KCAL/MOL
REMARK 927      BINDING AFFINITY PREDICTED BY RF-SCORE:    0.00 PKD
ROOT
HETATM    1  C   UNL     1      -7.274  10.322  63.309  1.00  0.00    -0.102 C  
HETATM    2  N   UNL     1      -7.773   9.472  64.390  1.00  0.00    -0.117 NA 
HETATM    3  C   UNL     1      -7.041   9.724  65.651  1.00  0.00    -0.105 C  
HETATM    4  C   UNL     1      -7.399  11.055  66.337  1.00  0.00    -0.128 C  
HETATM    5  N   UNL     1      -8.845  11.180  66.511  1.00  0.00    -0.165 N  
HETATM    6  C   UNL     1      -9.629  10.981  65.293  1.00  0.00    -0.227 C  
HETATM    7  C   UNL     1      -9.350  11.295  67.789  1.00  0.00    -0.163 C  
HETATM    8  O   UNL     1      -8.631  11.272  68.781  1.00  0.00    -0.158 OA 
HETATM    9  C   UNL     1      -9.228   9.652  64.609  1.00  0.00    -0.234 C  
ENDROOT
BRANCH   7  10
HETATM   10  O   UNL     1     -10.694  11.470  67.849  1.00  0.00    -0.185 OA 
BRANCH  10  11
HETATM   11  C   UNL     1     -11.442  10.437  68.527  1.00  0.00    -0.162 C  
HETATM   12  N   UNL     1     -11.538  10.666  69.956  1.00  0.00    -0.297 N  
HETATM   13  C   UNL     1     -11.027   9.576  70.677  1.00  0.00    -0.306 C  
HETATM   14  C   UNL     1     -10.890   9.036  68.415  1.00  0.00    -0.011 A  
HETATM   15  N   UNL     1     -10.750   8.294  67.294  1.00  0.00    -0.249 NA 
HETATM   16  C   UNL     1     -10.639   8.553  69.685  1.00  0.00    -0.220 A  
HETATM   17  O   UNL     1     -10.961   9.391  71.879  1.00  0.00    -0.325 OA 
HETATM   18  C   UNL     1     -10.311   7.030  67.541  1.00  0.00    -0.225 A  
HETATM   19  N   UNL     1     -10.229   7.295  69.947  1.00  0.00    -0.201 NA 
HETATM   20  C   UNL     1     -10.056   6.549  68.830  1.00  0.00    -0.161 A  
BRANCH  12  21
HETATM   21  C   UNL     1     -12.111  11.813  70.533  1.00  0.00    -0.347 A  
HETATM   22 CL   UNL     1     -13.794  15.535  72.381  1.00  0.00    -0.630 Cl 
HETATM   23  C   UNL     1     -13.507  12.857  72.208  1.00  0.00    -0.631 A  
HETATM   24  C   UNL     1     -12.329  14.129  70.594  1.00  0.00    -0.365 A  
HETATM   25  N   UNL     1     -11.791  13.022  70.029  1.00  0.00    -0.314 NA 
HETATM   26  C   UNL     1     -12.983  11.702  71.617  1.00  0.00    -0.483 A  
HETATM   27  C   UNL     1     -13.175  14.096  71.685  1.00  0.00    -0.353 A  
ENDBRANCH  12  21
ENDBRANCH  10  11
ENDBRANCH   7  10
TORSDOF 3
ENDMDL
MODEL       70
REMARK 921   NORMALIZED FREE ENERGY PREDICTED BY IDOCK:   -5.46 KCAL/MOL
REMARK 922        TOTAL FREE ENERGY PREDICTED BY IDOCK:   -7.02 KCAL/MOL
REMARK 923 INTER-LIGAND FREE ENERGY PREDICTED BY IDOCK:   -6.02 KCAL/MOL
REMARK 924 INTRA-LIGAND FREE ENERGY PREDICTED BY IDOCK:   -0.99 KCAL/MOL
REMARK 927      BINDING AFFINITY PREDICTED BY RF-SCORE:    0.00 PKD
ROOT
HETATM    1  C   UNL     1     -12.109  15.202  64.277  1.00  0.00    -0.261 C  
HETATM    2  N   UNL     1     -12.680  13.874  64.499  1.00  0.00    -0.662 NA 
HETATM    3  C   UNL     1     -12.158  12.895  63.520  1.00  0.00    -0.555 C  
HETATM    4  C   UNL     1     -10.699  12.468  63.766  1.00  0.00    -0.445 C  
HETATM    5  N   UNL     1     -10.513  12.014  65.143  1.00  0.00    -0.278 N  
HETATM    6  C   UNL     1     -10.974  12.952  66.165  1.00  0.00    -0.281 C  
HETATM    7  C   UNL     1     -10.100  10.717  65.362  1.00  0.00    -0.291 C  
HETATM    8  O   UNL     1      -9.907   9.929  64.444  1.00  0.00    -0.236 OA 
HETATM    9  C   UNL     1     -12.431  13.387  65.877  1.00  0.00    -0.408 C  
ENDROOT
BRANCH   7  10
HETATM   10  O   UNL     1      -9.894  10.405  66.666  1.00  0.00    -0.187 OA 
BRANCH  10  11
HETATM   11  C   UNL     1      -8.544  10.040  67.028  1.00  0.00    -0.125 C  
HETATM   12  N   UNL     1      -8.475   8.756  67.697  1.00  0.00    -0.124 N  
HETATM   13  C   UNL     1      -7.865   8.875  68.956  1.00  0.00    -0.091 C  
HETATM   14  C   UNL     1      -7.829  10.983  67.965  1.00  0.00    -0.112 A  
HETATM   15  N   UNL     1      -7.493  12.273  67.737  1.00  0.00    -0.114 NA 
HETATM   16  C   UNL     1      -7.452  10.286  69.097  1.00  0.00    -0.105 A  
HETATM   17  O   UNL     1      -7.609   8.024  69.788  1.00  0.00    -0.087 OA 
HETATM   18  C   UNL     1      -6.766  12.822  68.748  1.00  0.00    -0.093 A  
HETATM   19  N   UNL     1      -6.711  10.810  70.095  1.00  0.00    -0.200 NA 
HETATM   20  C   UNL     1      -6.391  12.111  69.892  1.00  0.00    -0.074 A  
BRANCH  12  21
HETATM   21  C   UNL     1      -8.920   7.548  67.133  1.00  0.00    -0.126 A  
HETATM   22 CL   UNL     1     -10.283   3.743  65.193  1.00  0.00    -0.095 Cl 
HETATM   23  C   UNL     1     -10.667   5.926  66.733  1.00  0.00    -0.371 A  
HETATM   24  C   UNL     1      -8.498   5.676  65.816  1.00  0.00    -0.140 A  
HETATM   25  N   UNL     1      -8.065   6.832  66.375  1.00  0.00    -0.106 NA 
HETATM   26  C   UNL     1     -10.228   7.106  67.341  1.00  0.00    -0.291 A  
HETATM   27  C   UNL     1      -9.784   5.194  65.956  1.00  0.00    -0.165 A  
ENDBRANCH  12  21
ENDBRANCH  10  11
ENDBRANCH   7  10
TORSDOF 3
ENDMDL
MODEL       71
REMARK 921   NORMALIZED FREE ENERGY PREDICTED BY IDOCK:   -5.45 KCAL/MOL
REMARK 922        TOTAL FREE ENERGY PREDICTED BY IDOCK:   -7.01 KCAL/MOL
REMARK 923 INTER-LIGAND FREE ENERGY PREDICTED BY IDOCK:   -6.20 KCAL/MOL
REMARK 924 INTRA-LIGAND FREE ENERGY PREDICTED BY IDOCK:   -0.81 KCAL/MOL
REMARK 927      BINDING AFFINITY PREDICTED BY RF-SCORE:    0.00 PKD
ROOT
HETATM    1  C   UNL     1     -12.528  11.902  63.440  1.00  0.00    -0.463 C  
HETATM    2  N   UNL     1     -11.565  12.978  63.675  1.00  0.00    -0.464 NA 
HETATM    3  C   UNL     1     -12.232  14.185  64.213  1.00  0.00    -0.420 C  
HETATM    4  C   UNL     1     -12.675  14.064  65.683  1.00  0.00    -0.481 C  
HETATM    5  N   UNL     1     -11.564  13.631  66.529  1.00  0.00    -0.349 N  
HETATM    6  C   UNL     1     -10.883  12.419  66.075  1.00  0.00    -0.273 C  
HETATM    7  C   UNL     1     -11.146  14.462  67.547  1.00  0.00    -0.302 C  
HETATM    8  O   UNL     1     -11.658  15.556  67.750  1.00  0.00    -0.302 OA 
HETATM    9  C   UNL     1     -10.477  12.557  64.588  1.00  0.00    -0.319 C  
ENDROOT
BRANCH   7  10
HETATM   10  O   UNL     1     -10.153  13.950  68.317  1.00  0.00    -0.228 OA 
BRANCH  10  11
HETATM   11  C   UNL     1      -8.803  14.241  67.892  1.00  0.00    -0.179 C  
HETATM   12  N   UNL     1      -7.850  13.247  68.348  1.00  0.00    -0.137 N  
HETATM   13  C   UNL     1      -6.826  13.840  69.102  1.00  0.00    -0.102 C  
HETATM   14  C   UNL     1      -8.225  15.551  68.367  1.00  0.00    -0.145 A  
HETATM   15  N   UNL     1      -8.658  16.797  68.072  1.00  0.00    -0.205 NA 
HETATM   16  C   UNL     1      -7.073  15.296  69.087  1.00  0.00    -0.155 A  
HETATM   17  O   UNL     1      -5.845  13.341  69.623  1.00  0.00    -0.099 OA 
HETATM   18  C   UNL     1      -7.860  17.775  68.579  1.00  0.00    -0.290 A  
HETATM   19  N   UNL     1      -6.259  16.254  69.574  1.00  0.00    -0.176 NA 
HETATM   20  C   UNL     1      -6.697  17.509  69.310  1.00  0.00    -0.221 A  
BRANCH  12  21
HETATM   21  C   UNL     1      -7.926  11.879  68.033  1.00  0.00    -0.147 A  
HETATM   22 CL   UNL     1      -8.113   7.483  67.172  1.00  0.00    -0.116 Cl 
HETATM   23  C   UNL     1      -7.419  10.021  66.571  1.00  0.00    -0.105 A  
HETATM   24  C   UNL     1      -8.586   9.723  68.611  1.00  0.00    -0.121 A  
HETATM   25  N   UNL     1      -8.527  11.045  68.905  1.00  0.00    -0.148 NA 
HETATM   26  C   UNL     1      -7.375  11.392  66.846  1.00  0.00    -0.147 A  
HETATM   27  C   UNL     1      -8.039   9.169  67.471  1.00  0.00    -0.104 A  
ENDBRANCH  12  21
ENDBRANCH  10  11
ENDBRANCH   7  10
TORSDOF 3
ENDMDL
MODEL       72
REMARK 921   NORMALIZED FREE ENERGY PREDICTED BY IDOCK:   -5.45 KCAL/MOL
REMARK 922        TOTAL FREE ENERGY PREDICTED BY IDOCK:   -7.01 KCAL/MOL
REMARK 923 INTER-LIGAND FREE ENERGY PREDICTED BY IDOCK:   -5.75 KCAL/MOL
REMARK 924 INTRA-LIGAND FREE ENERGY PREDICTED BY IDOCK:   -1.26 KCAL/MOL
REMARK 927      BINDING AFFINITY PREDICTED BY RF-SCORE:    0.00 PKD
ROOT
HETATM    1  C   UNL     1      -7.335   4.837  71.829  1.00  0.00    -0.071 C  
HETATM    2  N   UNL     1      -8.551   5.123  71.069  1.00  0.00    -0.122 NA 
HETATM    3  C   UNL     1      -9.646   5.572  71.958  1.00  0.00    -0.151 C  
HETATM    4  C   UNL     1      -9.475   7.003  72.501  1.00  0.00    -0.142 C  
HETATM    5  N   UNL     1      -9.233   7.949  71.414  1.00  0.00    -0.133 N  
HETATM    6  C   UNL     1      -8.136   7.585  70.518  1.00  0.00    -0.106 C  
HETATM    7  C   UNL     1     -10.131   8.976  71.219  1.00  0.00    -0.314 C  
HETATM    8  O   UNL     1     -11.134   9.108  71.910  1.00  0.00    -0.364 OA 
HETATM    9  C   UNL     1      -8.317   6.134  70.011  1.00  0.00    -0.125 C  
ENDROOT
BRANCH   7  10
HETATM   10  O   UNL     1      -9.791   9.840  70.229  1.00  0.00    -0.250 OA 
BRANCH  10  11
HETATM   11  C   UNL     1     -10.831  10.163  69.280  1.00  0.00    -0.235 C  
HETATM   12  N   UNL     1     -10.421   9.939  67.907  1.00  0.00    -0.219 N  
HETATM   13  C   UNL     1     -10.550  11.111  67.145  1.00  0.00    -0.244 C  
HETATM   14  C   UNL     1     -11.321  11.590  69.291  1.00  0.00    -0.288 A  
HETATM   15  N   UNL     1     -11.945  12.239  70.300  1.00  0.00    -0.335 NA 
HETATM   16  C   UNL     1     -11.135  12.135  68.035  1.00  0.00    -0.244 A  
HETATM   17  O   UNL     1     -10.332  11.308  65.964  1.00  0.00    -0.238 OA 
HETATM   18  C   UNL     1     -12.348  13.493  69.960  1.00  0.00    -0.249 A  
HETATM   19  N   UNL     1     -11.551  13.367  67.677  1.00  0.00    -0.319 NA 
HETATM   20  C   UNL     1     -12.152  14.040  68.687  1.00  0.00    -0.297 A  
BRANCH  12  21
HETATM   21  C   UNL     1      -9.997   8.698  67.403  1.00  0.00    -0.210 A  
HETATM   22 CL   UNL     1      -8.575   4.813  65.675  1.00  0.00    -0.124 Cl 
HETATM   23  C   UNL     1     -10.464   6.421  66.736  1.00  0.00    -0.304 A  
HETATM   24  C   UNL     1      -8.302   7.366  66.523  1.00  0.00    -0.124 A  
HETATM   25  N   UNL     1      -8.710   8.557  67.025  1.00  0.00    -0.124 NA 
HETATM   26  C   UNL     1     -10.894   7.635  67.283  1.00  0.00    -0.263 A  
HETATM   27  C   UNL     1      -9.141   6.283  66.351  1.00  0.00    -0.153 A  
ENDBRANCH  12  21
ENDBRANCH  10  11
ENDBRANCH   7  10
TORSDOF 3
ENDMDL
MODEL       73
REMARK 921   NORMALIZED FREE ENERGY PREDICTED BY IDOCK:   -5.41 KCAL/MOL
REMARK 922        TOTAL FREE ENERGY PREDICTED BY IDOCK:   -6.96 KCAL/MOL
REMARK 923 INTER-LIGAND FREE ENERGY PREDICTED BY IDOCK:   -5.91 KCAL/MOL
REMARK 924 INTRA-LIGAND FREE ENERGY PREDICTED BY IDOCK:   -1.05 KCAL/MOL
REMARK 927      BINDING AFFINITY PREDICTED BY RF-SCORE:    0.00 PKD
ROOT
HETATM    1  C   UNL     1     -12.659  12.809  65.427  1.00  0.00    -0.320 C  
HETATM    2  N   UNL     1     -11.206  12.916  65.303  1.00  0.00    -0.284 NA 
HETATM    3  C   UNL     1     -10.825  14.034  64.411  1.00  0.00    -0.249 C  
HETATM    4  C   UNL     1     -11.020  15.432  65.028  1.00  0.00    -0.436 C  
HETATM    5  N   UNL     1     -10.363  15.524  66.331  1.00  0.00    -0.285 N  
HETATM    6  C   UNL     1     -10.724  14.469  67.276  1.00  0.00    -0.287 C  
HETATM    7  C   UNL     1      -9.360  16.455  66.501  1.00  0.00    -0.273 C  
HETATM    8  O   UNL     1      -8.988  17.189  65.593  1.00  0.00    -0.491 OA 
HETATM    9  C   UNL     1     -10.548  13.078  66.621  1.00  0.00    -0.266 C  
ENDROOT
BRANCH   7  10
HETATM   10  O   UNL     1      -8.854  16.511  67.759  1.00  0.00    -0.195 OA 
BRANCH  10  11
HETATM   11  C   UNL     1      -7.432  16.749  67.862  1.00  0.00    -0.160 C  
HETATM   12  N   UNL     1      -6.759  15.750  68.670  1.00  0.00    -0.114 N  
HETATM   13  C   UNL     1      -6.067  16.346  69.736  1.00  0.00    -0.212 C  
HETATM   14  C   UNL     1      -7.021  18.062  68.481  1.00  0.00    -0.245 A  
HETATM   15  N   UNL     1      -7.264  19.306  68.010  1.00  0.00    -0.252 NA 
HETATM   16  C   UNL     1      -6.233  17.807  69.587  1.00  0.00    -0.214 A  
HETATM   17  O   UNL     1      -5.373  15.844  70.601  1.00  0.00    -0.165 OA 
HETATM   18  C   UNL     1      -6.674  20.283  68.751  1.00  0.00    -0.240 A  
HETATM   19  N   UNL     1      -5.622  18.763  70.316  1.00  0.00    -0.226 NA 
HETATM   20  C   UNL     1      -5.880  20.017  69.872  1.00  0.00    -0.317 A  
BRANCH  12  21
HETATM   21  C   UNL     1      -6.765  14.373  68.388  1.00  0.00    -0.103 A  
HETATM   22 CL   UNL     1      -6.783  10.015  67.335  1.00  0.00    -0.072 Cl 
HETATM   23  C   UNL     1      -7.723  12.170  68.661  1.00  0.00    -0.089 A  
HETATM   24  C   UNL     1      -5.876  12.560  67.231  1.00  0.00    -0.100 A  
HETATM   25  N   UNL     1      -5.860  13.885  67.516  1.00  0.00    -0.353 NA 
HETATM   26  C   UNL     1      -7.702  13.530  68.988  1.00  0.00     0.118 A  
HETATM   27  C   UNL     1      -6.790  11.674  67.765  1.00  0.00    -0.079 A  
ENDBRANCH  12  21
ENDBRANCH  10  11
ENDBRANCH   7  10
TORSDOF 3
ENDMDL
MODEL       74
REMARK 921   NORMALIZED FREE ENERGY PREDICTED BY IDOCK:   -5.40 KCAL/MOL
REMARK 922        TOTAL FREE ENERGY PREDICTED BY IDOCK:   -6.95 KCAL/MOL
REMARK 923 INTER-LIGAND FREE ENERGY PREDICTED BY IDOCK:   -5.91 KCAL/MOL
REMARK 924 INTRA-LIGAND FREE ENERGY PREDICTED BY IDOCK:   -1.04 KCAL/MOL
REMARK 927      BINDING AFFINITY PREDICTED BY RF-SCORE:    0.00 PKD
ROOT
HETATM    1  C   UNL     1     -10.324   6.253  73.894  1.00  0.00    -0.306 C  
HETATM    2  N   UNL     1      -9.116   6.672  73.184  1.00  0.00    -0.127 NA 
HETATM    3  C   UNL     1      -9.046   6.061  71.838  1.00  0.00    -0.141 C  
HETATM    4  C   UNL     1     -10.029   6.662  70.816  1.00  0.00    -0.184 C  
HETATM    5  N   UNL     1      -9.902   8.117  70.762  1.00  0.00    -0.179 N  
HETATM    6  C   UNL     1     -10.001   8.789  72.057  1.00  0.00    -0.321 C  
HETATM    7  C   UNL     1      -9.536   8.705  69.570  1.00  0.00    -0.170 C  
HETATM    8  O   UNL     1      -9.293   8.048  68.565  1.00  0.00    -0.142 OA 
HETATM    9  C   UNL     1      -9.024   8.147  73.071  1.00  0.00    -0.266 C  
ENDROOT
BRANCH   7  10
HETATM   10  O   UNL     1      -9.506  10.061  69.599  1.00  0.00    -0.214 OA 
BRANCH  10  11
HETATM   11  C   UNL     1     -10.563  10.737  68.882  1.00  0.00    -0.216 C  
HETATM   12  N   UNL     1     -10.069  11.508  67.758  1.00  0.00    -0.179 N  
HETATM   13  C   UNL     1     -10.448  12.855  67.864  1.00  0.00    -0.224 C  
HETATM   14  C   UNL     1     -11.377  11.727  69.679  1.00  0.00    -0.215 A  
HETATM   15  N   UNL     1     -12.169  11.473  70.745  1.00  0.00    -0.381 NA 
HETATM   16  C   UNL     1     -11.287  12.967  69.076  1.00  0.00    -0.290 A  
HETATM   17  O   UNL     1     -10.246  13.790  67.111  1.00  0.00    -0.241 OA 
HETATM   18  C   UNL     1     -12.847  12.570  71.180  1.00  0.00    -0.211 A  
HETATM   19  N   UNL     1     -11.972  14.056  69.480  1.00  0.00    -0.320 NA 
HETATM   20  C   UNL     1     -12.747  13.823  70.566  1.00  0.00    -0.222 A  
BRANCH  12  21
HETATM   21  C   UNL     1      -9.346  10.960  66.684  1.00  0.00    -0.171 A  
HETATM   22 CL   UNL     1      -6.951   9.345  63.255  1.00  0.00    -0.094 Cl 
HETATM   23  C   UNL     1      -9.275   9.928  64.499  1.00  0.00    -0.315 A  
HETATM   24  C   UNL     1      -7.300  10.462  65.693  1.00  0.00    -0.148 A  
HETATM   25  N   UNL     1      -7.999  10.974  66.735  1.00  0.00    -0.145 NA 
HETATM   26  C   UNL     1     -10.011  10.426  65.579  1.00  0.00    -0.348 A  
HETATM   27  C   UNL     1      -7.891   9.944  64.558  1.00  0.00    -0.142 A  
ENDBRANCH  12  21
ENDBRANCH  10  11
ENDBRANCH   7  10
TORSDOF 3
ENDMDL
MODEL       75
REMARK 921   NORMALIZED FREE ENERGY PREDICTED BY IDOCK:   -5.38 KCAL/MOL
REMARK 922        TOTAL FREE ENERGY PREDICTED BY IDOCK:   -6.92 KCAL/MOL
REMARK 923 INTER-LIGAND FREE ENERGY PREDICTED BY IDOCK:   -6.85 KCAL/MOL
REMARK 924 INTRA-LIGAND FREE ENERGY PREDICTED BY IDOCK:   -0.07 KCAL/MOL
REMARK 927      BINDING AFFINITY PREDICTED BY RF-SCORE:    0.00 PKD
ROOT
HETATM    1  C   UNL     1      -7.849  16.295  66.551  1.00  0.00    -0.263 C  
HETATM    2  N   UNL     1      -8.865  15.979  67.555  1.00  0.00    -0.187 NA 
HETATM    3  C   UNL     1     -10.229  16.169  67.015  1.00  0.00    -0.285 C  
HETATM    4  C   UNL     1     -10.672  15.086  66.014  1.00  0.00    -0.326 C  
HETATM    5  N   UNL     1     -10.490  13.749  66.576  1.00  0.00    -0.279 N  
HETATM    6  C   UNL     1      -9.149  13.480  67.094  1.00  0.00    -0.232 C  
HETATM    7  C   UNL     1     -11.596  12.940  66.731  1.00  0.00    -0.360 C  
HETATM    8  O   UNL     1     -12.725  13.313  66.436  1.00  0.00    -0.252 OA 
HETATM    9  C   UNL     1      -8.718  14.598  68.073  1.00  0.00    -0.167 C  
ENDROOT
BRANCH   7  10
HETATM   10  O   UNL     1     -11.321  11.697  67.200  1.00  0.00    -0.301 OA 
BRANCH  10  11
HETATM   11  C   UNL     1     -10.897  11.616  68.580  1.00  0.00    -0.219 C  
HETATM   12  N   UNL     1     -10.832  10.251  69.062  1.00  0.00    -0.218 N  
HETATM   13  C   UNL     1     -11.641  10.078  70.197  1.00  0.00    -0.252 C  
HETATM   14  C   UNL     1     -11.772  12.322  69.586  1.00  0.00    -0.316 A  
HETATM   15  N   UNL     1     -12.025  13.648  69.670  1.00  0.00    -0.329 NA 
HETATM   16  C   UNL     1     -12.211  11.402  70.518  1.00  0.00    -0.386 A  
HETATM   17  O   UNL     1     -11.823   9.093  70.889  1.00  0.00    -0.286 OA 
HETATM   18  C   UNL     1     -12.779  13.980  70.753  1.00  0.00    -0.326 A  
HETATM   19  N   UNL     1     -12.937  11.720  71.609  1.00  0.00    -0.416 NA 
HETATM   20  C   UNL     1     -13.223  13.042  71.691  1.00  0.00    -0.336 A  
BRANCH  12  21
HETATM   21  C   UNL     1     -10.027   9.250  68.491  1.00  0.00    -0.175 A  
HETATM   22 CL   UNL     1      -7.581   5.956  66.683  1.00  0.00    -0.094 Cl 
HETATM   23  C   UNL     1      -7.973   7.977  68.428  1.00  0.00    -0.120 A  
HETATM   24  C   UNL     1      -9.758   7.541  66.934  1.00  0.00    -0.209 A  
HETATM   25  N   UNL     1     -10.526   8.518  67.475  1.00  0.00    -0.262 NA 
HETATM   26  C   UNL     1      -8.742   9.008  68.978  1.00  0.00    -0.138 A  
HETATM   27  C   UNL     1      -8.490   7.229  67.383  1.00  0.00    -0.119 A  
ENDBRANCH  12  21
ENDBRANCH  10  11
ENDBRANCH   7  10
TORSDOF 3
ENDMDL
MODEL       76
REMARK 921   NORMALIZED FREE ENERGY PREDICTED BY IDOCK:   -5.37 KCAL/MOL
REMARK 922        TOTAL FREE ENERGY PREDICTED BY IDOCK:   -6.92 KCAL/MOL
REMARK 923 INTER-LIGAND FREE ENERGY PREDICTED BY IDOCK:   -6.77 KCAL/MOL
REMARK 924 INTRA-LIGAND FREE ENERGY PREDICTED BY IDOCK:   -0.15 KCAL/MOL
REMARK 927      BINDING AFFINITY PREDICTED BY RF-SCORE:    0.00 PKD
ROOT
HETATM    1  C   UNL     1     -12.013  12.218  63.637  1.00  0.00    -0.543 C  
HETATM    2  N   UNL     1     -12.627  12.542  64.925  1.00  0.00    -0.653 NA 
HETATM    3  C   UNL     1     -11.928  11.861  66.037  1.00  0.00     0.122 C  
HETATM    4  C   UNL     1     -10.550  12.455  66.380  1.00  0.00    -0.244 C  
HETATM    5  N   UNL     1     -10.642  13.898  66.596  1.00  0.00    -0.273 N  
HETATM    6  C   UNL     1     -11.289  14.640  65.515  1.00  0.00    -0.341 C  
HETATM    7  C   UNL     1     -10.289  14.406  67.828  1.00  0.00    -0.238 C  
HETATM    8  O   UNL     1      -9.924  13.688  68.751  1.00  0.00    -0.191 OA 
HETATM    9  C   UNL     1     -12.657  14.003  65.171  1.00  0.00    -0.428 C  
ENDROOT
BRANCH   7  10
HETATM   10  O   UNL     1     -10.347  15.759  67.916  1.00  0.00    -0.250 OA 
BRANCH  10  11
HETATM   11  C   UNL     1      -9.291  16.485  67.247  1.00  0.00    -0.222 C  
HETATM   12  N   UNL     1      -8.103  16.620  68.068  1.00  0.00    -0.176 N  
HETATM   13  C   UNL     1      -7.756  17.970  68.234  1.00  0.00    -0.282 C  
HETATM   14  C   UNL     1      -9.617  17.900  66.834  1.00  0.00    -0.300 A  
HETATM   15  N   UNL     1     -10.551  18.302  65.943  1.00  0.00    -0.507 NA 
HETATM   16  C   UNL     1      -8.716  18.758  67.433  1.00  0.00    -0.273 A  
HETATM   17  O   UNL     1      -6.819  18.473  68.827  1.00  0.00    -0.253 OA 
HETATM   18  C   UNL     1     -10.531  19.644  65.718  1.00  0.00    -0.444 A  
HETATM   19  N   UNL     1      -8.667  20.085  67.201  1.00  0.00    -0.327 NA 
HETATM   20  C   UNL     1      -9.617  20.508  66.332  1.00  0.00    -0.136 A  
BRANCH  12  21
HETATM   21  C   UNL     1      -7.375  15.535  68.585  1.00  0.00    -0.125 A  
HETATM   22 CL   UNL     1      -5.149  11.976  70.159  1.00  0.00    -0.076 Cl 
HETATM   23  C   UNL     1      -6.403  14.348  70.453  1.00  0.00    -0.144 A  
HETATM   24  C   UNL     1      -6.284  13.508  68.242  1.00  0.00    -0.105 A  
HETATM   25  N   UNL     1      -6.972  14.563  67.742  1.00  0.00    -0.164 NA 
HETATM   26  C   UNL     1      -7.088  15.458  69.949  1.00  0.00    -0.073 A  
HETATM   27  C   UNL     1      -5.990  13.353  69.582  1.00  0.00    -0.119 A  
ENDBRANCH  12  21
ENDBRANCH  10  11
ENDBRANCH   7  10
TORSDOF 3
ENDMDL
MODEL       77
REMARK 921   NORMALIZED FREE ENERGY PREDICTED BY IDOCK:   -5.35 KCAL/MOL
REMARK 922        TOTAL FREE ENERGY PREDICTED BY IDOCK:   -6.89 KCAL/MOL
REMARK 923 INTER-LIGAND FREE ENERGY PREDICTED BY IDOCK:   -6.14 KCAL/MOL
REMARK 924 INTRA-LIGAND FREE ENERGY PREDICTED BY IDOCK:   -0.75 KCAL/MOL
REMARK 927      BINDING AFFINITY PREDICTED BY RF-SCORE:    0.00 PKD
ROOT
HETATM    1  C   UNL     1      -5.742   8.191  62.433  1.00  0.00    -0.074 C  
HETATM    2  N   UNL     1      -6.062   9.552  62.862  1.00  0.00    -0.097 NA 
HETATM    3  C   UNL     1      -7.384   9.978  62.352  1.00  0.00    -0.122 C  
HETATM    4  C   UNL     1      -8.581   9.318  63.062  1.00  0.00    -0.214 C  
HETATM    5  N   UNL     1      -8.480   9.474  64.511  1.00  0.00    -0.168 N  
HETATM    6  C   UNL     1      -7.210   9.035  65.088  1.00  0.00    -0.088 C  
HETATM    7  C   UNL     1      -9.476  10.158  65.174  1.00  0.00    -0.260 C  
HETATM    8  O   UNL     1     -10.428  10.657  64.587  1.00  0.00    -0.336 OA 
HETATM    9  C   UNL     1      -6.025   9.690  64.338  1.00  0.00    -0.087 C  
ENDROOT
BRANCH   7  10
HETATM   10  O   UNL     1      -9.330  10.197  66.522  1.00  0.00    -0.156 OA 
BRANCH  10  11
HETATM   11  C   UNL     1     -10.492   9.834  67.300  1.00  0.00    -0.261 C  
HETATM   12  N   UNL     1     -10.601  10.597  68.528  1.00  0.00    -0.187 N  
HETATM   13  C   UNL     1     -10.651   9.749  69.646  1.00  0.00    -0.239 C  
HETATM   14  C   UNL     1     -10.566   8.396  67.751  1.00  0.00    -0.171 A  
HETATM   15  N   UNL     1     -10.656   7.292  66.975  1.00  0.00    -0.335 NA 
HETATM   16  C   UNL     1     -10.644   8.364  69.130  1.00  0.00    -0.163 A  
HETATM   17  O   UNL     1     -10.767  10.014  70.828  1.00  0.00    -0.303 OA 
HETATM   18  C   UNL     1     -10.804   6.145  67.691  1.00  0.00    -0.332 A  
HETATM   19  N   UNL     1     -10.816   7.238  69.852  1.00  0.00    -0.246 NA 
HETATM   20  C   UNL     1     -10.879   6.121  69.088  1.00  0.00    -0.351 A  
BRANCH  12  21
HETATM   21  C   UNL     1     -10.691  11.998  68.580  1.00  0.00    -0.236 A  
HETATM   22 CL   UNL     1     -11.106  16.462  68.654  1.00  0.00    -0.353 Cl 
HETATM   23  C   UNL     1      -9.693  14.186  68.324  1.00  0.00    -0.227 A  
HETATM   24  C   UNL     1     -11.972  13.913  68.911  1.00  0.00    -0.358 A  
HETATM   25  N   UNL     1     -11.879  12.562  68.877  1.00  0.00    -0.311 NA 
HETATM   26  C   UNL     1      -9.574  12.792  68.314  1.00  0.00    -0.211 A  
HETATM   27  C   UNL     1     -10.917  14.759  68.632  1.00  0.00    -0.255 A  
ENDBRANCH  12  21
ENDBRANCH  10  11
ENDBRANCH   7  10
TORSDOF 3
ENDMDL
MODEL       78
REMARK 921   NORMALIZED FREE ENERGY PREDICTED BY IDOCK:   -5.35 KCAL/MOL
REMARK 922        TOTAL FREE ENERGY PREDICTED BY IDOCK:   -6.89 KCAL/MOL
REMARK 923 INTER-LIGAND FREE ENERGY PREDICTED BY IDOCK:   -6.09 KCAL/MOL
REMARK 924 INTRA-LIGAND FREE ENERGY PREDICTED BY IDOCK:   -0.80 KCAL/MOL
REMARK 927      BINDING AFFINITY PREDICTED BY RF-SCORE:    0.00 PKD
ROOT
HETATM    1  C   UNL     1     -11.792  16.084  71.553  1.00  0.00    -0.486 C  
HETATM    2  N   UNL     1     -12.512  15.268  70.576  1.00  0.00    -0.380 NA 
HETATM    3  C   UNL     1     -12.565  15.935  69.256  1.00  0.00     0.497 C  
HETATM    4  C   UNL     1     -11.230  15.932  68.490  1.00  0.00    -0.362 C  
HETATM    5  N   UNL     1     -10.684  14.579  68.396  1.00  0.00    -0.237 N  
HETATM    6  C   UNL     1     -10.568  13.875  69.673  1.00  0.00     0.250 C  
HETATM    7  C   UNL     1     -10.496  14.027  67.147  1.00  0.00    -0.270 C  
HETATM    8  O   UNL     1     -10.791  14.622  66.118  1.00  0.00    -0.307 OA 
HETATM    9  C   UNL     1     -11.915  13.919  70.434  1.00  0.00    -0.323 C  
ENDROOT
BRANCH   7  10
HETATM   10  O   UNL     1      -9.927  12.795  67.157  1.00  0.00    -0.214 OA 
BRANCH  10  11
HETATM   11  C   UNL     1     -10.631  11.763  66.431  1.00  0.00    -0.255 C  
HETATM   12  N   UNL     1     -10.596  10.482  67.109  1.00  0.00    -0.253 N  
HETATM   13  C   UNL     1     -10.044   9.489  66.285  1.00  0.00    -0.257 C  
HETATM   14  C   UNL     1     -10.118  11.459  65.044  1.00  0.00    -0.274 A  
HETATM   15  N   UNL     1     -10.092  12.289  63.976  1.00  0.00    -0.340 NA 
HETATM   16  C   UNL     1      -9.764  10.125  64.981  1.00  0.00    -0.318 A  
HETATM   17  O   UNL     1      -9.875   8.301  66.491  1.00  0.00    -0.240 OA 
HETATM   18  C   UNL     1      -9.656  11.682  62.839  1.00  0.00    -0.189 A  
HETATM   19  N   UNL     1      -9.356   9.504  63.856  1.00  0.00    -0.052 NA 
HETATM   20  C   UNL     1      -9.297  10.331  62.784  1.00  0.00    -0.314 A  
BRANCH  12  21
HETATM   21  C   UNL     1     -11.094  10.263  68.406  1.00  0.00    -0.247 A  
HETATM   22 CL   UNL     1     -12.714   9.719  72.550  1.00  0.00    -0.201 Cl 
HETATM   23  C   UNL     1     -10.839   9.375  70.640  1.00  0.00    -0.346 A  
HETATM   24  C   UNL     1     -12.772  10.578  69.987  1.00  0.00    -0.060 A  
HETATM   25  N   UNL     1     -12.297  10.774  68.733  1.00  0.00    -0.331 NA 
HETATM   26  C   UNL     1     -10.348   9.543  69.341  1.00  0.00    -0.225 A  
HETATM   27  C   UNL     1     -12.077   9.901  70.969  1.00  0.00    -0.358 A  
ENDBRANCH  12  21
ENDBRANCH  10  11
ENDBRANCH   7  10
TORSDOF 3
ENDMDL
MODEL       79
REMARK 921   NORMALIZED FREE ENERGY PREDICTED BY IDOCK:   -5.32 KCAL/MOL
REMARK 922        TOTAL FREE ENERGY PREDICTED BY IDOCK:   -6.85 KCAL/MOL
REMARK 923 INTER-LIGAND FREE ENERGY PREDICTED BY IDOCK:   -6.06 KCAL/MOL
REMARK 924 INTRA-LIGAND FREE ENERGY PREDICTED BY IDOCK:   -0.79 KCAL/MOL
REMARK 927      BINDING AFFINITY PREDICTED BY RF-SCORE:    0.00 PKD
ROOT
HETATM    1  C   UNL     1      -8.836  20.339  66.968  1.00  0.00    -0.326 C  
HETATM    2  N   UNL     1      -9.620  19.299  67.635  1.00  0.00    -0.306 NA 
HETATM    3  C   UNL     1     -10.579  18.668  66.701  1.00  0.00    -0.359 C  
HETATM    4  C   UNL     1      -9.933  17.724  65.670  1.00  0.00     0.176 C  
HETATM    5  N   UNL     1      -9.082  16.735  66.329  1.00  0.00    -0.285 N  
HETATM    6  C   UNL     1      -8.084  17.294  67.240  1.00  0.00    -0.192 C  
HETATM    7  C   UNL     1      -9.390  15.398  66.186  1.00  0.00    -0.332 C  
HETATM    8  O   UNL     1     -10.362  15.016  65.546  1.00  0.00    -0.317 OA 
HETATM    9  C   UNL     1      -8.756  18.260  68.244  1.00  0.00    -0.288 C  
ENDROOT
BRANCH   7  10
HETATM   10  O   UNL     1      -8.510  14.553  66.779  1.00  0.00    -0.189 OA 
BRANCH  10  11
HETATM   11  C   UNL     1      -9.057  13.660  67.774  1.00  0.00    -0.199 C  
HETATM   12  N   UNL     1      -9.657  12.476  67.190  1.00  0.00    -0.203 N  
HETATM   13  C   UNL     1     -11.000  12.347  67.576  1.00  0.00    -0.252 C  
HETATM   14  C   UNL     1     -10.146  14.229  68.651  1.00  0.00    -0.238 A  
HETATM   15  N   UNL     1     -10.045  15.254  69.528  1.00  0.00    -0.255 NA 
HETATM   16  C   UNL     1     -11.282  13.455  68.511  1.00  0.00    -0.283 A  
HETATM   17  O   UNL     1     -11.813  11.480  67.313  1.00  0.00    -0.609 OA 
HETATM   18  C   UNL     1     -11.186  15.462  70.239  1.00  0.00    -0.309 A  
HETATM   19  N   UNL     1     -12.410  13.634  69.227  1.00  0.00    -0.227 NA 
HETATM   20  C   UNL     1     -12.334  14.677  70.089  1.00  0.00    -0.336 A  
BRANCH  12  21
HETATM   21  C   UNL     1      -8.963  11.559  66.381  1.00  0.00    -0.197 A  
HETATM   22 CL   UNL     1      -6.616   8.681  63.869  1.00  0.00    -0.076 Cl 
HETATM   23  C   UNL     1      -8.452  10.630  64.208  1.00  0.00    -0.067 A  
HETATM   24  C   UNL     1      -7.387   9.858  66.178  1.00  0.00    -0.104 A  
HETATM   25  N   UNL     1      -8.069  10.731  66.958  1.00  0.00    -0.120 NA 
HETATM   26  C   UNL     1      -9.185  11.517  65.003  1.00  0.00    -0.033 A  
HETATM   27  C   UNL     1      -7.536   9.781  64.808  1.00  0.00    -0.130 A  
ENDBRANCH  12  21
ENDBRANCH  10  11
ENDBRANCH   7  10
TORSDOF 3
ENDMDL
MODEL       80
REMARK 921   NORMALIZED FREE ENERGY PREDICTED BY IDOCK:   -5.31 KCAL/MOL
REMARK 922        TOTAL FREE ENERGY PREDICTED BY IDOCK:   -6.84 KCAL/MOL
REMARK 923 INTER-LIGAND FREE ENERGY PREDICTED BY IDOCK:   -6.77 KCAL/MOL
REMARK 924 INTRA-LIGAND FREE ENERGY PREDICTED BY IDOCK:   -0.07 KCAL/MOL
REMARK 927      BINDING AFFINITY PREDICTED BY RF-SCORE:    0.00 PKD
ROOT
HETATM    1  C   UNL     1     -10.510   9.616  66.849  1.00  0.00    -0.212 C  
HETATM    2  N   UNL     1      -9.161  10.182  66.824  1.00  0.00    -0.139 NA 
HETATM    3  C   UNL     1      -9.043  11.244  65.800  1.00  0.00    -0.203 C  
HETATM    4  C   UNL     1      -9.746  12.563  66.170  1.00  0.00    -0.254 C  
HETATM    5  N   UNL     1      -9.322  13.028  67.489  1.00  0.00    -0.193 N  
HETATM    6  C   UNL     1      -9.448  12.038  68.558  1.00  0.00    -0.133 C  
HETATM    7  C   UNL     1      -8.695  14.252  67.589  1.00  0.00    -0.191 C  
HETATM    8  O   UNL     1      -8.462  14.949  66.608  1.00  0.00    -0.221 OA 
HETATM    9  C   UNL     1      -8.760  10.715  68.147  1.00  0.00    -0.130 C  
ENDROOT
BRANCH   7  10
HETATM   10  O   UNL     1      -8.396  14.628  68.857  1.00  0.00    -0.162 OA 
BRANCH  10  11
HETATM   11  C   UNL     1      -8.608  16.022  69.175  1.00  0.00    -0.247 C  
HETATM   12  N   UNL     1     -10.001  16.411  69.066  1.00  0.00    -0.254 N  
HETATM   13  C   UNL     1     -10.157  17.478  68.169  1.00  0.00    -0.341 C  
HETATM   14  C   UNL     1      -7.878  17.019  68.310  1.00  0.00    -0.216 A  
HETATM   15  N   UNL     1      -6.541  17.181  68.189  1.00  0.00    -0.155 NA 
HETATM   16  C   UNL     1      -8.803  17.856  67.716  1.00  0.00    -0.251 A  
HETATM   17  O   UNL     1     -11.159  18.088  67.839  1.00  0.00    -0.191 OA 
HETATM   18  C   UNL     1      -6.199  18.236  67.401  1.00  0.00    -0.175 A  
HETATM   19  N   UNL     1      -8.479  18.920  66.954  1.00  0.00    -0.277 NA 
HETATM   20  C   UNL     1      -7.142  19.076  66.800  1.00  0.00    -0.205 A  
BRANCH  12  21
HETATM   21  C   UNL     1     -11.044  15.821  69.802  1.00  0.00    -0.322 A  
HETATM   22 CL   UNL     1     -14.274  13.934  72.272  1.00  0.00    -0.626 Cl 
HETATM   23  C   UNL     1     -12.762  14.138  70.046  1.00  0.00    -0.155 A  
HETATM   24  C   UNL     1     -12.325  15.732  71.743  1.00  0.00    -0.454 A  
HETATM   25  N   UNL     1     -11.331  16.309  71.025  1.00  0.00    -0.355 NA 
HETATM   26  C   UNL     1     -11.758  14.741  69.281  1.00  0.00    -0.347 A  
HETATM   27  C   UNL     1     -13.053  14.645  71.302  1.00  0.00    -0.359 A  
ENDBRANCH  12  21
ENDBRANCH  10  11
ENDBRANCH   7  10
TORSDOF 3
ENDMDL
MODEL       81
REMARK 921   NORMALIZED FREE ENERGY PREDICTED BY IDOCK:   -5.27 KCAL/MOL
REMARK 922        TOTAL FREE ENERGY PREDICTED BY IDOCK:   -6.80 KCAL/MOL
REMARK 923 INTER-LIGAND FREE ENERGY PREDICTED BY IDOCK:   -5.85 KCAL/MOL
REMARK 924 INTRA-LIGAND FREE ENERGY PREDICTED BY IDOCK:   -0.95 KCAL/MOL
REMARK 927      BINDING AFFINITY PREDICTED BY RF-SCORE:    0.00 PKD
ROOT
HETATM    1  C   UNL     1     -12.130  14.877  64.130  1.00  0.00    -0.267 C  
HETATM    2  N   UNL     1     -12.712  13.671  64.718  1.00  0.00    -0.680 NA 
HETATM    3  C   UNL     1     -12.328  12.463  63.955  1.00  0.00    -0.508 C  
HETATM    4  C   UNL     1     -10.864  12.027  64.150  1.00  0.00    -0.352 C  
HETATM    5  N   UNL     1     -10.542  11.900  65.570  1.00  0.00    -0.260 N  
HETATM    6  C   UNL     1     -10.861  13.075  66.379  1.00  0.00    -0.278 C  
HETATM    7  C   UNL     1     -10.145  10.670  66.050  1.00  0.00    -0.250 C  
HETATM    8  O   UNL     1     -10.076   9.679  65.333  1.00  0.00    -0.272 OA 
HETATM    9  C   UNL     1     -12.327  13.509  66.141  1.00  0.00    -0.407 C  
ENDROOT
BRANCH   7  10
HETATM   10  O   UNL     1      -9.807  10.662  67.364  1.00  0.00    -0.165 OA 
BRANCH  10  11
HETATM   11  C   UNL     1      -8.397  10.536  67.658  1.00  0.00    -0.114 C  
HETATM   12  N   UNL     1      -8.145   9.724  68.832  1.00  0.00    -0.096 N  
HETATM   13  C   UNL     1      -7.403  10.437  69.787  1.00  0.00    -0.154 C  
HETATM   14  C   UNL     1      -7.658  11.822  67.932  1.00  0.00    -0.121 A  
HETATM   15  N   UNL     1      -7.458  12.854  67.082  1.00  0.00    -0.071 NA 
HETATM   16  C   UNL     1      -7.094  11.753  69.191  1.00  0.00    -0.071 A  
HETATM   17  O   UNL     1      -6.982  10.088  70.875  1.00  0.00    -0.337 OA 
HETATM   18  C   UNL     1      -6.665  13.830  67.602  1.00  0.00    -0.176 A  
HETATM   19  N   UNL     1      -6.286  12.699  69.711  1.00  0.00    -0.106 NA 
HETATM   20  C   UNL     1      -6.100  13.754  68.880  1.00  0.00    -0.088 A  
BRANCH  12  21
HETATM   21  C   UNL     1      -8.552   8.386  68.969  1.00  0.00    -0.131 A  
HETATM   22 CL   UNL     1      -9.856   4.138  69.561  1.00  0.00    -0.249 Cl 
HETATM   23  C   UNL     1      -8.252   6.033  68.503  1.00  0.00    -0.110 A  
HETATM   24  C   UNL     1      -9.999   6.817  69.897  1.00  0.00    -0.172 A  
HETATM   25  N   UNL     1      -9.614   8.108  69.751  1.00  0.00    -0.170 NA 
HETATM   26  C   UNL     1      -7.861   7.363  68.319  1.00  0.00    -0.122 A  
HETATM   27  C   UNL     1      -9.345   5.754  69.307  1.00  0.00    -0.124 A  
ENDBRANCH  12  21
ENDBRANCH  10  11
ENDBRANCH   7  10
TORSDOF 3
ENDMDL
MODEL       82
REMARK 921   NORMALIZED FREE ENERGY PREDICTED BY IDOCK:   -5.24 KCAL/MOL
REMARK 922        TOTAL FREE ENERGY PREDICTED BY IDOCK:   -6.76 KCAL/MOL
REMARK 923 INTER-LIGAND FREE ENERGY PREDICTED BY IDOCK:   -6.71 KCAL/MOL
REMARK 924 INTRA-LIGAND FREE ENERGY PREDICTED BY IDOCK:   -0.05 KCAL/MOL
REMARK 927      BINDING AFFINITY PREDICTED BY RF-SCORE:    0.00 PKD
ROOT
HETATM    1  C   UNL     1     -12.482  11.969  63.211  1.00  0.00    -0.425 C  
HETATM    2  N   UNL     1     -11.409  12.815  63.734  1.00  0.00    -0.438 NA 
HETATM    3  C   UNL     1     -11.951  14.039  64.365  1.00  0.00    -0.454 C  
HETATM    4  C   UNL     1     -12.627  13.803  65.728  1.00  0.00    -0.480 C  
HETATM    5  N   UNL     1     -11.741  13.071  66.631  1.00  0.00    -0.362 N  
HETATM    6  C   UNL     1     -11.199  11.828  66.083  1.00  0.00    -0.306 C  
HETATM    7  C   UNL     1     -11.358  13.670  67.812  1.00  0.00    -0.306 C  
HETATM    8  O   UNL     1     -11.716  14.801  68.118  1.00  0.00    -0.324 OA 
HETATM    9  C   UNL     1     -10.553  12.088  64.701  1.00  0.00    -0.307 C  
ENDROOT
BRANCH   7  10
HETATM   10  O   UNL     1     -10.588  12.891  68.613  1.00  0.00    -0.248 OA 
BRANCH  10  11
HETATM   11  C   UNL     1      -9.331  12.450  68.054  1.00  0.00    -0.204 C  
HETATM   12  N   UNL     1      -8.755  11.340  68.789  1.00  0.00    -0.139 N  
HETATM   13  C   UNL     1      -7.462  11.651  69.240  1.00  0.00     0.075 C  
HETATM   14  C   UNL     1      -8.226  13.477  68.011  1.00  0.00    -0.163 A  
HETATM   15  N   UNL     1      -8.207  14.636  67.315  1.00  0.00    -0.203 NA 
HETATM   16  C   UNL     1      -7.144  12.998  68.724  1.00  0.00    -0.097 A  
HETATM   17  O   UNL     1      -6.663  10.974  69.860  1.00  0.00    -0.142 OA 
HETATM   18  C   UNL     1      -7.020  15.297  67.410  1.00  0.00    -0.179 A  
HETATM   19  N   UNL     1      -5.954  13.628  68.806  1.00  0.00    -0.080 NA 
HETATM   20  C   UNL     1      -5.930  14.807  68.137  1.00  0.00    -0.141 A  
BRANCH  12  21
HETATM   21  C   UNL     1      -9.395  10.103  68.979  1.00  0.00    -0.188 A  
HETATM   22 CL   UNL     1     -11.329   6.123  69.696  1.00  0.00    -0.496 Cl 
HETATM   23  C   UNL     1     -10.300   8.041  68.101  1.00  0.00    -0.250 A  
HETATM   24  C   UNL     1     -10.292   8.513  70.422  1.00  0.00    -0.202 A  
HETATM   25  N   UNL     1      -9.690   9.712  70.235  1.00  0.00    -0.255 NA 
HETATM   26  C   UNL     1      -9.705   9.289  67.889  1.00  0.00    -0.180 A  
HETATM   27  C   UNL     1     -10.602   7.645  69.393  1.00  0.00    -0.215 A  
ENDBRANCH  12  21
ENDBRANCH  10  11
ENDBRANCH   7  10
TORSDOF 3
ENDMDL
MODEL       83
REMARK 921   NORMALIZED FREE ENERGY PREDICTED BY IDOCK:   -5.23 KCAL/MOL
REMARK 922        TOTAL FREE ENERGY PREDICTED BY IDOCK:   -6.75 KCAL/MOL
REMARK 923 INTER-LIGAND FREE ENERGY PREDICTED BY IDOCK:   -6.97 KCAL/MOL
REMARK 924 INTRA-LIGAND FREE ENERGY PREDICTED BY IDOCK:    0.21 KCAL/MOL
REMARK 927      BINDING AFFINITY PREDICTED BY RF-SCORE:    0.00 PKD
ROOT
HETATM    1  C   UNL     1      -6.982  18.919  65.958  1.00  0.00    -0.262 C  
HETATM    2  N   UNL     1      -7.365  18.350  67.251  1.00  0.00    -0.211 NA 
HETATM    3  C   UNL     1      -8.797  18.584  67.537  1.00  0.00    -0.265 C  
HETATM    4  C   UNL     1      -9.761  17.715  66.707  1.00  0.00    -0.300 C  
HETATM    5  N   UNL     1      -9.408  16.301  66.809  1.00  0.00    -0.225 N  
HETATM    6  C   UNL     1      -8.012  15.993  66.501  1.00  0.00    -0.236 C  
HETATM    7  C   UNL     1     -10.332  15.426  67.338  1.00  0.00    -0.262 C  
HETATM    8  O   UNL     1     -11.426  15.797  67.745  1.00  0.00    -0.290 OA 
HETATM    9  C   UNL     1      -7.068  16.900  67.326  1.00  0.00    -0.166 C  
ENDROOT
BRANCH   7  10
HETATM   10  O   UNL     1      -9.942  14.126  67.335  1.00  0.00    -0.235 OA 
BRANCH  10  11
HETATM   11  C   UNL     1     -10.863  13.186  66.738  1.00  0.00    -0.276 C  
HETATM   12  N   UNL     1     -11.198  12.093  67.630  1.00  0.00    -0.266 N  
HETATM   13  C   UNL     1     -10.896  10.854  67.045  1.00  0.00    -0.266 C  
HETATM   14  C   UNL     1     -10.391  12.503  65.478  1.00  0.00    -0.280 A  
HETATM   15  N   UNL     1     -10.100  13.077  64.289  1.00  0.00    -0.288 NA 
HETATM   16  C   UNL     1     -10.402  11.136  65.681  1.00  0.00    -0.254 A  
HETATM   17  O   UNL     1     -11.058   9.724  67.469  1.00  0.00    -0.234 OA 
HETATM   18  C   UNL     1      -9.794  12.173  63.319  1.00  0.00    -0.092 A  
HETATM   19  N   UNL     1     -10.126  10.228  64.723  1.00  0.00    -0.327 NA 
HETATM   20  C   UNL     1      -9.804  10.791  63.534  1.00  0.00    -0.347 A  
BRANCH  12  21
HETATM   21  C   UNL     1     -11.791  12.260  68.893  1.00  0.00    -0.303 A  
HETATM   22 CL   UNL     1     -13.581  12.911  72.952  1.00  0.00     0.104 Cl 
HETATM   23  C   UNL     1     -12.534  11.358  71.010  1.00  0.00    -0.486 A  
HETATM   24  C   UNL     1     -12.712  13.665  70.505  1.00  0.00    -0.190 A  
HETATM   25  N   UNL     1     -12.155  13.499  69.280  1.00  0.00    -0.316 NA 
HETATM   26  C   UNL     1     -11.985  11.165  69.738  1.00  0.00    -0.428 A  
HETATM   27  C   UNL     1     -12.907  12.633  71.401  1.00  0.00    -0.261 A  
ENDBRANCH  12  21
ENDBRANCH  10  11
ENDBRANCH   7  10
TORSDOF 3
ENDMDL
MODEL       84
REMARK 921   NORMALIZED FREE ENERGY PREDICTED BY IDOCK:   -5.19 KCAL/MOL
REMARK 922        TOTAL FREE ENERGY PREDICTED BY IDOCK:   -6.70 KCAL/MOL
REMARK 923 INTER-LIGAND FREE ENERGY PREDICTED BY IDOCK:   -6.15 KCAL/MOL
REMARK 924 INTRA-LIGAND FREE ENERGY PREDICTED BY IDOCK:   -0.55 KCAL/MOL
REMARK 927      BINDING AFFINITY PREDICTED BY RF-SCORE:    0.00 PKD
ROOT
HETATM    1  C   UNL     1     -10.730  16.569  68.601  1.00  0.00    -0.334 C  
HETATM    2  N   UNL     1     -11.482  15.352  68.296  1.00  0.00    -0.345 NA 
HETATM    3  C   UNL     1     -11.739  15.230  66.844  1.00  0.00     0.014 C  
HETATM    4  C   UNL     1     -10.501  14.847  66.011  1.00  0.00    -0.316 C  
HETATM    5  N   UNL     1      -9.856  13.653  66.553  1.00  0.00    -0.285 N  
HETATM    6  C   UNL     1      -9.538  13.722  67.979  1.00  0.00    -0.214 C  
HETATM    7  C   UNL     1      -9.761  12.533  65.755  1.00  0.00    -0.187 C  
HETATM    8  O   UNL     1     -10.218  12.498  64.619  1.00  0.00    -0.302 OA 
HETATM    9  C   UNL     1     -10.791  14.137  68.787  1.00  0.00    -0.258 C  
ENDROOT
BRANCH   7  10
HETATM   10  O   UNL     1      -9.091  11.496  66.319  1.00  0.00    -0.200 OA 
BRANCH  10  11
HETATM   11  C   UNL     1      -9.659  10.184  66.114  1.00  0.00    -0.203 C  
HETATM   12  N   UNL     1      -9.793   9.436  67.349  1.00  0.00    -0.162 N  
HETATM   13  C   UNL     1      -9.111   8.212  67.273  1.00  0.00    -0.138 C  
HETATM   14  C   UNL     1      -8.884   9.260  65.205  1.00  0.00    -0.198 A  
HETATM   15  N   UNL     1      -8.623   9.428  63.889  1.00  0.00    -0.204 NA 
HETATM   16  C   UNL     1      -8.559   8.115  65.906  1.00  0.00    -0.151 A  
HETATM   17  O   UNL     1      -9.016   7.313  68.090  1.00  0.00    -0.133 OA 
HETATM   18  C   UNL     1      -7.982   8.365  63.332  1.00  0.00    -0.160 A  
HETATM   19  N   UNL     1      -7.947   7.044  65.362  1.00  0.00    -0.122 NA 
HETATM   20  C   UNL     1      -7.653   7.210  64.049  1.00  0.00    -0.113 A  
BRANCH  12  21
HETATM   21  C   UNL     1     -10.547   9.867  68.453  1.00  0.00    -0.222 A  
HETATM   22 CL   UNL     1     -12.966  11.092  72.023  1.00  0.00    -0.499 Cl 
HETATM   23  C   UNL     1     -12.387  11.126  69.388  1.00  0.00    -0.224 A  
HETATM   24  C   UNL     1     -10.961   9.808  70.743  1.00  0.00    -0.336 A  
HETATM   25  N   UNL     1     -10.224   9.407  69.679  1.00  0.00    -0.200 NA 
HETATM   26  C   UNL     1     -11.619  10.744  68.283  1.00  0.00    -0.297 A  
HETATM   27  C   UNL     1     -12.050  10.650  70.644  1.00  0.00    -0.365 A  
ENDBRANCH  12  21
ENDBRANCH  10  11
ENDBRANCH   7  10
TORSDOF 3
ENDMDL
MODEL       85
REMARK 921   NORMALIZED FREE ENERGY PREDICTED BY IDOCK:   -5.18 KCAL/MOL
REMARK 922        TOTAL FREE ENERGY PREDICTED BY IDOCK:   -6.69 KCAL/MOL
REMARK 923 INTER-LIGAND FREE ENERGY PREDICTED BY IDOCK:   -6.19 KCAL/MOL
REMARK 924 INTRA-LIGAND FREE ENERGY PREDICTED BY IDOCK:   -0.50 KCAL/MOL
REMARK 927      BINDING AFFINITY PREDICTED BY RF-SCORE:    0.00 PKD
ROOT
HETATM    1  C   UNL     1     -11.381  11.050  68.556  1.00  0.00    -0.287 C  
HETATM    2  N   UNL     1     -11.799  12.123  67.653  1.00  0.00    -0.535 NA 
HETATM    3  C   UNL     1     -12.034  13.384  68.392  1.00  0.00    -0.324 C  
HETATM    4  C   UNL     1     -10.751  14.088  68.870  1.00  0.00    -0.248 C  
HETATM    5  N   UNL     1      -9.813  14.271  67.764  1.00  0.00    -0.220 N  
HETATM    6  C   UNL     1      -9.505  13.054  67.014  1.00  0.00    -0.237 C  
HETATM    7  C   UNL     1      -9.443  15.553  67.415  1.00  0.00    -0.211 C  
HETATM    8  O   UNL     1      -9.892  16.540  67.985  1.00  0.00    -0.233 OA 
HETATM    9  C   UNL     1     -10.812  12.352  66.572  1.00  0.00    -0.250 C  
ENDROOT
BRANCH   7  10
HETATM   10  O   UNL     1      -8.522  15.621  66.421  1.00  0.00    -0.284 OA 
BRANCH  10  11
HETATM   11  C   UNL     1      -7.296  16.319  66.736  1.00  0.00    -0.208 C  
HETATM   12  N   UNL     1      -6.722  15.893  67.998  1.00  0.00    -0.119 N  
HETATM   13  C   UNL     1      -6.557  16.981  68.869  1.00  0.00    -0.196 C  
HETATM   14  C   UNL     1      -7.401  17.819  66.866  1.00  0.00    -0.199 A  
HETATM   15  N   UNL     1      -7.740  18.706  65.904  1.00  0.00    -0.490 NA 
HETATM   16  C   UNL     1      -6.977  18.188  68.128  1.00  0.00    -0.222 A  
HETATM   17  O   UNL     1      -6.089  17.024  69.992  1.00  0.00    -0.230 OA 
HETATM   18  C   UNL     1      -7.646  20.001  66.314  1.00  0.00    -0.303 A  
HETATM   19  N   UNL     1      -6.856  19.466  68.540  1.00  0.00    -0.278 NA 
HETATM   20  C   UNL     1      -7.220  20.366  67.595  1.00  0.00    -0.308 A  
BRANCH  12  21
HETATM   21  C   UNL     1      -6.341  14.571  68.284  1.00  0.00    -0.121 A  
HETATM   22 CL   UNL     1      -5.183  10.310  69.058  1.00  0.00    -0.035 Cl 
HETATM   23  C   UNL     1      -6.324  12.654  69.756  1.00  0.00    -0.070 A  
HETATM   24  C   UNL     1      -5.308  12.594  67.617  1.00  0.00    -0.120 A  
HETATM   25  N   UNL     1      -5.663  13.875  67.350  1.00  0.00    -0.326 NA 
HETATM   26  C   UNL     1      -6.671  13.985  69.507  1.00  0.00    -0.091 A  
HETATM   27  C   UNL     1      -5.626  11.944  68.793  1.00  0.00    -0.049 A  
ENDBRANCH  12  21
ENDBRANCH  10  11
ENDBRANCH   7  10
TORSDOF 3
ENDMDL
MODEL       86
REMARK 921   NORMALIZED FREE ENERGY PREDICTED BY IDOCK:   -5.14 KCAL/MOL
REMARK 922        TOTAL FREE ENERGY PREDICTED BY IDOCK:   -6.64 KCAL/MOL
REMARK 923 INTER-LIGAND FREE ENERGY PREDICTED BY IDOCK:   -5.58 KCAL/MOL
REMARK 924 INTRA-LIGAND FREE ENERGY PREDICTED BY IDOCK:   -1.06 KCAL/MOL
REMARK 927      BINDING AFFINITY PREDICTED BY RF-SCORE:    0.00 PKD
ROOT
HETATM    1  C   UNL     1      -5.622  20.188  68.779  1.00  0.00    -0.243 C  
HETATM    2  N   UNL     1      -6.428  19.462  67.797  1.00  0.00    -0.219 NA 
HETATM    3  C   UNL     1      -5.604  18.497  67.036  1.00  0.00    -0.139 C  
HETATM    4  C   UNL     1      -5.190  17.247  67.835  1.00  0.00    -0.118 C  
HETATM    5  N   UNL     1      -6.354  16.608  68.445  1.00  0.00    -0.131 N  
HETATM    6  C   UNL     1      -7.193  17.499  69.245  1.00  0.00    -0.088 C  
HETATM    7  C   UNL     1      -6.658  15.311  68.089  1.00  0.00    -0.125 C  
HETATM    8  O   UNL     1      -6.001  14.688  67.265  1.00  0.00    -0.300 OA 
HETATM    9  C   UNL     1      -7.569  18.759  68.429  1.00  0.00    -0.301 C  
ENDROOT
BRANCH   7  10
HETATM   10  O   UNL     1      -7.716  14.780  68.753  1.00  0.00    -0.122 OA 
BRANCH  10  11
HETATM   11  C   UNL     1      -8.652  14.021  67.955  1.00  0.00    -0.179 C  
HETATM   12  N   UNL     1      -9.946  14.667  67.850  1.00  0.00    -0.219 N  
HETATM   13  C   UNL     1     -10.969  13.823  68.306  1.00  0.00    -0.250 C  
HETATM   14  C   UNL     1      -8.972  12.632  68.450  1.00  0.00    -0.125 A  
HETATM   15  N   UNL     1      -8.124  11.586  68.574  1.00  0.00    -0.145 NA 
HETATM   16  C   UNL     1     -10.334  12.538  68.665  1.00  0.00    -0.177 A  
HETATM   17  O   UNL     1     -12.173  14.000  68.350  1.00  0.00    -0.332 OA 
HETATM   18  C   UNL     1      -8.745  10.437  68.958  1.00  0.00    -0.168 A  
HETATM   19  N   UNL     1     -10.966  11.401  69.021  1.00  0.00    -0.223 NA 
HETATM   20  C   UNL     1     -10.124  10.351  69.177  1.00  0.00    -0.222 A  
BRANCH  12  21
HETATM   21  C   UNL     1     -10.144  15.953  67.317  1.00  0.00    -0.260 A  
HETATM   22 CL   UNL     1     -10.622  20.059  65.581  1.00  0.00    -0.499 Cl 
HETATM   23  C   UNL     1     -10.971  18.215  67.522  1.00  0.00    -0.123 A  
HETATM   24  C   UNL     1      -9.828  17.474  65.584  1.00  0.00     0.177 A  
HETATM   25  N   UNL     1      -9.652  16.230  66.093  1.00  0.00    -0.310 NA 
HETATM   26  C   UNL     1     -10.824  16.928  68.049  1.00  0.00    -0.338 A  
HETATM   27  C   UNL     1     -10.465  18.494  66.262  1.00  0.00    -0.406 A  
ENDBRANCH  12  21
ENDBRANCH  10  11
ENDBRANCH   7  10
TORSDOF 3
ENDMDL
MODEL       87
REMARK 921   NORMALIZED FREE ENERGY PREDICTED BY IDOCK:   -5.13 KCAL/MOL
REMARK 922        TOTAL FREE ENERGY PREDICTED BY IDOCK:   -6.64 KCAL/MOL
REMARK 923 INTER-LIGAND FREE ENERGY PREDICTED BY IDOCK:   -5.68 KCAL/MOL
REMARK 924 INTRA-LIGAND FREE ENERGY PREDICTED BY IDOCK:   -0.96 KCAL/MOL
REMARK 927      BINDING AFFINITY PREDICTED BY RF-SCORE:    0.00 PKD
ROOT
HETATM    1  C   UNL     1     -10.380   4.492  73.617  1.00  0.00    -0.190 C  
HETATM    2  N   UNL     1     -10.990   5.817  73.507  1.00  0.00    -0.233 NA 
HETATM    3  C   UNL     1     -10.020   6.883  73.846  1.00  0.00    -0.331 C  
HETATM    4  C   UNL     1      -8.946   7.128  72.770  1.00  0.00    -0.133 C  
HETATM    5  N   UNL     1      -9.559   7.344  71.460  1.00  0.00    -0.152 N  
HETATM    6  C   UNL     1     -10.501   6.305  71.046  1.00  0.00    -0.225 C  
HETATM    7  C   UNL     1      -9.347   8.547  70.821  1.00  0.00    -0.172 C  
HETATM    8  O   UNL     1      -8.684   9.446  71.323  1.00  0.00    -0.295 OA 
HETATM    9  C   UNL     1     -11.549   6.058  72.156  1.00  0.00    -0.293 C  
ENDROOT
BRANCH   7  10
HETATM   10  O   UNL     1      -9.900   8.631  69.585  1.00  0.00    -0.180 OA 
BRANCH  10  11
HETATM   11  C   UNL     1      -8.994   8.930  68.500  1.00  0.00    -0.134 C  
HETATM   12  N   UNL     1      -9.588   9.798  67.502  1.00  0.00    -0.147 N  
HETATM   13  C   UNL     1      -9.551   9.205  66.231  1.00  0.00    -0.255 C  
HETATM   14  C   UNL     1      -8.493   7.747  67.708  1.00  0.00    -0.121 A  
HETATM   15  N   UNL     1      -7.731   6.722  68.153  1.00  0.00    -0.107 NA 
HETATM   16  C   UNL     1      -8.841   7.918  66.382  1.00  0.00    -0.158 A  
HETATM   17  O   UNL     1      -9.924   9.631  65.153  1.00  0.00    -0.263 OA 
HETATM   18  C   UNL     1      -7.364   5.861  67.165  1.00  0.00    -0.077 A  
HETATM   19  N   UNL     1      -8.464   7.087  65.389  1.00  0.00    -0.122 NA 
HETATM   20  C   UNL     1      -7.724   6.039  65.825  1.00  0.00    -0.097 A  
BRANCH  12  21
HETATM   21  C   UNL     1     -10.090  11.083  67.773  1.00  0.00    -0.177 A  
HETATM   22 CL   UNL     1     -11.770  15.175  68.500  1.00  0.00    -0.355 Cl 
HETATM   23  C   UNL     1      -9.743  13.398  68.378  1.00  0.00    -0.201 A  
HETATM   24  C   UNL     1     -11.897  12.545  67.884  1.00  0.00    -0.323 A  
HETATM   25  N   UNL     1     -11.413  11.304  67.640  1.00  0.00    -0.482 NA 
HETATM   26  C   UNL     1      -9.232  12.115  68.158  1.00  0.00    -0.197 A  
HETATM   27  C   UNL     1     -11.104  13.618  68.241  1.00  0.00    -0.256 A  
ENDBRANCH  12  21
ENDBRANCH  10  11
ENDBRANCH   7  10
TORSDOF 3
ENDMDL
MODEL       88
REMARK 921   NORMALIZED FREE ENERGY PREDICTED BY IDOCK:   -5.12 KCAL/MOL
REMARK 922        TOTAL FREE ENERGY PREDICTED BY IDOCK:   -6.62 KCAL/MOL
REMARK 923 INTER-LIGAND FREE ENERGY PREDICTED BY IDOCK:   -6.07 KCAL/MOL
REMARK 924 INTRA-LIGAND FREE ENERGY PREDICTED BY IDOCK:   -0.55 KCAL/MOL
REMARK 927      BINDING AFFINITY PREDICTED BY RF-SCORE:    0.00 PKD
ROOT
HETATM    1  C   UNL     1     -10.524   6.179  72.513  1.00  0.00    -0.201 C  
HETATM    2  N   UNL     1     -11.740   6.820  72.012  1.00  0.00    -0.293 NA 
HETATM    3  C   UNL     1     -11.806   8.240  72.424  1.00  0.00    -0.396 C  
HETATM    4  C   UNL     1     -10.833   9.165  71.670  1.00  0.00    -0.372 C  
HETATM    5  N   UNL     1     -10.980   9.009  70.224  1.00  0.00    -0.241 N  
HETATM    6  C   UNL     1     -10.886   7.632  69.743  1.00  0.00    -0.217 C  
HETATM    7  C   UNL     1     -11.357  10.104  69.475  1.00  0.00    -0.206 C  
HETATM    8  O   UNL     1     -11.594  11.193  69.984  1.00  0.00    -0.296 OA 
HETATM    9  C   UNL     1     -11.851   6.719  70.538  1.00  0.00    -0.362 C  
ENDROOT
BRANCH   7  10
HETATM   10  O   UNL     1     -11.405   9.881  68.138  1.00  0.00    -0.151 OA 
BRANCH  10  11
HETATM   11  C   UNL     1     -10.560  10.722  67.321  1.00  0.00    -0.257 C  
HETATM   12  N   UNL     1      -9.220  10.852  67.858  1.00  0.00    -0.149 N  
HETATM   13  C   UNL     1      -8.891  12.199  68.072  1.00  0.00    -0.181 C  
HETATM   14  C   UNL     1     -11.023  12.146  67.134  1.00  0.00    -0.268 A  
HETATM   15  N   UNL     1     -12.152  12.572  66.525  1.00  0.00    -0.585 NA 
HETATM   16  C   UNL     1     -10.038  12.999  67.594  1.00  0.00    -0.217 A  
HETATM   17  O   UNL     1      -7.860  12.701  68.482  1.00  0.00    -0.137 OA 
HETATM   18  C   UNL     1     -12.232  13.927  66.434  1.00  0.00    -0.449 A  
HETATM   19  N   UNL     1     -10.091  14.342  67.488  1.00  0.00    -0.231 NA 
HETATM   20  C   UNL     1     -11.232  14.784  66.905  1.00  0.00    -0.347 A  
BRANCH  12  21
HETATM   21  C   UNL     1      -8.353   9.769  68.086  1.00  0.00    -0.110 A  
HETATM   22 CL   UNL     1      -5.485   6.415  68.877  1.00  0.00    -0.015 Cl 
HETATM   23  C   UNL     1      -7.156   7.824  67.293  1.00  0.00    -0.086 A  
HETATM   24  C   UNL     1      -6.954   8.591  69.525  1.00  0.00    -0.048 A  
HETATM   25  N   UNL     1      -7.803   9.625  69.308  1.00  0.00    -0.090 NA 
HETATM   26  C   UNL     1      -8.056   8.869  67.061  1.00  0.00    -0.109 A  
HETATM   27  C   UNL     1      -6.594   7.680  68.552  1.00  0.00    -0.053 A  
ENDBRANCH  12  21
ENDBRANCH  10  11
ENDBRANCH   7  10
TORSDOF 3
ENDMDL
MODEL       89
REMARK 921   NORMALIZED FREE ENERGY PREDICTED BY IDOCK:   -5.10 KCAL/MOL
REMARK 922        TOTAL FREE ENERGY PREDICTED BY IDOCK:   -6.60 KCAL/MOL
REMARK 923 INTER-LIGAND FREE ENERGY PREDICTED BY IDOCK:   -6.73 KCAL/MOL
REMARK 924 INTRA-LIGAND FREE ENERGY PREDICTED BY IDOCK:    0.14 KCAL/MOL
REMARK 927      BINDING AFFINITY PREDICTED BY RF-SCORE:    0.00 PKD
ROOT
HETATM    1  C   UNL     1      -8.653   5.118  64.737  1.00  0.00    -0.148 C  
HETATM    2  N   UNL     1      -9.512   4.259  65.550  1.00  0.00    -0.163 NA 
HETATM    3  C   UNL     1      -8.805   3.785  66.761  1.00  0.00    -0.126 C  
HETATM    4  C   UNL     1      -8.611   4.862  67.844  1.00  0.00    -0.103 C  
HETATM    5  N   UNL     1      -9.880   5.508  68.172  1.00  0.00    -0.135 N  
HETATM    6  C   UNL     1     -10.615   6.035  67.023  1.00  0.00    -0.316 C  
HETATM    7  C   UNL     1     -10.354   5.419  69.464  1.00  0.00    -0.280 C  
HETATM    8  O   UNL     1      -9.759   4.798  70.336  1.00  0.00    -0.181 OA 
HETATM    9  C   UNL     1     -10.769   4.942  65.938  1.00  0.00    -0.179 C  
ENDROOT
BRANCH   7  10
HETATM   10  O   UNL     1     -11.505   6.101  69.689  1.00  0.00    -0.429 OA 
BRANCH  10  11
HETATM   11  C   UNL     1     -11.549   6.893  70.897  1.00  0.00    -0.337 C  
HETATM   12  N   UNL     1     -10.770   8.112  70.792  1.00  0.00    -0.219 N  
HETATM   13  C   UNL     1      -9.802   8.180  71.806  1.00  0.00    -0.194 C  
HETATM   14  C   UNL     1     -11.027   6.228  72.147  1.00  0.00    -0.257 A  
HETATM   15  N   UNL     1     -11.524   5.133  72.765  1.00  0.00    -0.248 NA 
HETATM   16  C   UNL     1      -9.993   6.989  72.658  1.00  0.00    -0.173 A  
HETATM   17  O   UNL     1      -8.989   9.050  72.058  1.00  0.00    -0.374 OA 
HETATM   18  C   UNL     1     -10.883   4.841  73.930  1.00  0.00    -0.294 A  
HETATM   19  N   UNL     1      -9.367   6.726  73.823  1.00  0.00    -0.162 NA 
HETATM   20  C   UNL     1      -9.835   5.614  74.439  1.00  0.00    -0.221 A  
BRANCH  12  21
HETATM   21  C   UNL     1     -10.993   9.110  69.827  1.00  0.00    -0.181 A  
HETATM   22 CL   UNL     1     -11.548  12.292  66.719  1.00  0.00    -0.433 Cl 
HETATM   23  C   UNL     1     -11.911  11.251  69.182  1.00  0.00    -0.423 A  
HETATM   24  C   UNL     1     -10.660   9.923  67.672  1.00  0.00    -0.270 A  
HETATM   25  N   UNL     1     -10.460   8.954  68.599  1.00  0.00    -0.212 NA 
HETATM   26  C   UNL     1     -11.739  10.247  70.141  1.00  0.00    -0.364 A  
HETATM   27  C   UNL     1     -11.362  11.085  67.921  1.00  0.00    -0.311 A  
ENDBRANCH  12  21
ENDBRANCH  10  11
ENDBRANCH   7  10
TORSDOF 3
ENDMDL
MODEL       90
REMARK 921   NORMALIZED FREE ENERGY PREDICTED BY IDOCK:   -5.09 KCAL/MOL
REMARK 922        TOTAL FREE ENERGY PREDICTED BY IDOCK:   -6.59 KCAL/MOL
REMARK 923 INTER-LIGAND FREE ENERGY PREDICTED BY IDOCK:   -5.35 KCAL/MOL
REMARK 924 INTRA-LIGAND FREE ENERGY PREDICTED BY IDOCK:   -1.24 KCAL/MOL
REMARK 927      BINDING AFFINITY PREDICTED BY RF-SCORE:    0.00 PKD
ROOT
HETATM    1  C   UNL     1     -10.063  11.144  64.907  1.00  0.00    -0.289 C  
HETATM    2  N   UNL     1      -9.128  10.599  65.892  1.00  0.00    -0.173 NA 
HETATM    3  C   UNL     1      -9.170  11.369  67.155  1.00  0.00    -0.166 C  
HETATM    4  C   UNL     1     -10.432  11.128  68.004  1.00  0.00    -0.188 C  
HETATM    5  N   UNL     1     -10.645   9.700  68.230  1.00  0.00    -0.222 N  
HETATM    6  C   UNL     1     -10.653   8.882  67.017  1.00  0.00    -0.209 C  
HETATM    7  C   UNL     1     -10.642   9.227  69.525  1.00  0.00    -0.224 C  
HETATM    8  O   UNL     1     -10.446   9.959  70.487  1.00  0.00    -0.284 OA 
HETATM    9  C   UNL     1      -9.390   9.167  66.169  1.00  0.00    -0.228 C  
ENDROOT
BRANCH   7  10
HETATM   10  O   UNL     1     -10.910   7.902  69.640  1.00  0.00    -0.242 OA 
BRANCH  10  11
HETATM   11  C   UNL     1      -9.882   7.096  70.257  1.00  0.00    -0.176 C  
HETATM   12  N   UNL     1      -9.674   5.837  69.568  1.00  0.00    -0.146 N  
HETATM   13  C   UNL     1      -9.847   4.751  70.440  1.00  0.00    -0.239 C  
HETATM   14  C   UNL     1     -10.123   6.696  71.692  1.00  0.00    -0.184 A  
HETATM   15  N   UNL     1     -10.226   7.510  72.767  1.00  0.00    -0.229 NA 
HETATM   16  C   UNL     1     -10.114   5.317  71.779  1.00  0.00    -0.200 A  
HETATM   17  O   UNL     1      -9.732   3.555  70.239  1.00  0.00    -0.183 OA 
HETATM   18  C   UNL     1     -10.347   6.832  73.941  1.00  0.00    -0.368 A  
HETATM   19  N   UNL     1     -10.207   4.632  72.936  1.00  0.00    -0.172 NA 
HETATM   20  C   UNL     1     -10.341   5.435  74.020  1.00  0.00    -0.272 A  
BRANCH  12  21
HETATM   21  C   UNL     1      -9.303   5.729  68.217  1.00  0.00    -0.117 A  
HETATM   22 CL   UNL     1      -8.178   5.239  63.905  1.00  0.00    -0.124 Cl 
HETATM   23  C   UNL     1      -7.644   5.900  66.466  1.00  0.00    -0.095 A  
HETATM   24  C   UNL     1      -9.853   5.168  66.026  1.00  0.00    -0.163 A  
HETATM   25  N   UNL     1     -10.214   5.288  67.327  1.00  0.00    -0.202 NA 
HETATM   26  C   UNL     1      -8.009   6.058  67.807  1.00  0.00    -0.105 A  
HETATM   27  C   UNL     1      -8.586   5.448  65.556  1.00  0.00    -0.148 A  
ENDBRANCH  12  21
ENDBRANCH  10  11
ENDBRANCH   7  10
TORSDOF 3
ENDMDL
MODEL       91
REMARK 921   NORMALIZED FREE ENERGY PREDICTED BY IDOCK:   -5.04 KCAL/MOL
REMARK 922        TOTAL FREE ENERGY PREDICTED BY IDOCK:   -6.53 KCAL/MOL
REMARK 923 INTER-LIGAND FREE ENERGY PREDICTED BY IDOCK:   -5.99 KCAL/MOL
REMARK 924 INTRA-LIGAND FREE ENERGY PREDICTED BY IDOCK:   -0.55 KCAL/MOL
REMARK 927      BINDING AFFINITY PREDICTED BY RF-SCORE:    0.00 PKD
ROOT
HETATM    1  C   UNL     1      -8.562   8.565  62.365  1.00  0.00    -0.132 C  
HETATM    2  N   UNL     1      -8.161   9.968  62.477  1.00  0.00    -0.132 NA 
HETATM    3  C   UNL     1      -9.340  10.861  62.516  1.00  0.00    -0.274 C  
HETATM    4  C   UNL     1     -10.118  10.828  63.845  1.00  0.00    -0.333 C  
HETATM    5  N   UNL     1      -9.224  11.054  64.979  1.00  0.00    -0.209 N  
HETATM    6  C   UNL     1      -8.055  10.177  65.023  1.00  0.00    -0.149 C  
HETATM    7  C   UNL     1      -9.446  12.148  65.787  1.00  0.00    -0.147 C  
HETATM    8  O   UNL     1     -10.351  12.946  65.574  1.00  0.00    -0.283 OA 
HETATM    9  C   UNL     1      -7.310  10.207  63.666  1.00  0.00    -0.123 C  
ENDROOT
BRANCH   7  10
HETATM   10  O   UNL     1      -8.607  12.242  66.849  1.00  0.00    -0.193 OA 
BRANCH  10  11
HETATM   11  C   UNL     1      -9.232  12.316  68.150  1.00  0.00    -0.197 C  
HETATM   12  N   UNL     1     -10.187  11.247  68.370  1.00  0.00    -0.188 N  
HETATM   13  C   UNL     1     -11.455  11.761  68.681  1.00  0.00    -0.288 C  
HETATM   14  C   UNL     1     -10.012  13.574  68.442  1.00  0.00    -0.232 A  
HETATM   15  N   UNL     1      -9.536  14.837  68.523  1.00  0.00    -0.212 NA 
HETATM   16  C   UNL     1     -11.317  13.231  68.737  1.00  0.00    -0.290 A  
HETATM   17  O   UNL     1     -12.492  11.184  68.952  1.00  0.00    -0.460 OA 
HETATM   18  C   UNL     1     -10.482  15.741  68.899  1.00  0.00    -0.223 A  
HETATM   19  N   UNL     1     -12.258  14.111  69.135  1.00  0.00    -0.312 NA 
HETATM   20  C   UNL     1     -11.803  15.386  69.192  1.00  0.00    -0.335 A  
BRANCH  12  21
HETATM   21  C   UNL     1      -9.866   9.880  68.321  1.00  0.00    -0.147 A  
HETATM   22 CL   UNL     1      -8.689   5.558  68.141  1.00  0.00    -0.103 Cl 
HETATM   23  C   UNL     1     -10.235   7.657  67.446  1.00  0.00    -0.320 A  
HETATM   24  C   UNL     1      -8.504   8.116  68.996  1.00  0.00    -0.129 A  
HETATM   25  N   UNL     1      -8.826   9.431  69.054  1.00  0.00    -0.137 NA 
HETATM   26  C   UNL     1     -10.599   9.006  67.517  1.00  0.00    -0.306 A  
HETATM   27  C   UNL     1      -9.168   7.202  68.202  1.00  0.00    -0.131 A  
ENDBRANCH  12  21
ENDBRANCH  10  11
ENDBRANCH   7  10
TORSDOF 3
ENDMDL
MODEL       92
REMARK 921   NORMALIZED FREE ENERGY PREDICTED BY IDOCK:   -5.03 KCAL/MOL
REMARK 922        TOTAL FREE ENERGY PREDICTED BY IDOCK:   -6.52 KCAL/MOL
REMARK 923 INTER-LIGAND FREE ENERGY PREDICTED BY IDOCK:   -5.79 KCAL/MOL
REMARK 924 INTRA-LIGAND FREE ENERGY PREDICTED BY IDOCK:   -0.72 KCAL/MOL
REMARK 927      BINDING AFFINITY PREDICTED BY RF-SCORE:    0.00 PKD
ROOT
HETATM    1  C   UNL     1      -6.181   9.024  67.984  1.00  0.00    -0.051 C  
HETATM    2  N   UNL     1      -7.439   9.717  67.708  1.00  0.00    -0.090 NA 
HETATM    3  C   UNL     1      -7.934  10.429  68.907  1.00  0.00    -0.123 C  
HETATM    4  C   UNL     1      -7.142  11.702  69.261  1.00  0.00    -0.055 C  
HETATM    5  N   UNL     1      -7.037  12.590  68.104  1.00  0.00    -0.092 N  
HETATM    6  C   UNL     1      -6.517  11.958  66.892  1.00  0.00    -0.095 C  
HETATM    7  C   UNL     1      -7.580  13.855  68.190  1.00  0.00    -0.134 C  
HETATM    8  O   UNL     1      -8.165  14.248  69.191  1.00  0.00    -0.046 OA 
HETATM    9  C   UNL     1      -7.311  10.667  66.577  1.00  0.00    -0.134 C  
ENDROOT
BRANCH   7  10
HETATM   10  O   UNL     1      -7.378  14.628  67.093  1.00  0.00    -0.152 OA 
BRANCH  10  11
HETATM   11  C   UNL     1      -8.559  15.216  66.503  1.00  0.00    -0.191 C  
HETATM   12  N   UNL     1      -9.043  16.360  67.252  1.00  0.00    -0.198 N  
HETATM   13  C   UNL     1     -10.377  16.177  67.646  1.00  0.00    -0.288 C  
HETATM   14  C   UNL     1      -9.764  14.315  66.387  1.00  0.00    -0.299 A  
HETATM   15  N   UNL     1      -9.878  13.184  65.654  1.00  0.00    -0.211 NA 
HETATM   16  C   UNL     1     -10.816  14.886  67.076  1.00  0.00    -0.315 A  
HETATM   17  O   UNL     1     -11.125  16.917  68.259  1.00  0.00    -0.349 OA 
HETATM   18  C   UNL     1     -11.130  12.652  65.685  1.00  0.00    -0.292 A  
HETATM   19  N   UNL     1     -12.068  14.385  67.095  1.00  0.00    -0.394 NA 
HETATM   20  C   UNL     1     -12.190  13.235  66.388  1.00  0.00    -0.356 A  
BRANCH  12  21
HETATM   21  C   UNL     1      -8.284  17.515  67.505  1.00  0.00    -0.207 A  
HETATM   22 CL   UNL     1      -5.931  21.212  68.453  1.00  0.00    -0.346 Cl 
HETATM   23  C   UNL     1      -7.502  19.709  66.854  1.00  0.00    -0.258 A  
HETATM   24  C   UNL     1      -6.906  18.736  68.930  1.00  0.00    -0.291 A  
HETATM   25  N   UNL     1      -7.626  17.616  68.677  1.00  0.00    -0.270 NA 
HETATM   26  C   UNL     1      -8.225  18.547  66.566  1.00  0.00    -0.299 A  
HETATM   27  C   UNL     1      -6.827  19.805  68.060  1.00  0.00    -0.262 A  
ENDBRANCH  12  21
ENDBRANCH  10  11
ENDBRANCH   7  10
TORSDOF 3
ENDMDL
MODEL       93
REMARK 921   NORMALIZED FREE ENERGY PREDICTED BY IDOCK:   -5.01 KCAL/MOL
REMARK 922        TOTAL FREE ENERGY PREDICTED BY IDOCK:   -6.50 KCAL/MOL
REMARK 923 INTER-LIGAND FREE ENERGY PREDICTED BY IDOCK:   -5.26 KCAL/MOL
REMARK 924 INTRA-LIGAND FREE ENERGY PREDICTED BY IDOCK:   -1.23 KCAL/MOL
REMARK 927      BINDING AFFINITY PREDICTED BY RF-SCORE:    0.00 PKD
ROOT
HETATM    1  C   UNL     1     -11.546  13.564  66.326  1.00  0.00    -0.345 C  
HETATM    2  N   UNL     1     -10.513  13.135  67.269  1.00  0.00    -0.242 NA 
HETATM    3  C   UNL     1     -10.939  13.357  68.669  1.00  0.00    -0.260 C  
HETATM    4  C   UNL     1     -12.011  12.372  69.170  1.00  0.00    -0.240 C  
HETATM    5  N   UNL     1     -11.599  10.989  68.939  1.00  0.00    -0.289 N  
HETATM    6  C   UNL     1     -11.201  10.690  67.564  1.00  0.00    -0.253 C  
HETATM    7  C   UNL     1     -11.451  10.152  70.025  1.00  0.00    -0.277 C  
HETATM    8  O   UNL     1     -11.632  10.535  71.174  1.00  0.00    -0.307 OA 
HETATM    9  C   UNL     1     -10.146  11.712  67.076  1.00  0.00    -0.209 C  
ENDROOT
BRANCH   7  10
HETATM   10  O   UNL     1     -11.128   8.873  69.709  1.00  0.00    -0.200 OA 
BRANCH  10  11
HETATM   11  C   UNL     1      -9.945   8.340  70.344  1.00  0.00    -0.188 C  
HETATM   12  N   UNL     1      -9.100   7.606  69.421  1.00  0.00    -0.143 N  
HETATM   13  C   UNL     1      -8.888   6.293  69.867  1.00  0.00    -0.141 C  
HETATM   14  C   UNL     1     -10.178   7.372  71.478  1.00  0.00    -0.192 A  
HETATM   15  N   UNL     1     -10.784   7.621  72.661  1.00  0.00    -0.290 NA 
HETATM   16  C   UNL     1      -9.564   6.172  71.175  1.00  0.00    -0.175 A  
HETATM   17  O   UNL     1      -8.222   5.396  69.382  1.00  0.00    -0.094 OA 
HETATM   18  C   UNL     1     -10.750   6.561  73.513  1.00  0.00    -0.263 A  
HETATM   19  N   UNL     1      -9.501   5.122  72.018  1.00  0.00    -0.147 NA 
HETATM   20  C   UNL     1     -10.130   5.347  73.197  1.00  0.00    -0.181 A  
BRANCH  12  21
HETATM   21  C   UNL     1      -8.536   8.160  68.259  1.00  0.00    -0.130 A  
HETATM   22 CL   UNL     1      -6.756  10.071  64.615  1.00  0.00    -0.124 Cl 
HETATM   23  C   UNL     1      -8.440   8.363  65.852  1.00  0.00    -0.159 A  
HETATM   24  C   UNL     1      -7.032   9.636  67.269  1.00  0.00    -0.085 A  
HETATM   25  N   UNL     1      -7.567   9.088  68.388  1.00  0.00    -0.089 NA 
HETATM   26  C   UNL     1      -8.981   7.767  66.996  1.00  0.00    -0.145 A  
HETATM   27  C   UNL     1      -7.444   9.315  65.991  1.00  0.00    -0.095 A  
ENDBRANCH  12  21
ENDBRANCH  10  11
ENDBRANCH   7  10
TORSDOF 3
ENDMDL
MODEL       94
REMARK 921   NORMALIZED FREE ENERGY PREDICTED BY IDOCK:   -5.01 KCAL/MOL
REMARK 922        TOTAL FREE ENERGY PREDICTED BY IDOCK:   -6.49 KCAL/MOL
REMARK 923 INTER-LIGAND FREE ENERGY PREDICTED BY IDOCK:   -5.99 KCAL/MOL
REMARK 924 INTRA-LIGAND FREE ENERGY PREDICTED BY IDOCK:   -0.50 KCAL/MOL
REMARK 927      BINDING AFFINITY PREDICTED BY RF-SCORE:    0.00 PKD
ROOT
HETATM    1  C   UNL     1      -6.186   9.601  64.743  1.00  0.00    -0.087 C  
HETATM    2  N   UNL     1      -7.423  10.102  65.341  1.00  0.00    -0.139 NA 
HETATM    3  C   UNL     1      -8.604   9.388  64.807  1.00  0.00    -0.180 C  
HETATM    4  C   UNL     1      -8.764   7.948  65.331  1.00  0.00    -0.046 C  
HETATM    5  N   UNL     1      -8.720   7.915  66.791  1.00  0.00    -0.129 N  
HETATM    6  C   UNL     1      -7.556   8.572  67.384  1.00  0.00    -0.097 C  
HETATM    7  C   UNL     1      -9.821   7.445  67.476  1.00  0.00    -0.158 C  
HETATM    8  O   UNL     1     -10.839   7.077  66.902  1.00  0.00    -0.354 OA 
HETATM    9  C   UNL     1      -7.402  10.004  66.819  1.00  0.00    -0.095 C  
ENDROOT
BRANCH   7  10
HETATM   10  O   UNL     1      -9.665   7.393  68.822  1.00  0.00    -0.147 OA 
BRANCH  10  11
HETATM   11  C   UNL     1     -10.575   6.526  69.536  1.00  0.00    -0.246 C  
HETATM   12  N   UNL     1     -10.928   7.045  70.843  1.00  0.00    -0.245 N  
HETATM   13  C   UNL     1     -10.615   6.122  71.853  1.00  0.00    -0.220 C  
HETATM   14  C   UNL     1     -10.079   5.128  69.815  1.00  0.00    -0.266 A  
HETATM   15  N   UNL     1      -9.765   4.170  68.914  1.00  0.00    -0.146 NA 
HETATM   16  C   UNL     1     -10.096   4.914  71.180  1.00  0.00    -0.207 A  
HETATM   17  O   UNL     1     -10.786   6.187  73.057  1.00  0.00    -0.238 OA 
HETATM   18  C   UNL     1      -9.441   2.981  69.490  1.00  0.00    -0.103 A  
HETATM   19  N   UNL     1      -9.802   3.734  71.763  1.00  0.00    -0.174 NA 
HETATM   20  C   UNL     1      -9.457   2.773  70.873  1.00  0.00    -0.154 A  
BRANCH  12  21
HETATM   21  C   UNL     1     -11.545   8.290  71.056  1.00  0.00    -0.275 A  
HETATM   22 CL   UNL     1     -13.373  12.317  71.790  1.00  0.00    -0.452 Cl 
HETATM   23  C   UNL     1     -13.326   9.627  71.997  1.00  0.00    -0.547 A  
HETATM   24  C   UNL     1     -11.527  10.604  70.807  1.00  0.00    -0.214 A  
HETATM   25  N   UNL     1     -10.942   9.401  70.588  1.00  0.00    -0.265 NA 
HETATM   26  C   UNL     1     -12.751   8.375  71.754  1.00  0.00    -0.373 A  
HETATM   27  C   UNL     1     -12.703  10.765  71.512  1.00  0.00    -0.431 A  
ENDBRANCH  12  21
ENDBRANCH  10  11
ENDBRANCH   7  10
TORSDOF 3
ENDMDL
MODEL       95
REMARK 921   NORMALIZED FREE ENERGY PREDICTED BY IDOCK:   -5.00 KCAL/MOL
REMARK 922        TOTAL FREE ENERGY PREDICTED BY IDOCK:   -6.48 KCAL/MOL
REMARK 923 INTER-LIGAND FREE ENERGY PREDICTED BY IDOCK:   -5.85 KCAL/MOL
REMARK 924 INTRA-LIGAND FREE ENERGY PREDICTED BY IDOCK:   -0.63 KCAL/MOL
REMARK 927      BINDING AFFINITY PREDICTED BY RF-SCORE:    0.00 PKD
ROOT
HETATM    1  C   UNL     1     -11.652   5.455  72.770  1.00  0.00    -0.226 C  
HETATM    2  N   UNL     1     -10.411   5.966  72.189  1.00  0.00    -0.195 NA 
HETATM    3  C   UNL     1     -10.251   5.517  70.788  1.00  0.00    -0.235 C  
HETATM    4  C   UNL     1     -11.182   6.224  69.785  1.00  0.00    -0.430 C  
HETATM    5  N   UNL     1     -11.075   7.677  69.908  1.00  0.00    -0.202 N  
HETATM    6  C   UNL     1     -11.262   8.192  71.264  1.00  0.00    -0.260 C  
HETATM    7  C   UNL     1     -10.648   8.403  68.817  1.00  0.00    -0.125 C  
HETATM    8  O   UNL     1     -10.335   7.871  67.760  1.00  0.00    -0.205 OA 
HETATM    9  C   UNL     1     -10.337   7.444  72.254  1.00  0.00    -0.214 C  
ENDROOT
BRANCH   7  10
HETATM   10  O   UNL     1     -10.642   9.747  69.005  1.00  0.00    -0.207 OA 
BRANCH  10  11
HETATM   11  C   UNL     1      -9.368  10.407  68.834  1.00  0.00    -0.186 C  
HETATM   12  N   UNL     1      -8.966  10.489  67.443  1.00  0.00    -0.135 N  
HETATM   13  C   UNL     1      -7.713   9.890  67.243  1.00  0.00    -0.095 C  
HETATM   14  C   UNL     1      -8.188   9.764  69.520  1.00  0.00    -0.144 A  
HETATM   15  N   UNL     1      -8.000   9.596  70.849  1.00  0.00    -0.281 NA 
HETATM   16  C   UNL     1      -7.234   9.454  68.571  1.00  0.00    -0.072 A  
HETATM   17  O   UNL     1      -7.044   9.787  66.232  1.00  0.00    -0.090 OA 
HETATM   18  C   UNL     1      -6.784   9.067  71.154  1.00  0.00    -0.090 A  
HETATM   19  N   UNL     1      -6.016   8.952  68.860  1.00  0.00    -0.043 NA 
HETATM   20  C   UNL     1      -5.824   8.752  70.186  1.00  0.00    -0.027 A  
BRANCH  12  21
HETATM   21  C   UNL     1      -9.719  11.128  66.442  1.00  0.00    -0.204 A  
HETATM   22 CL   UNL     1     -12.228  13.198  63.357  1.00  0.00    -0.594 Cl 
HETATM   23  C   UNL     1     -10.772  11.116  64.265  1.00  0.00    -0.403 A  
HETATM   24  C   UNL     1     -10.933  12.978  65.720  1.00  0.00    -0.277 A  
HETATM   25  N   UNL     1     -10.194  12.367  66.678  1.00  0.00    -0.222 NA 
HETATM   26  C   UNL     1      -9.982  10.484  65.231  1.00  0.00    -0.364 A  
HETATM   27  C   UNL     1     -11.256  12.390  64.513  1.00  0.00    -0.323 A  
ENDBRANCH  12  21
ENDBRANCH  10  11
ENDBRANCH   7  10
TORSDOF 3
ENDMDL
MODEL       96
REMARK 921   NORMALIZED FREE ENERGY PREDICTED BY IDOCK:   -4.99 KCAL/MOL
REMARK 922        TOTAL FREE ENERGY PREDICTED BY IDOCK:   -6.46 KCAL/MOL
REMARK 923 INTER-LIGAND FREE ENERGY PREDICTED BY IDOCK:   -5.54 KCAL/MOL
REMARK 924 INTRA-LIGAND FREE ENERGY PREDICTED BY IDOCK:   -0.93 KCAL/MOL
REMARK 927      BINDING AFFINITY PREDICTED BY RF-SCORE:    0.00 PKD
ROOT
HETATM    1  C   UNL     1     -13.954  14.772  70.938  1.00  0.00    -0.028 C  
HETATM    2  N   UNL     1     -12.582  14.362  71.235  1.00  0.00    -0.329 NA 
HETATM    3  C   UNL     1     -12.552  13.274  72.238  1.00  0.00     0.125 C  
HETATM    4  C   UNL     1     -13.000  11.902  71.700  1.00  0.00    -0.342 C  
HETATM    5  N   UNL     1     -12.260  11.549  70.491  1.00  0.00    -0.377 N  
HETATM    6  C   UNL     1     -12.280  12.566  69.440  1.00  0.00    -0.062 C  
HETATM    7  C   UNL     1     -11.484  10.409  70.500  1.00  0.00    -0.345 C  
HETATM    8  O   UNL     1     -11.377   9.699  71.492  1.00  0.00    -0.381 OA 
HETATM    9  C   UNL     1     -11.855  13.938  70.014  1.00  0.00    -0.315 C  
ENDROOT
BRANCH   7  10
HETATM   10  O   UNL     1     -10.886  10.128  69.315  1.00  0.00    -0.212 OA 
BRANCH  10  11
HETATM   11  C   UNL     1      -9.519  10.575  69.169  1.00  0.00    -0.191 C  
HETATM   12  N   UNL     1      -9.184  10.901  67.797  1.00  0.00    -0.151 N  
HETATM   13  C   UNL     1      -8.082  10.153  67.356  1.00  0.00    -0.114 C  
HETATM   14  C   UNL     1      -8.451   9.595  69.587  1.00  0.00    -0.174 A  
HETATM   15  N   UNL     1      -8.228   9.098  70.825  1.00  0.00    -0.179 NA 
HETATM   16  C   UNL     1      -7.626   9.347  68.507  1.00  0.00    -0.081 A  
HETATM   17  O   UNL     1      -7.500  10.167  66.286  1.00  0.00    -0.102 OA 
HETATM   18  C   UNL     1      -7.122   8.308  70.892  1.00  0.00    -0.053 A  
HETATM   19  N   UNL     1      -6.513   8.587  68.565  1.00  0.00    -0.054 NA 
HETATM   20  C   UNL     1      -6.294   8.059  69.793  1.00  0.00    -0.036 A  
BRANCH  12  21
HETATM   21  C   UNL     1      -9.852  11.873  67.031  1.00  0.00    -0.192 A  
HETATM   22 CL   UNL     1     -11.969  14.878  64.465  1.00  0.00    -0.453 Cl 
HETATM   23  C   UNL     1     -10.085  14.150  66.255  1.00  0.00    -0.308 A  
HETATM   24  C   UNL     1     -11.524  12.423  65.509  1.00  0.00    -0.361 A  
HETATM   25  N   UNL     1     -10.889  11.491  66.260  1.00  0.00    -0.281 NA 
HETATM   26  C   UNL     1      -9.438  13.206  67.058  1.00  0.00    -0.242 A  
HETATM   27  C   UNL     1     -11.151  13.752  65.465  1.00  0.00    -0.298 A  
ENDBRANCH  12  21
ENDBRANCH  10  11
ENDBRANCH   7  10
TORSDOF 3
ENDMDL
MODEL       97
REMARK 921   NORMALIZED FREE ENERGY PREDICTED BY IDOCK:   -4.98 KCAL/MOL
REMARK 922        TOTAL FREE ENERGY PREDICTED BY IDOCK:   -6.46 KCAL/MOL
REMARK 923 INTER-LIGAND FREE ENERGY PREDICTED BY IDOCK:   -5.56 KCAL/MOL
REMARK 924 INTRA-LIGAND FREE ENERGY PREDICTED BY IDOCK:   -0.90 KCAL/MOL
REMARK 927      BINDING AFFINITY PREDICTED BY RF-SCORE:    0.00 PKD
ROOT
HETATM    1  C   UNL     1      -7.668  18.405  66.102  1.00  0.00    -0.218 C  
HETATM    2  N   UNL     1      -7.323  17.771  67.374  1.00  0.00    -0.185 NA 
HETATM    3  C   UNL     1      -8.491  17.715  68.281  1.00  0.00    -0.271 C  
HETATM    4  C   UNL     1      -9.553  16.673  67.883  1.00  0.00    -0.234 C  
HETATM    5  N   UNL     1      -8.948  15.356  67.693  1.00  0.00    -0.179 N  
HETATM    6  C   UNL     1      -7.808  15.333  66.777  1.00  0.00    -0.006 C  
HETATM    7  C   UNL     1      -9.365  14.314  68.493  1.00  0.00    -0.200 C  
HETATM    8  O   UNL     1     -10.207  14.461  69.371  1.00  0.00    -0.123 OA 
HETATM    9  C   UNL     1      -6.772  16.408  67.181  1.00  0.00    -0.203 C  
ENDROOT
BRANCH   7  10
HETATM   10  O   UNL     1      -8.794  13.119  68.202  1.00  0.00    -0.185 OA 
BRANCH  10  11
HETATM   11  C   UNL     1      -9.662  12.126  67.611  1.00  0.00    -0.188 C  
HETATM   12  N   UNL     1      -9.183  10.773  67.820  1.00  0.00    -0.150 N  
HETATM   13  C   UNL     1      -9.010  10.105  66.598  1.00  0.00    -0.140 C  
HETATM   14  C   UNL     1      -9.859  12.221  66.117  1.00  0.00    -0.243 A  
HETATM   15  N   UNL     1     -10.430  13.232  65.425  1.00  0.00    -0.290 NA 
HETATM   16  C   UNL     1      -9.458  11.032  65.538  1.00  0.00    -0.216 A  
HETATM   17  O   UNL     1      -8.652   8.964  66.370  1.00  0.00    -0.119 OA 
HETATM   18  C   UNL     1     -10.546  12.970  64.095  1.00  0.00    -0.397 A  
HETATM   19  N   UNL     1      -9.589  10.749  64.226  1.00  0.00    -0.257 NA 
HETATM   20  C   UNL     1     -10.134  11.765  63.515  1.00  0.00    -0.438 A  
BRANCH  12  21
HETATM   21  C   UNL     1      -8.968  10.200  69.085  1.00  0.00    -0.175 A  
HETATM   22 CL   UNL     1      -8.182   8.267  73.053  1.00  0.00    -0.239 Cl 
HETATM   23  C   UNL     1      -9.814   9.232  71.132  1.00  0.00    -0.342 A  
HETATM   24  C   UNL     1      -7.492   9.418  70.705  1.00  0.00    -0.112 A  
HETATM   25  N   UNL     1      -7.701   9.986  69.493  1.00  0.00    -0.129 NA 
HETATM   26  C   UNL     1     -10.047   9.844  69.897  1.00  0.00    -0.297 A  
HETATM   27  C   UNL     1      -8.510   9.016  71.547  1.00  0.00    -0.022 A  
ENDBRANCH  12  21
ENDBRANCH  10  11
ENDBRANCH   7  10
TORSDOF 3
ENDMDL
MODEL       98
REMARK 921   NORMALIZED FREE ENERGY PREDICTED BY IDOCK:   -4.98 KCAL/MOL
REMARK 922        TOTAL FREE ENERGY PREDICTED BY IDOCK:   -6.46 KCAL/MOL
REMARK 923 INTER-LIGAND FREE ENERGY PREDICTED BY IDOCK:   -5.85 KCAL/MOL
REMARK 924 INTRA-LIGAND FREE ENERGY PREDICTED BY IDOCK:   -0.60 KCAL/MOL
REMARK 927      BINDING AFFINITY PREDICTED BY RF-SCORE:    0.00 PKD
ROOT
HETATM    1  C   UNL     1     -12.380  15.272  64.083  1.00  0.00    -0.044 C  
HETATM    2  N   UNL     1     -12.625  13.985  64.735  1.00  0.00    -0.655 NA 
HETATM    3  C   UNL     1     -12.522  12.867  63.771  1.00  0.00    -0.347 C  
HETATM    4  C   UNL     1     -11.082  12.536  63.336  1.00  0.00    -0.361 C  
HETATM    5  N   UNL     1     -10.218  12.336  64.498  1.00  0.00    -0.299 N  
HETATM    6  C   UNL     1     -10.243  13.424  65.475  1.00  0.00    -0.290 C  
HETATM    7  C   UNL     1      -9.608  11.111  64.665  1.00  0.00    -0.250 C  
HETATM    8  O   UNL     1      -9.784  10.182  63.888  1.00  0.00    -0.297 OA 
HETATM    9  C   UNL     1     -11.702  13.755  65.871  1.00  0.00    -0.352 C  
ENDROOT
BRANCH   7  10
HETATM   10  O   UNL     1      -8.777  11.039  65.735  1.00  0.00    -0.186 OA 
BRANCH  10  11
HETATM   11  C   UNL     1      -9.403  10.784  67.012  1.00  0.00    -0.156 C  
HETATM   12  N   UNL     1      -8.631  11.302  68.125  1.00  0.00    -0.143 N  
HETATM   13  C   UNL     1      -8.320  10.285  69.040  1.00  0.00    -0.148 C  
HETATM   14  C   UNL     1      -9.628   9.333  67.363  1.00  0.00    -0.150 A  
HETATM   15  N   UNL     1     -10.417   8.443  66.721  1.00  0.00    -0.298 NA 
HETATM   16  C   UNL     1      -8.973   9.054  68.548  1.00  0.00    -0.133 A  
HETATM   17  O   UNL     1      -7.717  10.336  70.097  1.00  0.00    -0.147 OA 
HETATM   18  C   UNL     1     -10.481   7.236  67.346  1.00  0.00    -0.289 A  
HETATM   19  N   UNL     1      -9.047   7.872  69.192  1.00  0.00    -0.145 NA 
HETATM   20  C   UNL     1      -9.812   6.961  68.544  1.00  0.00    -0.144 A  
BRANCH  12  21
HETATM   21  C   UNL     1      -8.283  12.655  68.280  1.00  0.00    -0.164 A  
HETATM   22 CL   UNL     1      -7.296  17.010  68.683  1.00  0.00    -0.217 Cl 
HETATM   23  C   UNL     1      -6.650  14.436  68.190  1.00  0.00    -0.133 A  
HETATM   24  C   UNL     1      -8.916  14.845  68.748  1.00  0.00    -0.188 A  
HETATM   25  N   UNL     1      -9.245  13.538  68.614  1.00  0.00    -0.089 NA 
HETATM   26  C   UNL     1      -6.968  13.079  68.077  1.00  0.00    -0.112 A  
HETATM   27  C   UNL     1      -7.644  15.338  68.535  1.00  0.00    -0.119 A  
ENDBRANCH  12  21
ENDBRANCH  10  11
ENDBRANCH   7  10
TORSDOF 3
ENDMDL
MODEL       99
REMARK 921   NORMALIZED FREE ENERGY PREDICTED BY IDOCK:   -4.97 KCAL/MOL
REMARK 922        TOTAL FREE ENERGY PREDICTED BY IDOCK:   -6.44 KCAL/MOL
REMARK 923 INTER-LIGAND FREE ENERGY PREDICTED BY IDOCK:   -5.36 KCAL/MOL
REMARK 924 INTRA-LIGAND FREE ENERGY PREDICTED BY IDOCK:   -1.08 KCAL/MOL
REMARK 927      BINDING AFFINITY PREDICTED BY RF-SCORE:    0.00 PKD
ROOT
HETATM    1  C   UNL     1     -11.381  12.937  68.701  1.00  0.00    -0.289 C  
HETATM    2  N   UNL     1     -11.820  11.556  68.501  1.00  0.00    -0.473 NA 
HETATM    3  C   UNL     1     -11.406  11.049  67.173  1.00  0.00    -0.136 C  
HETATM    4  C   UNL     1      -9.902  10.741  67.053  1.00  0.00    -0.187 C  
HETATM    5  N   UNL     1      -9.461   9.863  68.134  1.00  0.00    -0.138 N  
HETATM    6  C   UNL     1      -9.804  10.324  69.478  1.00  0.00    -0.220 C  
HETATM    7  C   UNL     1      -8.934   8.630  67.812  1.00  0.00    -0.136 C  
HETATM    8  O   UNL     1      -8.845   8.240  66.654  1.00  0.00    -0.132 OA 
HETATM    9  C   UNL     1     -11.314  10.654  69.563  1.00  0.00    -0.277 C  
ENDROOT
BRANCH   7  10
HETATM   10  O   UNL     1      -8.493   7.912  68.875  1.00  0.00    -0.126 OA 
BRANCH  10  11
HETATM   11  C   UNL     1      -8.958   6.546  68.957  1.00  0.00    -0.129 C  
HETATM   12  N   UNL     1      -9.479   6.214  70.269  1.00  0.00    -0.159 N  
HETATM   13  C   UNL     1      -8.803   5.112  70.816  1.00  0.00    -0.133 C  
HETATM   14  C   UNL     1      -7.928   5.476  68.688  1.00  0.00    -0.092 A  
HETATM   15  N   UNL     1      -7.258   5.251  67.535  1.00  0.00    -0.070 NA 
HETATM   16  C   UNL     1      -7.840   4.653  69.793  1.00  0.00    -0.061 A  
HETATM   17  O   UNL     1      -8.972   4.532  71.873  1.00  0.00    -0.118 OA 
HETATM   18  C   UNL     1      -6.466   4.145  67.585  1.00  0.00    -0.038 A  
HETATM   19  N   UNL     1      -7.080   3.540  69.849  1.00  0.00    -0.041 NA 
HETATM   20  C   UNL     1      -6.380   3.318  68.710  1.00  0.00    -0.029 A  
BRANCH  12  21
HETATM   21  C   UNL     1     -10.551   6.883  70.884  1.00  0.00    -0.218 A  
HETATM   22 CL   UNL     1     -14.031   9.047  72.702  1.00  0.00    -0.466 Cl 
HETATM   23  C   UNL     1     -11.394   8.545  72.424  1.00  0.00    -0.412 A  
HETATM   24  C   UNL     1     -12.843   7.234  71.085  1.00  0.00    -0.286 A  
HETATM   25  N   UNL     1     -11.809   6.578  70.506  1.00  0.00    -0.384 NA 
HETATM   26  C   UNL     1     -10.317   7.856  71.857  1.00  0.00    -0.271 A  
HETATM   27  C   UNL     1     -12.684   8.226  72.033  1.00  0.00    -0.342 A  
ENDBRANCH  12  21
ENDBRANCH  10  11
ENDBRANCH   7  10
TORSDOF 3
ENDMDL
MODEL      100
REMARK 921   NORMALIZED FREE ENERGY PREDICTED BY IDOCK:   -4.95 KCAL/MOL
REMARK 922        TOTAL FREE ENERGY PREDICTED BY IDOCK:   -6.42 KCAL/MOL
REMARK 923 INTER-LIGAND FREE ENERGY PREDICTED BY IDOCK:   -5.73 KCAL/MOL
REMARK 924 INTRA-LIGAND FREE ENERGY PREDICTED BY IDOCK:   -0.69 KCAL/MOL
REMARK 927      BINDING AFFINITY PREDICTED BY RF-SCORE:    0.00 PKD
ROOT
HETATM    1  C   UNL     1     -10.831  19.561  66.835  1.00  0.00    -0.411 C  
HETATM    2  N   UNL     1      -9.661  18.837  67.330  1.00  0.00    -0.299 NA 
HETATM    3  C   UNL     1      -9.950  18.166  68.617  1.00  0.00    -0.395 C  
HETATM    4  C   UNL     1     -10.848  16.921  68.495  1.00  0.00    -0.335 C  
HETATM    5  N   UNL     1     -10.319  15.989  67.501  1.00  0.00    -0.280 N  
HETATM    6  C   UNL     1     -10.047  16.580  66.192  1.00  0.00    -0.348 C  
HETATM    7  C   UNL     1      -9.964  14.721  67.907  1.00  0.00    -0.213 C  
HETATM    8  O   UNL     1     -10.056  14.358  69.073  1.00  0.00    -0.221 OA 
HETATM    9  C   UNL     1      -9.168  17.844  66.346  1.00  0.00    -0.242 C  
ENDROOT
BRANCH   7  10
HETATM   10  O   UNL     1      -9.544  13.908  66.905  1.00  0.00    -0.250 OA 
BRANCH  10  11
HETATM   11  C   UNL     1      -8.185  13.425  67.005  1.00  0.00    -0.035 C  
HETATM   12  N   UNL     1      -8.065  12.279  67.886  1.00  0.00    -0.144 N  
HETATM   13  C   UNL     1      -7.143  12.528  68.914  1.00  0.00    -0.073 C  
HETATM   14  C   UNL     1      -7.169  14.406  67.535  1.00  0.00    -0.180 A  
HETATM   15  N   UNL     1      -6.784  15.576  66.976  1.00  0.00    -0.246 NA 
HETATM   16  C   UNL     1      -6.578  13.870  68.663  1.00  0.00    -0.095 A  
HETATM   17  O   UNL     1      -6.760  11.808  69.818  1.00  0.00    -0.093 OA 
HETATM   18  C   UNL     1      -5.773  16.185  67.654  1.00  0.00    -0.147 A  
HETATM   19  N   UNL     1      -5.559  14.449  69.330  1.00  0.00    -0.088 NA 
HETATM   20  C   UNL     1      -5.182  15.637  68.798  1.00  0.00    -0.100 A  
BRANCH  12  21
HETATM   21  C   UNL     1      -8.752  11.067  67.701  1.00  0.00    -0.128 A  
HETATM   22 CL   UNL     1     -10.902   7.204  66.956  1.00  0.00    -0.432 Cl 
HETATM   23  C   UNL     1     -10.737   9.709  67.946  1.00  0.00    -0.302 A  
HETATM   24  C   UNL     1      -8.802   8.903  66.844  1.00  0.00    -0.127 A  
HETATM   25  N   UNL     1      -8.136  10.067  67.039  1.00  0.00    -0.116 NA 
HETATM   26  C   UNL     1     -10.053  10.906  68.180  1.00  0.00    -0.190 A  
HETATM   27  C   UNL     1     -10.098   8.686  67.266  1.00  0.00    -0.244 A  
ENDBRANCH  12  21
ENDBRANCH  10  11
ENDBRANCH   7  10
TORSDOF 3
ENDMDL
MODEL      101
REMARK 921   NORMALIZED FREE ENERGY PREDICTED BY IDOCK:   -4.93 KCAL/MOL
REMARK 922        TOTAL FREE ENERGY PREDICTED BY IDOCK:   -6.39 KCAL/MOL
REMARK 923 INTER-LIGAND FREE ENERGY PREDICTED BY IDOCK:   -6.23 KCAL/MOL
REMARK 924 INTRA-LIGAND FREE ENERGY PREDICTED BY IDOCK:   -0.17 KCAL/MOL
REMARK 927      BINDING AFFINITY PREDICTED BY RF-SCORE:    0.00 PKD
ROOT
HETATM    1  C   UNL     1      -9.823  19.464  66.888  1.00  0.00    -0.352 C  
HETATM    2  N   UNL     1      -8.925  18.655  67.712  1.00  0.00    -0.279 NA 
HETATM    3  C   UNL     1      -9.634  18.093  68.883  1.00  0.00    -0.234 C  
HETATM    4  C   UNL     1     -10.599  16.941  68.548  1.00  0.00    -0.367 C  
HETATM    5  N   UNL     1      -9.924  15.904  67.769  1.00  0.00    -0.227 N  
HETATM    6  C   UNL     1      -9.234  16.387  66.573  1.00  0.00    -0.277 C  
HETATM    7  C   UNL     1      -9.842  14.632  68.293  1.00  0.00    -0.222 C  
HETATM    8  O   UNL     1     -10.293  14.348  69.395  1.00  0.00    -0.158 OA 
HETATM    9  C   UNL     1      -8.295  17.563  66.934  1.00  0.00    -0.232 C  
ENDROOT
BRANCH   7  10
HETATM   10  O   UNL     1      -9.255  13.723  67.472  1.00  0.00    -0.199 OA 
BRANCH  10  11
HETATM   11  C   UNL     1     -10.110  12.671  66.973  1.00  0.00    -0.224 C  
HETATM   12  N   UNL     1      -9.369  11.480  66.605  1.00  0.00    -0.184 N  
HETATM   13  C   UNL     1      -9.606  11.133  65.266  1.00  0.00    -0.230 C  
HETATM   14  C   UNL     1     -10.917  12.998  65.741  1.00  0.00    -0.277 A  
HETATM   15  N   UNL     1     -11.883  13.936  65.615  1.00  0.00    -0.354 NA 
HETATM   16  C   UNL     1     -10.598  12.096  64.745  1.00  0.00    -0.296 A  
HETATM   17  O   UNL     1      -9.188  10.194  64.612  1.00  0.00    -0.208 OA 
HETATM   18  C   UNL     1     -12.491  13.917  64.398  1.00  0.00    -0.279 A  
HETATM   19  N   UNL     1     -11.208  12.049  63.544  1.00  0.00    -0.439 NA 
HETATM   20  C   UNL     1     -12.159  13.002  63.393  1.00  0.00    -0.515 A  
BRANCH  12  21
HETATM   21  C   UNL     1      -8.560  10.749  67.492  1.00  0.00    -0.125 A  
HETATM   22 CL   UNL     1      -5.886   8.546  70.338  1.00  0.00    -0.027 Cl 
HETATM   23  C   UNL     1      -7.263   8.781  68.028  1.00  0.00    -0.083 A  
HETATM   24  C   UNL     1      -7.426  10.613  69.520  1.00  0.00    -0.130 A  
HETATM   25  N   UNL     1      -8.219  11.309  68.670  1.00  0.00    -0.149 NA 
HETATM   26  C   UNL     1      -8.105   9.474  67.153  1.00  0.00    -0.106 A  
HETATM   27  C   UNL     1      -6.917   9.361  69.238  1.00  0.00    -0.053 A  
ENDBRANCH  12  21
ENDBRANCH  10  11
ENDBRANCH   7  10
TORSDOF 3
ENDMDL
MODEL      102
REMARK 921   NORMALIZED FREE ENERGY PREDICTED BY IDOCK:   -4.87 KCAL/MOL
REMARK 922        TOTAL FREE ENERGY PREDICTED BY IDOCK:   -6.33 KCAL/MOL
REMARK 923 INTER-LIGAND FREE ENERGY PREDICTED BY IDOCK:   -5.53 KCAL/MOL
REMARK 924 INTRA-LIGAND FREE ENERGY PREDICTED BY IDOCK:   -0.80 KCAL/MOL
REMARK 927      BINDING AFFINITY PREDICTED BY RF-SCORE:    0.00 PKD
ROOT
HETATM    1  C   UNL     1     -10.580  18.270  66.181  1.00  0.00    -0.303 C  
HETATM    2  N   UNL     1      -9.539  17.563  66.928  1.00  0.00    -0.268 NA 
HETATM    3  C   UNL     1     -10.094  16.917  68.138  1.00  0.00    -0.299 C  
HETATM    4  C   UNL     1     -10.945  15.665  67.856  1.00  0.00    -0.319 C  
HETATM    5  N   UNL     1     -10.216  14.716  67.017  1.00  0.00    -0.259 N  
HETATM    6  C   UNL     1      -9.672  15.281  65.783  1.00  0.00    -0.350 C  
HETATM    7  C   UNL     1      -9.953  13.458  67.516  1.00  0.00    -0.230 C  
HETATM    8  O   UNL     1     -10.289  13.119  68.644  1.00  0.00    -0.243 OA 
HETATM    9  C   UNL     1      -8.848  16.553  66.092  1.00  0.00    -0.306 C  
ENDROOT
BRANCH   7  10
HETATM   10  O   UNL     1      -9.329  12.627  66.644  1.00  0.00    -0.229 OA 
BRANCH  10  11
HETATM   11  C   UNL     1      -8.042  12.117  67.060  1.00  0.00    -0.154 C  
HETATM   12  N   UNL     1      -8.156  10.966  67.934  1.00  0.00    -0.111 N  
HETATM   13  C   UNL     1      -7.501  11.193  69.155  1.00  0.00    -0.109 C  
HETATM   14  C   UNL     1      -7.164  13.077  67.826  1.00  0.00    -0.139 A  
HETATM   15  N   UNL     1      -6.637  14.241  67.385  1.00  0.00    -0.286 NA 
HETATM   16  C   UNL     1      -6.868  12.525  69.057  1.00  0.00    -0.089 A  
HETATM   17  O   UNL     1      -7.357  10.462  70.117  1.00  0.00    -0.158 OA 
HETATM   18  C   UNL     1      -5.805  14.828  68.289  1.00  0.00    -0.115 A  
HETATM   19  N   UNL     1      -6.027  13.081  69.953  1.00  0.00    -0.130 NA 
HETATM   20  C   UNL     1      -5.514  14.264  69.536  1.00  0.00    -0.091 A  
BRANCH  12  21
HETATM   21  C   UNL     1      -8.800   9.768  67.580  1.00  0.00    -0.125 A  
HETATM   22 CL   UNL     1     -10.887   5.922  66.604  1.00  0.00    -0.346 Cl 
HETATM   23  C   UNL     1      -8.802   7.630  66.452  1.00  0.00    -0.179 A  
HETATM   24  C   UNL     1     -10.651   8.366  67.737  1.00  0.00    -0.171 A  
HETATM   25  N   UNL     1     -10.035   9.528  68.064  1.00  0.00    -0.159 NA 
HETATM   26  C   UNL     1      -8.165   8.837  66.756  1.00  0.00    -0.108 A  
HETATM   27  C   UNL     1     -10.072   7.390  66.951  1.00  0.00    -0.257 A  
ENDBRANCH  12  21
ENDBRANCH  10  11
ENDBRANCH   7  10
TORSDOF 3
ENDMDL
MODEL      103
REMARK 921   NORMALIZED FREE ENERGY PREDICTED BY IDOCK:   -4.85 KCAL/MOL
REMARK 922        TOTAL FREE ENERGY PREDICTED BY IDOCK:   -6.31 KCAL/MOL
REMARK 923 INTER-LIGAND FREE ENERGY PREDICTED BY IDOCK:   -5.37 KCAL/MOL
REMARK 924 INTRA-LIGAND FREE ENERGY PREDICTED BY IDOCK:   -0.93 KCAL/MOL
REMARK 927      BINDING AFFINITY PREDICTED BY RF-SCORE:    0.00 PKD
ROOT
HETATM    1  C   UNL     1      -5.190   7.763  68.694  1.00  0.00    -0.026 C  
HETATM    2  N   UNL     1      -6.180   8.166  67.695  1.00  0.00    -0.051 NA 
HETATM    3  C   UNL     1      -7.526   8.295  68.296  1.00  0.00    -0.097 C  
HETATM    4  C   UNL     1      -7.706   9.538  69.187  1.00  0.00    -0.081 C  
HETATM    5  N   UNL     1      -7.307  10.752  68.477  1.00  0.00    -0.090 N  
HETATM    6  C   UNL     1      -5.969  10.706  67.890  1.00  0.00    -0.043 C  
HETATM    7  C   UNL     1      -8.249  11.737  68.270  1.00  0.00    -0.157 C  
HETATM    8  O   UNL     1      -9.410  11.619  68.640  1.00  0.00    -0.183 OA 
HETATM    9  C   UNL     1      -5.805   9.433  67.025  1.00  0.00    -0.052 C  
ENDROOT
BRANCH   7  10
HETATM   10  O   UNL     1      -7.771  12.851  67.660  1.00  0.00    -0.135 OA 
BRANCH  10  11
HETATM   11  C   UNL     1      -8.471  14.083  67.946  1.00  0.00    -0.170 C  
HETATM   12  N   UNL     1      -9.162  14.612  66.786  1.00  0.00    -0.251 N  
HETATM   13  C   UNL     1      -8.741  15.920  66.501  1.00  0.00    -0.315 C  
HETATM   14  C   UNL     1      -7.622  15.234  68.426  1.00  0.00    -0.116 A  
HETATM   15  N   UNL     1      -6.896  15.302  69.564  1.00  0.00    -0.167 NA 
HETATM   16  C   UNL     1      -7.781  16.298  67.559  1.00  0.00    -0.146 A  
HETATM   17  O   UNL     1      -9.106  16.692  65.633  1.00  0.00    -0.477 OA 
HETATM   18  C   UNL     1      -6.316  16.519  69.756  1.00  0.00    -0.183 A  
HETATM   19  N   UNL     1      -7.234  17.515  67.748  1.00  0.00    -0.175 NA 
HETATM   20  C   UNL     1      -6.479  17.590  68.871  1.00  0.00    -0.213 A  
BRANCH  12  21
HETATM   21  C   UNL     1     -10.155  13.916  66.074  1.00  0.00    -0.313 A  
HETATM   22 CL   UNL     1     -13.267  11.763  63.671  1.00  0.00    -0.183 Cl 
HETATM   23  C   UNL     1     -12.467  13.292  65.745  1.00  0.00    -0.480 A  
HETATM   24  C   UNL     1     -10.758  12.568  64.275  1.00  0.00    -0.369 A  
HETATM   25  N   UNL     1      -9.800  13.226  64.972  1.00  0.00    -0.114 NA 
HETATM   26  C   UNL     1     -11.486  13.952  66.492  1.00  0.00    -0.361 A  
HETATM   27  C   UNL     1     -12.096  12.584  64.615  1.00  0.00    -0.428 A  
ENDBRANCH  12  21
ENDBRANCH  10  11
ENDBRANCH   7  10
TORSDOF 3
ENDMDL
MODEL      104
REMARK 921   NORMALIZED FREE ENERGY PREDICTED BY IDOCK:   -4.85 KCAL/MOL
REMARK 922        TOTAL FREE ENERGY PREDICTED BY IDOCK:   -6.31 KCAL/MOL
REMARK 923 INTER-LIGAND FREE ENERGY PREDICTED BY IDOCK:   -5.12 KCAL/MOL
REMARK 924 INTRA-LIGAND FREE ENERGY PREDICTED BY IDOCK:   -1.19 KCAL/MOL
REMARK 927      BINDING AFFINITY PREDICTED BY RF-SCORE:    0.00 PKD
ROOT
HETATM    1  C   UNL     1     -10.709   5.839  73.540  1.00  0.00    -0.269 C  
HETATM    2  N   UNL     1     -11.033   6.097  72.137  1.00  0.00    -0.249 NA 
HETATM    3  C   UNL     1     -12.204   6.994  72.014  1.00  0.00    -0.282 C  
HETATM    4  C   UNL     1     -11.916   8.465  72.368  1.00  0.00    -0.384 C  
HETATM    5  N   UNL     1     -10.763   8.966  71.621  1.00  0.00    -0.321 N  
HETATM    6  C   UNL     1      -9.558   8.145  71.731  1.00  0.00    -0.188 C  
HETATM    7  C   UNL     1     -10.943  10.030  70.764  1.00  0.00    -0.305 C  
HETATM    8  O   UNL     1     -12.037  10.553  70.591  1.00  0.00    -0.296 OA 
HETATM    9  C   UNL     1      -9.882   6.669  71.400  1.00  0.00    -0.179 C  
ENDROOT
BRANCH   7  10
HETATM   10  O   UNL     1      -9.807  10.466  70.164  1.00  0.00    -0.059 OA 
BRANCH  10  11
HETATM   11  C   UNL     1      -9.904  10.758  68.752  1.00  0.00    -0.194 C  
HETATM   12  N   UNL     1      -8.927  10.031  67.965  1.00  0.00    -0.128 N  
HETATM   13  C   UNL     1      -8.128  10.910  67.217  1.00  0.00    -0.123 C  
HETATM   14  C   UNL     1      -9.698  12.200  68.356  1.00  0.00    -0.193 A  
HETATM   15  N   UNL     1     -10.458  13.264  68.699  1.00  0.00    -0.249 NA 
HETATM   16  C   UNL     1      -8.643  12.272  67.467  1.00  0.00    -0.174 A  
HETATM   17  O   UNL     1      -7.230  10.677  66.428  1.00  0.00    -0.120 OA 
HETATM   18  C   UNL     1     -10.062  14.420  68.098  1.00  0.00    -0.226 A  
HETATM   19  N   UNL     1      -8.255  13.404  66.845  1.00  0.00    -0.027 NA 
HETATM   20  C   UNL     1      -8.990  14.485  67.201  1.00  0.00    -0.230 A  
BRANCH  12  21
HETATM   21  C   UNL     1      -8.831   8.630  67.927  1.00  0.00    -0.137 A  
HETATM   22 CL   UNL     1      -8.386   4.173  67.728  1.00  0.00    -0.094 Cl 
HETATM   23  C   UNL     1      -9.779   6.464  67.421  1.00  0.00    -0.141 A  
HETATM   24  C   UNL     1      -7.572   6.699  68.248  1.00  0.00    -0.104 A  
HETATM   25  N   UNL     1      -7.673   8.049  68.299  1.00  0.00    -0.115 NA 
HETATM   26  C   UNL     1      -9.909   7.855  67.497  1.00  0.00    -0.221 A  
HETATM   27  C   UNL     1      -8.587   5.873  67.807  1.00  0.00    -0.105 A  
ENDBRANCH  12  21
ENDBRANCH  10  11
ENDBRANCH   7  10
TORSDOF 3
ENDMDL
MODEL      105
REMARK 921   NORMALIZED FREE ENERGY PREDICTED BY IDOCK:   -4.83 KCAL/MOL
REMARK 922        TOTAL FREE ENERGY PREDICTED BY IDOCK:   -6.28 KCAL/MOL
REMARK 923 INTER-LIGAND FREE ENERGY PREDICTED BY IDOCK:   -5.57 KCAL/MOL
REMARK 924 INTRA-LIGAND FREE ENERGY PREDICTED BY IDOCK:   -0.71 KCAL/MOL
REMARK 927      BINDING AFFINITY PREDICTED BY RF-SCORE:    0.00 PKD
ROOT
HETATM    1  C   UNL     1     -13.067  11.579  63.728  1.00  0.00     0.470 C  
HETATM    2  N   UNL     1     -12.048  12.494  63.214  1.00  0.00    -0.495 NA 
HETATM    3  C   UNL     1     -12.394  13.902  63.509  1.00  0.00    -0.019 C  
HETATM    4  C   UNL     1     -12.216  14.303  64.986  1.00  0.00    -0.433 C  
HETATM    5  N   UNL     1     -10.877  13.958  65.462  1.00  0.00    -0.297 N  
HETATM    6  C   UNL     1     -10.485  12.568  65.236  1.00  0.00    -0.287 C  
HETATM    7  C   UNL     1     -10.054  14.970  65.908  1.00  0.00    -0.320 C  
HETATM    8  O   UNL     1     -10.397  16.145  65.896  1.00  0.00    -0.330 OA 
HETATM    9  C   UNL     1     -10.703  12.184  63.753  1.00  0.00    -0.437 C  
ENDROOT
BRANCH   7  10
HETATM   10  O   UNL     1      -8.857  14.548  66.390  1.00  0.00    -0.183 OA 
BRANCH  10  11
HETATM   11  C   UNL     1      -8.741  14.472  67.828  1.00  0.00    -0.174 C  
HETATM   12  N   UNL     1      -8.083  15.632  68.396  1.00  0.00    -0.134 N  
HETATM   13  C   UNL     1      -6.956  15.258  69.143  1.00  0.00    -0.148 C  
HETATM   14  C   UNL     1      -7.956  13.302  68.369  1.00  0.00    -0.132 A  
HETATM   15  N   UNL     1      -8.254  11.987  68.255  1.00  0.00    -0.156 NA 
HETATM   16  C   UNL     1      -6.905  13.781  69.126  1.00  0.00    -0.102 A  
HETATM   17  O   UNL     1      -6.175  15.939  69.782  1.00  0.00    -0.167 OA 
HETATM   18  C   UNL     1      -7.396  11.184  68.940  1.00  0.00    -0.110 A  
HETATM   19  N   UNL     1      -6.062  12.999  69.830  1.00  0.00    -0.136 NA 
HETATM   20  C   UNL     1      -6.331  11.677  69.701  1.00  0.00    -0.133 A  
BRANCH  12  21
HETATM   21  C   UNL     1      -8.546  16.951  68.249  1.00  0.00    -0.230 A  
HETATM   22 CL   UNL     1      -9.878  21.210  67.812  1.00  0.00    -0.146 Cl 
HETATM   23  C   UNL     1     -10.104  18.713  68.811  1.00  0.00    -0.398 A  
HETATM   24  C   UNL     1      -8.298  19.071  67.320  1.00  0.00    -0.276 A  
HETATM   25  N   UNL     1      -7.863  17.794  67.450  1.00  0.00    -0.205 NA 
HETATM   26  C   UNL     1      -9.684  17.384  68.932  1.00  0.00    -0.251 A  
HETATM   27  C   UNL     1      -9.398  19.574  67.987  1.00  0.00    -0.336 A  
ENDBRANCH  12  21
ENDBRANCH  10  11
ENDBRANCH   7  10
TORSDOF 3
ENDMDL
MODEL      106
REMARK 921   NORMALIZED FREE ENERGY PREDICTED BY IDOCK:   -4.81 KCAL/MOL
REMARK 922        TOTAL FREE ENERGY PREDICTED BY IDOCK:   -6.26 KCAL/MOL
REMARK 923 INTER-LIGAND FREE ENERGY PREDICTED BY IDOCK:   -5.75 KCAL/MOL
REMARK 924 INTRA-LIGAND FREE ENERGY PREDICTED BY IDOCK:   -0.51 KCAL/MOL
REMARK 927      BINDING AFFINITY PREDICTED BY RF-SCORE:    0.00 PKD
ROOT
HETATM    1  C   UNL     1      -5.786   9.536  63.646  1.00  0.00    -0.090 C  
HETATM    2  N   UNL     1      -6.660  10.441  64.391  1.00  0.00    -0.068 NA 
HETATM    3  C   UNL     1      -8.086  10.108  64.174  1.00  0.00    -0.158 C  
HETATM    4  C   UNL     1      -8.555   8.830  64.893  1.00  0.00    -0.150 C  
HETATM    5  N   UNL     1      -8.215   8.874  66.314  1.00  0.00    -0.109 N  
HETATM    6  C   UNL     1      -6.810   9.162  66.599  1.00  0.00    -0.080 C  
HETATM    7  C   UNL     1      -9.236   8.822  67.239  1.00  0.00    -0.139 C  
HETATM    8  O   UNL     1     -10.414   8.763  66.911  1.00  0.00    -0.285 OA 
HETATM    9  C   UNL     1      -6.358  10.433  65.842  1.00  0.00    -0.119 C  
ENDROOT
BRANCH   7  10
HETATM   10  O   UNL     1      -8.821   8.805  68.531  1.00  0.00    -0.137 OA 
BRANCH  10  11
HETATM   11  C   UNL     1      -9.340   9.854  69.380  1.00  0.00    -0.214 C  
HETATM   12  N   UNL     1     -10.617   9.508  69.974  1.00  0.00    -0.226 N  
HETATM   13  C   UNL     1     -11.596  10.461  69.654  1.00  0.00    -0.239 C  
HETATM   14  C   UNL     1      -9.591  11.184  68.713  1.00  0.00    -0.172 A  
HETATM   15  N   UNL     1      -8.681  12.004  68.141  1.00  0.00    -0.173 NA 
HETATM   16  C   UNL     1     -10.923  11.518  68.871  1.00  0.00    -0.229 A  
HETATM   17  O   UNL     1     -12.766  10.527  69.986  1.00  0.00    -0.256 OA 
HETATM   18  C   UNL     1      -9.214  13.180  67.713  1.00  0.00    -0.203 A  
HETATM   19  N   UNL     1     -11.460  12.689  68.475  1.00  0.00    -0.286 NA 
HETATM   20  C   UNL     1     -10.565  13.509  67.873  1.00  0.00    -0.248 A  
BRANCH  12  21
HETATM   21  C   UNL     1     -10.825   8.389  70.799  1.00  0.00    -0.224 A  
HETATM   22 CL   UNL     1     -11.592   4.763  73.321  1.00  0.00    -0.377 Cl 
HETATM   23  C   UNL     1     -11.373   7.427  72.948  1.00  0.00    -0.322 A  
HETATM   24  C   UNL     1     -10.965   6.079  71.044  1.00  0.00    -0.286 A  
HETATM   25  N   UNL     1     -10.747   7.158  70.254  1.00  0.00    -0.231 NA 
HETATM   26  C   UNL     1     -11.123   8.550  72.153  1.00  0.00    -0.436 A  
HETATM   27  C   UNL     1     -11.290   6.165  72.383  1.00  0.00    -0.296 A  
ENDBRANCH  12  21
ENDBRANCH  10  11
ENDBRANCH   7  10
TORSDOF 3
ENDMDL
MODEL      107
REMARK 921   NORMALIZED FREE ENERGY PREDICTED BY IDOCK:   -4.81 KCAL/MOL
REMARK 922        TOTAL FREE ENERGY PREDICTED BY IDOCK:   -6.25 KCAL/MOL
REMARK 923 INTER-LIGAND FREE ENERGY PREDICTED BY IDOCK:   -5.41 KCAL/MOL
REMARK 924 INTRA-LIGAND FREE ENERGY PREDICTED BY IDOCK:   -0.84 KCAL/MOL
REMARK 927      BINDING AFFINITY PREDICTED BY RF-SCORE:    0.00 PKD
ROOT
HETATM    1  C   UNL     1      -6.708   8.253  64.085  1.00  0.00    -0.067 C  
HETATM    2  N   UNL     1      -6.773   8.850  65.419  1.00  0.00    -0.071 NA 
HETATM    3  C   UNL     1      -7.540  10.116  65.404  1.00  0.00    -0.144 C  
HETATM    4  C   UNL     1      -9.061   9.933  65.254  1.00  0.00    -0.211 C  
HETATM    5  N   UNL     1      -9.576   8.996  66.250  1.00  0.00    -0.239 N  
HETATM    6  C   UNL     1      -8.886   7.707  66.293  1.00  0.00    -0.156 C  
HETATM    7  C   UNL     1     -10.514   9.443  67.156  1.00  0.00    -0.244 C  
HETATM    8  O   UNL     1     -10.912  10.601  67.167  1.00  0.00    -0.285 OA 
HETATM    9  C   UNL     1      -7.358   7.921  66.414  1.00  0.00    -0.086 C  
ENDROOT
BRANCH   7  10
HETATM   10  O   UNL     1     -10.979   8.488  68.001  1.00  0.00    -0.024 OA 
BRANCH  10  11
HETATM   11  C   UNL     1     -10.648   8.657  69.397  1.00  0.00    -0.199 C  
HETATM   12  N   UNL     1     -10.563   7.394  70.105  1.00  0.00    -0.225 N  
HETATM   13  C   UNL     1     -11.440   7.370  71.200  1.00  0.00    -0.279 C  
HETATM   14  C   UNL     1     -11.617   9.474  70.215  1.00  0.00    -0.169 A  
HETATM   15  N   UNL     1     -11.928  10.781  70.061  1.00  0.00    -0.319 NA 
HETATM   16  C   UNL     1     -12.083   8.699  71.260  1.00  0.00    -0.290 A  
HETATM   17  O   UNL     1     -11.630   6.505  72.036  1.00  0.00    -0.281 OA 
HETATM   18  C   UNL     1     -12.767  11.249  71.024  1.00  0.00    -0.359 A  
HETATM   19  N   UNL     1     -12.894   9.155  72.236  1.00  0.00    -0.403 NA 
HETATM   20  C   UNL     1     -13.237  10.456  72.077  1.00  0.00    -0.392 A  
BRANCH  12  21
HETATM   21  C   UNL     1      -9.682   6.355  69.760  1.00  0.00    -0.154 A  
HETATM   22 CL   UNL     1      -6.792   3.141  68.568  1.00  0.00    -0.044 Cl 
HETATM   23  C   UNL     1      -9.281   4.113  68.949  1.00  0.00    -0.208 A  
HETATM   24  C   UNL     1      -7.503   5.583  69.487  1.00  0.00    -0.070 A  
HETATM   25  N   UNL     1      -8.354   6.578  69.835  1.00  0.00    -0.129 NA 
HETATM   26  C   UNL     1     -10.172   5.120  69.333  1.00  0.00    -0.293 A  
HETATM   27  C   UNL     1      -7.918   4.348  69.030  1.00  0.00    -0.069 A  
ENDBRANCH  12  21
ENDBRANCH  10  11
ENDBRANCH   7  10
TORSDOF 3
ENDMDL
MODEL      108
REMARK 921   NORMALIZED FREE ENERGY PREDICTED BY IDOCK:   -4.81 KCAL/MOL
REMARK 922        TOTAL FREE ENERGY PREDICTED BY IDOCK:   -6.25 KCAL/MOL
REMARK 923 INTER-LIGAND FREE ENERGY PREDICTED BY IDOCK:   -5.67 KCAL/MOL
REMARK 924 INTRA-LIGAND FREE ENERGY PREDICTED BY IDOCK:   -0.59 KCAL/MOL
REMARK 927      BINDING AFFINITY PREDICTED BY RF-SCORE:    0.00 PKD
ROOT
HETATM    1  C   UNL     1      -8.417   4.425  68.274  1.00  0.00    -0.093 C  
HETATM    2  N   UNL     1      -8.517   5.192  67.032  1.00  0.00    -0.107 NA 
HETATM    3  C   UNL     1      -9.900   5.668  66.806  1.00  0.00    -0.164 C  
HETATM    4  C   UNL     1     -10.330   6.827  67.726  1.00  0.00    -0.198 C  
HETATM    5  N   UNL     1      -9.361   7.920  67.676  1.00  0.00    -0.142 N  
HETATM    6  C   UNL     1      -7.977   7.524  67.930  1.00  0.00    -0.119 C  
HETATM    7  C   UNL     1      -9.783   9.157  67.238  1.00  0.00    -0.173 C  
HETATM    8  O   UNL     1     -10.932   9.363  66.868  1.00  0.00    -0.079 OA 
HETATM    9  C   UNL     1      -7.581   6.341  67.014  1.00  0.00    -0.095 C  
ENDROOT
BRANCH   7  10
HETATM   10  O   UNL     1      -8.832  10.124  67.286  1.00  0.00    -0.131 OA 
BRANCH  10  11
HETATM   11  C   UNL     1      -8.535  10.788  66.038  1.00  0.00    -0.169 C  
HETATM   12  N   UNL     1      -9.627  11.624  65.578  1.00  0.00    -0.227 N  
HETATM   13  C   UNL     1     -10.042  11.249  64.291  1.00  0.00    -0.313 C  
HETATM   14  C   UNL     1      -8.238   9.890  64.862  1.00  0.00    -0.146 A  
HETATM   15  N   UNL     1      -7.207   9.025  64.726  1.00  0.00    -0.095 NA 
HETATM   16  C   UNL     1      -9.140  10.163  63.852  1.00  0.00    -0.260 A  
HETATM   17  O   UNL     1     -10.902  11.726  63.573  1.00  0.00    -0.386 OA 
HETATM   18  C   UNL     1      -7.165   8.432  63.502  1.00  0.00    -0.096 A  
HETATM   19  N   UNL     1      -9.096   9.603  62.627  1.00  0.00    -0.271 NA 
HETATM   20  C   UNL     1      -8.085   8.711  62.486  1.00  0.00    -0.169 A  
BRANCH  12  21
HETATM   21  C   UNL     1     -10.163  12.696  66.313  1.00  0.00    -0.251 A  
HETATM   22 CL   UNL     1     -11.767  16.082  68.774  1.00  0.00    -0.365 Cl 
HETATM   23  C   UNL     1     -12.053  13.862  67.266  1.00  0.00    -0.403 A  
HETATM   24  C   UNL     1      -9.832  14.621  67.578  1.00  0.00    -0.218 A  
HETATM   25  N   UNL     1      -9.319  13.597  66.855  1.00  0.00    -0.250 NA 
HETATM   26  C   UNL     1     -11.542  12.816  66.492  1.00  0.00    -0.435 A  
HETATM   27  C   UNL     1     -11.181  14.786  67.818  1.00  0.00    -0.313 A  
ENDBRANCH  12  21
ENDBRANCH  10  11
ENDBRANCH   7  10
TORSDOF 3
ENDMDL
MODEL      109
REMARK 921   NORMALIZED FREE ENERGY PREDICTED BY IDOCK:   -4.80 KCAL/MOL
REMARK 922        TOTAL FREE ENERGY PREDICTED BY IDOCK:   -6.24 KCAL/MOL
REMARK 923 INTER-LIGAND FREE ENERGY PREDICTED BY IDOCK:   -5.56 KCAL/MOL
REMARK 924 INTRA-LIGAND FREE ENERGY PREDICTED BY IDOCK:   -0.68 KCAL/MOL
REMARK 927      BINDING AFFINITY PREDICTED BY RF-SCORE:    0.00 PKD
ROOT
HETATM    1  C   UNL     1     -11.344  14.787  66.450  1.00  0.00    -0.339 C  
HETATM    2  N   UNL     1     -12.182  13.636  66.783  1.00  0.00    -0.396 NA 
HETATM    3  C   UNL     1     -12.015  12.547  65.796  1.00  0.00    -0.420 C  
HETATM    4  C   UNL     1     -10.678  11.789  65.907  1.00  0.00    -0.282 C  
HETATM    5  N   UNL     1     -10.454  11.325  67.275  1.00  0.00    -0.204 N  
HETATM    6  C   UNL     1     -10.566  12.361  68.300  1.00  0.00    -0.222 C  
HETATM    7  C   UNL     1     -10.334   9.971  67.502  1.00  0.00    -0.232 C  
HETATM    8  O   UNL     1     -10.433   9.145  66.602  1.00  0.00    -0.243 OA 
HETATM    9  C   UNL     1     -11.903  13.125  68.146  1.00  0.00    -0.348 C  
ENDROOT
BRANCH   7  10
HETATM   10  O   UNL     1     -10.064   9.639  68.790  1.00  0.00    -0.167 OA 
BRANCH  10  11
HETATM   11  C   UNL     1      -8.731   9.149  69.055  1.00  0.00    -0.135 C  
HETATM   12  N   UNL     1      -8.554   8.736  70.434  1.00  0.00    -0.149 N  
HETATM   13  C   UNL     1      -7.493   9.429  71.036  1.00  0.00    -0.010 C  
HETATM   14  C   UNL     1      -7.605  10.125  68.816  1.00  0.00    -0.089 A  
HETATM   15  N   UNL     1      -7.239  10.687  67.642  1.00  0.00    -0.088 NA 
HETATM   16  C   UNL     1      -6.899  10.289  69.991  1.00  0.00    -0.146 A  
HETATM   17  O   UNL     1      -7.032   9.338  72.159  1.00  0.00    -0.313 OA 
HETATM   18  C   UNL     1      -6.118  11.452  67.742  1.00  0.00    -0.049 A  
HETATM   19  N   UNL     1      -5.773  11.023  70.101  1.00  0.00    -0.089 NA 
HETATM   20  C   UNL     1      -5.410  11.616  68.938  1.00  0.00    -0.049 A  
BRANCH  12  21
HETATM   21  C   UNL     1      -9.319   7.738  71.062  1.00  0.00    -0.152 A  
HETATM   22 CL   UNL     1     -11.724   4.621  73.206  1.00  0.00    -0.306 Cl 
HETATM   23  C   UNL     1      -9.869   5.410  71.412  1.00  0.00    -0.221 A  
HETATM   24  C   UNL     1     -10.954   7.143  72.608  1.00  0.00    -0.288 A  
HETATM   25  N   UNL     1     -10.227   8.104  71.989  1.00  0.00    -0.227 NA 
HETATM   26  C   UNL     1      -9.132   6.392  70.743  1.00  0.00    -0.151 A  
HETATM   27  C   UNL     1     -10.801   5.793  72.363  1.00  0.00    -0.247 A  
ENDBRANCH  12  21
ENDBRANCH  10  11
ENDBRANCH   7  10
TORSDOF 3
ENDMDL
MODEL      110
REMARK 921   NORMALIZED FREE ENERGY PREDICTED BY IDOCK:   -4.79 KCAL/MOL
REMARK 922        TOTAL FREE ENERGY PREDICTED BY IDOCK:   -6.23 KCAL/MOL
REMARK 923 INTER-LIGAND FREE ENERGY PREDICTED BY IDOCK:   -5.18 KCAL/MOL
REMARK 924 INTRA-LIGAND FREE ENERGY PREDICTED BY IDOCK:   -1.05 KCAL/MOL
REMARK 927      BINDING AFFINITY PREDICTED BY RF-SCORE:    0.00 PKD
ROOT
HETATM    1  C   UNL     1     -12.517  14.708  64.193  1.00  0.00    -0.147 C  
HETATM    2  N   UNL     1     -12.407  14.134  65.534  1.00  0.00    -0.449 NA 
HETATM    3  C   UNL     1     -12.361  12.656  65.483  1.00  0.00    -0.391 C  
HETATM    4  C   UNL     1     -11.028  12.080  64.970  1.00  0.00    -0.306 C  
HETATM    5  N   UNL     1      -9.899  12.635  65.713  1.00  0.00    -0.255 N  
HETATM    6  C   UNL     1      -9.862  14.096  65.771  1.00  0.00    -0.271 C  
HETATM    7  C   UNL     1      -9.088  11.776  66.424  1.00  0.00    -0.213 C  
HETATM    8  O   UNL     1      -9.297  10.570  66.472  1.00  0.00    -0.158 OA 
HETATM    9  C   UNL     1     -11.222  14.648  66.260  1.00  0.00    -0.340 C  
ENDROOT
BRANCH   7  10
HETATM   10  O   UNL     1      -8.031  12.373  67.030  1.00  0.00    -0.167 OA 
BRANCH  10  11
HETATM   11  C   UNL     1      -8.061  12.410  68.474  1.00  0.00    -0.096 C  
HETATM   12  N   UNL     1      -7.438  13.603  69.013  1.00  0.00    -0.037 N  
HETATM   13  C   UNL     1      -6.400  13.273  69.899  1.00  0.00    -0.051 C  
HETATM   14  C   UNL     1      -7.361  11.276  69.182  1.00  0.00    -0.104 A  
HETATM   15  N   UNL     1      -7.675   9.961  69.141  1.00  0.00    -0.089 NA 
HETATM   16  C   UNL     1      -6.381  11.799  70.002  1.00  0.00    -0.092 A  
HETATM   17  O   UNL     1      -5.672  13.992  70.559  1.00  0.00    -0.131 OA 
HETATM   18  C   UNL     1      -6.908   9.202  69.970  1.00  0.00    -0.049 A  
HETATM   19  N   UNL     1      -5.630  11.064  70.847  1.00  0.00    -0.246 NA 
HETATM   20  C   UNL     1      -5.914   9.740  70.795  1.00  0.00    -0.086 A  
BRANCH  12  21
HETATM   21  C   UNL     1      -7.855  14.912  68.718  1.00  0.00    -0.149 A  
HETATM   22 CL   UNL     1      -9.039  19.140  67.812  1.00  0.00    -0.331 Cl 
HETATM   23  C   UNL     1      -9.403  16.747  69.005  1.00  0.00    -0.212 A  
HETATM   24  C   UNL     1      -7.484  16.936  67.630  1.00  0.00    -0.160 A  
HETATM   25  N   UNL     1      -7.093  15.667  67.902  1.00  0.00    -0.125 NA 
HETATM   26  C   UNL     1      -9.028  15.426  69.273  1.00  0.00    -0.261 A  
HETATM   27  C   UNL     1      -8.617  17.517  68.165  1.00  0.00    -0.258 A  
ENDBRANCH  12  21
ENDBRANCH  10  11
ENDBRANCH   7  10
TORSDOF 3
ENDMDL
MODEL      111
REMARK 921   NORMALIZED FREE ENERGY PREDICTED BY IDOCK:   -4.75 KCAL/MOL
REMARK 922        TOTAL FREE ENERGY PREDICTED BY IDOCK:   -6.18 KCAL/MOL
REMARK 923 INTER-LIGAND FREE ENERGY PREDICTED BY IDOCK:   -5.27 KCAL/MOL
REMARK 924 INTRA-LIGAND FREE ENERGY PREDICTED BY IDOCK:   -0.92 KCAL/MOL
REMARK 927      BINDING AFFINITY PREDICTED BY RF-SCORE:    0.00 PKD
ROOT
HETATM    1  C   UNL     1     -11.104  13.601  69.025  1.00  0.00    -0.255 C  
HETATM    2  N   UNL     1     -11.865  12.627  68.242  1.00  0.00    -0.328 NA 
HETATM    3  C   UNL     1     -11.055  12.083  67.129  1.00  0.00    -0.290 C  
HETATM    4  C   UNL     1      -9.959  11.093  67.566  1.00  0.00    -0.181 C  
HETATM    5  N   UNL     1     -10.517  10.033  68.404  1.00  0.00    -0.194 N  
HETATM    6  C   UNL     1     -11.299  10.502  69.547  1.00  0.00    -0.278 C  
HETATM    7  C   UNL     1     -10.419   8.728  67.971  1.00  0.00    -0.204 C  
HETATM    8  O   UNL     1      -9.902   8.431  66.901  1.00  0.00    -0.198 OA 
HETATM    9  C   UNL     1     -12.371  11.517  69.084  1.00  0.00    -0.004 C  
ENDROOT
BRANCH   7  10
HETATM   10  O   UNL     1     -10.907   7.809  68.842  1.00  0.00    -0.132 OA 
BRANCH  10  11
HETATM   11  C   UNL     1      -9.928   7.103  69.637  1.00  0.00    -0.174 C  
HETATM   12  N   UNL     1      -9.744   5.731  69.204  1.00  0.00    -0.140 N  
HETATM   13  C   UNL     1      -9.984   4.834  70.256  1.00  0.00    -0.250 C  
HETATM   14  C   UNL     1     -10.229   6.987  71.111  1.00  0.00    -0.195 A  
HETATM   15  N   UNL     1     -10.336   7.991  72.011  1.00  0.00    -0.218 NA 
HETATM   16  C   UNL     1     -10.273   5.649  71.454  1.00  0.00    -0.214 A  
HETATM   17  O   UNL     1      -9.906   3.619  70.286  1.00  0.00    -0.174 OA 
HETATM   18  C   UNL     1     -10.519   7.549  73.285  1.00  0.00    -0.371 A  
HETATM   19  N   UNL     1     -10.427   5.197  72.715  1.00  0.00    -0.203 NA 
HETATM   20  C   UNL     1     -10.565   6.192  73.623  1.00  0.00    -0.263 A  
BRANCH  12  21
HETATM   21  C   UNL     1      -9.334   5.361  67.911  1.00  0.00    -0.113 A  
HETATM   22 CL   UNL     1      -7.937   4.310  63.783  1.00  0.00    -0.087 Cl 
HETATM   23  C   UNL     1      -9.851   4.687  65.648  1.00  0.00    -0.217 A  
HETATM   24  C   UNL     1      -7.622   5.028  66.371  1.00  0.00    -0.088 A  
HETATM   25  N   UNL     1      -8.018   5.369  67.621  1.00  0.00    -0.100 NA 
HETATM   26  C   UNL     1     -10.274   5.007  66.942  1.00  0.00    -0.270 A  
HETATM   27  C   UNL     1      -8.497   4.695  65.356  1.00  0.00    -0.126 A  
ENDBRANCH  12  21
ENDBRANCH  10  11
ENDBRANCH   7  10
TORSDOF 3
ENDMDL
MODEL      112
REMARK 921   NORMALIZED FREE ENERGY PREDICTED BY IDOCK:   -4.74 KCAL/MOL
REMARK 922        TOTAL FREE ENERGY PREDICTED BY IDOCK:   -6.18 KCAL/MOL
REMARK 923 INTER-LIGAND FREE ENERGY PREDICTED BY IDOCK:   -5.73 KCAL/MOL
REMARK 924 INTRA-LIGAND FREE ENERGY PREDICTED BY IDOCK:   -0.45 KCAL/MOL
REMARK 927      BINDING AFFINITY PREDICTED BY RF-SCORE:    0.00 PKD
ROOT
HETATM    1  C   UNL     1      -6.614   7.691  69.187  1.00  0.00    -0.040 C  
HETATM    2  N   UNL     1      -5.948   8.956  68.878  1.00  0.00    -0.043 NA 
HETATM    3  C   UNL     1      -6.183   9.356  67.473  1.00  0.00    -0.058 C  
HETATM    4  C   UNL     1      -7.607   9.869  67.188  1.00  0.00    -0.092 C  
HETATM    5  N   UNL     1      -7.977  10.927  68.126  1.00  0.00    -0.112 N  
HETATM    6  C   UNL     1      -7.806  10.584  69.537  1.00  0.00    -0.127 C  
HETATM    7  C   UNL     1      -8.278  12.177  67.627  1.00  0.00    -0.163 C  
HETATM    8  O   UNL     1      -8.222  12.434  66.431  1.00  0.00     0.074 OA 
HETATM    9  C   UNL     1      -6.378  10.044  69.788  1.00  0.00    -0.058 C  
ENDROOT
BRANCH   7  10
HETATM   10  O   UNL     1      -8.672  13.076  68.564  1.00  0.00    -0.142 OA 
BRANCH  10  11
HETATM   11  C   UNL     1      -9.949  13.714  68.337  1.00  0.00    -0.235 C  
HETATM   12  N   UNL     1     -11.023  12.758  68.150  1.00  0.00    -0.235 N  
HETATM   13  C   UNL     1     -11.670  12.962  66.921  1.00  0.00    -0.382 C  
HETATM   14  C   UNL     1     -10.037  14.611  67.127  1.00  0.00    -0.244 A  
HETATM   15  N   UNL     1      -9.349  15.751  66.895  1.00  0.00    -0.218 NA 
HETATM   16  C   UNL     1     -11.042  14.146  66.300  1.00  0.00    -0.318 A  
HETATM   17  O   UNL     1     -12.622  12.384  66.430  1.00  0.00    -0.233 OA 
HETATM   18  C   UNL     1      -9.729  16.381  65.750  1.00  0.00    -0.236 A  
HETATM   19  N   UNL     1     -11.446  14.773  65.177  1.00  0.00    -0.361 NA 
HETATM   20  C   UNL     1     -10.745  15.903  64.916  1.00  0.00    -0.341 A  
BRANCH  12  21
HETATM   21  C   UNL     1     -11.390  11.789  69.099  1.00  0.00    -0.279 A  
HETATM   22 CL   UNL     1     -12.626   8.611  72.010  1.00  0.00    -0.403 Cl 
HETATM   23  C   UNL     1     -12.445  11.175  71.186  1.00  0.00    -0.498 A  
HETATM   24  C   UNL     1     -11.478   9.556  69.751  1.00  0.00    -0.010 A  
HETATM   25  N   UNL     1     -11.110  10.495  68.845  1.00  0.00    -0.245 NA 
HETATM   26  C   UNL     1     -12.045  12.158  70.275  1.00  0.00    -0.385 A  
HETATM   27  C   UNL     1     -12.153   9.847  70.920  1.00  0.00    -0.341 A  
ENDBRANCH  12  21
ENDBRANCH  10  11
ENDBRANCH   7  10
TORSDOF 3
ENDMDL
MODEL      113
REMARK 921   NORMALIZED FREE ENERGY PREDICTED BY IDOCK:   -4.74 KCAL/MOL
REMARK 922        TOTAL FREE ENERGY PREDICTED BY IDOCK:   -6.17 KCAL/MOL
REMARK 923 INTER-LIGAND FREE ENERGY PREDICTED BY IDOCK:   -5.02 KCAL/MOL
REMARK 924 INTRA-LIGAND FREE ENERGY PREDICTED BY IDOCK:   -1.16 KCAL/MOL
REMARK 927      BINDING AFFINITY PREDICTED BY RF-SCORE:    0.00 PKD
ROOT
HETATM    1  C   UNL     1     -13.280  15.893  70.752  1.00  0.00     0.346 C  
HETATM    2  N   UNL     1     -11.931  15.486  70.360  1.00  0.00    -0.339 NA 
HETATM    3  C   UNL     1     -11.525  14.242  71.049  1.00  0.00     0.115 C  
HETATM    4  C   UNL     1     -12.217  12.970  70.525  1.00  0.00    -0.313 C  
HETATM    5  N   UNL     1     -12.078  12.860  69.074  1.00  0.00    -0.226 N  
HETATM    6  C   UNL     1     -12.499  14.044  68.326  1.00  0.00     0.265 C  
HETATM    7  C   UNL     1     -11.421  11.765  68.554  1.00  0.00    -0.296 C  
HETATM    8  O   UNL     1     -10.933  10.896  69.267  1.00  0.00    -0.212 OA 
HETATM    9  C   UNL     1     -11.812  15.309  68.893  1.00  0.00    -0.320 C  
ENDROOT
BRANCH   7  10
HETATM   10  O   UNL     1     -11.397  11.716  67.198  1.00  0.00    -0.301 OA 
BRANCH  10  11
HETATM   11  C   UNL     1     -10.089  11.641  66.588  1.00  0.00    -0.208 C  
HETATM   12  N   UNL     1      -9.952  12.535  65.455  1.00  0.00    -0.251 N  
HETATM   13  C   UNL     1      -9.588  11.831  64.297  1.00  0.00    -0.067 C  
HETATM   14  C   UNL     1      -9.686  10.292  66.044  1.00  0.00    -0.218 A  
HETATM   15  N   UNL     1      -9.504   9.146  66.737  1.00  0.00    -0.163 NA 
HETATM   16  C   UNL     1      -9.411  10.419  64.696  1.00  0.00    -0.254 A  
HETATM   17  O   UNL     1      -9.358  12.234  63.172  1.00  0.00    -0.102 OA 
HETATM   18  C   UNL     1      -9.046   8.122  65.967  1.00  0.00    -0.167 A  
HETATM   19  N   UNL     1      -8.932   9.421  63.925  1.00  0.00    -0.186 NA 
HETATM   20  C   UNL     1      -8.772   8.258  64.601  1.00  0.00     0.115 A  
BRANCH  12  21
HETATM   21  C   UNL     1     -10.117  13.929  65.527  1.00  0.00    -0.298 A  
HETATM   22 CL   UNL     1     -10.648  18.381  65.596  1.00  0.00    -0.304 Cl 
HETATM   23  C   UNL     1      -9.432  16.094  66.356  1.00  0.00    -0.323 A  
HETATM   24  C   UNL     1     -11.239  15.851  64.844  1.00  0.00    -0.337 A  
HETATM   25  N   UNL     1     -11.088  14.506  64.789  1.00  0.00    -0.394 NA 
HETATM   26  C   UNL     1      -9.282  14.704  66.334  1.00  0.00    -0.280 A  
HETATM   27  C   UNL     1     -10.432  16.680  65.598  1.00  0.00    -0.297 A  
ENDBRANCH  12  21
ENDBRANCH  10  11
ENDBRANCH   7  10
TORSDOF 3
ENDMDL
MODEL      114
REMARK 921   NORMALIZED FREE ENERGY PREDICTED BY IDOCK:   -4.69 KCAL/MOL
REMARK 922        TOTAL FREE ENERGY PREDICTED BY IDOCK:   -6.12 KCAL/MOL
REMARK 923 INTER-LIGAND FREE ENERGY PREDICTED BY IDOCK:   -7.22 KCAL/MOL
REMARK 924 INTRA-LIGAND FREE ENERGY PREDICTED BY IDOCK:    1.10 KCAL/MOL
REMARK 927      BINDING AFFINITY PREDICTED BY RF-SCORE:    0.00 PKD
ROOT
HETATM    1  C   UNL     1     -12.486  11.824  63.590  1.00  0.00    -0.370 C  
HETATM    2  N   UNL     1     -11.100  11.541  63.966  1.00  0.00    -0.375 NA 
HETATM    3  C   UNL     1     -10.232  12.716  63.733  1.00  0.00    -0.254 C  
HETATM    4  C   UNL     1     -10.426  13.859  64.747  1.00  0.00    -0.429 C  
HETATM    5  N   UNL     1     -10.320  13.365  66.118  1.00  0.00    -0.289 N  
HETATM    6  C   UNL     1     -11.182  12.226  66.428  1.00  0.00    -0.324 C  
HETATM    7  C   UNL     1      -9.328  13.874  66.929  1.00  0.00    -0.258 C  
HETATM    8  O   UNL     1      -8.521  14.706  66.532  1.00  0.00    -0.111 OA 
HETATM    9  C   UNL     1     -10.988  11.106  65.378  1.00  0.00    -0.081 C  
ENDROOT
BRANCH   7  10
HETATM   10  O   UNL     1      -9.346  13.404  68.202  1.00  0.00    -0.207 OA 
BRANCH  10  11
HETATM   11  C   UNL     1      -9.630  14.373  69.235  1.00  0.00     0.121 C  
HETATM   12  N   UNL     1     -11.020  14.354  69.648  1.00  0.00    -0.203 N  
HETATM   13  C   UNL     1     -11.609  15.619  69.495  1.00  0.00    -0.357 C  
HETATM   14  C   UNL     1      -9.371  15.817  68.880  1.00  0.00    -0.228 A  
HETATM   15  N   UNL     1      -8.185  16.389  68.574  1.00  0.00    -0.190 NA 
HETATM   16  C   UNL     1     -10.546  16.530  69.024  1.00  0.00    -0.324 A  
HETATM   17  O   UNL     1     -12.736  15.997  69.757  1.00  0.00    -0.101 OA 
HETATM   18  C   UNL     1      -8.271  17.736  68.397  1.00  0.00    -0.298 A  
HETATM   19  N   UNL     1     -10.641  17.867  68.877  1.00  0.00    -0.144 NA 
HETATM   20  C   UNL     1      -9.465  18.450  68.541  1.00  0.00    -0.334 A  
BRANCH  12  21
HETATM   21  C   UNL     1     -11.670  13.225  70.176  1.00  0.00    -0.184 A  
HETATM   22 CL   UNL     1     -13.703   9.672  72.004  1.00  0.00    -0.423 Cl 
HETATM   23  C   UNL     1     -12.032  10.836  70.232  1.00  0.00    -0.438 A  
HETATM   24  C   UNL     1     -13.152  12.303  71.716  1.00  0.00    -0.344 A  
HETATM   25  N   UNL     1     -12.536  13.393  71.195  1.00  0.00    -0.367 NA 
HETATM   26  C   UNL     1     -11.412  11.953  69.664  1.00  0.00    -0.337 A  
HETATM   27  C   UNL     1     -12.923  11.014  71.278  1.00  0.00    -0.372 A  
ENDBRANCH  12  21
ENDBRANCH  10  11
ENDBRANCH   7  10
TORSDOF 3
ENDMDL
MODEL      115
REMARK 921   NORMALIZED FREE ENERGY PREDICTED BY IDOCK:   -4.67 KCAL/MOL
REMARK 922        TOTAL FREE ENERGY PREDICTED BY IDOCK:   -6.09 KCAL/MOL
REMARK 923 INTER-LIGAND FREE ENERGY PREDICTED BY IDOCK:   -5.37 KCAL/MOL
REMARK 924 INTRA-LIGAND FREE ENERGY PREDICTED BY IDOCK:   -0.72 KCAL/MOL
REMARK 927      BINDING AFFINITY PREDICTED BY RF-SCORE:    0.00 PKD
ROOT
HETATM    1  C   UNL     1     -10.696  11.274  64.287  1.00  0.00    -0.349 C  
HETATM    2  N   UNL     1      -9.687  11.310  65.345  1.00  0.00    -0.222 NA 
HETATM    3  C   UNL     1     -10.247  11.855  66.602  1.00  0.00    -0.208 C  
HETATM    4  C   UNL     1     -11.197  10.895  67.341  1.00  0.00    -0.273 C  
HETATM    5  N   UNL     1     -10.568   9.591  67.544  1.00  0.00    -0.275 N  
HETATM    6  C   UNL     1     -10.026   8.977  66.333  1.00  0.00    -0.300 C  
HETATM    7  C   UNL     1     -10.383   9.140  68.834  1.00  0.00    -0.214 C  
HETATM    8  O   UNL     1     -10.706   9.804  69.811  1.00  0.00    -0.225 OA 
HETATM    9  C   UNL     1      -9.099   9.973  65.595  1.00  0.00    -0.183 C  
ENDROOT
BRANCH   7  10
HETATM   10  O   UNL     1      -9.851   7.895  68.922  1.00  0.00    -0.166 OA 
BRANCH  10  11
HETATM   11  C   UNL     1      -8.560   7.798  69.564  1.00  0.00    -0.135 C  
HETATM   12  N   UNL     1      -8.665   7.607  70.998  1.00  0.00    -0.135 N  
HETATM   13  C   UNL     1      -7.978   8.615  71.692  1.00  0.00    -0.119 C  
HETATM   14  C   UNL     1      -7.654   8.996  69.417  1.00  0.00    -0.078 A  
HETATM   15  N   UNL     1      -7.125   9.493  68.276  1.00  0.00    -0.074 NA 
HETATM   16  C   UNL     1      -7.334   9.471  70.674  1.00  0.00    -0.120 A  
HETATM   17  O   UNL     1      -7.819   8.776  72.889  1.00  0.00    -0.381 OA 
HETATM   18  C   UNL     1      -6.267  10.527  68.491  1.00  0.00    -0.046 A  
HETATM   19  N   UNL     1      -6.466  10.477  70.904  1.00  0.00    -0.341 NA 
HETATM   20  C   UNL     1      -5.951  11.004  69.767  1.00  0.00    -0.086 A  
BRANCH  12  21
HETATM   21  C   UNL     1      -9.329   6.526  71.602  1.00  0.00    -0.146 A  
HETATM   22 CL   UNL     1     -11.410   2.988  73.406  1.00  0.00    -0.266 Cl 
HETATM   23  C   UNL     1     -11.287   5.578  72.658  1.00  0.00    -0.346 A  
HETATM   24  C   UNL     1      -9.343   4.289  72.245  1.00  0.00    -0.124 A  
HETATM   25  N   UNL     1      -8.698   5.337  71.678  1.00  0.00    -0.133 NA 
HETATM   26  C   UNL     1     -10.624   6.677  72.101  1.00  0.00    -0.238 A  
HETATM   27  C   UNL     1     -10.633   4.359  72.734  1.00  0.00    -0.182 A  
ENDBRANCH  12  21
ENDBRANCH  10  11
ENDBRANCH   7  10
TORSDOF 3
ENDMDL
MODEL      116
REMARK 921   NORMALIZED FREE ENERGY PREDICTED BY IDOCK:   -4.66 KCAL/MOL
REMARK 922        TOTAL FREE ENERGY PREDICTED BY IDOCK:   -6.09 KCAL/MOL
REMARK 923 INTER-LIGAND FREE ENERGY PREDICTED BY IDOCK:   -5.12 KCAL/MOL
REMARK 924 INTRA-LIGAND FREE ENERGY PREDICTED BY IDOCK:   -0.97 KCAL/MOL
REMARK 927      BINDING AFFINITY PREDICTED BY RF-SCORE:    0.00 PKD
ROOT
HETATM    1  C   UNL     1     -12.052  14.666  64.478  1.00  0.00    -0.475 C  
HETATM    2  N   UNL     1     -10.847  14.302  65.224  1.00  0.00    -0.333 NA 
HETATM    3  C   UNL     1     -10.944  14.727  66.638  1.00  0.00    -0.326 C  
HETATM    4  C   UNL     1     -11.904  13.878  67.492  1.00  0.00    -0.396 C  
HETATM    5  N   UNL     1     -11.592  12.456  67.370  1.00  0.00    -0.350 N  
HETATM    6  C   UNL     1     -11.519  11.959  65.997  1.00  0.00    -0.281 C  
HETATM    7  C   UNL     1     -11.230  11.759  68.503  1.00  0.00    -0.252 C  
HETATM    8  O   UNL     1     -11.139  12.297  69.600  1.00  0.00    -0.111 OA 
HETATM    9  C   UNL     1     -10.572  12.848  65.155  1.00  0.00    -0.302 C  
ENDROOT
BRANCH   7  10
HETATM   10  O   UNL     1     -11.021  10.433  68.305  1.00  0.00    -0.235 OA 
BRANCH  10  11
HETATM   11  C   UNL     1     -10.229   9.756  69.306  1.00  0.00    -0.204 C  
HETATM   12  N   UNL     1      -8.858   9.549  68.884  1.00  0.00    -0.134 N  
HETATM   13  C   UNL     1      -8.516   8.189  68.928  1.00  0.00    -0.130 C  
HETATM   14  C   UNL     1     -10.703   8.381  69.710  1.00  0.00    -0.211 A  
HETATM   15  N   UNL     1     -11.868   8.056  70.313  1.00  0.00     0.074 NA 
HETATM   16  C   UNL     1      -9.691   7.472  69.467  1.00  0.00    -0.164 A  
HETATM   17  O   UNL     1      -7.462   7.635  68.676  1.00  0.00    -0.098 OA 
HETATM   18  C   UNL     1     -11.953   6.736  70.634  1.00  0.00    -0.362 A  
HETATM   19  N   UNL     1      -9.751   6.168  69.802  1.00  0.00    -0.155 NA 
HETATM   20  C   UNL     1     -10.926   5.821  70.382  1.00  0.00    -0.262 A  
BRANCH  12  21
HETATM   21  C   UNL     1      -7.979  10.586  68.524  1.00  0.00    -0.118 A  
HETATM   22 CL   UNL     1      -5.242  13.982  67.489  1.00  0.00     0.110 Cl 
HETATM   23  C   UNL     1      -6.983  12.020  66.853  1.00  0.00    -0.033 A  
HETATM   24  C   UNL     1      -6.462  12.235  69.154  1.00  0.00    -0.100 A  
HETATM   25  N   UNL     1      -7.297  11.225  69.496  1.00  0.00    -0.034 NA 
HETATM   26  C   UNL     1      -7.826  10.956  67.187  1.00  0.00    -0.127 A  
HETATM   27  C   UNL     1      -6.284  12.672  67.856  1.00  0.00    -0.108 A  
ENDBRANCH  12  21
ENDBRANCH  10  11
ENDBRANCH   7  10
TORSDOF 3
ENDMDL
MODEL      117
REMARK 921   NORMALIZED FREE ENERGY PREDICTED BY IDOCK:   -4.61 KCAL/MOL
REMARK 922        TOTAL FREE ENERGY PREDICTED BY IDOCK:   -6.02 KCAL/MOL
REMARK 923 INTER-LIGAND FREE ENERGY PREDICTED BY IDOCK:   -5.20 KCAL/MOL
REMARK 924 INTRA-LIGAND FREE ENERGY PREDICTED BY IDOCK:   -0.82 KCAL/MOL
REMARK 927      BINDING AFFINITY PREDICTED BY RF-SCORE:    0.00 PKD
ROOT
HETATM    1  C   UNL     1     -11.749  14.562  65.014  1.00  0.00    -0.392 C  
HETATM    2  N   UNL     1     -11.853  13.306  64.271  1.00  0.00    -0.396 NA 
HETATM    3  C   UNL     1     -10.520  12.823  63.847  1.00  0.00    -0.372 C  
HETATM    4  C   UNL     1      -9.662  12.245  64.988  1.00  0.00    -0.059 C  
HETATM    5  N   UNL     1     -10.401  11.226  65.733  1.00  0.00    -0.251 N  
HETATM    6  C   UNL     1     -11.714  11.651  66.215  1.00  0.00     0.094 C  
HETATM    7  C   UNL     1      -9.902   9.942  65.768  1.00  0.00    -0.287 C  
HETATM    8  O   UNL     1      -8.876   9.622  65.179  1.00  0.00    -0.156 OA 
HETATM    9  C   UNL     1     -12.542  12.254  65.055  1.00  0.00    -0.071 C  
ENDROOT
BRANCH   7  10
HETATM   10  O   UNL     1     -10.619   9.081  66.534  1.00  0.00    -0.178 OA 
BRANCH  10  11
HETATM   11  C   UNL     1     -10.092   8.810  67.852  1.00  0.00    -0.207 C  
HETATM   12  N   UNL     1     -10.074   7.394  68.163  1.00  0.00    -0.173 N  
HETATM   13  C   UNL     1     -10.798   7.127  69.335  1.00  0.00    -0.206 C  
HETATM   14  C   UNL     1     -10.839   9.433  69.006  1.00  0.00    -0.136 A  
HETATM   15  N   UNL     1     -11.002  10.749  69.267  1.00  0.00    -0.224 NA 
HETATM   16  C   UNL     1     -11.258   8.430  69.859  1.00  0.00    -0.026 A  
HETATM   17  O   UNL     1     -10.985   6.076  69.921  1.00  0.00    -0.328 OA 
HETATM   18  C   UNL     1     -11.645  10.986  70.443  1.00  0.00    -0.293 A  
HETATM   19  N   UNL     1     -11.874   8.649  71.038  1.00  0.00    -0.284 NA 
HETATM   20  C   UNL     1     -12.070   9.964  71.299  1.00  0.00    -0.394 A  
BRANCH  12  21
HETATM   21  C   UNL     1      -9.381   6.430  67.411  1.00  0.00    -0.116 A  
HETATM   22 CL   UNL     1      -7.066   3.468  64.969  1.00  0.00    -0.064 Cl 
HETATM   23  C   UNL     1      -9.349   4.683  65.741  1.00  0.00    -0.158 A  
HETATM   24  C   UNL     1      -7.372   5.412  66.823  1.00  0.00    -0.086 A  
HETATM   25  N   UNL     1      -8.045   6.329  67.560  1.00  0.00    -0.112 NA 
HETATM   26  C   UNL     1     -10.062   5.604  66.515  1.00  0.00    -0.225 A  
HETATM   27  C   UNL     1      -7.977   4.582  65.899  1.00  0.00    -0.099 A  
ENDBRANCH  12  21
ENDBRANCH  10  11
ENDBRANCH   7  10
TORSDOF 3
ENDMDL
MODEL      118
REMARK 921   NORMALIZED FREE ENERGY PREDICTED BY IDOCK:   -4.59 KCAL/MOL
REMARK 922        TOTAL FREE ENERGY PREDICTED BY IDOCK:   -5.99 KCAL/MOL
REMARK 923 INTER-LIGAND FREE ENERGY PREDICTED BY IDOCK:   -5.19 KCAL/MOL
REMARK 924 INTRA-LIGAND FREE ENERGY PREDICTED BY IDOCK:   -0.81 KCAL/MOL
REMARK 927      BINDING AFFINITY PREDICTED BY RF-SCORE:    0.00 PKD
ROOT
HETATM    1  C   UNL     1      -6.012   7.525  69.578  1.00  0.00    -0.030 C  
HETATM    2  N   UNL     1      -7.118   7.787  68.657  1.00  0.00    -0.074 NA 
HETATM    3  C   UNL     1      -8.407   7.880  69.379  1.00  0.00    -0.132 C  
HETATM    4  C   UNL     1      -8.586   9.175  70.192  1.00  0.00    -0.182 C  
HETATM    5  N   UNL     1      -8.340  10.352  69.361  1.00  0.00    -0.161 N  
HETATM    6  C   UNL     1      -7.064  10.343  68.648  1.00  0.00    -0.076 C  
HETATM    7  C   UNL     1      -9.363  11.259  69.180  1.00  0.00     0.102 C  
HETATM    8  O   UNL     1     -10.473  11.099  69.673  1.00  0.00    -0.118 OA 
HETATM    9  C   UNL     1      -6.897   9.019  67.864  1.00  0.00    -0.070 C  
ENDROOT
BRANCH   7  10
HETATM   10  O   UNL     1      -9.024  12.350  68.448  1.00  0.00    -0.187 OA 
BRANCH  10  11
HETATM   11  C   UNL     1     -10.119  13.093  67.868  1.00  0.00    -0.232 C  
HETATM   12  N   UNL     1      -9.939  13.333  66.450  1.00  0.00    -0.282 N  
HETATM   13  C   UNL     1      -9.982  14.706  66.161  1.00  0.00    -0.304 C  
HETATM   14  C   UNL     1     -10.369  14.465  68.446  1.00  0.00    -0.244 A  
HETATM   15  N   UNL     1     -10.740  14.771  69.710  1.00  0.00    -0.198 NA 
HETATM   16  C   UNL     1     -10.271  15.400  67.434  1.00  0.00    -0.249 A  
HETATM   17  O   UNL     1      -9.898  15.288  65.095  1.00  0.00    -0.278 OA 
HETATM   18  C   UNL     1     -10.981  16.098  69.889  1.00  0.00    -0.362 A  
HETATM   19  N   UNL     1     -10.531  16.714  67.590  1.00  0.00    -0.313 NA 
HETATM   20  C   UNL     1     -10.876  17.039  68.860  1.00  0.00    -0.228 A  
BRANCH  12  21
HETATM   21  C   UNL     1      -9.789  12.317  65.491  1.00  0.00    -0.206 A  
HETATM   22 CL   UNL     1      -9.161   9.123  62.408  1.00  0.00    -0.164 Cl 
HETATM   23  C   UNL     1     -10.553  11.153  63.514  1.00  0.00    -0.393 A  
HETATM   24  C   UNL     1      -8.543  10.555  64.617  1.00  0.00    -0.161 A  
HETATM   25  N   UNL     1      -8.699  11.526  65.550  1.00  0.00     0.015 NA 
HETATM   26  C   UNL     1     -10.743  12.140  64.487  1.00  0.00    -0.353 A  
HETATM   27  C   UNL     1      -9.432  10.342  63.581  1.00  0.00    -0.306 A  
ENDBRANCH  12  21
ENDBRANCH  10  11
ENDBRANCH   7  10
TORSDOF 3
ENDMDL
MODEL      119
REMARK 921   NORMALIZED FREE ENERGY PREDICTED BY IDOCK:   -4.57 KCAL/MOL
REMARK 922        TOTAL FREE ENERGY PREDICTED BY IDOCK:   -5.97 KCAL/MOL
REMARK 923 INTER-LIGAND FREE ENERGY PREDICTED BY IDOCK:   -5.29 KCAL/MOL
REMARK 924 INTRA-LIGAND FREE ENERGY PREDICTED BY IDOCK:   -0.69 KCAL/MOL
REMARK 927      BINDING AFFINITY PREDICTED BY RF-SCORE:    0.00 PKD
ROOT
HETATM    1  C   UNL     1      -6.052   9.379  63.729  1.00  0.00    -0.092 C  
HETATM    2  N   UNL     1      -6.539  10.004  64.958  1.00  0.00    -0.118 NA 
HETATM    3  C   UNL     1      -7.987  10.299  64.874  1.00  0.00    -0.146 C  
HETATM    4  C   UNL     1      -8.893   9.058  64.975  1.00  0.00    -0.170 C  
HETATM    5  N   UNL     1      -8.565   8.267  66.160  1.00  0.00    -0.132 N  
HETATM    6  C   UNL     1      -7.154   7.908  66.286  1.00  0.00    -0.063 C  
HETATM    7  C   UNL     1      -9.538   8.079  67.119  1.00  0.00    -0.175 C  
HETATM    8  O   UNL     1     -10.655   8.572  67.022  1.00  0.00    -0.306 OA 
HETATM    9  C   UNL     1      -6.265   9.167  66.151  1.00  0.00    -0.064 C  
ENDROOT
BRANCH   7  10
HETATM   10  O   UNL     1      -9.163   7.281  68.150  1.00  0.00    -0.134 OA 
BRANCH  10  11
HETATM   11  C   UNL     1     -10.099   6.246  68.527  1.00  0.00    -0.157 C  
HETATM   12  N   UNL     1     -10.542   6.371  69.902  1.00  0.00    -0.220 N  
HETATM   13  C   UNL     1     -10.275   5.199  70.626  1.00  0.00    -0.256 C  
HETATM   14  C   UNL     1      -9.594   4.827  68.430  1.00  0.00    -0.151 A  
HETATM   15  N   UNL     1      -9.206   4.166  67.316  1.00  0.00    -0.145 NA 
HETATM   16  C   UNL     1      -9.691   4.233  69.673  1.00  0.00    -0.214 A  
HETATM   17  O   UNL     1     -10.522   4.919  71.785  1.00  0.00    -0.200 OA 
HETATM   18  C   UNL     1      -8.896   2.861  67.550  1.00  0.00    -0.137 A  
HETATM   19  N   UNL     1      -9.412   2.936  69.915  1.00  0.00    -0.137 NA 
HETATM   20  C   UNL     1      -8.993   2.268  68.813  1.00  0.00    -0.121 A  
BRANCH  12  21
HETATM   21  C   UNL     1     -11.195   7.503  70.419  1.00  0.00    -0.253 A  
HETATM   22 CL   UNL     1     -13.152  11.140  72.164  1.00  0.00    -0.473 Cl 
HETATM   23  C   UNL     1     -13.132   8.545  71.424  1.00  0.00    -0.255 A  
HETATM   24  C   UNL     1     -11.141   9.756  71.002  1.00  0.00    -0.361 A  
HETATM   25  N   UNL     1     -10.519   8.667  70.488  1.00  0.00    -0.200 NA 
HETATM   26  C   UNL     1     -12.514   7.419  70.869  1.00  0.00    -0.208 A  
HETATM   27  C   UNL     1     -12.432   9.738  71.490  1.00  0.00    -0.403 A  
ENDBRANCH  12  21
ENDBRANCH  10  11
ENDBRANCH   7  10
TORSDOF 3
ENDMDL
MODEL      120
REMARK 921   NORMALIZED FREE ENERGY PREDICTED BY IDOCK:   -4.55 KCAL/MOL
REMARK 922        TOTAL FREE ENERGY PREDICTED BY IDOCK:   -5.96 KCAL/MOL
REMARK 923 INTER-LIGAND FREE ENERGY PREDICTED BY IDOCK:   -5.43 KCAL/MOL
REMARK 924 INTRA-LIGAND FREE ENERGY PREDICTED BY IDOCK:   -0.53 KCAL/MOL
REMARK 927      BINDING AFFINITY PREDICTED BY RF-SCORE:    0.00 PKD
ROOT
HETATM    1  C   UNL     1      -6.630  10.531  62.660  1.00  0.00    -0.111 C  
HETATM    2  N   UNL     1      -7.305   9.233  62.659  1.00  0.00    -0.100 NA 
HETATM    3  C   UNL     1      -6.702   8.315  63.651  1.00  0.00    -0.076 C  
HETATM    4  C   UNL     1      -7.040   8.653  65.115  1.00  0.00    -0.086 C  
HETATM    5  N   UNL     1      -8.484   8.784  65.300  1.00  0.00    -0.165 N  
HETATM    6  C   UNL     1      -9.139   9.708  64.375  1.00  0.00    -0.229 C  
HETATM    7  C   UNL     1      -9.118   7.931  66.177  1.00  0.00    -0.163 C  
HETATM    8  O   UNL     1      -8.517   7.054  66.786  1.00  0.00    -0.112 OA 
HETATM    9  C   UNL     1      -8.758   9.365  62.915  1.00  0.00    -0.224 C  
ENDROOT
BRANCH   7  10
HETATM   10  O   UNL     1     -10.445   8.169  66.332  1.00  0.00    -0.154 OA 
BRANCH  10  11
HETATM   11  C   UNL     1     -10.877   8.528  67.664  1.00  0.00    -0.002 C  
HETATM   12  N   UNL     1     -10.251   9.746  68.141  1.00  0.00    -0.176 N  
HETATM   13  C   UNL     1      -9.572   9.523  69.349  1.00  0.00    -0.180 C  
HETATM   14  C   UNL     1     -10.594   7.518  68.749  1.00  0.00    -0.156 A  
HETATM   15  N   UNL     1     -11.087   6.263  68.854  1.00  0.00    -0.365 NA 
HETATM   16  C   UNL     1      -9.815   8.114  69.722  1.00  0.00    -0.187 A  
HETATM   17  O   UNL     1      -8.956  10.298  70.059  1.00  0.00    -0.083 OA 
HETATM   18  C   UNL     1     -10.716   5.638  70.004  1.00  0.00    -0.320 A  
HETATM   19  N   UNL     1      -9.461   7.517  70.877  1.00  0.00    -0.165 NA 
HETATM   20  C   UNL     1      -9.924   6.248  70.983  1.00  0.00    -0.182 A  
BRANCH  12  21
HETATM   21  C   UNL     1     -10.355  10.991  67.497  1.00  0.00    -0.198 A  
HETATM   22 CL   UNL     1     -10.769  14.892  65.327  1.00  0.00    -0.375 Cl 
HETATM   23  C   UNL     1      -9.339  12.998  66.612  1.00  0.00    -0.242 A  
HETATM   24  C   UNL     1     -11.665  12.590  66.428  1.00  0.00    -0.397 A  
HETATM   25  N   UNL     1     -11.565  11.398  67.064  1.00  0.00    -0.514 NA 
HETATM   26  C   UNL     1      -9.224  11.784  67.296  1.00  0.00    -0.173 A  
HETATM   27  C   UNL     1     -10.585  13.411  66.170  1.00  0.00    -0.292 A  
ENDBRANCH  12  21
ENDBRANCH  10  11
ENDBRANCH   7  10
TORSDOF 3
ENDMDL
MODEL      121
REMARK 921   NORMALIZED FREE ENERGY PREDICTED BY IDOCK:   -4.49 KCAL/MOL
REMARK 922        TOTAL FREE ENERGY PREDICTED BY IDOCK:   -5.88 KCAL/MOL
REMARK 923 INTER-LIGAND FREE ENERGY PREDICTED BY IDOCK:   -5.13 KCAL/MOL
REMARK 924 INTRA-LIGAND FREE ENERGY PREDICTED BY IDOCK:   -0.75 KCAL/MOL
REMARK 927      BINDING AFFINITY PREDICTED BY RF-SCORE:    0.00 PKD
ROOT
HETATM    1  C   UNL     1     -12.914   9.733  71.301  1.00  0.00    -0.380 C  
HETATM    2  N   UNL     1     -11.471   9.965  71.352  1.00  0.00    -0.361 NA 
HETATM    3  C   UNL     1     -10.723   8.688  71.375  1.00  0.00    -0.268 C  
HETATM    4  C   UNL     1     -10.701   7.941  70.029  1.00  0.00    -0.244 C  
HETATM    5  N   UNL     1     -10.248   8.819  68.952  1.00  0.00    -0.203 N  
HETATM    6  C   UNL     1     -10.972  10.085  68.847  1.00  0.00    -0.207 C  
HETATM    7  C   UNL     1      -9.105   8.480  68.259  1.00  0.00    -0.138 C  
HETATM    8  O   UNL     1      -8.447   7.484  68.531  1.00  0.00    -0.128 OA 
HETATM    9  C   UNL     1     -11.004  10.799  70.220  1.00  0.00    -0.085 C  
ENDROOT
BRANCH   7  10
HETATM   10  O   UNL     1      -8.798   9.319  67.238  1.00  0.00    -0.123 OA 
BRANCH  10  11
HETATM   11  C   UNL     1      -9.385   9.002  65.955  1.00  0.00    -0.242 C  
HETATM   12  N   UNL     1      -8.465   8.301  65.081  1.00  0.00    -0.167 N  
HETATM   13  C   UNL     1      -8.297   8.991  63.870  1.00  0.00    -0.176 C  
HETATM   14  C   UNL     1      -9.855  10.176  65.132  1.00  0.00    -0.325 A  
HETATM   15  N   UNL     1     -10.833  11.058  65.439  1.00  0.00    -0.158 NA 
HETATM   16  C   UNL     1      -9.196  10.162  63.918  1.00  0.00    -0.280 A  
HETATM   17  O   UNL     1      -7.633   8.706  62.889  1.00  0.00    -0.102 OA 
HETATM   18  C   UNL     1     -11.084  11.947  64.440  1.00  0.00    -0.336 A  
HETATM   19  N   UNL     1      -9.451  11.020  62.910  1.00  0.00    -0.338 NA 
HETATM   20  C   UNL     1     -10.410  11.928  63.214  1.00  0.00    -0.391 A  
BRANCH  12  21
HETATM   21  C   UNL     1      -7.862   7.071  65.393  1.00  0.00    -0.119 A  
HETATM   22 CL   UNL     1      -5.814   3.188  66.303  1.00  0.00    -0.022 Cl 
HETATM   23  C   UNL     1      -7.936   4.658  65.516  1.00  0.00    -0.095 A  
HETATM   24  C   UNL     1      -5.996   5.879  66.112  1.00  0.00    -0.025 A  
HETATM   25  N   UNL     1      -6.585   7.066  65.826  1.00  0.00    -0.050 NA 
HETATM   26  C   UNL     1      -8.568   5.876  65.244  1.00  0.00    -0.119 A  
HETATM   27  C   UNL     1      -6.624   4.659  65.961  1.00  0.00    -0.045 A  
ENDBRANCH  12  21
ENDBRANCH  10  11
ENDBRANCH   7  10
TORSDOF 3
ENDMDL
MODEL      122
REMARK 921   NORMALIZED FREE ENERGY PREDICTED BY IDOCK:   -4.49 KCAL/MOL
REMARK 922        TOTAL FREE ENERGY PREDICTED BY IDOCK:   -5.87 KCAL/MOL
REMARK 923 INTER-LIGAND FREE ENERGY PREDICTED BY IDOCK:   -6.29 KCAL/MOL
REMARK 924 INTRA-LIGAND FREE ENERGY PREDICTED BY IDOCK:    0.42 KCAL/MOL
REMARK 927      BINDING AFFINITY PREDICTED BY RF-SCORE:    0.00 PKD
ROOT
HETATM    1  C   UNL     1     -12.964  11.951  63.700  1.00  0.00    -0.187 C  
HETATM    2  N   UNL     1     -11.660  11.959  64.364  1.00  0.00    -0.317 NA 
HETATM    3  C   UNL     1     -10.735  12.915  63.716  1.00  0.00    -0.284 C  
HETATM    4  C   UNL     1     -11.051  14.396  63.999  1.00  0.00     0.377 C  
HETATM    5  N   UNL     1     -11.169  14.639  65.436  1.00  0.00    -0.334 N  
HETATM    6  C   UNL     1     -12.098  13.752  66.134  1.00  0.00    -0.441 C  
HETATM    7  C   UNL     1     -10.299  15.529  66.029  1.00  0.00    -0.326 C  
HETATM    8  O   UNL     1      -9.420  16.102  65.398  1.00  0.00    -0.394 OA 
HETATM    9  C   UNL     1     -11.777  12.273  65.807  1.00  0.00    -0.385 C  
ENDROOT
BRANCH   7  10
HETATM   10  O   UNL     1     -10.524  15.738  67.351  1.00  0.00    -0.283 OA 
BRANCH  10  11
HETATM   11  C   UNL     1      -9.533  15.205  68.257  1.00  0.00    -0.201 C  
HETATM   12  N   UNL     1      -8.185  15.608  67.906  1.00  0.00    -0.146 N  
HETATM   13  C   UNL     1      -7.360  14.490  67.710  1.00  0.00    -0.175 C  
HETATM   14  C   UNL     1      -9.456  13.701  68.349  1.00  0.00    -0.190 A  
HETATM   15  N   UNL     1     -10.414  12.854  68.790  1.00  0.00    -0.205 NA 
HETATM   16  C   UNL     1      -8.179  13.297  68.011  1.00  0.00    -0.162 A  
HETATM   17  O   UNL     1      -6.175  14.425  67.434  1.00  0.00    -0.334 OA 
HETATM   18  C   UNL     1      -9.999  11.559  68.841  1.00  0.00    -0.101 A  
HETATM   19  N   UNL     1      -7.746  12.022  68.080  1.00  0.00    -0.125 NA 
HETATM   20  C   UNL     1      -8.704  11.157  68.492  1.00  0.00    -0.161 A  
BRANCH  12  21
HETATM   21  C   UNL     1      -7.758  16.944  67.821  1.00  0.00    -0.173 A  
HETATM   22 CL   UNL     1      -6.548  21.253  67.555  1.00  0.00    -0.420 Cl 
HETATM   23  C   UNL     1      -6.461  18.679  66.747  1.00  0.00    -0.203 A  
HETATM   24  C   UNL     1      -7.866  19.136  68.598  1.00  0.00    -0.354 A  
HETATM   25  N   UNL     1      -8.264  17.843  68.689  1.00  0.00    -0.297 NA 
HETATM   26  C   UNL     1      -6.839  17.336  66.847  1.00  0.00    -0.231 A  
HETATM   27  C   UNL     1      -6.983  19.598  67.643  1.00  0.00    -0.240 A  
ENDBRANCH  12  21
ENDBRANCH  10  11
ENDBRANCH   7  10
TORSDOF 3
ENDMDL
MODEL      123
REMARK 921   NORMALIZED FREE ENERGY PREDICTED BY IDOCK:   -4.48 KCAL/MOL
REMARK 922        TOTAL FREE ENERGY PREDICTED BY IDOCK:   -5.87 KCAL/MOL
REMARK 923 INTER-LIGAND FREE ENERGY PREDICTED BY IDOCK:   -5.15 KCAL/MOL
REMARK 924 INTRA-LIGAND FREE ENERGY PREDICTED BY IDOCK:   -0.72 KCAL/MOL
REMARK 927      BINDING AFFINITY PREDICTED BY RF-SCORE:    0.00 PKD
ROOT
HETATM    1  C   UNL     1      -8.263   5.511  70.251  1.00  0.00    -0.103 C  
HETATM    2  N   UNL     1      -8.663   6.848  70.692  1.00  0.00    -0.148 NA 
HETATM    3  C   UNL     1      -7.507   7.772  70.718  1.00  0.00    -0.070 C  
HETATM    4  C   UNL     1      -7.019   8.218  69.327  1.00  0.00    -0.058 C  
HETATM    5  N   UNL     1      -8.125   8.750  68.532  1.00  0.00    -0.115 N  
HETATM    6  C   UNL     1      -9.287   7.869  68.432  1.00  0.00    -0.140 C  
HETATM    7  C   UNL     1      -8.061  10.059  68.104  1.00  0.00    -0.108 C  
HETATM    8  O   UNL     1      -7.123  10.794  68.387  1.00  0.00    -0.071 OA 
HETATM    9  C   UNL     1      -9.737   7.412  69.841  1.00  0.00    -0.171 C  
ENDROOT
BRANCH   7  10
HETATM   10  O   UNL     1      -9.100  10.444  67.320  1.00  0.00    -0.136 OA 
BRANCH  10  11
HETATM   11  C   UNL     1      -8.791  11.395  66.277  1.00  0.00    -0.195 C  
HETATM   12  N   UNL     1      -9.883  12.314  66.021  1.00  0.00    -0.246 N  
HETATM   13  C   UNL     1     -10.279  12.265  64.676  1.00  0.00    -0.285 C  
HETATM   14  C   UNL     1      -8.474  10.813  64.921  1.00  0.00    -0.055 A  
HETATM   15  N   UNL     1      -7.436  10.011  64.591  1.00  0.00    -0.141 NA 
HETATM   16  C   UNL     1      -9.365  11.323  63.997  1.00  0.00    -0.117 A  
HETATM   17  O   UNL     1     -11.133  12.901  64.085  1.00  0.00    -0.355 OA 
HETATM   18  C   UNL     1      -7.375   9.736  63.260  1.00  0.00    -0.123 A  
HETATM   19  N   UNL     1      -9.303  11.080  62.672  1.00  0.00    -0.324 NA 
HETATM   20  C   UNL     1      -8.284  10.253  62.331  1.00  0.00    -0.164 A  
BRANCH  12  21
HETATM   21  C   UNL     1     -10.434  13.172  66.989  1.00  0.00    -0.248 A  
HETATM   22 CL   UNL     1     -12.334  15.841  70.049  1.00  0.00    -0.328 Cl 
HETATM   23  C   UNL     1     -10.772  15.387  67.896  1.00  0.00    -0.286 A  
HETATM   24  C   UNL     1     -11.773  13.474  68.868  1.00  0.00    -0.339 A  
HETATM   25  N   UNL     1     -11.227  12.647  67.944  1.00  0.00    -0.248 NA 
HETATM   26  C   UNL     1     -10.177  14.543  66.952  1.00  0.00    -0.264 A  
HETATM   27  C   UNL     1     -11.585  14.841  68.876  1.00  0.00    -0.313 A  
ENDBRANCH  12  21
ENDBRANCH  10  11
ENDBRANCH   7  10
TORSDOF 3
ENDMDL
MODEL      124
REMARK 921   NORMALIZED FREE ENERGY PREDICTED BY IDOCK:   -4.44 KCAL/MOL
REMARK 922        TOTAL FREE ENERGY PREDICTED BY IDOCK:   -5.82 KCAL/MOL
REMARK 923 INTER-LIGAND FREE ENERGY PREDICTED BY IDOCK:   -4.61 KCAL/MOL
REMARK 924 INTRA-LIGAND FREE ENERGY PREDICTED BY IDOCK:   -1.21 KCAL/MOL
REMARK 927      BINDING AFFINITY PREDICTED BY RF-SCORE:    0.00 PKD
ROOT
HETATM    1  C   UNL     1     -12.777   9.177  72.053  1.00  0.00    -0.398 C  
HETATM    2  N   UNL     1     -11.364   8.845  71.876  1.00  0.00    -0.360 NA 
HETATM    3  C   UNL     1     -10.989   7.655  72.673  1.00  0.00    -0.351 C  
HETATM    4  C   UNL     1     -11.523   6.323  72.113  1.00  0.00    -0.307 C  
HETATM    5  N   UNL     1     -11.168   6.169  70.703  1.00  0.00    -0.323 N  
HETATM    6  C   UNL     1     -11.545   7.295  69.850  1.00  0.00     0.014 C  
HETATM    7  C   UNL     1     -10.380   5.100  70.333  1.00  0.00    -0.256 C  
HETATM    8  O   UNL     1      -9.950   4.292  71.147  1.00  0.00    -0.189 OA 
HETATM    9  C   UNL     1     -11.022   8.622  70.451  1.00  0.00    -0.235 C  
ENDROOT
BRANCH   7  10
HETATM   10  O   UNL     1     -10.155   5.004  68.998  1.00  0.00    -0.192 OA 
BRANCH  10  11
HETATM   11  C   UNL     1      -8.771   4.974  68.586  1.00  0.00    -0.093 C  
HETATM   12  N   UNL     1      -8.516   5.813  67.430  1.00  0.00    -0.104 N  
HETATM   13  C   UNL     1      -7.952   5.069  66.382  1.00  0.00    -0.107 C  
HETATM   14  C   UNL     1      -8.224   3.625  68.190  1.00  0.00    -0.083 A  
HETATM   15  N   UNL     1      -8.086   2.531  68.972  1.00  0.00    -0.051 NA 
HETATM   16  C   UNL     1      -7.762   3.694  66.890  1.00  0.00    -0.080 A  
HETATM   17  O   UNL     1      -7.582   5.424  65.278  1.00  0.00    -0.075 OA 
HETATM   18  C   UNL     1      -7.468   1.496  68.340  1.00  0.00    -0.046 A  
HETATM   19  N   UNL     1      -7.126   2.687  66.259  1.00  0.00    -0.062 NA 
HETATM   20  C   UNL     1      -7.006   1.573  67.022  1.00  0.00    -0.038 A  
BRANCH  12  21
HETATM   21  C   UNL     1      -8.763   7.196  67.391  1.00  0.00    -0.120 A  
HETATM   22 CL   UNL     1      -9.552  11.609  67.422  1.00  0.00    -0.169 Cl 
HETATM   23  C   UNL     1     -10.025   9.090  66.576  1.00  0.00    -0.355 A  
HETATM   24  C   UNL     1      -8.272   9.341  68.149  1.00  0.00    -0.119 A  
HETATM   25  N   UNL     1      -8.025   8.009  68.173  1.00  0.00    -0.126 NA 
HETATM   26  C   UNL     1      -9.763   7.716  66.567  1.00  0.00    -0.251 A  
HETATM   27  C   UNL     1      -9.262   9.920  67.381  1.00  0.00    -0.134 A  
ENDBRANCH  12  21
ENDBRANCH  10  11
ENDBRANCH   7  10
TORSDOF 3
ENDMDL
MODEL      125
REMARK 921   NORMALIZED FREE ENERGY PREDICTED BY IDOCK:   -4.44 KCAL/MOL
REMARK 922        TOTAL FREE ENERGY PREDICTED BY IDOCK:   -5.82 KCAL/MOL
REMARK 923 INTER-LIGAND FREE ENERGY PREDICTED BY IDOCK:   -5.02 KCAL/MOL
REMARK 924 INTRA-LIGAND FREE ENERGY PREDICTED BY IDOCK:   -0.80 KCAL/MOL
REMARK 927      BINDING AFFINITY PREDICTED BY RF-SCORE:    0.00 PKD
ROOT
HETATM    1  C   UNL     1     -12.063  12.624  70.003  1.00  0.00    -0.269 C  
HETATM    2  N   UNL     1     -11.955  12.088  68.646  1.00  0.00    -0.336 NA 
HETATM    3  C   UNL     1     -10.933  12.818  67.861  1.00  0.00    -0.234 C  
HETATM    4  C   UNL     1      -9.480  12.498  68.259  1.00  0.00    -0.201 C  
HETATM    5  N   UNL     1      -9.244  11.055  68.255  1.00  0.00    -0.158 N  
HETATM    6  C   UNL     1     -10.196  10.276  69.044  1.00  0.00    -0.210 C  
HETATM    7  C   UNL     1      -8.289  10.544  67.402  1.00  0.00    -0.121 C  
HETATM    8  O   UNL     1      -7.653  11.254  66.633  1.00  0.00    -0.146 OA 
HETATM    9  C   UNL     1     -11.647  10.639  68.646  1.00  0.00    -0.227 C  
ENDROOT
BRANCH   7  10
HETATM   10  O   UNL     1      -8.095   9.206  67.513  1.00  0.00    -0.103 OA 
BRANCH  10  11
HETATM   11  C   UNL     1      -8.927   8.370  66.679  1.00  0.00    -0.151 C  
HETATM   12  N   UNL     1      -9.128   7.048  67.240  1.00  0.00    -0.124 N  
HETATM   13  C   UNL     1      -8.711   6.051  66.344  1.00  0.00    -0.133 C  
HETATM   14  C   UNL     1      -8.415   8.104  65.284  1.00  0.00    -0.139 A  
HETATM   15  N   UNL     1      -8.212   9.005  64.297  1.00  0.00    -0.156 NA 
HETATM   16  C   UNL     1      -8.281   6.740  65.110  1.00  0.00    -0.114 A  
HETATM   17  O   UNL     1      -8.746   4.838  66.446  1.00  0.00    -0.113 OA 
HETATM   18  C   UNL     1      -7.835   8.433  63.120  1.00  0.00    -0.147 A  
HETATM   19  N   UNL     1      -7.933   6.158  63.945  1.00  0.00    -0.115 NA 
HETATM   20  C   UNL     1      -7.698   7.051  62.953  1.00  0.00    -0.107 A  
BRANCH  12  21
HETATM   21  C   UNL     1      -9.706   6.805  68.498  1.00  0.00    -0.133 A  
HETATM   22 CL   UNL     1     -11.442   5.918  72.535  1.00  0.00    -0.348 Cl 
HETATM   23  C   UNL     1     -11.636   6.330  69.875  1.00  0.00    -0.361 A  
HETATM   24  C   UNL     1      -9.457   6.492  70.791  1.00  0.00    -0.172 A  
HETATM   25  N   UNL     1      -8.904   6.742  69.580  1.00  0.00    -0.139 NA 
HETATM   26  C   UNL     1     -11.084   6.617  68.622  1.00  0.00    -0.288 A  
HETATM   27  C   UNL     1     -10.806   6.268  70.983  1.00  0.00    -0.271 A  
ENDBRANCH  12  21
ENDBRANCH  10  11
ENDBRANCH   7  10
TORSDOF 3
ENDMDL
MODEL      126
REMARK 921   NORMALIZED FREE ENERGY PREDICTED BY IDOCK:   -4.43 KCAL/MOL
REMARK 922        TOTAL FREE ENERGY PREDICTED BY IDOCK:   -5.81 KCAL/MOL
REMARK 923 INTER-LIGAND FREE ENERGY PREDICTED BY IDOCK:   -4.93 KCAL/MOL
REMARK 924 INTRA-LIGAND FREE ENERGY PREDICTED BY IDOCK:   -0.88 KCAL/MOL
REMARK 927      BINDING AFFINITY PREDICTED BY RF-SCORE:    0.00 PKD
ROOT
HETATM    1  C   UNL     1     -11.916  15.294  68.711  1.00  0.00    -0.251 C  
HETATM    2  N   UNL     1     -11.075  14.435  69.544  1.00  0.00    -0.250 NA 
HETATM    3  C   UNL     1     -11.855  13.320  70.125  1.00  0.00    -0.263 C  
HETATM    4  C   UNL     1     -12.235  12.219  69.118  1.00  0.00    -0.023 C  
HETATM    5  N   UNL     1     -11.056  11.741  68.397  1.00  0.00    -0.218 N  
HETATM    6  C   UNL     1     -10.258  12.791  67.764  1.00  0.00    -0.223 C  
HETATM    7  C   UNL     1     -10.703  10.414  68.513  1.00  0.00    -0.221 C  
HETATM    8  O   UNL     1     -11.328   9.630  69.217  1.00  0.00    -0.111 OA 
HETATM    9  C   UNL     1      -9.917  13.898  68.790  1.00  0.00    -0.135 C  
ENDROOT
BRANCH   7  10
HETATM   10  O   UNL     1      -9.635  10.049  67.760  1.00  0.00    -0.146 OA 
BRANCH  10  11
HETATM   11  C   UNL     1      -9.923   9.248  66.592  1.00  0.00    -0.264 C  
HETATM   12  N   UNL     1      -9.004   8.138  66.438  1.00  0.00    -0.162 N  
HETATM   13  C   UNL     1      -8.362   8.184  65.191  1.00  0.00    -0.143 C  
HETATM   14  C   UNL     1      -9.863   9.964  65.265  1.00  0.00    -0.303 A  
HETATM   15  N   UNL     1     -10.644  10.984  64.843  1.00  0.00    -0.288 NA 
HETATM   16  C   UNL     1      -8.932   9.335  64.461  1.00  0.00    -0.136 A  
HETATM   17  O   UNL     1      -7.554   7.420  64.694  1.00  0.00    -0.090 OA 
HETATM   18  C   UNL     1     -10.402  11.345  63.554  1.00  0.00    -0.423 A  
HETATM   19  N   UNL     1      -8.699   9.665  63.174  1.00  0.00    -0.215 NA 
HETATM   20  C   UNL     1      -9.455  10.706  62.747  1.00  0.00    -0.328 A  
BRANCH  12  21
HETATM   21  C   UNL     1      -8.820   7.128  67.398  1.00  0.00    -0.119 A  
HETATM   22 CL   UNL     1      -8.350   3.970  70.546  1.00  0.00    -0.077 Cl 
HETATM   23  C   UNL     1      -7.386   5.854  68.870  1.00  0.00    -0.084 A  
HETATM   24  C   UNL     1      -9.727   5.499  68.792  1.00  0.00    -0.143 A  
HETATM   25  N   UNL     1      -9.900   6.462  67.854  1.00  0.00    -0.120 NA 
HETATM   26  C   UNL     1      -7.545   6.830  67.881  1.00  0.00    -0.107 A  
HETATM   27  C   UNL     1      -8.500   5.172  69.333  1.00  0.00    -0.089 A  
ENDBRANCH  12  21
ENDBRANCH  10  11
ENDBRANCH   7  10
TORSDOF 3
ENDMDL
MODEL      127
REMARK 921   NORMALIZED FREE ENERGY PREDICTED BY IDOCK:   -4.40 KCAL/MOL
REMARK 922        TOTAL FREE ENERGY PREDICTED BY IDOCK:   -5.78 KCAL/MOL
REMARK 923 INTER-LIGAND FREE ENERGY PREDICTED BY IDOCK:   -4.88 KCAL/MOL
REMARK 924 INTRA-LIGAND FREE ENERGY PREDICTED BY IDOCK:   -0.90 KCAL/MOL
REMARK 927      BINDING AFFINITY PREDICTED BY RF-SCORE:    0.00 PKD
ROOT
HETATM    1  C   UNL     1     -10.525  10.906  64.193  1.00  0.00    -0.327 C  
HETATM    2  N   UNL     1      -9.551  10.880  65.284  1.00  0.00    -0.215 NA 
HETATM    3  C   UNL     1      -9.952  11.787  66.382  1.00  0.00    -0.211 C  
HETATM    4  C   UNL     1     -11.131  11.275  67.230  1.00  0.00    -0.305 C  
HETATM    5  N   UNL     1     -10.880   9.916  67.708  1.00  0.00    -0.278 N  
HETATM    6  C   UNL     1     -10.515   8.957  66.666  1.00  0.00    -0.161 C  
HETATM    7  C   UNL     1     -10.832   9.692  69.067  1.00  0.00    -0.183 C  
HETATM    8  O   UNL     1     -10.971  10.595  69.884  1.00  0.00    -0.270 OA 
HETATM    9  C   UNL     1      -9.349   9.510  65.812  1.00  0.00    -0.233 C  
ENDROOT
BRANCH   7  10
HETATM   10  O   UNL     1     -10.657   8.393  69.417  1.00  0.00    -0.224 OA 
BRANCH  10  11
HETATM   11  C   UNL     1      -9.928   8.155  70.641  1.00  0.00    -0.189 C  
HETATM   12  N   UNL     1      -8.505   7.988  70.417  1.00  0.00    -0.127 N  
HETATM   13  C   UNL     1      -8.056   6.757  70.920  1.00  0.00    -0.118 C  
HETATM   14  C   UNL     1     -10.325   6.928  71.424  1.00  0.00    -0.201 A  
HETATM   15  N   UNL     1     -11.518   6.672  72.005  1.00  0.00    -0.277 NA 
HETATM   16  C   UNL     1      -9.219   6.112  71.565  1.00  0.00    -0.146 A  
HETATM   17  O   UNL     1      -6.937   6.278  70.942  1.00  0.00    -0.064 OA 
HETATM   18  C   UNL     1     -11.527   5.516  72.723  1.00  0.00    -0.280 A  
HETATM   19  N   UNL     1      -9.205   4.977  72.293  1.00  0.00    -0.134 NA 
HETATM   20  C   UNL     1     -10.404   4.693  72.858  1.00  0.00    -0.187 A  
BRANCH  12  21
HETATM   21  C   UNL     1      -7.682   8.957  69.816  1.00  0.00    -0.078 A  
HETATM   22 CL   UNL     1      -5.161  12.158  67.947  1.00  0.00    -0.057 Cl 
HETATM   23  C   UNL     1      -6.453   9.789  67.908  1.00  0.00    -0.060 A  
HETATM   24  C   UNL     1      -6.569  10.997  69.942  1.00  0.00    -0.142 A  
HETATM   25  N   UNL     1      -7.349  10.054  70.525  1.00  0.00    -0.298 NA 
HETATM   26  C   UNL     1      -7.232   8.793  68.505  1.00  0.00    -0.074 A  
HETATM   27  C   UNL     1      -6.112  10.913  68.642  1.00  0.00    -0.043 A  
ENDBRANCH  12  21
ENDBRANCH  10  11
ENDBRANCH   7  10
TORSDOF 3
ENDMDL
MODEL      128
REMARK 921   NORMALIZED FREE ENERGY PREDICTED BY IDOCK:   -4.39 KCAL/MOL
REMARK 922        TOTAL FREE ENERGY PREDICTED BY IDOCK:   -5.77 KCAL/MOL
REMARK 923 INTER-LIGAND FREE ENERGY PREDICTED BY IDOCK:   -4.76 KCAL/MOL
REMARK 924 INTRA-LIGAND FREE ENERGY PREDICTED BY IDOCK:   -1.00 KCAL/MOL
REMARK 927      BINDING AFFINITY PREDICTED BY RF-SCORE:    0.00 PKD
ROOT
HETATM    1  C   UNL     1      -7.536  10.095  62.463  1.00  0.00    -0.133 C  
HETATM    2  N   UNL     1      -7.196  10.165  63.884  1.00  0.00    -0.126 NA 
HETATM    3  C   UNL     1      -8.359  10.592  64.694  1.00  0.00    -0.114 C  
HETATM    4  C   UNL     1      -9.447   9.514  64.858  1.00  0.00    -0.160 C  
HETATM    5  N   UNL     1      -8.873   8.262  65.346  1.00  0.00    -0.124 N  
HETATM    6  C   UNL     1      -7.741   7.762  64.568  1.00  0.00    -0.122 C  
HETATM    7  C   UNL     1      -9.308   7.762  66.555  1.00  0.00    -0.189 C  
HETATM    8  O   UNL     1     -10.140   8.343  67.241  1.00  0.00    -0.205 OA 
HETATM    9  C   UNL     1      -6.677   8.873  64.393  1.00  0.00    -0.078 C  
ENDROOT
BRANCH   7  10
HETATM   10  O   UNL     1      -8.766   6.566  66.896  1.00  0.00    -0.112 OA 
BRANCH  10  11
HETATM   11  C   UNL     1      -9.679   5.447  66.955  1.00  0.00    -0.153 C  
HETATM   12  N   UNL     1      -9.708   4.821  68.262  1.00  0.00    -0.148 N  
HETATM   13  C   UNL     1      -9.394   3.456  68.174  1.00  0.00    -0.184 C  
HETATM   14  C   UNL     1      -9.395   4.308  66.006  1.00  0.00    -0.163 A  
HETATM   15  N   UNL     1      -9.412   4.339  64.654  1.00  0.00    -0.161 NA 
HETATM   16  C   UNL     1      -9.216   3.151  66.739  1.00  0.00    -0.154 A  
HETATM   17  O   UNL     1      -9.343   2.603  69.042  1.00  0.00    -0.149 OA 
HETATM   18  C   UNL     1      -9.208   3.118  64.089  1.00  0.00    -0.120 A  
HETATM   19  N   UNL     1      -9.039   1.931  66.193  1.00  0.00    -0.085 NA 
HETATM   20  C   UNL     1      -9.024   1.951  64.839  1.00  0.00    -0.122 A  
BRANCH  12  21
HETATM   21  C   UNL     1     -10.052   5.490  69.449  1.00  0.00    -0.236 A  
HETATM   22 CL   UNL     1     -11.201   7.745  73.150  1.00  0.00    -0.398 Cl 
HETATM   23  C   UNL     1      -9.473   6.317  71.646  1.00  0.00    -0.157 A  
HETATM   24  C   UNL     1     -11.611   6.688  70.695  1.00  0.00    -0.382 A  
HETATM   25  N   UNL     1     -11.283   6.028  69.558  1.00  0.00    -0.403 NA 
HETATM   26  C   UNL     1      -9.130   5.608  70.491  1.00  0.00    -0.164 A  
HETATM   27  C   UNL     1     -10.741   6.867  71.752  1.00  0.00    -0.221 A  
ENDBRANCH  12  21
ENDBRANCH  10  11
ENDBRANCH   7  10
TORSDOF 3
ENDMDL
MODEL      129
REMARK 921   NORMALIZED FREE ENERGY PREDICTED BY IDOCK:   -4.39 KCAL/MOL
REMARK 922        TOTAL FREE ENERGY PREDICTED BY IDOCK:   -5.76 KCAL/MOL
REMARK 923 INTER-LIGAND FREE ENERGY PREDICTED BY IDOCK:   -4.95 KCAL/MOL
REMARK 924 INTRA-LIGAND FREE ENERGY PREDICTED BY IDOCK:   -0.81 KCAL/MOL
REMARK 927      BINDING AFFINITY PREDICTED BY RF-SCORE:    0.00 PKD
ROOT
HETATM    1  C   UNL     1     -10.287   5.155  72.919  1.00  0.00    -0.196 C  
HETATM    2  N   UNL     1      -9.360   5.387  71.811  1.00  0.00    -0.145 NA 
HETATM    3  C   UNL     1      -9.914   4.884  70.535  1.00  0.00    -0.241 C  
HETATM    4  C   UNL     1     -11.052   5.744  69.954  1.00  0.00    -0.257 C  
HETATM    5  N   UNL     1     -10.650   7.147  69.859  1.00  0.00    -0.224 N  
HETATM    6  C   UNL     1     -10.128   7.720  71.099  1.00  0.00    -0.187 C  
HETATM    7  C   UNL     1     -10.628   7.746  68.618  1.00  0.00    -0.120 C  
HETATM    8  O   UNL     1     -10.909   7.137  67.593  1.00  0.00    -0.237 OA 
HETATM    9  C   UNL     1      -9.009   6.821  71.676  1.00  0.00    -0.136 C  
ENDROOT
BRANCH   7  10
HETATM   10  O   UNL     1     -10.305   9.063  68.636  1.00  0.00    -0.201 OA 
BRANCH  10  11
HETATM   11  C   UNL     1     -10.130   9.694  67.347  1.00  0.00    -0.204 C  
HETATM   12  N   UNL     1      -8.745   9.710  66.919  1.00  0.00    -0.130 N  
HETATM   13  C   UNL     1      -8.313  11.020  66.659  1.00  0.00    -0.155 C  
HETATM   14  C   UNL     1     -10.563  11.136  67.249  1.00  0.00    -0.239 A  
HETATM   15  N   UNL     1     -11.812  11.633  67.400  1.00  0.00    -0.630 NA 
HETATM   16  C   UNL     1      -9.481  11.901  66.859  1.00  0.00    -0.199 A  
HETATM   17  O   UNL     1      -7.237  11.427  66.261  1.00  0.00    -0.057 OA 
HETATM   18  C   UNL     1     -11.889  12.969  67.153  1.00  0.00    -0.373 A  
HETATM   19  N   UNL     1      -9.547  13.220  66.587  1.00  0.00    -0.257 NA 
HETATM   20  C   UNL     1     -10.788  13.738  66.761  1.00  0.00    -0.284 A  
BRANCH  12  21
HETATM   21  C   UNL     1      -7.960   8.557  66.744  1.00  0.00    -0.094 A  
HETATM   22 CL   UNL     1      -5.590   4.797  66.156  1.00  0.00    -0.017 Cl 
HETATM   23  C   UNL     1      -6.276   7.013  67.535  1.00  0.00    -0.041 A  
HETATM   24  C   UNL     1      -7.405   6.684  65.479  1.00  0.00    -0.076 A  
HETATM   25  N   UNL     1      -8.149   7.805  65.641  1.00  0.00    -0.121 NA 
HETATM   26  C   UNL     1      -7.015   8.189  67.703  1.00  0.00    -0.078 A  
HETATM   27  C   UNL     1      -6.473   6.246  66.399  1.00  0.00    -0.047 A  
ENDBRANCH  12  21
ENDBRANCH  10  11
ENDBRANCH   7  10
TORSDOF 3
ENDMDL
MODEL      130
REMARK 921   NORMALIZED FREE ENERGY PREDICTED BY IDOCK:   -4.36 KCAL/MOL
REMARK 922        TOTAL FREE ENERGY PREDICTED BY IDOCK:   -5.72 KCAL/MOL
REMARK 923 INTER-LIGAND FREE ENERGY PREDICTED BY IDOCK:   -5.24 KCAL/MOL
REMARK 924 INTRA-LIGAND FREE ENERGY PREDICTED BY IDOCK:   -0.48 KCAL/MOL
REMARK 927      BINDING AFFINITY PREDICTED BY RF-SCORE:    0.00 PKD
ROOT
HETATM    1  C   UNL     1      -9.402   5.392  69.986  1.00  0.00    -0.148 C  
HETATM    2  N   UNL     1     -10.728   5.992  69.836  1.00  0.00    -0.291 NA 
HETATM    3  C   UNL     1     -10.850   7.229  70.640  1.00  0.00    -0.242 C  
HETATM    4  C   UNL     1     -10.081   8.435  70.069  1.00  0.00    -0.192 C  
HETATM    5  N   UNL     1     -10.427   8.659  68.666  1.00  0.00    -0.203 N  
HETATM    6  C   UNL     1     -10.291   7.484  67.806  1.00  0.00    -0.216 C  
HETATM    7  C   UNL     1     -11.001   9.861  68.311  1.00  0.00    -0.196 C  
HETATM    8  O   UNL     1     -11.251  10.734  69.132  1.00  0.00    -0.223 OA 
HETATM    9  C   UNL     1     -11.048   6.281  68.418  1.00  0.00    -0.279 C  
ENDROOT
BRANCH   7  10
HETATM   10  O   UNL     1     -11.229  10.003  66.981  1.00  0.00    -0.083 OA 
BRANCH  10  11
HETATM   11  C   UNL     1     -10.604  11.140  66.346  1.00  0.00    -0.261 C  
HETATM   12  N   UNL     1      -9.157  11.053  66.349  1.00  0.00    -0.172 N  
HETATM   13  C   UNL     1      -8.586  12.174  66.973  1.00  0.00    -0.191 C  
HETATM   14  C   UNL     1     -10.894  12.487  66.961  1.00  0.00    -0.254 A  
HETATM   15  N   UNL     1     -12.091  13.110  67.053  1.00  0.00    -0.352 NA 
HETATM   16  C   UNL     1      -9.700  13.073  67.337  1.00  0.00    -0.213 A  
HETATM   17  O   UNL     1      -7.416  12.468  67.142  1.00  0.00    -0.143 OA 
HETATM   18  C   UNL     1     -12.003  14.362  67.578  1.00  0.00    -0.354 A  
HETATM   19  N   UNL     1      -9.595  14.322  67.834  1.00  0.00    -0.215 NA 
HETATM   20  C   UNL     1     -10.791  14.947  67.959  1.00  0.00    -0.263 A  
BRANCH  12  21
HETATM   21  C   UNL     1      -8.428  10.004  65.762  1.00  0.00    -0.138 A  
HETATM   22 CL   UNL     1      -6.242   6.597  63.836  1.00  0.00    -0.034 Cl 
HETATM   23  C   UNL     1      -6.799   8.224  65.915  1.00  0.00    -0.064 A  
HETATM   24  C   UNL     1      -7.984   8.664  63.912  1.00  0.00    -0.159 A  
HETATM   25  N   UNL     1      -8.673   9.686  64.475  1.00  0.00    -0.188 NA 
HETATM   26  C   UNL     1      -7.481   9.295  66.502  1.00  0.00    -0.093 A  
HETATM   27  C   UNL     1      -7.054   7.903  64.592  1.00  0.00    -0.076 A  
ENDBRANCH  12  21
ENDBRANCH  10  11
ENDBRANCH   7  10
TORSDOF 3
ENDMDL
MODEL      131
REMARK 921   NORMALIZED FREE ENERGY PREDICTED BY IDOCK:   -4.35 KCAL/MOL
REMARK 922        TOTAL FREE ENERGY PREDICTED BY IDOCK:   -5.72 KCAL/MOL
REMARK 923 INTER-LIGAND FREE ENERGY PREDICTED BY IDOCK:   -5.37 KCAL/MOL
REMARK 924 INTRA-LIGAND FREE ENERGY PREDICTED BY IDOCK:   -0.34 KCAL/MOL
REMARK 927      BINDING AFFINITY PREDICTED BY RF-SCORE:    0.00 PKD
ROOT
HETATM    1  C   UNL     1     -12.478  14.684  64.016  1.00  0.00    -0.018 C  
HETATM    2  N   UNL     1     -12.801  13.462  64.753  1.00  0.00    -0.706 NA 
HETATM    3  C   UNL     1     -12.057  12.300  64.218  1.00  0.00    -0.412 C  
HETATM    4  C   UNL     1     -10.558  12.289  64.571  1.00  0.00    -0.311 C  
HETATM    5  N   UNL     1     -10.360  12.449  66.010  1.00  0.00    -0.245 N  
HETATM    6  C   UNL     1     -11.038  13.603  66.599  1.00  0.00    -0.306 C  
HETATM    7  C   UNL     1      -9.723  11.442  66.705  1.00  0.00    -0.198 C  
HETATM    8  O   UNL     1      -9.341  10.413  66.162  1.00  0.00    -0.162 OA 
HETATM    9  C   UNL     1     -12.534  13.605  66.204  1.00  0.00    -0.395 C  
ENDROOT
BRANCH   7  10
HETATM   10  O   UNL     1      -9.527  11.706  68.022  1.00  0.00    -0.172 OA 
BRANCH  10  11
HETATM   11  C   UNL     1      -8.175  11.552  68.508  1.00  0.00    -0.148 C  
HETATM   12  N   UNL     1      -7.269  12.541  67.954  1.00  0.00    -0.101 N  
HETATM   13  C   UNL     1      -6.191  11.926  67.300  1.00  0.00    -0.140 C  
HETATM   14  C   UNL     1      -7.507  10.232  68.209  1.00  0.00    -0.086 A  
HETATM   15  N   UNL     1      -7.876   9.006  68.644  1.00  0.00    -0.100 NA 
HETATM   16  C   UNL     1      -6.353  10.469  67.487  1.00  0.00    -0.057 A  
HETATM   17  O   UNL     1      -5.226  12.417  66.742  1.00  0.00    -0.338 OA 
HETATM   18  C   UNL     1      -7.007   8.025  68.277  1.00  0.00    -0.073 A  
HETATM   19  N   UNL     1      -5.471   9.511  67.138  1.00  0.00    -0.039 NA 
HETATM   20  C   UNL     1      -5.842   8.273  67.543  1.00  0.00    -0.043 A  
BRANCH  12  21
HETATM   21  C   UNL     1      -7.434  13.929  68.098  1.00  0.00    -0.126 A  
HETATM   22 CL   UNL     1      -7.882  18.378  68.421  1.00  0.00    -0.312 Cl 
HETATM   23  C   UNL     1      -7.217  15.953  69.402  1.00  0.00    -0.214 A  
HETATM   24  C   UNL     1      -8.059  15.978  67.188  1.00  0.00    -0.200 A  
HETATM   25  N   UNL     1      -7.915  14.637  67.057  1.00  0.00    -0.148 NA 
HETATM   26  C   UNL     1      -7.090  14.565  69.293  1.00  0.00    -0.140 A  
HETATM   27  C   UNL     1      -7.713  16.675  68.329  1.00  0.00    -0.183 A  
ENDBRANCH  12  21
ENDBRANCH  10  11
ENDBRANCH   7  10
TORSDOF 3
ENDMDL
MODEL      132
REMARK 921   NORMALIZED FREE ENERGY PREDICTED BY IDOCK:   -4.30 KCAL/MOL
REMARK 922        TOTAL FREE ENERGY PREDICTED BY IDOCK:   -5.65 KCAL/MOL
REMARK 923 INTER-LIGAND FREE ENERGY PREDICTED BY IDOCK:   -4.62 KCAL/MOL
REMARK 924 INTRA-LIGAND FREE ENERGY PREDICTED BY IDOCK:   -1.04 KCAL/MOL
REMARK 927      BINDING AFFINITY PREDICTED BY RF-SCORE:    0.00 PKD
ROOT
HETATM    1  C   UNL     1     -10.183  10.681  66.407  1.00  0.00    -0.234 C  
HETATM    2  N   UNL     1     -10.273   9.221  66.415  1.00  0.00    -0.260 NA 
HETATM    3  C   UNL     1      -9.064   8.607  65.823  1.00  0.00    -0.187 C  
HETATM    4  C   UNL     1      -7.812   8.679  66.717  1.00  0.00    -0.094 C  
HETATM    5  N   UNL     1      -8.093   8.154  68.052  1.00  0.00    -0.127 N  
HETATM    6  C   UNL     1      -9.254   8.748  68.712  1.00  0.00    -0.141 C  
HETATM    7  C   UNL     1      -7.379   7.061  68.496  1.00  0.00    -0.100 C  
HETATM    8  O   UNL     1      -6.537   6.504  67.802  1.00  0.00    -0.056 OA 
HETATM    9  C   UNL     1     -10.489   8.688  67.781  1.00  0.00    -0.224 C  
ENDROOT
BRANCH   7  10
HETATM   10  O   UNL     1      -7.663   6.685  69.769  1.00  0.00    -0.107 OA 
BRANCH  10  11
HETATM   11  C   UNL     1      -8.482   5.503  69.915  1.00  0.00    -0.116 C  
HETATM   12  N   UNL     1      -9.350   5.569  71.075  1.00  0.00    -0.151 N  
HETATM   13  C   UNL     1      -9.132   4.478  71.931  1.00  0.00    -0.130 C  
HETATM   14  C   UNL     1      -7.742   4.199  70.082  1.00  0.00    -0.049 A  
HETATM   15  N   UNL     1      -6.918   3.600  69.192  1.00  0.00    -0.045 NA 
HETATM   16  C   UNL     1      -8.124   3.618  71.276  1.00  0.00    -0.064 A  
HETATM   17  O   UNL     1      -9.679   4.177  72.976  1.00  0.00    -0.124 OA 
HETATM   18  C   UNL     1      -6.482   2.379  69.605  1.00  0.00    -0.029 A  
HETATM   19  N   UNL     1      -7.721   2.399  71.687  1.00  0.00    -0.040 NA 
HETATM   20  C   UNL     1      -6.871   1.799  70.818  1.00  0.00    -0.032 A  
BRANCH  12  21
HETATM   21  C   UNL     1     -10.313   6.572  71.283  1.00  0.00    -0.204 A  
HETATM   22 CL   UNL     1     -13.355   9.761  72.103  1.00  0.00    -0.538 Cl 
HETATM   23  C   UNL     1     -12.539   7.456  70.960  1.00  0.00    -0.264 A  
HETATM   24  C   UNL     1     -10.928   8.583  72.281  1.00  0.00    -0.355 A  
HETATM   25  N   UNL     1      -9.995   7.623  72.065  1.00  0.00    -0.171 NA 
HETATM   26  C   UNL     1     -11.579   6.472  70.704  1.00  0.00    -0.442 A  
HETATM   27  C   UNL     1     -12.207   8.535  71.763  1.00  0.00    -0.334 A  
ENDBRANCH  12  21
ENDBRANCH  10  11
ENDBRANCH   7  10
TORSDOF 3
ENDMDL
MODEL      133
REMARK 921   NORMALIZED FREE ENERGY PREDICTED BY IDOCK:   -4.28 KCAL/MOL
REMARK 922        TOTAL FREE ENERGY PREDICTED BY IDOCK:   -5.63 KCAL/MOL
REMARK 923 INTER-LIGAND FREE ENERGY PREDICTED BY IDOCK:   -4.80 KCAL/MOL
REMARK 924 INTRA-LIGAND FREE ENERGY PREDICTED BY IDOCK:   -0.83 KCAL/MOL
REMARK 927      BINDING AFFINITY PREDICTED BY RF-SCORE:    0.00 PKD
ROOT
HETATM    1  C   UNL     1     -11.503   5.706  72.618  1.00  0.00    -0.285 C  
HETATM    2  N   UNL     1     -11.778   6.975  71.944  1.00  0.00    -0.284 NA 
HETATM    3  C   UNL     1     -10.685   7.948  72.164  1.00  0.00    -0.257 C  
HETATM    4  C   UNL     1      -9.397   7.643  71.377  1.00  0.00    -0.140 C  
HETATM    5  N   UNL     1      -9.684   7.458  69.956  1.00  0.00    -0.175 N  
HETATM    6  C   UNL     1     -10.731   6.479  69.665  1.00  0.00    -0.269 C  
HETATM    7  C   UNL     1      -9.098   8.312  69.046  1.00  0.00    -0.147 C  
HETATM    8  O   UNL     1      -8.366   9.231  69.391  1.00  0.00    -0.115 OA 
HETATM    9  C   UNL     1     -12.002   6.791  70.491  1.00  0.00    -0.328 C  
ENDROOT
BRANCH   7  10
HETATM   10  O   UNL     1      -9.372   8.024  67.749  1.00  0.00    -0.136 OA 
BRANCH  10  11
HETATM   11  C   UNL     1      -8.318   8.299  66.799  1.00  0.00    -0.107 C  
HETATM   12  N   UNL     1      -8.756   9.158  65.716  1.00  0.00    -0.154 N  
HETATM   13  C   UNL     1      -8.545   8.546  64.471  1.00  0.00    -0.029 C  
HETATM   14  C   UNL     1      -7.722   7.101  66.102  1.00  0.00    -0.098 A  
HETATM   15  N   UNL     1      -7.042   6.076  66.663  1.00  0.00    -0.071 NA 
HETATM   16  C   UNL     1      -7.878   7.256  64.738  1.00  0.00    -0.126 A  
HETATM   17  O   UNL     1      -8.758   8.961  63.346  1.00  0.00    -0.152 OA 
HETATM   18  C   UNL     1      -6.549   5.198  65.749  1.00  0.00    -0.044 A  
HETATM   19  N   UNL     1      -7.373   6.408  63.819  1.00  0.00    -0.067 NA 
HETATM   20  C   UNL     1      -6.713   5.359  64.369  1.00  0.00    -0.046 A  
BRANCH  12  21
HETATM   21  C   UNL     1      -9.277  10.451  65.897  1.00  0.00    -0.170 A  
HETATM   22 CL   UNL     1     -10.923  14.556  66.630  1.00  0.00    -0.315 Cl 
HETATM   23  C   UNL     1     -10.997  12.105  65.504  1.00  0.00    -0.343 A  
HETATM   24  C   UNL     1      -9.124  12.554  66.883  1.00  0.00    -0.213 A  
HETATM   25  N   UNL     1      -8.614  11.313  66.694  1.00  0.00    -0.162 NA 
HETATM   26  C   UNL     1     -10.468  10.830  65.275  1.00  0.00    -0.282 A  
HETATM   27  C   UNL     1     -10.309  12.986  66.322  1.00  0.00    -0.285 A  
ENDBRANCH  12  21
ENDBRANCH  10  11
ENDBRANCH   7  10
TORSDOF 3
ENDMDL
MODEL      134
REMARK 921   NORMALIZED FREE ENERGY PREDICTED BY IDOCK:   -4.24 KCAL/MOL
REMARK 922        TOTAL FREE ENERGY PREDICTED BY IDOCK:   -5.58 KCAL/MOL
REMARK 923 INTER-LIGAND FREE ENERGY PREDICTED BY IDOCK:   -5.88 KCAL/MOL
REMARK 924 INTRA-LIGAND FREE ENERGY PREDICTED BY IDOCK:    0.30 KCAL/MOL
REMARK 927      BINDING AFFINITY PREDICTED BY RF-SCORE:    0.00 PKD
ROOT
HETATM    1  C   UNL     1     -11.825  15.022  64.267  1.00  0.00    -0.275 C  
HETATM    2  N   UNL     1     -12.475  13.713  64.328  1.00  0.00    -0.655 NA 
HETATM    3  C   UNL     1     -11.721  12.704  63.552  1.00  0.00    -0.531 C  
HETATM    4  C   UNL     1     -10.409  12.245  64.214  1.00  0.00    -0.348 C  
HETATM    5  N   UNL     1     -10.642  11.811  65.590  1.00  0.00    -0.260 N  
HETATM    6  C   UNL     1     -11.351  12.780  66.426  1.00  0.00    -0.323 C  
HETATM    7  C   UNL     1     -10.348  10.509  65.932  1.00  0.00    -0.206 C  
HETATM    8  O   UNL     1      -9.921   9.699  65.118  1.00  0.00    -0.263 OA 
HETATM    9  C   UNL     1     -12.649  13.246  65.724  1.00  0.00    -0.347 C  
ENDROOT
BRANCH   7  10
HETATM   10  O   UNL     1     -10.537  10.216  67.244  1.00  0.00    -0.240 OA 
BRANCH  10  11
HETATM   11  C   UNL     1      -9.692   9.180  67.793  1.00  0.00    -0.154 C  
HETATM   12  N   UNL     1      -8.281   9.493  67.675  1.00  0.00    -0.120 N  
HETATM   13  C   UNL     1      -7.598   8.486  66.975  1.00  0.00    -0.092 C  
HETATM   14  C   UNL     1      -9.820   7.814  67.164  1.00  0.00    -0.206 A  
HETATM   15  N   UNL     1     -10.910   7.013  67.152  1.00  0.00    -0.358 NA 
HETATM   16  C   UNL     1      -8.587   7.429  66.677  1.00  0.00    -0.127 A  
HETATM   17  O   UNL     1      -6.416   8.382  66.702  1.00  0.00    -0.054 OA 
HETATM   18  C   UNL     1     -10.673   5.799  66.586  1.00  0.00    -0.262 A  
HETATM   19  N   UNL     1      -8.331   6.221  66.136  1.00  0.00    -0.124 NA 
HETATM   20  C   UNL     1      -9.422   5.418  66.091  1.00  0.00    -0.157 A  
BRANCH  12  21
HETATM   21  C   UNL     1      -7.677  10.634  68.231  1.00  0.00    -0.107 A  
HETATM   22 CL   UNL     1      -5.686  14.304  69.863  1.00  0.00    -0.104 Cl 
HETATM   23  C   UNL     1      -6.328  11.684  69.940  1.00  0.00    -0.124 A  
HETATM   24  C   UNL     1      -7.194  12.907  68.106  1.00  0.00    -0.114 A  
HETATM   25  N   UNL     1      -7.789  11.810  67.580  1.00  0.00    -0.130 NA 
HETATM   26  C   UNL     1      -6.961  10.548  69.426  1.00  0.00    -0.099 A  
HETATM   27  C   UNL     1      -6.448  12.889  69.268  1.00  0.00    -0.104 A  
ENDBRANCH  12  21
ENDBRANCH  10  11
ENDBRANCH   7  10
TORSDOF 3
ENDMDL
MODEL      135
REMARK 921   NORMALIZED FREE ENERGY PREDICTED BY IDOCK:   -4.22 KCAL/MOL
REMARK 922        TOTAL FREE ENERGY PREDICTED BY IDOCK:   -5.56 KCAL/MOL
REMARK 923 INTER-LIGAND FREE ENERGY PREDICTED BY IDOCK:   -5.29 KCAL/MOL
REMARK 924 INTRA-LIGAND FREE ENERGY PREDICTED BY IDOCK:   -0.27 KCAL/MOL
REMARK 927      BINDING AFFINITY PREDICTED BY RF-SCORE:    0.00 PKD
ROOT
HETATM    1  C   UNL     1      -9.074   9.525  66.621  1.00  0.00    -0.148 C  
HETATM    2  N   UNL     1      -9.188   8.076  66.450  1.00  0.00    -0.184 NA 
HETATM    3  C   UNL     1      -8.038   7.373  67.061  1.00  0.00    -0.113 C  
HETATM    4  C   UNL     1      -8.061   7.338  68.601  1.00  0.00    -0.125 C  
HETATM    5  N   UNL     1      -9.339   6.826  69.092  1.00  0.00    -0.136 N  
HETATM    6  C   UNL     1     -10.518   7.504  68.556  1.00  0.00    -0.180 C  
HETATM    7  C   UNL     1      -9.342   5.677  69.853  1.00  0.00    -0.147 C  
HETATM    8  O   UNL     1      -8.315   5.060  70.110  1.00  0.00    -0.083 OA 
HETATM    9  C   UNL     1     -10.454   7.550  67.011  1.00  0.00    -0.338 C  
ENDROOT
BRANCH   7  10
HETATM   10  O   UNL     1     -10.564   5.313  70.317  1.00  0.00    -0.278 OA 
BRANCH  10  11
HETATM   11  C   UNL     1     -10.701   5.231  71.754  1.00  0.00    -0.170 C  
HETATM   12  N   UNL     1     -10.408   6.488  72.413  1.00  0.00    -0.186 N  
HETATM   13  C   UNL     1      -9.385   6.334  73.362  1.00  0.00    -0.131 C  
HETATM   14  C   UNL     1      -9.808   4.233  72.450  1.00  0.00    -0.158 A  
HETATM   15  N   UNL     1      -9.807   2.888  72.305  1.00  0.00    -0.154 NA 
HETATM   16  C   UNL     1      -9.033   4.899  73.379  1.00  0.00    -0.112 A  
HETATM   17  O   UNL     1      -8.889   7.146  74.122  1.00  0.00    -0.179 OA 
HETATM   18  C   UNL     1      -8.944   2.260  73.150  1.00  0.00    -0.070 A  
HETATM   19  N   UNL     1      -8.193   4.289  74.240  1.00  0.00    -0.091 NA 
HETATM   20  C   UNL     1      -8.160   2.943  74.086  1.00  0.00    -0.068 A  
BRANCH  12  21
HETATM   21  C   UNL     1     -11.094   7.689  72.162  1.00  0.00    -0.267 A  
HETATM   22 CL   UNL     1     -13.157  11.598  71.412  1.00  0.00    -0.424 Cl 
HETATM   23  C   UNL     1     -13.044   9.096  72.416  1.00  0.00    -0.493 A  
HETATM   24  C   UNL     1     -11.122   9.826  71.239  1.00  0.00    -0.304 A  
HETATM   25  N   UNL     1     -10.468   8.661  71.468  1.00  0.00    -0.248 NA 
HETATM   26  C   UNL     1     -12.394   7.877  72.636  1.00  0.00    -0.108 A  
HETATM   27  C   UNL     1     -12.396  10.090  71.701  1.00  0.00    -0.394 A  
ENDBRANCH  12  21
ENDBRANCH  10  11
ENDBRANCH   7  10
TORSDOF 3
ENDMDL
MODEL      136
REMARK 921   NORMALIZED FREE ENERGY PREDICTED BY IDOCK:   -4.20 KCAL/MOL
REMARK 922        TOTAL FREE ENERGY PREDICTED BY IDOCK:   -5.55 KCAL/MOL
REMARK 923 INTER-LIGAND FREE ENERGY PREDICTED BY IDOCK:   -5.65 KCAL/MOL
REMARK 924 INTRA-LIGAND FREE ENERGY PREDICTED BY IDOCK:    0.10 KCAL/MOL
REMARK 927      BINDING AFFINITY PREDICTED BY RF-SCORE:    0.00 PKD
ROOT
HETATM    1  C   UNL     1     -10.814  11.736  62.983  1.00  0.00    -0.066 C  
HETATM    2  N   UNL     1     -11.479  12.126  64.226  1.00  0.00    -0.346 NA 
HETATM    3  C   UNL     1     -11.047  11.273  65.356  1.00  0.00    -0.067 C  
HETATM    4  C   UNL     1      -9.620  11.560  65.859  1.00  0.00    -0.230 C  
HETATM    5  N   UNL     1      -9.446  12.981  66.151  1.00  0.00    -0.202 N  
HETATM    6  C   UNL     1      -9.818  13.882  65.061  1.00  0.00    -0.046 C  
HETATM    7  C   UNL     1      -9.127  13.357  67.438  1.00  0.00    -0.216 C  
HETATM    8  O   UNL     1      -9.008  12.544  68.346  1.00  0.00    -0.189 OA 
HETATM    9  C   UNL     1     -11.243  13.552  64.555  1.00  0.00    -0.375 C  
ENDROOT
BRANCH   7  10
HETATM   10  O   UNL     1      -8.923  14.689  67.601  1.00  0.00    -0.176 OA 
BRANCH  10  11
HETATM   11  C   UNL     1     -10.108  15.499  67.765  1.00  0.00    -0.232 C  
HETATM   12  N   UNL     1      -9.799  16.867  68.135  1.00  0.00    -0.255 N  
HETATM   13  C   UNL     1     -10.433  17.220  69.336  1.00  0.00    -0.142 C  
HETATM   14  C   UNL     1     -11.083  15.043  68.822  1.00  0.00    -0.261 A  
HETATM   15  N   UNL     1     -11.786  13.888  68.849  1.00  0.00    -0.340 NA 
HETATM   16  C   UNL     1     -11.251  16.058  69.743  1.00  0.00    -0.344 A  
HETATM   17  O   UNL     1     -10.435  18.275  69.944  1.00  0.00     0.475 OA 
HETATM   18  C   UNL     1     -12.658  13.817  69.892  1.00  0.00    -0.092 A  
HETATM   19  N   UNL     1     -12.128  16.013  70.766  1.00  0.00    -0.339 NA 
HETATM   20  C   UNL     1     -12.819  14.849  70.823  1.00  0.00    -0.372 A  
BRANCH  12  21
HETATM   21  C   UNL     1      -9.006  17.733  67.363  1.00  0.00    -0.240 A  
HETATM   22 CL   UNL     1      -6.581  20.482  64.782  1.00  0.00    -0.334 Cl 
HETATM   23  C   UNL     1      -6.871  18.351  66.412  1.00  0.00    -0.252 A  
HETATM   24  C   UNL     1      -8.836  19.604  65.989  1.00  0.00    -0.246 A  
HETATM   25  N   UNL     1      -9.595  18.778  66.748  1.00  0.00    -0.308 NA 
HETATM   26  C   UNL     1      -7.636  17.506  67.222  1.00  0.00    -0.217 A  
HETATM   27  C   UNL     1      -7.482  19.424  65.784  1.00  0.00    -0.235 A  
ENDBRANCH  12  21
ENDBRANCH  10  11
ENDBRANCH   7  10
TORSDOF 3
ENDMDL
MODEL      137
REMARK 921   NORMALIZED FREE ENERGY PREDICTED BY IDOCK:   -4.17 KCAL/MOL
REMARK 922        TOTAL FREE ENERGY PREDICTED BY IDOCK:   -5.51 KCAL/MOL
REMARK 923 INTER-LIGAND FREE ENERGY PREDICTED BY IDOCK:   -5.45 KCAL/MOL
REMARK 924 INTRA-LIGAND FREE ENERGY PREDICTED BY IDOCK:   -0.06 KCAL/MOL
REMARK 927      BINDING AFFINITY PREDICTED BY RF-SCORE:    0.00 PKD
ROOT
HETATM    1  C   UNL     1      -6.514   9.955  63.898  1.00  0.00    -0.126 C  
HETATM    2  N   UNL     1      -7.841  10.244  64.440  1.00  0.00    -0.145 NA 
HETATM    3  C   UNL     1      -8.806   9.177  64.092  1.00  0.00    -0.089 C  
HETATM    4  C   UNL     1      -8.611   7.866  64.876  1.00  0.00     0.056 C  
HETATM    5  N   UNL     1      -8.573   8.118  66.315  1.00  0.00    -0.136 N  
HETATM    6  C   UNL     1      -7.611   9.137  66.733  1.00  0.00    -0.087 C  
HETATM    7  C   UNL     1      -9.530   7.531  67.115  1.00  0.00    -0.154 C  
HETATM    8  O   UNL     1     -10.421   6.826  66.658  1.00  0.00    -0.214 OA 
HETATM    9  C   UNL     1      -7.809  10.432  65.910  1.00  0.00    -0.148 C  
ENDROOT
BRANCH   7  10
HETATM   10  O   UNL     1      -9.377   7.771  68.442  1.00  0.00    -0.144 OA 
BRANCH  10  11
HETATM   11  C   UNL     1     -10.555   7.597  69.260  1.00  0.00    -0.201 C  
HETATM   12  N   UNL     1     -10.912   8.802  69.984  1.00  0.00    -0.236 N  
HETATM   13  C   UNL     1     -10.965   8.563  71.366  1.00  0.00    -0.264 C  
HETATM   14  C   UNL     1     -10.471   6.536  70.330  1.00  0.00    -0.212 A  
HETATM   15  N   UNL     1     -10.311   5.205  70.158  1.00  0.00    -0.282 NA 
HETATM   16  C   UNL     1     -10.699   7.123  71.560  1.00  0.00    -0.223 A  
HETATM   17  O   UNL     1     -11.252   9.312  72.282  1.00  0.00    -0.156 OA 
HETATM   18  C   UNL     1     -10.372   4.504  71.323  1.00  0.00    -0.032 A  
HETATM   19  N   UNL     1     -10.787   6.439  72.719  1.00  0.00    -0.238 NA 
HETATM   20  C   UNL     1     -10.600   5.106  72.565  1.00  0.00    -0.220 A  
BRANCH  12  21
HETATM   21  C   UNL     1     -11.209  10.032  69.370  1.00  0.00    -0.188 A  
HETATM   22 CL   UNL     1     -12.005  13.962  67.367  1.00  0.00    -0.438 Cl 
HETATM   23  C   UNL     1     -12.135  12.263  69.459  1.00  0.00    -0.260 A  
HETATM   24  C   UNL     1     -11.081  11.425  67.510  1.00  0.00    -0.281 A  
HETATM   25  N   UNL     1     -10.811  10.235  68.099  1.00  0.00    -0.246 NA 
HETATM   26  C   UNL     1     -11.890  11.029  70.070  1.00  0.00    -0.435 A  
HETATM   27  C   UNL     1     -11.725  12.465  68.152  1.00  0.00    -0.353 A  
ENDBRANCH  12  21
ENDBRANCH  10  11
ENDBRANCH   7  10
TORSDOF 3
ENDMDL
MODEL      138
REMARK 921   NORMALIZED FREE ENERGY PREDICTED BY IDOCK:   -4.17 KCAL/MOL
REMARK 922        TOTAL FREE ENERGY PREDICTED BY IDOCK:   -5.50 KCAL/MOL
REMARK 923 INTER-LIGAND FREE ENERGY PREDICTED BY IDOCK:   -4.93 KCAL/MOL
REMARK 924 INTRA-LIGAND FREE ENERGY PREDICTED BY IDOCK:   -0.58 KCAL/MOL
REMARK 927      BINDING AFFINITY PREDICTED BY RF-SCORE:    0.00 PKD
ROOT
HETATM    1  C   UNL     1     -10.438  14.376  64.836  1.00  0.00    -0.423 C  
HETATM    2  N   UNL     1     -11.115  13.637  65.901  1.00  0.00    -0.284 NA 
HETATM    3  C   UNL     1     -11.814  12.446  65.367  1.00  0.00    -0.406 C  
HETATM    4  C   UNL     1     -10.879  11.292  64.961  1.00  0.00    -0.216 C  
HETATM    5  N   UNL     1      -9.970  10.947  66.052  1.00  0.00    -0.230 N  
HETATM    6  C   UNL     1      -9.217  12.073  66.602  1.00  0.00    -0.211 C  
HETATM    7  C   UNL     1     -10.020   9.673  66.577  1.00  0.00    -0.246 C  
HETATM    8  O   UNL     1     -10.815   8.831  66.175  1.00  0.00     0.562 OA 
HETATM    9  C   UNL     1     -10.177  13.229  66.973  1.00  0.00    -0.244 C  
ENDROOT
BRANCH   7  10
HETATM   10  O   UNL     1      -9.098   9.426  67.540  1.00  0.00    -0.124 OA 
BRANCH  10  11
HETATM   11  C   UNL     1      -9.354   8.285  68.390  1.00  0.00    -0.135 C  
HETATM   12  N   UNL     1      -9.529   8.655  69.781  1.00  0.00    -0.164 N  
HETATM   13  C   UNL     1      -8.614   7.978  70.602  1.00  0.00    -0.130 C  
HETATM   14  C   UNL     1      -8.279   7.226  68.422  1.00  0.00    -0.125 A  
HETATM   15  N   UNL     1      -7.854   6.453  67.397  1.00  0.00    -0.104 NA 
HETATM   16  C   UNL     1      -7.847   7.069  69.725  1.00  0.00    -0.115 A  
HETATM   17  O   UNL     1      -8.472   8.006  71.810  1.00  0.00    -0.110 OA 
HETATM   18  C   UNL     1      -6.936   5.523  67.775  1.00  0.00    -0.066 A  
HETATM   19  N   UNL     1      -6.957   6.136  70.118  1.00  0.00    -0.060 NA 
HETATM   20  C   UNL     1      -6.500   5.373  69.096  1.00  0.00    -0.042 A  
BRANCH  12  21
HETATM   21  C   UNL     1     -10.517   9.542  70.242  1.00  0.00    -0.268 A  
HETATM   22 CL   UNL     1     -13.558  12.480  71.732  1.00  0.00    -0.261 Cl 
HETATM   23  C   UNL     1     -12.355  10.064  71.724  1.00  0.00    -0.434 A  
HETATM   24  C   UNL     1     -11.520  11.640  70.166  1.00  0.00    -0.118 A  
HETATM   25  N   UNL     1     -10.579  10.779  69.710  1.00  0.00    -0.193 NA 
HETATM   26  C   UNL     1     -11.408   9.153  71.244  1.00  0.00    -0.406 A  
HETATM   27  C   UNL     1     -12.414  11.333  71.172  1.00  0.00    -0.373 A  
ENDBRANCH  12  21
ENDBRANCH  10  11
ENDBRANCH   7  10
TORSDOF 3
ENDMDL
MODEL      139
REMARK 921   NORMALIZED FREE ENERGY PREDICTED BY IDOCK:   -4.17 KCAL/MOL
REMARK 922        TOTAL FREE ENERGY PREDICTED BY IDOCK:   -5.50 KCAL/MOL
REMARK 923 INTER-LIGAND FREE ENERGY PREDICTED BY IDOCK:   -5.82 KCAL/MOL
REMARK 924 INTRA-LIGAND FREE ENERGY PREDICTED BY IDOCK:    0.32 KCAL/MOL
REMARK 927      BINDING AFFINITY PREDICTED BY RF-SCORE:    0.00 PKD
ROOT
HETATM    1  C   UNL     1     -14.184  14.205  72.312  1.00  0.00    -0.504 C  
HETATM    2  N   UNL     1     -12.730  14.104  72.438  1.00  0.00    -0.298 NA 
HETATM    3  C   UNL     1     -12.180  13.094  71.506  1.00  0.00     0.259 C  
HETATM    4  C   UNL     1     -12.167  13.533  70.030  1.00  0.00    -0.312 C  
HETATM    5  N   UNL     1     -11.513  14.831  69.876  1.00  0.00    -0.269 N  
HETATM    6  C   UNL     1     -12.034  15.887  70.742  1.00  0.00    -0.378 C  
HETATM    7  C   UNL     1     -10.383  14.912  69.090  1.00  0.00    -0.245 C  
HETATM    8  O   UNL     1      -9.900  13.932  68.537  1.00  0.00    -0.226 OA 
HETATM    9  C   UNL     1     -12.064  15.409  72.214  1.00  0.00    -0.411 C  
ENDROOT
BRANCH   7  10
HETATM   10  O   UNL     1      -9.882  16.166  68.955  1.00  0.00    -0.217 OA 
BRANCH  10  11
HETATM   11  C   UNL     1      -9.364  16.507  67.650  1.00  0.00    -0.212 C  
HETATM   12  N   UNL     1      -9.166  17.934  67.486  1.00  0.00    -0.248 N  
HETATM   13  C   UNL     1      -9.883  18.419  66.381  1.00  0.00    -0.360 C  
HETATM   14  C   UNL     1     -10.221  16.116  66.471  1.00  0.00    -0.297 A  
HETATM   15  N   UNL     1     -10.566  14.867  66.083  1.00  0.00    -0.307 NA 
HETATM   16  C   UNL     1     -10.528  17.251  65.746  1.00  0.00    -0.229 A  
HETATM   17  O   UNL     1      -9.946  19.543  65.916  1.00  0.00    -0.388 OA 
HETATM   18  C   UNL     1     -11.270  14.845  64.919  1.00  0.00    -0.410 A  
HETATM   19  N   UNL     1     -11.203  17.242  64.579  1.00  0.00    -0.924 NA 
HETATM   20  C   UNL     1     -11.581  16.000  64.192  1.00  0.00    -0.005 A  
BRANCH  12  21
HETATM   21  C   UNL     1      -8.328  18.713  68.302  1.00  0.00    -0.324 A  
HETATM   22 CL   UNL     1      -5.560  21.072  70.924  1.00  0.00     0.064 Cl 
HETATM   23  C   UNL     1      -8.001  20.185  70.192  1.00  0.00     1.035 A  
HETATM   24  C   UNL     1      -6.192  19.458  68.848  1.00  0.00    -0.249 A  
HETATM   25  N   UNL     1      -7.003  18.721  68.052  1.00  0.00    -0.235 NA 
HETATM   26  C   UNL     1      -8.856  19.453  69.362  1.00  0.00     0.108 A  
HETATM   27  C   UNL     1      -6.641  20.190  69.929  1.00  0.00    -0.237 A  
ENDBRANCH  12  21
ENDBRANCH  10  11
ENDBRANCH   7  10
TORSDOF 3
ENDMDL
MODEL      140
REMARK 921   NORMALIZED FREE ENERGY PREDICTED BY IDOCK:   -4.15 KCAL/MOL
REMARK 922        TOTAL FREE ENERGY PREDICTED BY IDOCK:   -5.49 KCAL/MOL
REMARK 923 INTER-LIGAND FREE ENERGY PREDICTED BY IDOCK:   -4.69 KCAL/MOL
REMARK 924 INTRA-LIGAND FREE ENERGY PREDICTED BY IDOCK:   -0.80 KCAL/MOL
REMARK 927      BINDING AFFINITY PREDICTED BY RF-SCORE:    0.00 PKD
ROOT
HETATM    1  C   UNL     1     -10.773  19.476  66.251  1.00  0.00    -0.429 C  
HETATM    2  N   UNL     1      -9.750  19.174  67.252  1.00  0.00    -0.311 NA 
HETATM    3  C   UNL     1     -10.279  18.281  68.307  1.00  0.00    -0.385 C  
HETATM    4  C   UNL     1     -10.481  16.821  67.861  1.00  0.00    -0.335 C  
HETATM    5  N   UNL     1      -9.262  16.288  67.255  1.00  0.00    -0.206 N  
HETATM    6  C   UNL     1      -8.706  17.103  66.177  1.00  0.00    -0.188 C  
HETATM    7  C   UNL     1      -8.656  15.196  67.840  1.00  0.00    -0.153 C  
HETATM    8  O   UNL     1      -9.092  14.675  68.860  1.00  0.00    -0.192 OA 
HETATM    9  C   UNL     1      -8.542  18.570  66.642  1.00  0.00    -0.286 C  
ENDROOT
BRANCH   7  10
HETATM   10  O   UNL     1      -7.569  14.732  67.173  1.00  0.00    -0.194 OA 
BRANCH  10  11
HETATM   11  C   UNL     1      -6.330  14.705  67.917  1.00  0.00    -0.159 C  
HETATM   12  N   UNL     1      -6.284  13.624  68.882  1.00  0.00    -0.087 N  
HETATM   13  C   UNL     1      -6.053  14.113  70.177  1.00  0.00    -0.158 C  
HETATM   14  C   UNL     1      -6.016  15.938  68.728  1.00  0.00    -0.101 A  
HETATM   15  N   UNL     1      -5.793  17.190  68.270  1.00  0.00    -0.133 NA 
HETATM   16  C   UNL     1      -5.871  15.574  70.053  1.00  0.00    -0.144 A  
HETATM   17  O   UNL     1      -5.926  13.517  71.231  1.00  0.00    -0.270 OA 
HETATM   18  C   UNL     1      -5.437  18.063  69.252  1.00  0.00    -0.196 A  
HETATM   19  N   UNL     1      -5.495  16.422  71.033  1.00  0.00    -0.017 NA 
HETATM   20  C   UNL     1      -5.296  17.688  70.593  1.00  0.00    -0.261 A  
BRANCH  12  21
HETATM   21  C   UNL     1      -6.409  12.264  68.549  1.00  0.00    -0.057 A  
HETATM   22 CL   UNL     1      -6.853   7.897  67.635  1.00  0.00    -0.068 Cl 
HETATM   23  C   UNL     1      -5.500  10.232  67.605  1.00  0.00    -0.044 A  
HETATM   24  C   UNL     1      -7.654  10.298  68.588  1.00  0.00    -0.089 A  
HETATM   25  N   UNL     1      -7.538  11.613  68.893  1.00  0.00    -0.117 NA 
HETATM   26  C   UNL     1      -5.377  11.597  67.887  1.00  0.00    -0.048 A  
HETATM   27  C   UNL     1      -6.663   9.569  67.961  1.00  0.00    -0.063 A  
ENDBRANCH  12  21
ENDBRANCH  10  11
ENDBRANCH   7  10
TORSDOF 3
ENDMDL
MODEL      141
REMARK 921   NORMALIZED FREE ENERGY PREDICTED BY IDOCK:   -4.13 KCAL/MOL
REMARK 922        TOTAL FREE ENERGY PREDICTED BY IDOCK:   -5.46 KCAL/MOL
REMARK 923 INTER-LIGAND FREE ENERGY PREDICTED BY IDOCK:   -4.53 KCAL/MOL
REMARK 924 INTRA-LIGAND FREE ENERGY PREDICTED BY IDOCK:   -0.93 KCAL/MOL
REMARK 927      BINDING AFFINITY PREDICTED BY RF-SCORE:    0.00 PKD
ROOT
HETATM    1  C   UNL     1      -9.812  14.754  66.018  1.00  0.00    -0.324 C  
HETATM    2  N   UNL     1      -9.887  13.913  67.212  1.00  0.00    -0.239 NA 
HETATM    3  C   UNL     1     -11.073  13.029  67.172  1.00  0.00    -0.273 C  
HETATM    4  C   UNL     1     -10.958  11.858  66.178  1.00  0.00    -0.308 C  
HETATM    5  N   UNL     1      -9.724  11.106  66.397  1.00  0.00    -0.199 N  
HETATM    6  C   UNL     1      -8.507  11.916  66.411  1.00  0.00    -0.039 C  
HETATM    7  C   UNL     1      -9.814   9.773  66.739  1.00  0.00    -0.208 C  
HETATM    8  O   UNL     1     -10.890   9.208  66.886  1.00  0.00    -0.147 OA 
HETATM    9  C   UNL     1      -8.661  13.101  67.394  1.00  0.00    -0.206 C  
ENDROOT
BRANCH   7  10
HETATM   10  O   UNL     1      -8.619   9.143  66.860  1.00  0.00    -0.121 OA 
BRANCH  10  11
HETATM   11  C   UNL     1      -8.573   7.773  66.402  1.00  0.00    -0.145 C  
HETATM   12  N   UNL     1      -8.307   6.836  67.477  1.00  0.00    -0.122 N  
HETATM   13  C   UNL     1      -7.167   6.065  67.203  1.00  0.00    -0.075 C  
HETATM   14  C   UNL     1      -7.523   7.453  65.367  1.00  0.00    -0.090 A  
HETATM   15  N   UNL     1      -7.428   7.947  64.111  1.00  0.00    -0.097 NA 
HETATM   16  C   UNL     1      -6.698   6.460  65.859  1.00  0.00    -0.048 A  
HETATM   17  O   UNL     1      -6.652   5.168  67.846  1.00  0.00    -0.047 OA 
HETATM   18  C   UNL     1      -6.420   7.384  63.391  1.00  0.00    -0.053 A  
HETATM   19  N   UNL     1      -5.713   5.875  65.148  1.00  0.00    -0.023 NA 
HETATM   20  C   UNL     1      -5.587   6.381  63.898  1.00  0.00    -0.022 A  
BRANCH  12  21
HETATM   21  C   UNL     1      -9.116   6.695  68.618  1.00  0.00    -0.126 A  
HETATM   22 CL   UNL     1     -11.576   6.170  72.329  1.00  0.00    -0.355 Cl 
HETATM   23  C   UNL     1     -11.189   6.019  69.662  1.00  0.00    -0.428 A  
HETATM   24  C   UNL     1      -9.380   6.885  70.923  1.00  0.00    -0.157 A  
HETATM   25  N   UNL     1      -8.608   7.036  69.819  1.00  0.00    -0.140 NA 
HETATM   26  C   UNL     1     -10.415   6.197  68.511  1.00  0.00    -0.284 A  
HETATM   27  C   UNL     1     -10.662   6.373  70.894  1.00  0.00    -0.250 A  
ENDBRANCH  12  21
ENDBRANCH  10  11
ENDBRANCH   7  10
TORSDOF 3
ENDMDL
MODEL      142
REMARK 921   NORMALIZED FREE ENERGY PREDICTED BY IDOCK:   -4.13 KCAL/MOL
REMARK 922        TOTAL FREE ENERGY PREDICTED BY IDOCK:   -5.45 KCAL/MOL
REMARK 923 INTER-LIGAND FREE ENERGY PREDICTED BY IDOCK:   -5.44 KCAL/MOL
REMARK 924 INTRA-LIGAND FREE ENERGY PREDICTED BY IDOCK:   -0.01 KCAL/MOL
REMARK 927      BINDING AFFINITY PREDICTED BY RF-SCORE:    0.00 PKD
ROOT
HETATM    1  C   UNL     1     -11.154  15.526  68.345  1.00  0.00    -0.315 C  
HETATM    2  N   UNL     1     -10.733  14.804  69.546  1.00  0.00    -0.237 NA 
HETATM    3  C   UNL     1     -11.745  13.804  69.952  1.00  0.00    -0.284 C  
HETATM    4  C   UNL     1     -11.804  12.558  69.048  1.00  0.00    -0.296 C  
HETATM    5  N   UNL     1     -10.478  11.962  68.893  1.00  0.00    -0.178 N  
HETATM    6  C   UNL     1      -9.436  12.889  68.456  1.00  0.00    -0.096 C  
HETATM    7  C   UNL     1     -10.281  10.667  69.324  1.00  0.00    -0.213 C  
HETATM    8  O   UNL     1     -11.171  10.011  69.852  1.00  0.00    -0.250 OA 
HETATM    9  C   UNL     1      -9.419  14.144  69.362  1.00  0.00     0.439 C  
ENDROOT
BRANCH   7  10
HETATM   10  O   UNL     1      -9.039  10.177  69.082  1.00  0.00    -0.161 OA 
BRANCH  10  11
HETATM   11  C   UNL     1      -8.964   8.776  68.737  1.00  0.00    -0.138 C  
HETATM   12  N   UNL     1      -9.654   8.470  67.499  1.00  0.00    -0.149 N  
HETATM   13  C   UNL     1     -10.635   7.487  67.698  1.00  0.00    -0.233 C  
HETATM   14  C   UNL     1      -9.555   7.813  69.737  1.00  0.00    -0.167 A  
HETATM   15  N   UNL     1      -9.149   7.592  71.007  1.00  0.00    -0.147 NA 
HETATM   16  C   UNL     1     -10.544   7.075  69.114  1.00  0.00    -0.219 A  
HETATM   17  O   UNL     1     -11.390   6.958  66.903  1.00  0.00    -0.269 OA 
HETATM   18  C   UNL     1      -9.831   6.586  71.620  1.00  0.00    -0.167 A  
HETATM   19  N   UNL     1     -11.210   6.060  69.699  1.00  0.00    -0.408 NA 
HETATM   20  C   UNL     1     -10.833   5.846  70.983  1.00  0.00    -0.273 A  
BRANCH  12  21
HETATM   21  C   UNL     1      -9.343   9.053  66.258  1.00  0.00    -0.225 A  
HETATM   22 CL   UNL     1      -8.197  10.909  62.341  1.00  0.00    -0.262 Cl 
HETATM   23  C   UNL     1      -9.661  10.788  64.605  1.00  0.00    -0.344 A  
HETATM   24  C   UNL     1      -8.058   9.068  64.317  1.00  0.00    -0.151 A  
HETATM   25  N   UNL     1      -8.371   8.498  65.506  1.00  0.00    -0.147 NA 
HETATM   26  C   UNL     1     -10.016  10.195  65.821  1.00  0.00    -0.339 A  
HETATM   27  C   UNL     1      -8.663  10.212  63.836  1.00  0.00    -0.210 A  
ENDBRANCH  12  21
ENDBRANCH  10  11
ENDBRANCH   7  10
TORSDOF 3
ENDMDL
MODEL      143
REMARK 921   NORMALIZED FREE ENERGY PREDICTED BY IDOCK:   -4.12 KCAL/MOL
REMARK 922        TOTAL FREE ENERGY PREDICTED BY IDOCK:   -5.45 KCAL/MOL
REMARK 923 INTER-LIGAND FREE ENERGY PREDICTED BY IDOCK:   -4.77 KCAL/MOL
REMARK 924 INTRA-LIGAND FREE ENERGY PREDICTED BY IDOCK:   -0.68 KCAL/MOL
REMARK 927      BINDING AFFINITY PREDICTED BY RF-SCORE:    0.00 PKD
ROOT
HETATM    1  C   UNL     1     -11.450  14.692  66.922  1.00  0.00    -0.363 C  
HETATM    2  N   UNL     1     -10.412  13.916  67.601  1.00  0.00    -0.244 NA 
HETATM    3  C   UNL     1     -11.000  12.985  68.590  1.00  0.00    -0.265 C  
HETATM    4  C   UNL     1     -11.709  11.766  67.970  1.00  0.00    -0.293 C  
HETATM    5  N   UNL     1     -10.833  11.077  67.025  1.00  0.00    -0.274 N  
HETATM    6  C   UNL     1     -10.247  11.934  65.995  1.00  0.00    -0.229 C  
HETATM    7  C   UNL     1     -10.498   9.763  67.272  1.00  0.00    -0.261 C  
HETATM    8  O   UNL     1     -10.891   9.164  68.266  1.00  0.00    -0.163 OA 
HETATM    9  C   UNL     1      -9.568  13.164  66.643  1.00  0.00    -0.260 C  
ENDROOT
BRANCH   7  10
HETATM   10  O   UNL     1      -9.734   9.187  66.310  1.00  0.00    -0.231 OA 
BRANCH  10  11
HETATM   11  C   UNL     1      -8.462   8.654  66.741  1.00  0.00    -0.115 C  
HETATM   12  N   UNL     1      -8.542   7.253  67.108  1.00  0.00    -0.120 N  
HETATM   13  C   UNL     1      -8.102   7.052  68.425  1.00  0.00    -0.124 C  
HETATM   14  C   UNL     1      -7.838   9.316  67.945  1.00  0.00    -0.092 A  
HETATM   15  N   UNL     1      -7.415  10.596  68.054  1.00  0.00    -0.089 NA 
HETATM   16  C   UNL     1      -7.647   8.364  68.928  1.00  0.00    -0.096 A  
HETATM   17  O   UNL     1      -7.998   6.024  69.071  1.00  0.00    -0.101 OA 
HETATM   18  C   UNL     1      -6.806  10.858  69.242  1.00  0.00    -0.105 A  
HETATM   19  N   UNL     1      -7.023   8.603  70.099  1.00  0.00    -0.042 NA 
HETATM   20  C   UNL     1      -6.620   9.890  70.234  1.00  0.00    -0.116 A  
BRANCH  12  21
HETATM   21  C   UNL     1      -8.962   6.233  66.238  1.00  0.00    -0.155 A  
HETATM   22 CL   UNL     1     -10.329   2.885  63.588  1.00  0.00    -0.185 Cl 
HETATM   23  C   UNL     1      -8.595   4.823  64.309  1.00  0.00    -0.141 A  
HETATM   24  C   UNL     1     -10.523   4.603  65.666  1.00  0.00    -0.227 A  
HETATM   25  N   UNL     1     -10.124   5.599  66.494  1.00  0.00    -0.181 NA 
HETATM   26  C   UNL     1      -8.183   5.872  65.137  1.00  0.00    -0.141 A  
HETATM   27  C   UNL     1      -9.790   4.176  64.577  1.00  0.00    -0.162 A  
ENDBRANCH  12  21
ENDBRANCH  10  11
ENDBRANCH   7  10
TORSDOF 3
ENDMDL
MODEL      144
REMARK 921   NORMALIZED FREE ENERGY PREDICTED BY IDOCK:   -4.10 KCAL/MOL
REMARK 922        TOTAL FREE ENERGY PREDICTED BY IDOCK:   -5.42 KCAL/MOL
REMARK 923 INTER-LIGAND FREE ENERGY PREDICTED BY IDOCK:   -5.01 KCAL/MOL
REMARK 924 INTRA-LIGAND FREE ENERGY PREDICTED BY IDOCK:   -0.41 KCAL/MOL
REMARK 927      BINDING AFFINITY PREDICTED BY RF-SCORE:    0.00 PKD
ROOT
HETATM    1  C   UNL     1      -7.838   3.703  64.981  1.00  0.00    -0.086 C  
HETATM    2  N   UNL     1      -8.921   3.265  65.862  1.00  0.00    -0.138 NA 
HETATM    3  C   UNL     1      -8.441   3.078  67.249  1.00  0.00    -0.094 C  
HETATM    4  C   UNL     1      -8.161   4.389  68.006  1.00  0.00    -0.090 C  
HETATM    5  N   UNL     1      -9.314   5.285  67.944  1.00  0.00    -0.113 N  
HETATM    6  C   UNL     1      -9.817   5.544  66.596  1.00  0.00    -0.170 C  
HETATM    7  C   UNL     1      -9.925   5.659  69.122  1.00  0.00    -0.183 C  
HETATM    8  O   UNL     1      -9.548   5.248  70.213  1.00  0.00    -0.158 OA 
HETATM    9  C   UNL     1     -10.061   4.211  65.848  1.00  0.00    -0.152 C  
ENDROOT
BRANCH   7  10
HETATM   10  O   UNL     1     -10.946   6.540  68.970  1.00  0.00    -0.280 OA 
BRANCH  10  11
HETATM   11  C   UNL     1     -10.831   7.780  69.704  1.00  0.00    -0.184 C  
HETATM   12  N   UNL     1      -9.762   8.624  69.207  1.00  0.00    -0.170 N  
HETATM   13  C   UNL     1      -8.847   8.932  70.225  1.00  0.00    -0.175 C  
HETATM   14  C   UNL     1     -10.544   7.653  71.181  1.00  0.00    -0.221 A  
HETATM   15  N   UNL     1     -11.327   7.087  72.126  1.00  0.00    -0.257 NA 
HETATM   16  C   UNL     1      -9.369   8.323  71.466  1.00  0.00    -0.180 A  
HETATM   17  O   UNL     1      -7.848   9.627  70.200  1.00  0.00    -0.141 OA 
HETATM   18  C   UNL     1     -10.827   7.220  73.385  1.00  0.00    -0.324 A  
HETATM   19  N   UNL     1      -8.875   8.485  72.710  1.00  0.00    -0.367 NA 
HETATM   20  C   UNL     1      -9.635   7.897  73.665  1.00  0.00    -0.130 A  
BRANCH  12  21
HETATM   21  C   UNL     1      -9.685   9.103  67.887  1.00  0.00    -0.154 A  
HETATM   22 CL   UNL     1      -9.588  10.578  63.655  1.00  0.00    -0.340 Cl 
HETATM   23  C   UNL     1      -8.551   9.241  65.757  1.00  0.00    -0.169 A  
HETATM   24  C   UNL     1     -10.634  10.302  66.133  1.00  0.00    -0.054 A  
HETATM   25  N   UNL     1     -10.698   9.853  67.410  1.00  0.00    -0.272 NA 
HETATM   26  C   UNL     1      -8.588   8.794  67.082  1.00  0.00    -0.119 A  
HETATM   27  C   UNL     1      -9.594  10.013  65.273  1.00  0.00    -0.291 A  
ENDBRANCH  12  21
ENDBRANCH  10  11
ENDBRANCH   7  10
TORSDOF 3
ENDMDL
MODEL      145
REMARK 921   NORMALIZED FREE ENERGY PREDICTED BY IDOCK:   -4.09 KCAL/MOL
REMARK 922        TOTAL FREE ENERGY PREDICTED BY IDOCK:   -5.41 KCAL/MOL
REMARK 923 INTER-LIGAND FREE ENERGY PREDICTED BY IDOCK:   -4.34 KCAL/MOL
REMARK 924 INTRA-LIGAND FREE ENERGY PREDICTED BY IDOCK:   -1.07 KCAL/MOL
REMARK 927      BINDING AFFINITY PREDICTED BY RF-SCORE:    0.00 PKD
ROOT
HETATM    1  C   UNL     1     -12.580   9.749  71.888  1.00  0.00    -0.391 C  
HETATM    2  N   UNL     1     -11.230   9.194  71.794  1.00  0.00    -0.375 NA 
HETATM    3  C   UNL     1     -11.237   7.729  72.004  1.00  0.00    -0.278 C  
HETATM    4  C   UNL     1     -11.808   6.921  70.824  1.00  0.00    -0.377 C  
HETATM    5  N   UNL     1     -11.150   7.289  69.572  1.00  0.00    -0.162 N  
HETATM    6  C   UNL     1     -11.141   8.722  69.283  1.00  0.00     0.117 C  
HETATM    7  C   UNL     1     -10.461   6.318  68.877  1.00  0.00    -0.232 C  
HETATM    8  O   UNL     1     -10.363   5.167  69.285  1.00  0.00    -0.226 OA 
HETATM    9  C   UNL     1     -10.591   9.511  70.495  1.00  0.00    -0.297 C  
ENDROOT
BRANCH   7  10
HETATM   10  O   UNL     1      -9.937   6.737  67.697  1.00  0.00    -0.126 OA 
BRANCH  10  11
HETATM   11  C   UNL     1      -8.505   6.928  67.669  1.00  0.00    -0.122 C  
HETATM   12  N   UNL     1      -8.108   8.029  66.812  1.00  0.00    -0.106 N  
HETATM   13  C   UNL     1      -7.208   7.600  65.824  1.00  0.00    -0.065 C  
HETATM   14  C   UNL     1      -7.689   5.761  67.171  1.00  0.00    -0.101 A  
HETATM   15  N   UNL     1      -7.582   4.534  67.728  1.00  0.00    -0.077 NA 
HETATM   16  C   UNL     1      -6.945   6.169  66.080  1.00  0.00    -0.066 A  
HETATM   17  O   UNL     1      -6.641   8.231  64.950  1.00  0.00    -0.062 OA 
HETATM   18  C   UNL     1      -6.687   3.732  67.089  1.00  0.00    -0.046 A  
HETATM   19  N   UNL     1      -6.037   5.395  65.452  1.00  0.00    -0.025 NA 
HETATM   20  C   UNL     1      -5.941   4.152  65.983  1.00  0.00    -0.023 A  
BRANCH  12  21
HETATM   21  C   UNL     1      -8.537   9.356  66.984  1.00  0.00    -0.128 A  
HETATM   22 CL   UNL     1      -9.914  13.564  67.690  1.00  0.00    -0.225 Cl 
HETATM   23  C   UNL     1     -10.024  11.180  66.429  1.00  0.00    -0.257 A  
HETATM   24  C   UNL     1      -8.357  11.391  68.099  1.00  0.00    -0.149 A  
HETATM   25  N   UNL     1      -7.934  10.117  67.920  1.00  0.00    -0.101 NA 
HETATM   26  C   UNL     1      -9.579   9.872  66.212  1.00  0.00    -0.265 A  
HETATM   27  C   UNL     1      -9.399  11.957  67.391  1.00  0.00    -0.176 A  
ENDBRANCH  12  21
ENDBRANCH  10  11
ENDBRANCH   7  10
TORSDOF 3
ENDMDL
MODEL      146
REMARK 921   NORMALIZED FREE ENERGY PREDICTED BY IDOCK:   -4.08 KCAL/MOL
REMARK 922        TOTAL FREE ENERGY PREDICTED BY IDOCK:   -5.40 KCAL/MOL
REMARK 923 INTER-LIGAND FREE ENERGY PREDICTED BY IDOCK:   -4.85 KCAL/MOL
REMARK 924 INTRA-LIGAND FREE ENERGY PREDICTED BY IDOCK:   -0.55 KCAL/MOL
REMARK 927      BINDING AFFINITY PREDICTED BY RF-SCORE:    0.00 PKD
ROOT
HETATM    1  C   UNL     1      -9.666  19.604  67.720  1.00  0.00    -0.371 C  
HETATM    2  N   UNL     1      -9.193  18.526  68.588  1.00  0.00    -0.324 NA 
HETATM    3  C   UNL     1     -10.316  17.686  69.060  1.00  0.00    -0.272 C  
HETATM    4  C   UNL     1     -10.908  16.756  67.984  1.00  0.00    -0.341 C  
HETATM    5  N   UNL     1      -9.860  15.959  67.348  1.00  0.00    -0.232 N  
HETATM    6  C   UNL     1      -8.735  16.733  66.824  1.00  0.00    -0.230 C  
HETATM    7  C   UNL     1      -9.923  14.586  67.445  1.00  0.00    -0.227 C  
HETATM    8  O   UNL     1     -10.812  14.014  68.064  1.00  0.00    -0.239 OA 
HETATM    9  C   UNL     1      -8.180  17.679  67.915  1.00  0.00    -0.234 C  
ENDROOT
BRANCH   7  10
HETATM   10  O   UNL     1      -8.945  13.930  66.771  1.00  0.00    -0.237 OA 
BRANCH  10  11
HETATM   11  C   UNL     1      -8.965  12.488  66.864  1.00  0.00    -0.212 C  
HETATM   12  N   UNL     1      -7.690  11.939  67.284  1.00  0.00    -0.156 N  
HETATM   13  C   UNL     1      -7.205  11.015  66.346  1.00  0.00    -0.127 C  
HETATM   14  C   UNL     1      -9.284  11.745  65.590  1.00  0.00    -0.100 A  
HETATM   15  N   UNL     1     -10.435  11.783  64.880  1.00  0.00    -0.273 NA 
HETATM   16  C   UNL     1      -8.235  10.897  65.293  1.00  0.00     0.022 A  
HETATM   17  O   UNL     1      -6.193  10.338  66.360  1.00  0.00    -0.066 OA 
HETATM   18  C   UNL     1     -10.443  10.921  63.828  1.00  0.00    -0.259 A  
HETATM   19  N   UNL     1      -8.239  10.019  64.269  1.00  0.00    -0.158 NA 
HETATM   20  C   UNL     1      -9.375  10.068  63.532  1.00  0.00    -0.256 A  
BRANCH  12  21
HETATM   21  C   UNL     1      -7.054  12.261  68.495  1.00  0.00    -0.099 A  
HETATM   22 CL   UNL     1      -5.133  13.201  72.435  1.00  0.00    -0.074 Cl 
HETATM   23  C   UNL     1      -6.158  13.894  70.037  1.00  0.00    -0.146 A  
HETATM   24  C   UNL     1      -6.160  11.578  70.533  1.00  0.00    -0.021 A  
HETATM   25  N   UNL     1      -6.759  11.268  69.357  1.00  0.00    -0.111 NA 
HETATM   26  C   UNL     1      -6.749  13.587  68.807  1.00  0.00    -0.105 A  
HETATM   27  C   UNL     1      -5.855  12.868  70.917  1.00  0.00    -0.006 A  
ENDBRANCH  12  21
ENDBRANCH  10  11
ENDBRANCH   7  10
TORSDOF 3
ENDMDL
MODEL      147
REMARK 921   NORMALIZED FREE ENERGY PREDICTED BY IDOCK:   -4.01 KCAL/MOL
REMARK 922        TOTAL FREE ENERGY PREDICTED BY IDOCK:   -5.32 KCAL/MOL
REMARK 923 INTER-LIGAND FREE ENERGY PREDICTED BY IDOCK:   -4.84 KCAL/MOL
REMARK 924 INTRA-LIGAND FREE ENERGY PREDICTED BY IDOCK:   -0.48 KCAL/MOL
REMARK 927      BINDING AFFINITY PREDICTED BY RF-SCORE:    0.00 PKD
ROOT
HETATM    1  C   UNL     1     -12.339  12.431  63.421  1.00  0.00    -0.499 C  
HETATM    2  N   UNL     1     -10.913  12.357  63.740  1.00  0.00    -0.411 NA 
HETATM    3  C   UNL     1     -10.446  13.594  64.402  1.00  0.00    -0.300 C  
HETATM    4  C   UNL     1     -10.912  13.747  65.862  1.00  0.00    -0.283 C  
HETATM    5  N   UNL     1     -10.586  12.554  66.642  1.00  0.00    -0.235 N  
HETATM    6  C   UNL     1     -11.053  11.296  66.062  1.00  0.00    -0.116 C  
HETATM    7  C   UNL     1      -9.745  12.683  67.726  1.00  0.00    -0.206 C  
HETATM    8  O   UNL     1      -9.245  13.756  68.043  1.00  0.00    -0.182 OA 
HETATM    9  C   UNL     1     -10.596  11.183  64.587  1.00  0.00    -0.318 C  
ENDROOT
BRANCH   7  10
HETATM   10  O   UNL     1      -9.550  11.536  68.426  1.00  0.00    -0.186 OA 
BRANCH  10  11
HETATM   11  C   UNL     1      -8.211  10.993  68.398  1.00  0.00    -0.137 C  
HETATM   12  N   UNL     1      -8.175   9.585  68.741  1.00  0.00    -0.110 N  
HETATM   13  C   UNL     1      -7.325   9.353  69.833  1.00  0.00    -0.088 C  
HETATM   14  C   UNL     1      -7.218  11.627  69.341  1.00  0.00     0.039 A  
HETATM   15  N   UNL     1      -6.774  12.904  69.332  1.00  0.00    -0.064 NA 
HETATM   16  C   UNL     1      -6.719  10.654  70.185  1.00  0.00    -0.140 A  
HETATM   17  O   UNL     1      -7.021   8.311  70.384  1.00  0.00    -0.036 OA 
HETATM   18  C   UNL     1      -5.803  13.139  70.256  1.00  0.00    -0.156 A  
HETATM   19  N   UNL     1      -5.740  10.865  71.087  1.00  0.00    -0.334 NA 
HETATM   20  C   UNL     1      -5.305  12.149  71.109  1.00  0.00    -0.089 A  
BRANCH  12  21
HETATM   21  C   UNL     1      -8.868   8.585  68.037  1.00  0.00    -0.142 A  
HETATM   22 CL   UNL     1     -11.108   5.322  65.931  1.00  0.00     0.021 Cl 
HETATM   23  C   UNL     1      -8.976   6.942  66.267  1.00  0.00    -0.172 A  
HETATM   24  C   UNL     1     -10.757   7.246  67.798  1.00  0.00    -0.197 A  
HETATM   25  N   UNL     1     -10.094   8.222  68.465  1.00  0.00    -0.192 NA 
HETATM   26  C   UNL     1      -8.291   7.968  66.926  1.00  0.00    -0.116 A  
HETATM   27  C   UNL     1     -10.236   6.575  66.710  1.00  0.00    -0.191 A  
ENDBRANCH  12  21
ENDBRANCH  10  11
ENDBRANCH   7  10
TORSDOF 3
ENDMDL
MODEL      148
REMARK 921   NORMALIZED FREE ENERGY PREDICTED BY IDOCK:   -3.91 KCAL/MOL
REMARK 922        TOTAL FREE ENERGY PREDICTED BY IDOCK:   -5.20 KCAL/MOL
REMARK 923 INTER-LIGAND FREE ENERGY PREDICTED BY IDOCK:   -4.25 KCAL/MOL
REMARK 924 INTRA-LIGAND FREE ENERGY PREDICTED BY IDOCK:   -0.95 KCAL/MOL
REMARK 927      BINDING AFFINITY PREDICTED BY RF-SCORE:    0.00 PKD
ROOT
HETATM    1  C   UNL     1      -6.365  10.049  64.482  1.00  0.00    -0.130 C  
HETATM    2  N   UNL     1      -6.648  10.739  65.741  1.00  0.00    -0.099 NA 
HETATM    3  C   UNL     1      -8.105  10.853  65.973  1.00  0.00    -0.142 C  
HETATM    4  C   UNL     1      -8.788   9.533  66.376  1.00  0.00    -0.144 C  
HETATM    5  N   UNL     1      -8.102   8.914  67.508  1.00  0.00    -0.108 N  
HETATM    6  C   UNL     1      -6.662   8.736  67.329  1.00  0.00    -0.063 C  
HETATM    7  C   UNL     1      -8.803   8.717  68.679  1.00  0.00    -0.142 C  
HETATM    8  O   UNL     1      -9.970   9.063  68.808  1.00  0.00    -0.171 OA 
HETATM    9  C   UNL     1      -6.006  10.069  66.896  1.00  0.00    -0.055 C  
ENDROOT
BRANCH   7  10
HETATM   10  O   UNL     1      -8.104   8.079  69.651  1.00  0.00    -0.114 OA 
BRANCH  10  11
HETATM   11  C   UNL     1      -8.404   6.678  69.837  1.00  0.00    -0.132 C  
HETATM   12  N   UNL     1      -9.170   6.427  71.042  1.00  0.00    -0.154 N  
HETATM   13  C   UNL     1      -8.509   5.515  71.879  1.00  0.00    -0.123 C  
HETATM   14  C   UNL     1      -7.216   5.754  69.956  1.00  0.00    -0.069 A  
HETATM   15  N   UNL     1      -6.275   5.499  69.020  1.00  0.00    -0.028 NA 
HETATM   16  C   UNL     1      -7.286   5.091  71.166  1.00  0.00    -0.073 A  
HETATM   17  O   UNL     1      -8.846   5.046  72.951  1.00  0.00    -0.117 OA 
HETATM   18  C   UNL     1      -5.387   4.541  69.402  1.00  0.00    -0.008 A  
HETATM   19  N   UNL     1      -6.430   4.123  71.548  1.00  0.00    -0.018 NA 
HETATM   20  C   UNL     1      -5.463   3.877  70.631  1.00  0.00    -0.012 A  
BRANCH  12  21
HETATM   21  C   UNL     1     -10.429   6.993  71.308  1.00  0.00    -0.206 A  
HETATM   22 CL   UNL     1     -14.408   8.799  72.309  1.00  0.00    -0.515 Cl 
HETATM   23  C   UNL     1     -12.837   6.975  71.089  1.00  0.00    -0.328 A  
HETATM   24  C   UNL     1     -11.711   8.621  72.368  1.00  0.00    -0.323 A  
HETATM   25  N   UNL     1     -10.497   8.084  72.097  1.00  0.00    -0.244 NA 
HETATM   26  C   UNL     1     -11.589   6.426  70.776  1.00  0.00    -0.402 A  
HETATM   27  C   UNL     1     -12.899   8.097  71.900  1.00  0.00    -0.335 A  
ENDBRANCH  12  21
ENDBRANCH  10  11
ENDBRANCH   7  10
TORSDOF 3
ENDMDL
MODEL      149
REMARK 921   NORMALIZED FREE ENERGY PREDICTED BY IDOCK:   -3.87 KCAL/MOL
REMARK 922        TOTAL FREE ENERGY PREDICTED BY IDOCK:   -5.15 KCAL/MOL
REMARK 923 INTER-LIGAND FREE ENERGY PREDICTED BY IDOCK:   -4.28 KCAL/MOL
REMARK 924 INTRA-LIGAND FREE ENERGY PREDICTED BY IDOCK:   -0.87 KCAL/MOL
REMARK 927      BINDING AFFINITY PREDICTED BY RF-SCORE:    0.00 PKD
ROOT
HETATM    1  C   UNL     1      -8.787  12.963  67.282  1.00  0.00    -0.206 C  
HETATM    2  N   UNL     1      -9.117  11.944  68.279  1.00  0.00    -0.182 NA 
HETATM    3  C   UNL     1     -10.445  11.347  68.015  1.00  0.00    -0.188 C  
HETATM    4  C   UNL     1     -10.482  10.387  66.811  1.00  0.00    -0.225 C  
HETATM    5  N   UNL     1      -9.438   9.370  66.921  1.00  0.00    -0.149 N  
HETATM    6  C   UNL     1      -8.092   9.895  67.144  1.00  0.00    -0.117 C  
HETATM    7  C   UNL     1      -9.811   8.044  66.983  1.00  0.00    -0.227 C  
HETATM    8  O   UNL     1     -10.984   7.694  66.972  1.00  0.00    -0.277 OA 
HETATM    9  C   UNL     1      -8.090  10.877  68.340  1.00  0.00    -0.131 C  
ENDROOT
BRANCH   7  10
HETATM   10  O   UNL     1      -8.773   7.170  67.020  1.00  0.00    -0.119 OA 
BRANCH  10  11
HETATM   11  C   UNL     1      -9.123   5.770  67.092  1.00  0.00    -0.112 C  
HETATM   12  N   UNL     1      -8.730   5.162  68.348  1.00  0.00    -0.101 N  
HETATM   13  C   UNL     1      -7.890   4.059  68.134  1.00  0.00    -0.073 C  
HETATM   14  C   UNL     1      -8.508   4.877  66.042  1.00  0.00    -0.117 A  
HETATM   15  N   UNL     1      -8.700   4.927  64.704  1.00  0.00    -0.152 NA 
HETATM   16  C   UNL     1      -7.777   3.888  66.670  1.00  0.00    -0.089 A  
HETATM   17  O   UNL     1      -7.384   3.289  68.930  1.00  0.00    -0.049 OA 
HETATM   18  C   UNL     1      -8.076   3.918  64.037  1.00  0.00    -0.090 A  
HETATM   19  N   UNL     1      -7.174   2.869  66.025  1.00  0.00    -0.065 NA 
HETATM   20  C   UNL     1      -7.334   2.922  64.681  1.00  0.00    -0.066 A  
BRANCH  12  21
HETATM   21  C   UNL     1      -9.175   5.598  69.608  1.00  0.00    -0.137 A  
HETATM   22 CL   UNL     1     -10.685   7.097  73.555  1.00  0.00    -0.411 Cl 
HETATM   23  C   UNL     1      -8.719   6.381  71.850  1.00  0.00    -0.134 A  
HETATM   24  C   UNL     1     -10.930   6.167  71.027  1.00  0.00    -0.293 A  
HETATM   25  N   UNL     1     -10.500   5.731  69.819  1.00  0.00    -0.264 NA 
HETATM   26  C   UNL     1      -8.260   5.904  70.618  1.00  0.00    -0.120 A  
HETATM   27  C   UNL     1     -10.082   6.514  72.060  1.00  0.00    -0.184 A  
ENDBRANCH  12  21
ENDBRANCH  10  11
ENDBRANCH   7  10
TORSDOF 3
ENDMDL
MODEL      150
REMARK 921   NORMALIZED FREE ENERGY PREDICTED BY IDOCK:   -3.85 KCAL/MOL
REMARK 922        TOTAL FREE ENERGY PREDICTED BY IDOCK:   -5.13 KCAL/MOL
REMARK 923 INTER-LIGAND FREE ENERGY PREDICTED BY IDOCK:   -4.59 KCAL/MOL
REMARK 924 INTRA-LIGAND FREE ENERGY PREDICTED BY IDOCK:   -0.54 KCAL/MOL
REMARK 927      BINDING AFFINITY PREDICTED BY RF-SCORE:    0.00 PKD
ROOT
HETATM    1  C   UNL     1      -5.664   3.207  73.400  1.00  0.00     0.000 C  
HETATM    2  N   UNL     1      -5.827   3.704  72.034  1.00  0.00    -0.008 NA 
HETATM    3  C   UNL     1      -7.089   3.218  71.434  1.00  0.00    -0.032 C  
HETATM    4  C   UNL     1      -8.357   3.896  71.986  1.00  0.00    -0.098 C  
HETATM    5  N   UNL     1      -8.244   5.352  71.916  1.00  0.00    -0.117 N  
HETATM    6  C   UNL     1      -7.036   5.903  72.526  1.00  0.00    -0.079 C  
HETATM    7  C   UNL     1      -9.158   6.049  71.155  1.00  0.00    -0.146 C  
HETATM    8  O   UNL     1     -10.043   5.489  70.520  1.00  0.00    -0.196 OA 
HETATM    9  C   UNL     1      -5.780   5.184  71.976  1.00  0.00    -0.020 C  
ENDROOT
BRANCH   7  10
HETATM   10  O   UNL     1      -9.013   7.398  71.200  1.00  0.00    -0.142 OA 
BRANCH  10  11
HETATM   11  C   UNL     1      -8.801   8.058  69.933  1.00  0.00    -0.144 C  
HETATM   12  N   UNL     1     -10.035   8.543  69.344  1.00  0.00    -0.189 N  
HETATM   13  C   UNL     1     -10.224   8.009  68.060  1.00  0.00    -0.210 C  
HETATM   14  C   UNL     1      -8.177   7.221  68.843  1.00  0.00    -0.125 A  
HETATM   15  N   UNL     1      -6.945   6.664  68.837  1.00  0.00    -0.076 NA 
HETATM   16  C   UNL     1      -9.032   7.191  67.758  1.00  0.00    -0.122 A  
HETATM   17  O   UNL     1     -11.117   8.200  67.254  1.00  0.00    -0.015 OA 
HETATM   18  C   UNL     1      -6.643   6.048  67.662  1.00  0.00    -0.056 A  
HETATM   19  N   UNL     1      -8.737   6.607  66.580  1.00  0.00    -0.130 NA 
HETATM   20  C   UNL     1      -7.516   6.019  66.569  1.00  0.00    -0.090 A  
BRANCH  12  21
HETATM   21  C   UNL     1     -10.897   9.461  69.967  1.00  0.00    -0.241 A  
HETATM   22 CL   UNL     1     -13.526  12.489  71.973  1.00  0.00    -0.564 Cl 
HETATM   23  C   UNL     1     -12.577   9.987  71.625  1.00  0.00    -0.524 A  
HETATM   24  C   UNL     1     -11.685  11.641  70.183  1.00  0.00    -0.296 A  
HETATM   25  N   UNL     1     -10.866  10.750  69.573  1.00  0.00    -0.238 NA 
HETATM   26  C   UNL     1     -11.759   9.050  70.985  1.00  0.00    -0.353 A  
HETATM   27  C   UNL     1     -12.541  11.309  71.214  1.00  0.00    -0.382 A  
ENDBRANCH  12  21
ENDBRANCH  10  11
ENDBRANCH   7  10
TORSDOF 3
ENDMDL
MODEL      151
REMARK 921   NORMALIZED FREE ENERGY PREDICTED BY IDOCK:   -3.85 KCAL/MOL
REMARK 922        TOTAL FREE ENERGY PREDICTED BY IDOCK:   -5.13 KCAL/MOL
REMARK 923 INTER-LIGAND FREE ENERGY PREDICTED BY IDOCK:   -3.95 KCAL/MOL
REMARK 924 INTRA-LIGAND FREE ENERGY PREDICTED BY IDOCK:   -1.18 KCAL/MOL
REMARK 927      BINDING AFFINITY PREDICTED BY RF-SCORE:    0.00 PKD
ROOT
HETATM    1  C   UNL     1     -10.224  11.554  65.276  1.00  0.00    -0.267 C  
HETATM    2  N   UNL     1      -9.130  10.807  65.897  1.00  0.00    -0.181 NA 
HETATM    3  C   UNL     1      -9.012  11.126  67.337  1.00  0.00    -0.139 C  
HETATM    4  C   UNL     1     -10.121  10.515  68.215  1.00  0.00    -0.160 C  
HETATM    5  N   UNL     1     -10.238   9.077  67.982  1.00  0.00    -0.202 N  
HETATM    6  C   UNL     1     -10.396   8.694  66.580  1.00  0.00    -0.232 C  
HETATM    7  C   UNL     1     -10.021   8.217  69.038  1.00  0.00    -0.189 C  
HETATM    8  O   UNL     1      -9.712   8.616  70.154  1.00  0.00    -0.167 OA 
HETATM    9  C   UNL     1      -9.288   9.344  65.718  1.00  0.00    -0.239 C  
ENDROOT
BRANCH   7  10
HETATM   10  O   UNL     1     -10.214   6.906  68.743  1.00  0.00    -0.161 OA 
BRANCH  10  11
HETATM   11  C   UNL     1      -9.181   5.996  69.182  1.00  0.00    -0.126 C  
HETATM   12  N   UNL     1      -8.791   5.057  68.149  1.00  0.00    -0.102 N  
HETATM   13  C   UNL     1      -8.948   3.733  68.585  1.00  0.00    -0.124 C  
HETATM   14  C   UNL     1      -9.524   5.122  70.364  1.00  0.00    -0.169 A  
HETATM   15  N   UNL     1      -9.808   5.518  71.625  1.00  0.00    -0.168 NA 
HETATM   16  C   UNL     1      -9.396   3.798  69.992  1.00  0.00    -0.180 A  
HETATM   17  O   UNL     1      -8.703   2.684  68.017  1.00  0.00    -0.085 OA 
HETATM   18  C   UNL     1      -9.980   4.477  72.486  1.00  0.00    -0.170 A  
HETATM   19  N   UNL     1      -9.539   2.758  70.838  1.00  0.00    -0.152 NA 
HETATM   20  C   UNL     1      -9.852   3.139  72.100  1.00  0.00    -0.168 A  
BRANCH  12  21
HETATM   21  C   UNL     1      -8.280   5.433  66.894  1.00  0.00    -0.104 A  
HETATM   22 CL   UNL     1      -6.688   6.488  62.838  1.00  0.00    -0.041 Cl 
HETATM   23  C   UNL     1      -6.504   6.340  65.527  1.00  0.00    -0.039 A  
HETATM   24  C   UNL     1      -8.530   5.553  64.583  1.00  0.00    -0.108 A  
HETATM   25  N   UNL     1      -9.027   5.207  65.795  1.00  0.00    -0.148 NA 
HETATM   26  C   UNL     1      -7.016   6.015  66.787  1.00  0.00    -0.068 A  
HETATM   27  C   UNL     1      -7.278   6.107  64.401  1.00  0.00    -0.060 A  
ENDBRANCH  12  21
ENDBRANCH  10  11
ENDBRANCH   7  10
TORSDOF 3
ENDMDL
MODEL      152
REMARK 921   NORMALIZED FREE ENERGY PREDICTED BY IDOCK:   -3.85 KCAL/MOL
REMARK 922        TOTAL FREE ENERGY PREDICTED BY IDOCK:   -5.12 KCAL/MOL
REMARK 923 INTER-LIGAND FREE ENERGY PREDICTED BY IDOCK:   -5.29 KCAL/MOL
REMARK 924 INTRA-LIGAND FREE ENERGY PREDICTED BY IDOCK:    0.17 KCAL/MOL
REMARK 927      BINDING AFFINITY PREDICTED BY RF-SCORE:    0.00 PKD
ROOT
HETATM    1  C   UNL     1      -7.057   4.945  74.539  1.00  0.00    -0.074 C  
HETATM    2  N   UNL     1      -6.742   6.373  74.490  1.00  0.00    -0.085 NA 
HETATM    3  C   UNL     1      -5.680   6.654  73.499  1.00  0.00    -0.050 C  
HETATM    4  C   UNL     1      -6.138   6.558  72.032  1.00  0.00    -0.038 C  
HETATM    5  N   UNL     1      -7.329   7.374  71.802  1.00  0.00    -0.078 N  
HETATM    6  C   UNL     1      -8.434   7.119  72.724  1.00  0.00    -0.107 C  
HETATM    7  C   UNL     1      -7.258   8.403  70.887  1.00  0.00    -0.059 C  
HETATM    8  O   UNL     1      -6.228   8.668  70.280  1.00  0.00    -0.036 OA 
HETATM    9  C   UNL     1      -7.939   7.193  74.189  1.00  0.00    -0.119 C  
ENDROOT
BRANCH   7  10
HETATM   10  O   UNL     1      -8.427   9.064  70.694  1.00  0.00    -0.158 OA 
BRANCH  10  11
HETATM   11  C   UNL     1      -9.291   8.541  69.660  1.00  0.00    -0.157 C  
HETATM   12  N   UNL     1     -10.658   8.368  70.113  1.00  0.00    -0.229 N  
HETATM   13  C   UNL     1     -11.081   7.041  69.944  1.00  0.00    -0.264 C  
HETATM   14  C   UNL     1      -8.915   7.191  69.100  1.00  0.00    -0.138 A  
HETATM   15  N   UNL     1      -7.792   6.865  68.421  1.00  0.00    -0.119 NA 
HETATM   16  C   UNL     1      -9.971   6.320  69.288  1.00  0.00    -0.155 A  
HETATM   17  O   UNL     1     -12.158   6.523  70.180  1.00  0.00    -0.323 OA 
HETATM   18  C   UNL     1      -7.797   5.583  67.964  1.00  0.00    -0.096 A  
HETATM   19  N   UNL     1     -10.000   5.056  68.820  1.00  0.00    -0.167 NA 
HETATM   20  C   UNL     1      -8.868   4.706  68.162  1.00  0.00    -0.106 A  
BRANCH  12  21
HETATM   21  C   UNL     1     -11.461   9.409  70.611  1.00  0.00    -0.284 A  
HETATM   22 CL   UNL     1     -13.892  12.819  72.210  1.00  0.00    -0.513 Cl 
HETATM   23  C   UNL     1     -13.111  10.236  72.172  1.00  0.00    -0.444 A  
HETATM   24  C   UNL     1     -12.102  11.646  70.558  1.00  0.00    -0.366 A  
HETATM   25  N   UNL     1     -11.341  10.637  70.069  1.00  0.00    -0.302 NA 
HETATM   26  C   UNL     1     -12.354   9.178  71.659  1.00  0.00    -0.434 A  
HETATM   27  C   UNL     1     -12.984  11.496  71.609  1.00  0.00    -0.394 A  
ENDBRANCH  12  21
ENDBRANCH  10  11
ENDBRANCH   7  10
TORSDOF 3
ENDMDL
MODEL      153
REMARK 921   NORMALIZED FREE ENERGY PREDICTED BY IDOCK:   -3.84 KCAL/MOL
REMARK 922        TOTAL FREE ENERGY PREDICTED BY IDOCK:   -5.12 KCAL/MOL
REMARK 923 INTER-LIGAND FREE ENERGY PREDICTED BY IDOCK:   -5.77 KCAL/MOL
REMARK 924 INTRA-LIGAND FREE ENERGY PREDICTED BY IDOCK:    0.65 KCAL/MOL
REMARK 927      BINDING AFFINITY PREDICTED BY RF-SCORE:    0.00 PKD
ROOT
HETATM    1  C   UNL     1     -10.889   4.195  73.776  1.00  0.00    -0.263 C  
HETATM    2  N   UNL     1      -9.819   4.421  72.804  1.00  0.00    -0.141 NA 
HETATM    3  C   UNL     1     -10.340   4.399  71.419  1.00  0.00    -0.010 C  
HETATM    4  C   UNL     1     -11.157   5.644  71.027  1.00  0.00    -0.131 C  
HETATM    5  N   UNL     1     -10.410   6.868  71.309  1.00  0.00    -0.203 N  
HETATM    6  C   UNL     1      -9.898   6.974  72.675  1.00  0.00    -0.163 C  
HETATM    7  C   UNL     1     -10.104   7.712  70.263  1.00  0.00    -0.198 C  
HETATM    8  O   UNL     1     -10.417   7.459  69.106  1.00  0.00    -0.207 OA 
HETATM    9  C   UNL     1      -9.108   5.698  73.052  1.00  0.00    -0.121 C  
ENDROOT
BRANCH   7  10
HETATM   10  O   UNL     1      -9.466   8.852  70.629  1.00  0.00    -0.180 OA 
BRANCH  10  11
HETATM   11  C   UNL     1      -9.227   9.814  69.577  1.00  0.00    -0.213 C  
HETATM   12  N   UNL     1     -10.450  10.428  69.097  1.00  0.00    -0.212 N  
HETATM   13  C   UNL     1     -10.601  10.238  67.715  1.00  0.00    -0.250 C  
HETATM   14  C   UNL     1      -8.567   9.283  68.328  1.00  0.00    -0.125 A  
HETATM   15  N   UNL     1      -7.330   8.749  68.215  1.00  0.00    -0.086 NA 
HETATM   16  C   UNL     1      -9.393   9.527  67.248  1.00  0.00    -0.134 A  
HETATM   17  O   UNL     1     -11.474  10.625  66.959  1.00  0.00    -0.304 OA 
HETATM   18  C   UNL     1      -6.991   8.453  66.930  1.00  0.00    -0.074 A  
HETATM   19  N   UNL     1      -9.062   9.262  65.968  1.00  0.00    -0.174 NA 
HETATM   20  C   UNL     1      -7.835   8.700  65.842  1.00  0.00    -0.102 A  
BRANCH  12  21
HETATM   21  C   UNL     1     -11.337  11.156  69.908  1.00  0.00    -0.268 A  
HETATM   22 CL   UNL     1     -14.284  13.377  72.455  1.00  0.00    -0.530 Cl 
HETATM   23  C   UNL     1     -12.339  13.249  70.588  1.00  0.00    -0.416 A  
HETATM   24  C   UNL     1     -12.989  11.184  71.548  1.00  0.00    -0.437 A  
HETATM   25  N   UNL     1     -12.121  10.486  70.777  1.00  0.00    -0.337 NA 
HETATM   26  C   UNL     1     -11.417  12.546  69.806  1.00  0.00    -0.211 A  
HETATM   27  C   UNL     1     -13.140  12.554  71.479  1.00  0.00    -0.277 A  
ENDBRANCH  12  21
ENDBRANCH  10  11
ENDBRANCH   7  10
TORSDOF 3
ENDMDL
MODEL      154
REMARK 921   NORMALIZED FREE ENERGY PREDICTED BY IDOCK:   -3.83 KCAL/MOL
REMARK 922        TOTAL FREE ENERGY PREDICTED BY IDOCK:   -5.11 KCAL/MOL
REMARK 923 INTER-LIGAND FREE ENERGY PREDICTED BY IDOCK:   -5.06 KCAL/MOL
REMARK 924 INTRA-LIGAND FREE ENERGY PREDICTED BY IDOCK:   -0.04 KCAL/MOL
REMARK 927      BINDING AFFINITY PREDICTED BY RF-SCORE:    0.00 PKD
ROOT
HETATM    1  C   UNL     1      -8.937   3.251  68.031  1.00  0.00    -0.147 C  
HETATM    2  N   UNL     1      -8.493   4.446  67.315  1.00  0.00    -0.104 NA 
HETATM    3  C   UNL     1      -9.582   5.014  66.491  1.00  0.00    -0.161 C  
HETATM    4  C   UNL     1     -10.682   5.729  67.297  1.00  0.00    -0.261 C  
HETATM    5  N   UNL     1     -10.105   6.725  68.198  1.00  0.00    -0.156 N  
HETATM    6  C   UNL     1      -9.046   6.221  69.071  1.00  0.00    -0.129 C  
HETATM    7  C   UNL     1     -10.463   8.047  68.039  1.00  0.00    -0.184 C  
HETATM    8  O   UNL     1     -11.228   8.415  67.156  1.00  0.00     0.254 OA 
HETATM    9  C   UNL     1      -7.971   5.482  68.239  1.00  0.00    -0.096 C  
ENDROOT
BRANCH   7  10
HETATM   10  O   UNL     1      -9.928   8.888  68.959  1.00  0.00    -0.179 OA 
BRANCH  10  11
HETATM   11  C   UNL     1      -9.251  10.054  68.439  1.00  0.00    -0.131 C  
HETATM   12  N   UNL     1     -10.167  11.128  68.108  1.00  0.00    -0.175 N  
HETATM   13  C   UNL     1     -10.033  11.509  66.764  1.00  0.00    -0.208 C  
HETATM   14  C   UNL     1      -8.451   9.848  67.175  1.00  0.00    -0.121 A  
HETATM   15  N   UNL     1      -7.367   9.059  67.006  1.00  0.00    -0.086 NA 
HETATM   16  C   UNL     1      -8.933  10.699  66.199  1.00  0.00    -0.168 A  
HETATM   17  O   UNL     1     -10.604  12.380  66.133  1.00  0.00    -0.246 OA 
HETATM   18  C   UNL     1      -6.814   9.168  65.767  1.00  0.00    -0.077 A  
HETATM   19  N   UNL     1      -8.381  10.837  64.977  1.00  0.00    -0.105 NA 
HETATM   20  C   UNL     1      -7.310  10.029  64.783  1.00  0.00    -0.143 A  
BRANCH  12  21
HETATM   21  C   UNL     1     -11.039  11.732  69.030  1.00  0.00    -0.246 A  
HETATM   22 CL   UNL     1     -13.701  13.758  72.015  1.00  0.00    -0.532 Cl 
HETATM   23  C   UNL     1     -12.619  11.576  70.853  1.00  0.00    -0.438 A  
HETATM   24  C   UNL     1     -11.949  13.663  69.957  1.00  0.00    -0.343 A  
HETATM   25  N   UNL     1     -11.122  13.078  69.058  1.00  0.00    -0.248 NA 
HETATM   26  C   UNL     1     -11.792  10.955  69.911  1.00  0.00    -0.427 A  
HETATM   27  C   UNL     1     -12.701  12.958  70.875  1.00  0.00    -0.207 A  
ENDBRANCH  12  21
ENDBRANCH  10  11
ENDBRANCH   7  10
TORSDOF 3
ENDMDL
MODEL      155
REMARK 921   NORMALIZED FREE ENERGY PREDICTED BY IDOCK:   -3.82 KCAL/MOL
REMARK 922        TOTAL FREE ENERGY PREDICTED BY IDOCK:   -5.09 KCAL/MOL
REMARK 923 INTER-LIGAND FREE ENERGY PREDICTED BY IDOCK:   -4.44 KCAL/MOL
REMARK 924 INTRA-LIGAND FREE ENERGY PREDICTED BY IDOCK:   -0.65 KCAL/MOL
REMARK 927      BINDING AFFINITY PREDICTED BY RF-SCORE:    0.00 PKD
ROOT
HETATM    1  C   UNL     1      -8.807  18.820  67.156  1.00  0.00    -0.278 C  
HETATM    2  N   UNL     1      -9.853  17.826  67.397  1.00  0.00    -0.301 NA 
HETATM    3  C   UNL     1     -10.065  16.971  66.208  1.00  0.00    -0.320 C  
HETATM    4  C   UNL     1      -8.944  15.945  65.957  1.00  0.00    -0.302 C  
HETATM    5  N   UNL     1      -8.682  15.154  67.158  1.00  0.00    -0.201 N  
HETATM    6  C   UNL     1      -8.426  15.938  68.365  1.00  0.00    -0.176 C  
HETATM    7  C   UNL     1      -8.865  13.788  67.103  1.00  0.00    -0.231 C  
HETATM    8  O   UNL     1      -9.260  13.222  66.092  1.00  0.00    -0.131 OA 
HETATM    9  C   UNL     1      -9.550  16.981  68.576  1.00  0.00    -0.273 C  
ENDROOT
BRANCH   7  10
HETATM   10  O   UNL     1      -8.536  13.131  68.245  1.00  0.00    -0.173 OA 
BRANCH  10  11
HETATM   11  C   UNL     1      -7.143  12.779  68.398  1.00  0.00    -0.102 C  
HETATM   12  N   UNL     1      -6.913  11.353  68.270  1.00  0.00    -0.068 N  
HETATM   13  C   UNL     1      -6.282  10.839  69.414  1.00  0.00    -0.059 C  
HETATM   14  C   UNL     1      -6.509  13.138  69.719  1.00  0.00    -0.009 A  
HETATM   15  N   UNL     1      -6.323  14.374  70.235  1.00  0.00    -0.173 NA 
HETATM   16  C   UNL     1      -6.022  11.987  70.308  1.00  0.00    -0.143 A  
HETATM   17  O   UNL     1      -5.909   9.708  69.664  1.00  0.00    -0.033 OA 
HETATM   18  C   UNL     1      -5.631  14.366  71.406  1.00  0.00    -0.176 A  
HETATM   19  N   UNL     1      -5.313  11.966  71.455  1.00  0.00    -0.360 NA 
HETATM   20  C   UNL     1      -5.145  13.196  71.998  1.00  0.00    -0.098 A  
BRANCH  12  21
HETATM   21  C   UNL     1      -7.240  10.601  67.128  1.00  0.00    -0.097 A  
HETATM   22 CL   UNL     1      -8.298   8.338  63.406  1.00  0.00    -0.090 Cl 
HETATM   23  C   UNL     1      -8.553   8.891  66.035  1.00  0.00    -0.162 A  
HETATM   24  C   UNL     1      -6.937  10.165  64.862  1.00  0.00    -0.131 A  
HETATM   25  N   UNL     1      -6.612  10.877  65.968  1.00  0.00    -0.111 NA 
HETATM   26  C   UNL     1      -8.208   9.597  67.192  1.00  0.00    -0.120 A  
HETATM   27  C   UNL     1      -7.903   9.179  64.846  1.00  0.00    -0.117 A  
ENDBRANCH  12  21
ENDBRANCH  10  11
ENDBRANCH   7  10
TORSDOF 3
ENDMDL
MODEL      156
REMARK 921   NORMALIZED FREE ENERGY PREDICTED BY IDOCK:   -3.80 KCAL/MOL
REMARK 922        TOTAL FREE ENERGY PREDICTED BY IDOCK:   -5.07 KCAL/MOL
REMARK 923 INTER-LIGAND FREE ENERGY PREDICTED BY IDOCK:   -4.52 KCAL/MOL
REMARK 924 INTRA-LIGAND FREE ENERGY PREDICTED BY IDOCK:   -0.55 KCAL/MOL
REMARK 927      BINDING AFFINITY PREDICTED BY RF-SCORE:    0.00 PKD
ROOT
HETATM    1  C   UNL     1      -8.237   2.727  70.741  1.00  0.00    -0.049 C  
HETATM    2  N   UNL     1      -8.042   3.467  69.494  1.00  0.00    -0.052 NA 
HETATM    3  C   UNL     1      -9.330   3.704  68.805  1.00  0.00    -0.165 C  
HETATM    4  C   UNL     1     -10.218   4.772  69.469  1.00  0.00    -0.110 C  
HETATM    5  N   UNL     1      -9.475   6.013  69.679  1.00  0.00    -0.143 N  
HETATM    6  C   UNL     1      -8.207   5.856  70.390  1.00  0.00    -0.111 C  
HETATM    7  C   UNL     1      -9.919   7.162  69.060  1.00  0.00    -0.174 C  
HETATM    8  O   UNL     1     -10.899   7.172  68.325  1.00  0.00    -0.179 OA 
HETATM    9  C   UNL     1      -7.348   4.757  69.719  1.00  0.00    -0.055 C  
ENDROOT
BRANCH   7  10
HETATM   10  O   UNL     1      -9.204   8.275  69.363  1.00  0.00    -0.153 OA 
BRANCH  10  11
HETATM   11  C   UNL     1      -8.563   8.942  68.252  1.00  0.00    -0.134 C  
HETATM   12  N   UNL     1      -9.458   9.843  67.553  1.00  0.00    -0.150 N  
HETATM   13  C   UNL     1      -9.544   9.512  66.192  1.00  0.00    -0.239 C  
HETATM   14  C   UNL     1      -8.017   8.047  67.167  1.00  0.00    -0.113 A  
HETATM   15  N   UNL     1      -7.030   7.130  67.275  1.00  0.00    -0.076 NA 
HETATM   16  C   UNL     1      -8.614   8.386  65.968  1.00  0.00    -0.146 A  
HETATM   17  O   UNL     1     -10.165  10.046  65.291  1.00  0.00    -0.296 OA 
HETATM   18  C   UNL     1      -6.702   6.554  66.086  1.00  0.00    -0.049 A  
HETATM   19  N   UNL     1      -8.283   7.843  64.779  1.00  0.00    -0.137 NA 
HETATM   20  C   UNL     1      -7.314   6.900  64.876  1.00  0.00    -0.087 A  
BRANCH  12  21
HETATM   21  C   UNL     1     -10.112  10.931  68.157  1.00  0.00    -0.173 A  
HETATM   22 CL   UNL     1     -12.338  14.331  70.049  1.00  0.00    -0.398 Cl 
HETATM   23  C   UNL     1     -10.468  13.310  68.392  1.00  0.00    -0.261 A  
HETATM   24  C   UNL     1     -11.726  11.731  69.631  1.00  0.00    -0.344 A  
HETATM   25  N   UNL     1     -11.082  10.684  69.060  1.00  0.00    -0.235 NA 
HETATM   26  C   UNL     1      -9.774  12.242  67.816  1.00  0.00    -0.199 A  
HETATM   27  C   UNL     1     -11.463  13.050  69.321  1.00  0.00    -0.289 A  
ENDBRANCH  12  21
ENDBRANCH  10  11
ENDBRANCH   7  10
TORSDOF 3
ENDMDL
MODEL      157
REMARK 921   NORMALIZED FREE ENERGY PREDICTED BY IDOCK:   -3.79 KCAL/MOL
REMARK 922        TOTAL FREE ENERGY PREDICTED BY IDOCK:   -5.06 KCAL/MOL
REMARK 923 INTER-LIGAND FREE ENERGY PREDICTED BY IDOCK:   -4.13 KCAL/MOL
REMARK 924 INTRA-LIGAND FREE ENERGY PREDICTED BY IDOCK:   -0.93 KCAL/MOL
REMARK 927      BINDING AFFINITY PREDICTED BY RF-SCORE:    0.00 PKD
ROOT
HETATM    1  C   UNL     1     -12.667  10.419  71.362  1.00  0.00    -0.446 C  
HETATM    2  N   UNL     1     -11.436   9.701  71.694  1.00  0.00    -0.367 NA 
HETATM    3  C   UNL     1     -11.729   8.340  72.195  1.00  0.00    -0.365 C  
HETATM    4  C   UNL     1     -12.187   7.348  71.109  1.00  0.00    -0.324 C  
HETATM    5  N   UNL     1     -11.245   7.327  69.991  1.00  0.00    -0.243 N  
HETATM    6  C   UNL     1     -10.941   8.638  69.422  1.00  0.00    -0.019 C  
HETATM    7  C   UNL     1     -10.606   6.144  69.687  1.00  0.00    -0.284 C  
HETATM    8  O   UNL     1     -10.784   5.120  70.336  1.00  0.00    -0.214 OA 
HETATM    9  C   UNL     1     -10.513   9.622  70.537  1.00  0.00    -0.303 C  
ENDROOT
BRANCH   7  10
HETATM   10  O   UNL     1      -9.801   6.204  68.597  1.00  0.00    -0.131 OA 
BRANCH  10  11
HETATM   11  C   UNL     1      -9.191   4.960  68.186  1.00  0.00    -0.123 C  
HETATM   12  N   UNL     1      -7.786   4.887  68.538  1.00  0.00    -0.081 N  
HETATM   13  C   UNL     1      -6.994   4.657  67.403  1.00  0.00    -0.061 C  
HETATM   14  C   UNL     1      -9.217   4.664  66.707  1.00  0.00    -0.126 A  
HETATM   15  N   UNL     1     -10.303   4.468  65.925  1.00  0.00    -0.276 NA 
HETATM   16  C   UNL     1      -7.919   4.504  66.261  1.00  0.00    -0.103 A  
HETATM   17  O   UNL     1      -5.789   4.512  67.302  1.00  0.00    -0.021 OA 
HETATM   18  C   UNL     1      -9.987   4.123  64.647  1.00  0.00    -0.173 A  
HETATM   19  N   UNL     1      -7.591   4.138  65.005  1.00  0.00    -0.077 NA 
HETATM   20  C   UNL     1      -8.670   3.967  64.203  1.00  0.00    -0.111 A  
BRANCH  12  21
HETATM   21  C   UNL     1      -7.296   4.988  69.851  1.00  0.00    -0.059 A  
HETATM   22 CL   UNL     1      -5.591   5.351  73.982  1.00  0.00    -0.027 Cl 
HETATM   23  C   UNL     1      -6.954   4.047  72.052  1.00  0.00    -0.045 A  
HETATM   24  C   UNL     1      -6.134   6.191  71.470  1.00  0.00    -0.040 A  
HETATM   25  N   UNL     1      -6.622   6.099  70.209  1.00  0.00    -0.043 NA 
HETATM   26  C   UNL     1      -7.489   3.949  70.764  1.00  0.00    -0.041 A  
HETATM   27  C   UNL     1      -6.264   5.192  72.414  1.00  0.00    -0.031 A  
ENDBRANCH  12  21
ENDBRANCH  10  11
ENDBRANCH   7  10
TORSDOF 3
ENDMDL
MODEL      158
REMARK 921   NORMALIZED FREE ENERGY PREDICTED BY IDOCK:   -3.76 KCAL/MOL
REMARK 922        TOTAL FREE ENERGY PREDICTED BY IDOCK:   -5.03 KCAL/MOL
REMARK 923 INTER-LIGAND FREE ENERGY PREDICTED BY IDOCK:   -4.37 KCAL/MOL
REMARK 924 INTRA-LIGAND FREE ENERGY PREDICTED BY IDOCK:   -0.65 KCAL/MOL
REMARK 927      BINDING AFFINITY PREDICTED BY RF-SCORE:    0.00 PKD
ROOT
HETATM    1  C   UNL     1     -13.765  15.261  70.843  1.00  0.00    -0.293 C  
HETATM    2  N   UNL     1     -12.306  15.152  70.817  1.00  0.00    -0.330 NA 
HETATM    3  C   UNL     1     -11.858  13.843  71.344  1.00  0.00     0.251 C  
HETATM    4  C   UNL     1     -12.108  12.657  70.394  1.00  0.00    -0.300 C  
HETATM    5  N   UNL     1     -11.561  12.927  69.066  1.00  0.00    -0.303 N  
HETATM    6  C   UNL     1     -11.995  14.189  68.469  1.00  0.00    -0.332 C  
HETATM    7  C   UNL     1     -10.580  12.094  68.574  1.00  0.00    -0.233 C  
HETATM    8  O   UNL     1     -10.137  11.152  69.220  1.00  0.00    -0.159 OA 
HETATM    9  C   UNL     1     -11.760  15.358  69.455  1.00  0.00    -0.346 C  
ENDROOT
BRANCH   7  10
HETATM   10  O   UNL     1     -10.179  12.383  67.310  1.00  0.00    -0.214 OA 
BRANCH  10  11
HETATM   11  C   UNL     1      -8.788  12.741  67.150  1.00  0.00    -0.202 C  
HETATM   12  N   UNL     1      -7.899  11.607  67.314  1.00  0.00    -0.149 N  
HETATM   13  C   UNL     1      -6.957  11.847  68.325  1.00  0.00    -0.077 C  
HETATM   14  C   UNL     1      -8.252  13.771  68.114  1.00  0.00    -0.160 A  
HETATM   15  N   UNL     1      -8.640  15.061  68.240  1.00  0.00    -0.151 NA 
HETATM   16  C   UNL     1      -7.188  13.225  68.805  1.00  0.00    -0.088 A  
HETATM   17  O   UNL     1      -6.043  11.150  68.729  1.00  0.00    -0.043 OA 
HETATM   18  C   UNL     1      -7.891  15.758  69.138  1.00  0.00    -0.227 A  
HETATM   19  N   UNL     1      -6.422  13.910  69.678  1.00  0.00    -0.122 NA 
HETATM   20  C   UNL     1      -6.817  15.196  69.836  1.00  0.00    -0.154 A  
BRANCH  12  21
HETATM   21  C   UNL     1      -7.953  10.443  66.527  1.00  0.00    -0.123 A  
HETATM   22 CL   UNL     1      -8.226   6.807  63.919  1.00  0.00     0.007 Cl 
HETATM   23  C   UNL     1      -8.287   8.059  66.309  1.00  0.00    -0.121 A  
HETATM   24  C   UNL     1      -7.855   9.436  64.431  1.00  0.00    -0.123 A  
HETATM   25  N   UNL     1      -7.787  10.554  65.194  1.00  0.00    -0.118 NA 
HETATM   26  C   UNL     1      -8.191   9.199  67.113  1.00  0.00    -0.113 A  
HETATM   27  C   UNL     1      -8.114   8.179  64.940  1.00  0.00    -0.153 A  
ENDBRANCH  12  21
ENDBRANCH  10  11
ENDBRANCH   7  10
TORSDOF 3
ENDMDL
MODEL      159
REMARK 921   NORMALIZED FREE ENERGY PREDICTED BY IDOCK:   -3.71 KCAL/MOL
REMARK 922        TOTAL FREE ENERGY PREDICTED BY IDOCK:   -4.97 KCAL/MOL
REMARK 923 INTER-LIGAND FREE ENERGY PREDICTED BY IDOCK:   -4.13 KCAL/MOL
REMARK 924 INTRA-LIGAND FREE ENERGY PREDICTED BY IDOCK:   -0.84 KCAL/MOL
REMARK 927      BINDING AFFINITY PREDICTED BY RF-SCORE:    0.00 PKD
ROOT
HETATM    1  C   UNL     1     -13.309  15.411  70.674  1.00  0.00    -0.238 C  
HETATM    2  N   UNL     1     -12.111  14.612  70.934  1.00  0.00    -0.307 NA 
HETATM    3  C   UNL     1     -12.421  13.444  71.788  1.00  0.00    -0.023 C  
HETATM    4  C   UNL     1     -13.191  12.320  71.071  1.00  0.00     0.239 C  
HETATM    5  N   UNL     1     -12.514  11.929  69.836  1.00  0.00    -0.054 N  
HETATM    6  C   UNL     1     -12.211  13.033  68.926  1.00  0.00    -0.035 C  
HETATM    7  C   UNL     1     -12.071  10.629  69.709  1.00  0.00    -0.272 C  
HETATM    8  O   UNL     1     -12.205   9.802  70.602  1.00  0.00    -0.269 OA 
HETATM    9  C   UNL     1     -11.465  14.160  69.680  1.00  0.00    -0.273 C  
ENDROOT
BRANCH   7  10
HETATM   10  O   UNL     1     -11.512  10.342  68.506  1.00  0.00    -0.248 OA 
BRANCH  10  11
HETATM   11  C   UNL     1     -10.136   9.902  68.532  1.00  0.00    -0.168 C  
HETATM   12  N   UNL     1      -9.306  10.610  67.577  1.00  0.00    -0.146 N  
HETATM   13  C   UNL     1      -8.678   9.717  66.695  1.00  0.00    -0.131 C  
HETATM   14  C   UNL     1      -9.899   8.445  68.217  1.00  0.00    -0.169 A  
HETATM   15  N   UNL     1     -10.327   7.371  68.918  1.00  0.00    -0.203 NA 
HETATM   16  C   UNL     1      -9.053   8.355  67.128  1.00  0.00    -0.138 A  
HETATM   17  O   UNL     1      -7.896   9.930  65.786  1.00  0.00    -0.113 OA 
HETATM   18  C   UNL     1      -9.862   6.191  68.425  1.00  0.00    -0.126 A  
HETATM   19  N   UNL     1      -8.564   7.196  66.644  1.00  0.00    -0.119 NA 
HETATM   20  C   UNL     1      -9.009   6.108  67.319  1.00  0.00    -0.112 A  
BRANCH  12  21
HETATM   21  C   UNL     1      -9.126  12.004  67.571  1.00  0.00    -0.177 A  
HETATM   22 CL   UNL     1      -8.606  16.455  67.701  1.00  0.00    -0.177 Cl 
HETATM   23  C   UNL     1      -9.453  14.168  66.545  1.00  0.00    -0.303 A  
HETATM   24  C   UNL     1      -8.338  13.926  68.620  1.00  0.00    -0.088 A  
HETATM   25  N   UNL     1      -8.499  12.581  68.616  1.00  0.00    -0.040 NA 
HETATM   26  C   UNL     1      -9.600  12.778  66.511  1.00  0.00    -0.257 A  
HETATM   27  C   UNL     1      -8.806  14.755  67.620  1.00  0.00    -0.179 A  
ENDBRANCH  12  21
ENDBRANCH  10  11
ENDBRANCH   7  10
TORSDOF 3
ENDMDL
MODEL      160
REMARK 921   NORMALIZED FREE ENERGY PREDICTED BY IDOCK:   -3.69 KCAL/MOL
REMARK 922        TOTAL FREE ENERGY PREDICTED BY IDOCK:   -4.94 KCAL/MOL
REMARK 923 INTER-LIGAND FREE ENERGY PREDICTED BY IDOCK:   -4.44 KCAL/MOL
REMARK 924 INTRA-LIGAND FREE ENERGY PREDICTED BY IDOCK:   -0.50 KCAL/MOL
REMARK 927      BINDING AFFINITY PREDICTED BY RF-SCORE:    0.00 PKD
ROOT
HETATM    1  C   UNL     1      -5.799  14.444  67.719  1.00  0.00    -0.079 C  
HETATM    2  N   UNL     1      -5.135  13.141  67.765  1.00  0.00    -0.182 NA 
HETATM    3  C   UNL     1      -5.210  12.549  69.119  1.00  0.00    -0.068 C  
HETATM    4  C   UNL     1      -6.603  12.015  69.502  1.00  0.00    -0.079 C  
HETATM    5  N   UNL     1      -7.112  11.104  68.479  1.00  0.00    -0.074 N  
HETATM    6  C   UNL     1      -7.103  11.642  67.119  1.00  0.00    -0.143 C  
HETATM    7  C   UNL     1      -7.385   9.799  68.831  1.00  0.00    -0.073 C  
HETATM    8  O   UNL     1      -7.192   9.374  69.964  1.00  0.00    -0.068 OA 
HETATM    9  C   UNL     1      -5.701  12.197  66.772  1.00  0.00     0.118 C  
ENDROOT
BRANCH   7  10
HETATM   10  O   UNL     1      -7.913   9.046  67.834  1.00  0.00    -0.101 OA 
BRANCH  10  11
HETATM   11  C   UNL     1      -9.233   8.508  68.072  1.00  0.00    -0.136 C  
HETATM   12  N   UNL     1     -10.191   9.531  68.445  1.00  0.00    -0.186 N  
HETATM   13  C   UNL     1     -10.784   9.239  69.683  1.00  0.00    -0.230 C  
HETATM   14  C   UNL     1      -9.343   7.481  69.173  1.00  0.00    -0.147 A  
HETATM   15  N   UNL     1      -8.763   6.261  69.221  1.00  0.00    -0.123 NA 
HETATM   16  C   UNL     1     -10.246   7.933  70.116  1.00  0.00    -0.202 A  
HETATM   17  O   UNL     1     -11.642   9.840  70.304  1.00  0.00    -0.251 OA 
HETATM   18  C   UNL     1      -9.139   5.533  70.307  1.00  0.00    -0.138 A  
HETATM   19  N   UNL     1     -10.647   7.214  71.183  1.00  0.00    -0.222 NA 
HETATM   20  C   UNL     1     -10.051   5.999  71.260  1.00  0.00    -0.192 A  
BRANCH  12  21
HETATM   21  C   UNL     1     -10.510  10.641  67.644  1.00  0.00    -0.227 A  
HETATM   22 CL   UNL     1     -11.655  14.210  65.183  1.00  0.00    -0.330 Cl 
HETATM   23  C   UNL     1     -10.948  11.622  65.478  1.00  0.00    -0.327 A  
HETATM   24  C   UNL     1     -11.086  12.890  67.474  1.00  0.00    -0.269 A  
HETATM   25  N   UNL     1     -10.761  11.822  68.243  1.00  0.00    -0.204 NA 
HETATM   26  C   UNL     1     -10.583  10.518  66.255  1.00  0.00    -0.203 A  
HETATM   27  C   UNL     1     -11.202  12.833  66.099  1.00  0.00    -0.298 A  
ENDBRANCH  12  21
ENDBRANCH  10  11
ENDBRANCH   7  10
TORSDOF 3
ENDMDL
MODEL      161
REMARK 921   NORMALIZED FREE ENERGY PREDICTED BY IDOCK:   -3.64 KCAL/MOL
REMARK 922        TOTAL FREE ENERGY PREDICTED BY IDOCK:   -4.88 KCAL/MOL
REMARK 923 INTER-LIGAND FREE ENERGY PREDICTED BY IDOCK:   -5.10 KCAL/MOL
REMARK 924 INTRA-LIGAND FREE ENERGY PREDICTED BY IDOCK:    0.22 KCAL/MOL
REMARK 927      BINDING AFFINITY PREDICTED BY RF-SCORE:    0.00 PKD
ROOT
HETATM    1  C   UNL     1      -7.511   7.000  63.112  1.00  0.00    -0.095 C  
HETATM    2  N   UNL     1      -6.955   8.353  63.153  1.00  0.00    -0.089 NA 
HETATM    3  C   UNL     1      -7.986   9.366  62.838  1.00  0.00    -0.135 C  
HETATM    4  C   UNL     1      -9.013   9.597  63.962  1.00  0.00    -0.223 C  
HETATM    5  N   UNL     1      -8.344   9.877  65.231  1.00  0.00    -0.141 N  
HETATM    6  C   UNL     1      -7.337   8.892  65.623  1.00  0.00    -0.085 C  
HETATM    7  C   UNL     1      -8.576  11.088  65.847  1.00  0.00    -0.165 C  
HETATM    8  O   UNL     1      -9.303  11.943  65.356  1.00  0.00    -0.164 OA 
HETATM    9  C   UNL     1      -6.337   8.657  64.466  1.00  0.00    -0.066 C  
ENDROOT
BRANCH   7  10
HETATM   10  O   UNL     1      -7.963  11.233  67.049  1.00  0.00    -0.136 OA 
BRANCH  10  11
HETATM   11  C   UNL     1      -8.603  12.127  67.987  1.00  0.00    -0.175 C  
HETATM   12  N   UNL     1      -9.931  11.681  68.363  1.00  0.00    -0.197 N  
HETATM   13  C   UNL     1     -10.891  12.666  68.085  1.00  0.00    -0.227 C  
HETATM   14  C   UNL     1      -8.810  13.546  67.516  1.00  0.00    -0.209 A  
HETATM   15  N   UNL     1      -7.861  14.453  67.194  1.00  0.00    -0.152 NA 
HETATM   16  C   UNL     1     -10.159  13.840  67.566  1.00  0.00    -0.241 A  
HETATM   17  O   UNL     1     -12.093  12.670  68.282  1.00  0.00    -0.279 OA 
HETATM   18  C   UNL     1      -8.371  15.679  66.899  1.00  0.00    -0.252 A  
HETATM   19  N   UNL     1     -10.677  15.057  67.301  1.00  0.00    -0.291 NA 
HETATM   20  C   UNL     1      -9.739  15.969  66.949  1.00  0.00    -0.235 A  
BRANCH  12  21
HETATM   21  C   UNL     1     -10.205  10.442  68.968  1.00  0.00    -0.217 A  
HETATM   22 CL   UNL     1     -11.199   6.471  70.796  1.00  0.00    -0.352 Cl 
HETATM   23  C   UNL     1     -10.628   9.105  70.937  1.00  0.00    -0.341 A  
HETATM   24  C   UNL     1     -10.660   8.169  68.762  1.00  0.00    -0.121 A  
HETATM   25  N   UNL     1     -10.380   9.361  68.182  1.00  0.00    -0.201 NA 
HETATM   26  C   UNL     1     -10.309  10.337  70.356  1.00  0.00    -0.069 A  
HETATM   27  C   UNL     1     -10.805   7.998  70.124  1.00  0.00    -0.242 A  
ENDBRANCH  12  21
ENDBRANCH  10  11
ENDBRANCH   7  10
TORSDOF 3
ENDMDL
MODEL      162
REMARK 921   NORMALIZED FREE ENERGY PREDICTED BY IDOCK:   -3.64 KCAL/MOL
REMARK 922        TOTAL FREE ENERGY PREDICTED BY IDOCK:   -4.88 KCAL/MOL
REMARK 923 INTER-LIGAND FREE ENERGY PREDICTED BY IDOCK:   -4.93 KCAL/MOL
REMARK 924 INTRA-LIGAND FREE ENERGY PREDICTED BY IDOCK:    0.05 KCAL/MOL
REMARK 927      BINDING AFFINITY PREDICTED BY RF-SCORE:    0.00 PKD
ROOT
HETATM    1  C   UNL     1      -9.862  18.621  66.020  1.00  0.00    -0.184 C  
HETATM    2  N   UNL     1      -9.058  18.225  67.176  1.00  0.00    -0.260 NA 
HETATM    3  C   UNL     1      -9.915  17.755  68.288  1.00  0.00    -0.355 C  
HETATM    4  C   UNL     1     -10.539  16.366  68.064  1.00  0.00    -0.314 C  
HETATM    5  N   UNL     1      -9.516  15.384  67.711  1.00  0.00    -0.204 N  
HETATM    6  C   UNL     1      -8.657  15.769  66.592  1.00  0.00    -0.287 C  
HETATM    7  C   UNL     1      -9.331  14.296  68.537  1.00  0.00    -0.200 C  
HETATM    8  O   UNL     1      -9.977  14.138  69.565  1.00  0.00     0.148 OA 
HETATM    9  C   UNL     1      -8.067  17.180  66.830  1.00  0.00    -0.243 C  
ENDROOT
BRANCH   7  10
HETATM   10  O   UNL     1      -8.405  13.407  68.096  1.00  0.00    -0.149 OA 
BRANCH  10  11
HETATM   11  C   UNL     1      -8.876  12.061  67.860  1.00  0.00    -0.174 C  
HETATM   12  N   UNL     1     -10.299  12.010  67.589  1.00  0.00    -0.196 N  
HETATM   13  C   UNL     1     -10.955  11.163  68.496  1.00  0.00    -0.220 C  
HETATM   14  C   UNL     1      -8.680  11.081  68.991  1.00  0.00    -0.064 A  
HETATM   15  N   UNL     1      -7.510  10.653  69.516  1.00  0.00    -0.141 NA 
HETATM   16  C   UNL     1      -9.911  10.575  69.361  1.00  0.00    -0.196 A  
HETATM   17  O   UNL     1     -12.129  10.849  68.570  1.00  0.00    -0.545 OA 
HETATM   18  C   UNL     1      -7.670   9.690  70.464  1.00  0.00    -0.128 A  
HETATM   19  N   UNL     1     -10.084   9.604  70.280  1.00  0.00    -0.260 NA 
HETATM   20  C   UNL     1      -8.921   9.185  70.836  1.00  0.00    -0.237 A  
BRANCH  12  21
HETATM   21  C   UNL     1     -10.925  12.687  66.527  1.00  0.00    -0.269 A  
HETATM   22 CL   UNL     1     -12.783  14.921  63.113  1.00  0.00     1.574 Cl 
HETATM   23  C   UNL     1     -12.744  14.020  65.657  1.00  0.00    -0.515 A  
HETATM   24  C   UNL     1     -10.896  13.399  64.312  1.00  0.00    -0.363 A  
HETATM   25  N   UNL     1     -10.303  12.733  65.332  1.00  0.00    -0.290 NA 
HETATM   26  C   UNL     1     -12.159  13.312  66.712  1.00  0.00    -0.403 A  
HETATM   27  C   UNL     1     -12.101  14.063  64.431  1.00  0.00    -0.458 A  
ENDBRANCH  12  21
ENDBRANCH  10  11
ENDBRANCH   7  10
TORSDOF 3
ENDMDL
MODEL      163
REMARK 921   NORMALIZED FREE ENERGY PREDICTED BY IDOCK:   -3.64 KCAL/MOL
REMARK 922        TOTAL FREE ENERGY PREDICTED BY IDOCK:   -4.88 KCAL/MOL
REMARK 923 INTER-LIGAND FREE ENERGY PREDICTED BY IDOCK:   -4.90 KCAL/MOL
REMARK 924 INTRA-LIGAND FREE ENERGY PREDICTED BY IDOCK:    0.02 KCAL/MOL
REMARK 927      BINDING AFFINITY PREDICTED BY RF-SCORE:    0.00 PKD
ROOT
HETATM    1  C   UNL     1     -11.387  15.192  64.483  1.00  0.00    -0.290 C  
HETATM    2  N   UNL     1     -11.973  14.841  65.776  1.00  0.00    -0.224 NA 
HETATM    3  C   UNL     1     -12.669  13.537  65.713  1.00  0.00    -0.374 C  
HETATM    4  C   UNL     1     -11.728  12.319  65.645  1.00  0.00    -0.382 C  
HETATM    5  N   UNL     1     -10.742  12.359  66.723  1.00  0.00    -0.230 N  
HETATM    6  C   UNL     1      -9.989  13.609  66.818  1.00  0.00    -0.270 C  
HETATM    7  C   UNL     1     -10.721  11.329  67.639  1.00  0.00    -0.226 C  
HETATM    8  O   UNL     1     -11.515  10.397  67.593  1.00  0.00    -0.401 OA 
HETATM    9  C   UNL     1     -10.957  14.816  66.855  1.00  0.00    -0.328 C  
ENDROOT
BRANCH   7  10
HETATM   10  O   UNL     1      -9.732  11.420  68.564  1.00  0.00    -0.190 OA 
BRANCH  10  11
HETATM   11  C   UNL     1      -8.543  10.643  68.302  1.00  0.00    -0.128 C  
HETATM   12  N   UNL     1      -7.442  11.456  67.823  1.00  0.00    -0.095 N  
HETATM   13  C   UNL     1      -6.978  10.994  66.581  1.00  0.00    -0.140 C  
HETATM   14  C   UNL     1      -8.675   9.553  67.266  1.00  0.00    -0.128 A  
HETATM   15  N   UNL     1      -9.463   8.456  67.323  1.00  0.00    -0.148 NA 
HETATM   16  C   UNL     1      -7.760   9.783  66.257  1.00  0.00    -0.103 A  
HETATM   17  O   UNL     1      -6.063  11.396  65.885  1.00  0.00    -0.028 OA 
HETATM   18  C   UNL     1      -9.281   7.613  66.270  1.00  0.00    -0.154 A  
HETATM   19  N   UNL     1      -7.551   8.946  65.221  1.00  0.00    -0.096 NA 
HETATM   20  C   UNL     1      -8.355   7.855  65.249  1.00  0.00    -0.133 A  
BRANCH  12  21
HETATM   21  C   UNL     1      -6.888  12.533  68.536  1.00  0.00    -0.083 A  
HETATM   22 CL   UNL     1      -5.222  15.938  70.929  1.00  0.00    -0.166 Cl 
HETATM   23  C   UNL     1      -6.237  14.857  68.674  1.00  0.00    -0.086 A  
HETATM   24  C   UNL     1      -5.992  13.380  70.509  1.00  0.00    -0.121 A  
HETATM   25  N   UNL     1      -6.510  12.338  69.815  1.00  0.00    -0.086 NA 
HETATM   26  C   UNL     1      -6.747  13.785  67.935  1.00  0.00    -0.162 A  
HETATM   27  C   UNL     1      -5.849  14.651  69.988  1.00  0.00    -0.131 A  
ENDBRANCH  12  21
ENDBRANCH  10  11
ENDBRANCH   7  10
TORSDOF 3
ENDMDL
MODEL      164
REMARK 921   NORMALIZED FREE ENERGY PREDICTED BY IDOCK:   -3.62 KCAL/MOL
REMARK 922        TOTAL FREE ENERGY PREDICTED BY IDOCK:   -4.86 KCAL/MOL
REMARK 923 INTER-LIGAND FREE ENERGY PREDICTED BY IDOCK:   -4.75 KCAL/MOL
REMARK 924 INTRA-LIGAND FREE ENERGY PREDICTED BY IDOCK:   -0.11 KCAL/MOL
REMARK 927      BINDING AFFINITY PREDICTED BY RF-SCORE:    0.00 PKD
ROOT
HETATM    1  C   UNL     1      -6.120   5.340  68.712  1.00  0.00    -0.026 C  
HETATM    2  N   UNL     1      -5.424   6.533  68.229  1.00  0.00    -0.011 NA 
HETATM    3  C   UNL     1      -5.986   6.997  66.941  1.00  0.00    -0.030 C  
HETATM    4  C   UNL     1      -7.365   7.672  67.057  1.00  0.00    -0.090 C  
HETATM    5  N   UNL     1      -7.343   8.737  68.058  1.00  0.00    -0.087 N  
HETATM    6  C   UNL     1      -6.833   8.336  69.368  1.00  0.00    -0.043 C  
HETATM    7  C   UNL     1      -7.623  10.026  67.658  1.00  0.00    -0.091 C  
HETATM    8  O   UNL     1      -7.867  10.310  66.491  1.00  0.00    -0.109 OA 
HETATM    9  C   UNL     1      -5.461   7.635  69.219  1.00  0.00    -0.019 C  
ENDROOT
BRANCH   7  10
HETATM   10  O   UNL     1      -7.641  10.936  68.665  1.00  0.00    -0.098 OA 
BRANCH  10  11
HETATM   11  C   UNL     1      -8.833  11.745  68.770  1.00  0.00     0.024 C  
HETATM   12  N   UNL     1     -10.047  10.976  68.577  1.00  0.00    -0.183 N  
HETATM   13  C   UNL     1     -10.817  11.504  67.530  1.00  0.00    -0.237 C  
HETATM   14  C   UNL     1      -8.955  12.881  67.783  1.00  0.00    -0.191 A  
HETATM   15  N   UNL     1      -8.149  13.960  67.667  1.00  0.00    -0.163 NA 
HETATM   16  C   UNL     1     -10.116  12.715  67.054  1.00  0.00    -0.224 A  
HETATM   17  O   UNL     1     -11.898  11.152  67.094  1.00  0.00    -0.466 OA 
HETATM   18  C   UNL     1      -8.585  14.855  66.739  1.00  0.00    -0.222 A  
HETATM   19  N   UNL     1     -10.574  13.605  66.150  1.00  0.00    -0.287 NA 
HETATM   20  C   UNL     1      -9.761  14.679  66.002  1.00  0.00    -0.312 A  
BRANCH  12  21
HETATM   21  C   UNL     1     -10.417   9.876  69.370  1.00  0.00    -0.231 A  
HETATM   22 CL   UNL     1     -11.497   6.416  72.008  1.00  0.00    -0.332 Cl 
HETATM   23  C   UNL     1     -10.770   7.500  69.646  1.00  0.00    -0.236 A  
HETATM   24  C   UNL     1     -11.073   9.024  71.434  1.00  0.00    -0.329 A  
HETATM   25  N   UNL     1     -10.732  10.085  70.664  1.00  0.00    -0.297 NA 
HETATM   26  C   UNL     1     -10.444   8.589  68.830  1.00  0.00    -0.207 A  
HETATM   27  C   UNL     1     -11.093   7.722  70.975  1.00  0.00    -0.257 A  
ENDBRANCH  12  21
ENDBRANCH  10  11
ENDBRANCH   7  10
TORSDOF 3
ENDMDL
MODEL      165
REMARK 921   NORMALIZED FREE ENERGY PREDICTED BY IDOCK:   -3.61 KCAL/MOL
REMARK 922        TOTAL FREE ENERGY PREDICTED BY IDOCK:   -4.84 KCAL/MOL
REMARK 923 INTER-LIGAND FREE ENERGY PREDICTED BY IDOCK:   -6.04 KCAL/MOL
REMARK 924 INTRA-LIGAND FREE ENERGY PREDICTED BY IDOCK:    1.20 KCAL/MOL
REMARK 927      BINDING AFFINITY PREDICTED BY RF-SCORE:    0.00 PKD
ROOT
HETATM    1  C   UNL     1      -7.627  20.455  66.079  1.00  0.00    -0.106 C  
HETATM    2  N   UNL     1      -8.462  20.462  67.281  1.00  0.00    -0.347 NA 
HETATM    3  C   UNL     1      -9.819  19.948  66.993  1.00  0.00    -0.411 C  
HETATM    4  C   UNL     1      -9.888  18.424  66.779  1.00  0.00    -0.342 C  
HETATM    5  N   UNL     1      -9.258  17.712  67.889  1.00  0.00    -0.262 N  
HETATM    6  C   UNL     1      -7.897  18.145  68.202  1.00  0.00    -0.280 C  
HETATM    7  C   UNL     1     -10.025  16.846  68.639  1.00  0.00    -0.279 C  
HETATM    8  O   UNL     1     -11.218  16.673  68.420  1.00  0.00    -0.357 OA 
HETATM    9  C   UNL     1      -7.852  19.681  68.383  1.00  0.00    -0.327 C  
ENDROOT
BRANCH   7  10
HETATM   10  O   UNL     1      -9.342  16.183  69.605  1.00  0.00    -0.168 OA 
BRANCH  10  11
HETATM   11  C   UNL     1      -9.999  15.027  70.171  1.00  0.00     0.146 C  
HETATM   12  N   UNL     1     -10.212  13.975  69.196  1.00  0.00    -0.087 N  
HETATM   13  C   UNL     1     -11.571  13.636  69.108  1.00  0.00    -0.309 C  
HETATM   14  C   UNL     1     -11.367  15.264  70.763  1.00  0.00    -0.331 A  
HETATM   15  N   UNL     1     -11.683  16.046  71.819  1.00  0.00    -0.487 NA 
HETATM   16  C   UNL     1     -12.279  14.451  70.118  1.00  0.00    -0.341 A  
HETATM   17  O   UNL     1     -12.128  12.793  68.430  1.00  0.00    -0.276 OA 
HETATM   18  C   UNL     1     -12.996  15.971  72.167  1.00  0.00    -0.300 A  
HETATM   19  N   UNL     1     -13.577  14.347  70.466  1.00  0.00     0.139 NA 
HETATM   20  C   UNL     1     -13.914  15.148  71.506  1.00  0.00    -0.522 A  
BRANCH  12  21
HETATM   21  C   UNL     1      -9.181  13.351  68.472  1.00  0.00    -0.082 A  
HETATM   22 CL   UNL     1      -5.875  11.493  66.081  1.00  0.00     0.003 Cl 
HETATM   23  C   UNL     1      -8.354  11.505  67.148  1.00  0.00    -0.160 A  
HETATM   24  C   UNL     1      -7.019  13.406  67.612  1.00  0.00    -0.162 A  
HETATM   25  N   UNL     1      -8.008  13.999  68.324  1.00  0.00    -0.137 NA 
HETATM   26  C   UNL     1      -9.374  12.090  67.904  1.00  0.00    -0.190 A  
HETATM   27  C   UNL     1      -7.150  12.175  67.001  1.00  0.00    -0.064 A  
ENDBRANCH  12  21
ENDBRANCH  10  11
ENDBRANCH   7  10
TORSDOF 3
ENDMDL
MODEL      166
REMARK 921   NORMALIZED FREE ENERGY PREDICTED BY IDOCK:   -3.59 KCAL/MOL
REMARK 922        TOTAL FREE ENERGY PREDICTED BY IDOCK:   -4.82 KCAL/MOL
REMARK 923 INTER-LIGAND FREE ENERGY PREDICTED BY IDOCK:   -4.30 KCAL/MOL
REMARK 924 INTRA-LIGAND FREE ENERGY PREDICTED BY IDOCK:   -0.52 KCAL/MOL
REMARK 927      BINDING AFFINITY PREDICTED BY RF-SCORE:    0.00 PKD
ROOT
HETATM    1  C   UNL     1     -11.688  14.788  65.687  1.00  0.00    -0.257 C  
HETATM    2  N   UNL     1     -12.302  13.679  66.418  1.00  0.00    -0.415 NA 
HETATM    3  C   UNL     1     -12.000  12.381  65.775  1.00  0.00    -0.372 C  
HETATM    4  C   UNL     1     -10.551  11.897  65.970  1.00  0.00    -0.265 C  
HETATM    5  N   UNL     1     -10.184  11.904  67.385  1.00  0.00    -0.195 N  
HETATM    6  C   UNL     1     -10.421  13.172  68.074  1.00  0.00    -0.239 C  
HETATM    7  C   UNL     1      -9.826  10.713  67.980  1.00  0.00    -0.160 C  
HETATM    8  O   UNL     1      -9.827   9.651  67.371  1.00  0.00    -0.157 OA 
HETATM    9  C   UNL     1     -11.874  13.648  67.837  1.00  0.00    -0.366 C  
ENDROOT
BRANCH   7  10
HETATM   10  O   UNL     1      -9.441  10.827  69.277  1.00  0.00    -0.176 OA 
BRANCH  10  11
HETATM   11  C   UNL     1      -8.137  10.295  69.603  1.00  0.00    -0.145 C  
HETATM   12  N   UNL     1      -7.079  10.890  68.809  1.00  0.00    -0.076 N  
HETATM   13  C   UNL     1      -6.358   9.908  68.113  1.00  0.00    -0.055 C  
HETATM   14  C   UNL     1      -7.957   8.810  69.404  1.00  0.00    -0.100 A  
HETATM   15  N   UNL     1      -8.601   7.810  70.046  1.00  0.00    -0.138 NA 
HETATM   16  C   UNL     1      -6.919   8.602  68.516  1.00  0.00    -0.065 A  
HETATM   17  O   UNL     1      -5.396  10.015  67.375  1.00  0.00    -0.041 OA 
HETATM   18  C   UNL     1      -8.141   6.574  69.708  1.00  0.00    -0.125 A  
HETATM   19  N   UNL     1      -6.436   7.386  68.191  1.00  0.00    -0.044 NA 
HETATM   20  C   UNL     1      -7.092   6.371  68.805  1.00  0.00    -0.082 A  
BRANCH  12  21
HETATM   21  C   UNL     1      -6.792  12.266  68.782  1.00  0.00    -0.092 A  
HETATM   22 CL   UNL     1      -5.800  16.632  68.560  1.00  0.00    -0.123 Cl 
HETATM   23  C   UNL     1      -5.913  14.257  69.835  1.00  0.00    -0.132 A  
HETATM   24  C   UNL     1      -6.758  14.284  67.623  1.00  0.00    -0.169 A  
HETATM   25  N   UNL     1      -7.050  12.961  67.656  1.00  0.00    -0.137 NA 
HETATM   26  C   UNL     1      -6.235  12.897  69.896  1.00  0.00    -0.086 A  
HETATM   27  C   UNL     1      -6.182  14.966  68.676  1.00  0.00    -0.086 A  
ENDBRANCH  12  21
ENDBRANCH  10  11
ENDBRANCH   7  10
TORSDOF 3
ENDMDL
MODEL      167
REMARK 921   NORMALIZED FREE ENERGY PREDICTED BY IDOCK:   -3.58 KCAL/MOL
REMARK 922        TOTAL FREE ENERGY PREDICTED BY IDOCK:   -4.81 KCAL/MOL
REMARK 923 INTER-LIGAND FREE ENERGY PREDICTED BY IDOCK:   -4.04 KCAL/MOL
REMARK 924 INTRA-LIGAND FREE ENERGY PREDICTED BY IDOCK:   -0.77 KCAL/MOL
REMARK 927      BINDING AFFINITY PREDICTED BY RF-SCORE:    0.00 PKD
ROOT
HETATM    1  C   UNL     1     -12.832   9.890  71.754  1.00  0.00    -0.442 C  
HETATM    2  N   UNL     1     -11.659   9.108  72.143  1.00  0.00    -0.296 NA 
HETATM    3  C   UNL     1     -11.999   7.677  72.306  1.00  0.00    -0.285 C  
HETATM    4  C   UNL     1     -12.241   6.927  70.983  1.00  0.00    -0.377 C  
HETATM    5  N   UNL     1     -11.123   7.120  70.061  1.00  0.00    -0.267 N  
HETATM    6  C   UNL     1     -10.759   8.515  69.824  1.00  0.00    -0.213 C  
HETATM    7  C   UNL     1     -10.413   6.015  69.643  1.00  0.00    -0.261 C  
HETATM    8  O   UNL     1     -10.673   4.884  70.035  1.00  0.00    -0.070 OA 
HETATM    9  C   UNL     1     -10.551   9.252  71.169  1.00  0.00    -0.332 C  
ENDROOT
BRANCH   7  10
HETATM   10  O   UNL     1      -9.436   6.283  68.740  1.00  0.00    -0.123 OA 
BRANCH  10  11
HETATM   11  C   UNL     1      -8.094   5.910  69.124  1.00  0.00    -0.106 C  
HETATM   12  N   UNL     1      -7.815   4.509  68.878  1.00  0.00    -0.070 N  
HETATM   13  C   UNL     1      -7.412   3.861  70.056  1.00  0.00    -0.045 C  
HETATM   14  C   UNL     1      -7.741   6.107  70.578  1.00  0.00    -0.101 A  
HETATM   15  N   UNL     1      -7.686   7.273  71.262  1.00  0.00    -0.087 NA 
HETATM   16  C   UNL     1      -7.357   4.892  71.113  1.00  0.00    -0.068 A  
HETATM   17  O   UNL     1      -7.072   2.706  70.241  1.00  0.00    -0.033 OA 
HETATM   18  C   UNL     1      -7.239   7.123  72.538  1.00  0.00    -0.072 A  
HETATM   19  N   UNL     1      -6.888   4.733  72.367  1.00  0.00    -0.055 NA 
HETATM   20  C   UNL     1      -6.855   5.889  73.073  1.00  0.00    -0.075 A  
BRANCH  12  21
HETATM   21  C   UNL     1      -7.894   3.899  67.614  1.00  0.00    -0.082 A  
HETATM   22 CL   UNL     1      -8.086   2.086  63.519  1.00  0.00    -0.071 Cl 
HETATM   23  C   UNL     1      -9.154   2.737  65.910  1.00  0.00    -0.121 A  
HETATM   24  C   UNL     1      -6.889   3.348  65.589  1.00  0.00    -0.049 A  
HETATM   25  N   UNL     1      -6.809   3.921  66.815  1.00  0.00    -0.056 NA 
HETATM   26  C   UNL     1      -9.080   3.297  67.189  1.00  0.00    -0.200 A  
HETATM   27  C   UNL     1      -8.036   2.760  65.093  1.00  0.00    -0.082 A  
ENDBRANCH  12  21
ENDBRANCH  10  11
ENDBRANCH   7  10
TORSDOF 3
ENDMDL
MODEL      168
REMARK 921   NORMALIZED FREE ENERGY PREDICTED BY IDOCK:   -3.58 KCAL/MOL
REMARK 922        TOTAL FREE ENERGY PREDICTED BY IDOCK:   -4.81 KCAL/MOL
REMARK 923 INTER-LIGAND FREE ENERGY PREDICTED BY IDOCK:   -4.65 KCAL/MOL
REMARK 924 INTRA-LIGAND FREE ENERGY PREDICTED BY IDOCK:   -0.16 KCAL/MOL
REMARK 927      BINDING AFFINITY PREDICTED BY RF-SCORE:    0.00 PKD
ROOT
HETATM    1  C   UNL     1     -12.024  13.171  70.189  1.00  0.00    -0.310 C  
HETATM    2  N   UNL     1     -11.840  12.886  68.766  1.00  0.00    -0.319 NA 
HETATM    3  C   UNL     1     -10.571  13.460  68.264  1.00  0.00    -0.254 C  
HETATM    4  C   UNL     1      -9.309  12.709  68.726  1.00  0.00     0.142 C  
HETATM    5  N   UNL     1      -9.415  11.281  68.434  1.00  0.00    -0.186 N  
HETATM    6  C   UNL     1     -10.630  10.641  68.936  1.00  0.00    -0.212 C  
HETATM    7  C   UNL     1      -8.488  10.708  67.589  1.00  0.00    -0.118 C  
HETATM    8  O   UNL     1      -7.596  11.359  67.060  1.00  0.00    -0.136 OA 
HETATM    9  C   UNL     1     -11.880  11.432  68.483  1.00  0.00    -0.294 C  
ENDROOT
BRANCH   7  10
HETATM   10  O   UNL     1      -8.627   9.368  67.428  1.00  0.00    -0.124 OA 
BRANCH  10  11
HETATM   11  C   UNL     1      -9.269   8.937  66.206  1.00  0.00    -0.207 C  
HETATM   12  N   UNL     1      -8.513   7.913  65.512  1.00  0.00    -0.146 N  
HETATM   13  C   UNL     1      -8.210   8.312  64.201  1.00  0.00    -0.104 C  
HETATM   14  C   UNL     1      -9.492  10.003  65.162  1.00  0.00    -0.270 A  
HETATM   15  N   UNL     1     -10.270  11.105  65.263  1.00  0.00    -0.266 NA 
HETATM   16  C   UNL     1      -8.852   9.627  63.997  1.00  0.00    -0.227 A  
HETATM   17  O   UNL     1      -7.620   7.720  63.316  1.00  0.00    -0.111 OA 
HETATM   18  C   UNL     1     -10.337  11.820  64.107  1.00  0.00    -0.331 A  
HETATM   19  N   UNL     1      -8.929  10.311  62.837  1.00  0.00    -0.219 NA 
HETATM   20  C   UNL     1      -9.682  11.434  62.932  1.00  0.00    -0.317 A  
BRANCH  12  21
HETATM   21  C   UNL     1      -8.172   6.669  66.071  1.00  0.00    -0.128 A  
HETATM   22 CL   UNL     1      -6.955   2.701  67.764  1.00  0.00    -0.048 Cl 
HETATM   23  C   UNL     1      -8.734   4.387  66.635  1.00  0.00    -0.112 A  
HETATM   24  C   UNL     1      -6.588   5.288  67.071  1.00  0.00    -0.053 A  
HETATM   25  N   UNL     1      -6.924   6.492  66.547  1.00  0.00    -0.065 NA 
HETATM   26  C   UNL     1      -9.105   5.632  66.118  1.00  0.00    -0.158 A  
HETATM   27  C   UNL     1      -7.450   4.211  67.124  1.00  0.00    -0.073 A  
ENDBRANCH  12  21
ENDBRANCH  10  11
ENDBRANCH   7  10
TORSDOF 3
ENDMDL
MODEL      169
REMARK 921   NORMALIZED FREE ENERGY PREDICTED BY IDOCK:   -3.57 KCAL/MOL
REMARK 922        TOTAL FREE ENERGY PREDICTED BY IDOCK:   -4.80 KCAL/MOL
REMARK 923 INTER-LIGAND FREE ENERGY PREDICTED BY IDOCK:   -4.46 KCAL/MOL
REMARK 924 INTRA-LIGAND FREE ENERGY PREDICTED BY IDOCK:   -0.33 KCAL/MOL
REMARK 927      BINDING AFFINITY PREDICTED BY RF-SCORE:    0.00 PKD
ROOT
HETATM    1  C   UNL     1     -11.888  15.551  63.734  1.00  0.00     0.488 C  
HETATM    2  N   UNL     1     -12.736  14.377  63.937  1.00  0.00    -0.721 NA 
HETATM    3  C   UNL     1     -11.993  13.125  63.668  1.00  0.00    -0.514 C  
HETATM    4  C   UNL     1     -10.966  12.752  64.753  1.00  0.00    -0.305 C  
HETATM    5  N   UNL     1     -11.584  12.744  66.077  1.00  0.00    -0.361 N  
HETATM    6  C   UNL     1     -12.305  13.969  66.424  1.00  0.00    -0.431 C  
HETATM    7  C   UNL     1     -11.594  11.568  66.797  1.00  0.00    -0.051 C  
HETATM    8  O   UNL     1     -11.123  10.528  66.354  1.00  0.00    -0.029 OA 
HETATM    9  C   UNL     1     -13.307  14.337  65.304  1.00  0.00     0.427 C  
ENDROOT
BRANCH   7  10
HETATM   10  O   UNL     1     -12.131  11.673  68.038  1.00  0.00    -0.597 OA 
BRANCH  10  11
HETATM   11  C   UNL     1     -11.227  11.455  69.144  1.00  0.00    -0.272 C  
HETATM   12  N   UNL     1      -9.974  12.167  68.986  1.00  0.00     0.065 N  
HETATM   13  C   UNL     1      -8.883  11.285  69.038  1.00  0.00     0.038 C  
HETATM   14  C   UNL     1     -10.811  10.026  69.390  1.00  0.00    -0.239 A  
HETATM   15  N   UNL     1     -11.602   8.987  69.743  1.00  0.00     0.157 NA 
HETATM   16  C   UNL     1      -9.435   9.941  69.310  1.00  0.00    -0.209 A  
HETATM   17  O   UNL     1      -7.688  11.508  68.971  1.00  0.00    -0.113 OA 
HETATM   18  C   UNL     1     -10.906   7.843  69.986  1.00  0.00    -0.238 A  
HETATM   19  N   UNL     1      -8.730   8.822  69.571  1.00  0.00    -0.136 NA 
HETATM   20  C   UNL     1      -9.512   7.765  69.898  1.00  0.00    -0.160 A  
BRANCH  12  21
HETATM   21  C   UNL     1      -9.871  13.562  68.847  1.00  0.00     0.060 A  
HETATM   22 CL   UNL     1      -9.700  18.017  68.376  1.00  0.00    -0.327 Cl 
HETATM   23  C   UNL     1      -8.844  15.511  67.853  1.00  0.00    -0.171 A  
HETATM   24  C   UNL     1     -10.651  15.690  69.374  1.00  0.00    -0.253 A  
HETATM   25  N   UNL     1     -10.737  14.346  69.519  1.00  0.00    -0.165 NA 
HETATM   26  C   UNL     1      -8.901  14.123  68.016  1.00  0.00    -0.182 A  
HETATM   27  C   UNL     1      -9.735  16.312  68.548  1.00  0.00    -0.224 A  
ENDBRANCH  12  21
ENDBRANCH  10  11
ENDBRANCH   7  10
TORSDOF 3
ENDMDL
MODEL      170
REMARK 921   NORMALIZED FREE ENERGY PREDICTED BY IDOCK:   -3.52 KCAL/MOL
REMARK 922        TOTAL FREE ENERGY PREDICTED BY IDOCK:   -4.74 KCAL/MOL
REMARK 923 INTER-LIGAND FREE ENERGY PREDICTED BY IDOCK:   -4.89 KCAL/MOL
REMARK 924 INTRA-LIGAND FREE ENERGY PREDICTED BY IDOCK:    0.15 KCAL/MOL
REMARK 927      BINDING AFFINITY PREDICTED BY RF-SCORE:    0.00 PKD
ROOT
HETATM    1  C   UNL     1     -10.286   4.193  64.745  1.00  0.00    -0.195 C  
HETATM    2  N   UNL     1      -9.709   4.241  66.088  1.00  0.00    -0.196 NA 
HETATM    3  C   UNL     1      -8.321   4.755  66.057  1.00  0.00    -0.112 C  
HETATM    4  C   UNL     1      -8.211   6.269  65.798  1.00  0.00    -0.136 C  
HETATM    5  N   UNL     1      -9.051   7.021  66.729  1.00  0.00    -0.137 N  
HETATM    6  C   UNL     1     -10.447   6.589  66.781  1.00  0.00    -0.230 C  
HETATM    7  C   UNL     1      -8.450   7.922  67.582  1.00  0.00    -0.127 C  
HETATM    8  O   UNL     1      -7.238   8.097  67.600  1.00  0.00    -0.087 OA 
HETATM    9  C   UNL     1     -10.527   5.061  67.013  1.00  0.00    -0.148 C  
ENDROOT
BRANCH   7  10
HETATM   10  O   UNL     1      -9.314   8.618  68.364  1.00  0.00    -0.138 OA 
BRANCH  10  11
HETATM   11  C   UNL     1      -8.872   9.925  68.793  1.00  0.00    -0.136 C  
HETATM   12  N   UNL     1      -8.588  10.810  67.680  1.00  0.00    -0.122 N  
HETATM   13  C   UNL     1      -7.270  11.290  67.742  1.00  0.00    -0.088 C  
HETATM   14  C   UNL     1      -7.613   9.961  69.624  1.00  0.00    -0.136 A  
HETATM   15  N   UNL     1      -7.418   9.418  70.847  1.00  0.00    -0.267 NA 
HETATM   16  C   UNL     1      -6.679  10.754  68.985  1.00  0.00    -0.070 A  
HETATM   17  O   UNL     1      -6.681  12.064  67.010  1.00  0.00    -0.143 OA 
HETATM   18  C   UNL     1      -6.197   9.710  71.373  1.00  0.00     0.036 A  
HETATM   19  N   UNL     1      -5.476  11.073  69.505  1.00  0.00    -0.041 NA 
HETATM   20  C   UNL     1      -5.256  10.511  70.718  1.00  0.00    -0.079 A  
BRANCH  12  21
HETATM   21  C   UNL     1      -9.528  11.170  66.700  1.00  0.00    -0.183 A  
HETATM   22 CL   UNL     1     -12.407  12.361  63.476  1.00  0.00    -0.642 Cl 
HETATM   23  C   UNL     1     -11.505  12.384  66.019  1.00  0.00    -0.431 A  
HETATM   24  C   UNL     1     -10.256  11.074  64.491  1.00  0.00    -0.344 A  
HETATM   25  N   UNL     1      -9.361  10.714  65.442  1.00  0.00    -0.197 NA 
HETATM   26  C   UNL     1     -10.606  11.998  67.019  1.00  0.00    -0.258 A  
HETATM   27  C   UNL     1     -11.329  11.911  64.729  1.00  0.00    -0.283 A  
ENDBRANCH  12  21
ENDBRANCH  10  11
ENDBRANCH   7  10
TORSDOF 3
ENDMDL
MODEL      171
REMARK 921   NORMALIZED FREE ENERGY PREDICTED BY IDOCK:   -3.52 KCAL/MOL
REMARK 922        TOTAL FREE ENERGY PREDICTED BY IDOCK:   -4.74 KCAL/MOL
REMARK 923 INTER-LIGAND FREE ENERGY PREDICTED BY IDOCK:   -5.79 KCAL/MOL
REMARK 924 INTRA-LIGAND FREE ENERGY PREDICTED BY IDOCK:    1.06 KCAL/MOL
REMARK 927      BINDING AFFINITY PREDICTED BY RF-SCORE:    0.00 PKD
ROOT
HETATM    1  C   UNL     1     -13.071  13.758  70.965  1.00  0.00    -0.205 C  
HETATM    2  N   UNL     1     -12.763  14.718  69.905  1.00  0.00    -0.166 NA 
HETATM    3  C   UNL     1     -12.063  15.905  70.444  1.00  0.00    -0.287 C  
HETATM    4  C   UNL     1     -10.597  15.652  70.840  1.00  0.00     0.085 C  
HETATM    5  N   UNL     1      -9.858  15.036  69.739  1.00  0.00    -0.096 N  
HETATM    6  C   UNL     1     -10.476  13.833  69.183  1.00  0.00    -0.021 C  
HETATM    7  C   UNL     1      -8.775  15.707  69.213  1.00  0.00    -0.267 C  
HETATM    8  O   UNL     1      -8.427  16.809  69.621  1.00  0.00     0.257 OA 
HETATM    9  C   UNL     1     -11.955  14.107  68.823  1.00  0.00    -0.332 C  
ENDROOT
BRANCH   7  10
HETATM   10  O   UNL     1      -8.114  15.031  68.239  1.00  0.00    -0.125 OA 
BRANCH  10  11
HETATM   11  C   UNL     1      -8.371  15.456  66.882  1.00  0.00    -0.255 C  
HETATM   12  N   UNL     1      -8.679  16.870  66.791  1.00  0.00    -0.217 N  
HETATM   13  C   UNL     1      -9.927  17.075  66.181  1.00  0.00    -0.298 C  
HETATM   14  C   UNL     1      -9.525  14.780  66.182  1.00  0.00    -0.292 A  
HETATM   15  N   UNL     1      -9.644  13.471  65.868  1.00  0.00    -0.174 NA 
HETATM   16  C   UNL     1     -10.435  15.744  65.791  1.00  0.00    -0.367 A  
HETATM   17  O   UNL     1     -10.507  18.110  65.910  1.00  0.00    -0.518 OA 
HETATM   18  C   UNL     1     -10.766  13.194  65.148  1.00  0.00    -0.315 A  
HETATM   19  N   UNL     1     -11.537  15.488  65.057  1.00  0.00    -0.196 NA 
HETATM   20  C   UNL     1     -11.684  14.175  64.759  1.00  0.00    -0.410 A  
BRANCH  12  21
HETATM   21  C   UNL     1      -7.816  17.894  67.217  1.00  0.00    -0.213 A  
HETATM   22 CL   UNL     1      -5.153  21.266  68.497  1.00  0.00    -0.255 Cl 
HETATM   23  C   UNL     1      -5.593  18.812  67.463  1.00  0.00    -0.161 A  
HETATM   24  C   UNL     1      -7.521  20.007  68.147  1.00  0.00    -0.266 A  
HETATM   25  N   UNL     1      -8.350  19.011  67.751  1.00  0.00    -0.283 NA 
HETATM   26  C   UNL     1      -6.434  17.763  67.076  1.00  0.00    -0.189 A  
HETATM   27  C   UNL     1      -6.148  19.957  68.012  1.00  0.00    -0.226 A  
ENDBRANCH  12  21
ENDBRANCH  10  11
ENDBRANCH   7  10
TORSDOF 3
ENDMDL
MODEL      172
REMARK 921   NORMALIZED FREE ENERGY PREDICTED BY IDOCK:   -3.48 KCAL/MOL
REMARK 922        TOTAL FREE ENERGY PREDICTED BY IDOCK:   -4.69 KCAL/MOL
REMARK 923 INTER-LIGAND FREE ENERGY PREDICTED BY IDOCK:   -5.22 KCAL/MOL
REMARK 924 INTRA-LIGAND FREE ENERGY PREDICTED BY IDOCK:    0.53 KCAL/MOL
REMARK 927      BINDING AFFINITY PREDICTED BY RF-SCORE:    0.00 PKD
ROOT
HETATM    1  C   UNL     1      -5.558   7.659  65.512  1.00  0.00    -0.033 C  
HETATM    2  N   UNL     1      -5.139   8.730  66.416  1.00  0.00    -0.030 NA 
HETATM    3  C   UNL     1      -5.530  10.058  65.893  1.00  0.00    -0.049 C  
HETATM    4  C   UNL     1      -7.036  10.362  65.998  1.00  0.00    -0.133 C  
HETATM    5  N   UNL     1      -7.518  10.149  67.362  1.00  0.00    -0.093 N  
HETATM    6  C   UNL     1      -7.198   8.839  67.927  1.00  0.00    -0.084 C  
HETATM    7  C   UNL     1      -8.059  11.216  68.046  1.00  0.00    -0.123 C  
HETATM    8  O   UNL     1      -8.127  12.338  67.559  1.00  0.00    -0.149 OA 
HETATM    9  C   UNL     1      -5.686   8.547  67.782  1.00  0.00    -0.039 C  
ENDROOT
BRANCH   7  10
HETATM   10  O   UNL     1      -8.537  10.909  69.279  1.00  0.00    -0.103 OA 
BRANCH  10  11
HETATM   11  C   UNL     1      -9.597   9.928  69.324  1.00  0.00    -0.205 C  
HETATM   12  N   UNL     1     -10.896  10.499  69.026  1.00  0.00    -0.216 N  
HETATM   13  C   UNL     1     -11.801  10.267  70.073  1.00  0.00    -0.228 C  
HETATM   14  C   UNL     1      -9.797   9.227  70.646  1.00  0.00    -0.270 A  
HETATM   15  N   UNL     1      -8.926   8.416  71.287  1.00  0.00    -0.162 NA 
HETATM   16  C   UNL     1     -11.090   9.449  71.077  1.00  0.00    -0.344 A  
HETATM   17  O   UNL     1     -12.977  10.566  70.176  1.00  0.00    -0.218 OA 
HETATM   18  C   UNL     1      -9.445   7.860  72.416  1.00  0.00    -0.192 A  
HETATM   19  N   UNL     1     -11.626   8.885  72.179  1.00  0.00    -0.359 NA 
HETATM   20  C   UNL     1     -10.755   8.092  72.848  1.00  0.00    -0.247 A  
BRANCH  12  21
HETATM   21  C   UNL     1     -11.212  11.156  67.824  1.00  0.00    -0.294 A  
HETATM   22 CL   UNL     1     -12.369  13.254  64.035  1.00  0.00    -0.436 Cl 
HETATM   23  C   UNL     1     -11.114  11.303  65.413  1.00  0.00    -0.138 A  
HETATM   24  C   UNL     1     -12.298  12.889  66.714  1.00  0.00     0.061 A  
HETATM   25  N   UNL     1     -11.979  12.263  67.872  1.00  0.00    -0.480 NA 
HETATM   26  C   UNL     1     -10.752  10.662  66.602  1.00  0.00    -0.246 A  
HETATM   27  C   UNL     1     -11.901  12.441  65.469  1.00  0.00    -0.412 A  
ENDBRANCH  12  21
ENDBRANCH  10  11
ENDBRANCH   7  10
TORSDOF 3
ENDMDL
MODEL      173
REMARK 921   NORMALIZED FREE ENERGY PREDICTED BY IDOCK:   -3.42 KCAL/MOL
REMARK 922        TOTAL FREE ENERGY PREDICTED BY IDOCK:   -4.63 KCAL/MOL
REMARK 923 INTER-LIGAND FREE ENERGY PREDICTED BY IDOCK:   -3.70 KCAL/MOL
REMARK 924 INTRA-LIGAND FREE ENERGY PREDICTED BY IDOCK:   -0.93 KCAL/MOL
REMARK 927      BINDING AFFINITY PREDICTED BY RF-SCORE:    0.00 PKD
ROOT
HETATM    1  C   UNL     1      -9.191  17.310  67.157  1.00  0.00    -0.235 C  
HETATM    2  N   UNL     1      -9.427  16.413  68.289  1.00  0.00    -0.213 NA 
HETATM    3  C   UNL     1     -10.611  15.556  68.056  1.00  0.00    -0.270 C  
HETATM    4  C   UNL     1     -10.388  14.433  67.025  1.00  0.00    -0.263 C  
HETATM    5  N   UNL     1      -9.202  13.646  67.359  1.00  0.00    -0.213 N  
HETATM    6  C   UNL     1      -7.985  14.430  67.565  1.00  0.00    -0.192 C  
HETATM    7  C   UNL     1      -9.353  12.301  67.618  1.00  0.00    -0.186 C  
HETATM    8  O   UNL     1     -10.447  11.750  67.600  1.00  0.00    -0.191 OA 
HETATM    9  C   UNL     1      -8.245  15.568  68.581  1.00  0.00    -0.162 C  
ENDROOT
BRANCH   7  10
HETATM   10  O   UNL     1      -8.191  11.641  67.855  1.00  0.00    -0.127 OA 
BRANCH  10  11
HETATM   11  C   UNL     1      -8.077  10.323  67.272  1.00  0.00    -0.120 C  
HETATM   12  N   UNL     1      -7.565   9.343  68.210  1.00  0.00    -0.082 N  
HETATM   13  C   UNL     1      -6.407   8.726  67.712  1.00  0.00    -0.057 C  
HETATM   14  C   UNL     1      -7.164  10.202  66.077  1.00  0.00    -0.118 A  
HETATM   15  N   UNL     1      -7.304  10.798  64.871  1.00  0.00     0.136 NA 
HETATM   16  C   UNL     1      -6.182   9.272  66.357  1.00  0.00    -0.065 A  
HETATM   17  O   UNL     1      -5.716   7.846  68.193  1.00  0.00    -0.031 OA 
HETATM   18  C   UNL     1      -6.362  10.407  63.969  1.00  0.00    -0.040 A  
HETATM   19  N   UNL     1      -5.258   8.856  65.467  1.00  0.00    -0.037 NA 
HETATM   20  C   UNL     1      -5.369   9.467  64.263  1.00  0.00    -0.061 A  
BRANCH  12  21
HETATM   21  C   UNL     1      -8.179   9.026  69.434  1.00  0.00    -0.117 A  
HETATM   22 CL   UNL     1     -10.006   7.943  73.382  1.00  0.00    -0.350 Cl 
HETATM   23  C   UNL     1     -10.025   8.097  70.688  1.00  0.00    -0.204 A  
HETATM   24  C   UNL     1      -8.096   8.958  71.759  1.00  0.00     0.022 A  
HETATM   25  N   UNL     1      -7.513   9.278  70.578  1.00  0.00    -0.115 NA 
HETATM   26  C   UNL     1      -9.449   8.448  69.463  1.00  0.00    -0.166 A  
HETATM   27  C   UNL     1      -9.336   8.359  71.860  1.00  0.00    -0.244 A  
ENDBRANCH  12  21
ENDBRANCH  10  11
ENDBRANCH   7  10
TORSDOF 3
ENDMDL
MODEL      174
REMARK 921   NORMALIZED FREE ENERGY PREDICTED BY IDOCK:   -3.41 KCAL/MOL
REMARK 922        TOTAL FREE ENERGY PREDICTED BY IDOCK:   -4.62 KCAL/MOL
REMARK 923 INTER-LIGAND FREE ENERGY PREDICTED BY IDOCK:   -5.61 KCAL/MOL
REMARK 924 INTRA-LIGAND FREE ENERGY PREDICTED BY IDOCK:    0.99 KCAL/MOL
REMARK 927      BINDING AFFINITY PREDICTED BY RF-SCORE:    0.00 PKD
ROOT
HETATM    1  C   UNL     1      -9.286  10.166  63.537  1.00  0.00    -0.290 C  
HETATM    2  N   UNL     1      -9.971  11.340  62.995  1.00  0.00    -0.329 NA 
HETATM    3  C   UNL     1     -11.440  11.197  63.096  1.00  0.00     0.602 C  
HETATM    4  C   UNL     1     -11.997  11.352  64.523  1.00  0.00     0.302 C  
HETATM    5  N   UNL     1     -11.526  12.592  65.136  1.00  0.00    -0.314 N  
HETATM    6  C   UNL     1     -10.076  12.779  65.106  1.00  0.00    -0.227 C  
HETATM    7  C   UNL     1     -12.456  13.535  65.520  1.00  0.00    -0.491 C  
HETATM    8  O   UNL     1     -13.658  13.377  65.343  1.00  0.00    -0.357 OA 
HETATM    9  C   UNL     1      -9.541  12.589  63.666  1.00  0.00     0.472 C  
ENDROOT
BRANCH   7  10
HETATM   10  O   UNL     1     -11.931  14.624  66.136  1.00  0.00    -0.338 OA 
BRANCH  10  11
HETATM   11  C   UNL     1     -11.595  14.465  67.532  1.00  0.00    -0.373 C  
HETATM   12  N   UNL     1     -10.387  15.178  67.898  1.00  0.00    -0.239 N  
HETATM   13  C   UNL     1      -9.437  14.308  68.455  1.00  0.00    -0.206 C  
HETATM   14  C   UNL     1     -11.345  13.052  67.999  1.00  0.00    -0.290 A  
HETATM   15  N   UNL     1     -12.225  12.026  68.024  1.00  0.00    -0.360 NA 
HETATM   16  C   UNL     1     -10.070  12.975  68.524  1.00  0.00    -0.192 A  
HETATM   17  O   UNL     1      -8.327  14.537  68.900  1.00  0.00    -0.157 OA 
HETATM   18  C   UNL     1     -11.717  10.900  68.595  1.00  0.00    -0.263 A  
HETATM   19  N   UNL     1      -9.562  11.875  69.115  1.00  0.00     0.233 NA 
HETATM   20  C   UNL     1     -10.423  10.828  69.121  1.00  0.00    -0.218 A  
BRANCH  12  21
HETATM   21  C   UNL     1     -10.216  16.566  67.753  1.00  0.00    -0.278 A  
HETATM   22 CL   UNL     1      -9.554  20.963  67.184  1.00  0.00    -0.493 Cl 
HETATM   23  C   UNL     1      -9.865  18.759  68.709  1.00  0.00    -0.434 A  
HETATM   24  C   UNL     1      -9.986  18.422  66.367  1.00  0.00    -0.386 A  
HETATM   25  N   UNL     1     -10.168  17.087  66.510  1.00  0.00    -0.313 NA 
HETATM   26  C   UNL     1     -10.081  17.387  68.874  1.00  0.00    -0.330 A  
HETATM   27  C   UNL     1      -9.819  19.288  67.430  1.00  0.00    -0.336 A  
ENDBRANCH  12  21
ENDBRANCH  10  11
ENDBRANCH   7  10
TORSDOF 3
ENDMDL
MODEL      175
REMARK 921   NORMALIZED FREE ENERGY PREDICTED BY IDOCK:   -3.41 KCAL/MOL
REMARK 922        TOTAL FREE ENERGY PREDICTED BY IDOCK:   -4.61 KCAL/MOL
REMARK 923 INTER-LIGAND FREE ENERGY PREDICTED BY IDOCK:   -5.64 KCAL/MOL
REMARK 924 INTRA-LIGAND FREE ENERGY PREDICTED BY IDOCK:    1.03 KCAL/MOL
REMARK 927      BINDING AFFINITY PREDICTED BY RF-SCORE:    0.00 PKD
ROOT
HETATM    1  C   UNL     1     -12.509  15.099  63.633  1.00  0.00     0.748 C  
HETATM    2  N   UNL     1     -12.664  14.254  64.817  1.00  0.00    -0.665 NA 
HETATM    3  C   UNL     1     -12.750  12.824  64.447  1.00  0.00    -0.289 C  
HETATM    4  C   UNL     1     -11.413  12.202  64.001  1.00  0.00    -0.411 C  
HETATM    5  N   UNL     1     -10.367  12.448  64.991  1.00  0.00    -0.287 N  
HETATM    6  C   UNL     1     -10.202  13.850  65.374  1.00  0.00    -0.337 C  
HETATM    7  C   UNL     1      -9.762  11.367  65.596  1.00  0.00    -0.231 C  
HETATM    8  O   UNL     1     -10.087  10.212  65.347  1.00  0.00    -0.303 OA 
HETATM    9  C   UNL     1     -11.564  14.456  65.789  1.00  0.00    -0.353 C  
ENDROOT
BRANCH   7  10
HETATM   10  O   UNL     1      -8.760  11.690  66.452  1.00  0.00    -0.192 OA 
BRANCH  10  11
HETATM   11  C   UNL     1      -9.089  11.652  67.859  1.00  0.00    -0.171 C  
HETATM   12  N   UNL     1      -9.983  10.560  68.192  1.00  0.00    -0.150 N  
HETATM   13  C   UNL     1     -11.150  11.035  68.810  1.00  0.00    -0.239 C  
HETATM   14  C   UNL     1      -9.777  12.875  68.413  1.00  0.00    -0.186 A  
HETATM   15  N   UNL     1      -9.285  14.132  68.492  1.00  0.00    -0.201 NA 
HETATM   16  C   UNL     1     -10.991  12.497  68.954  1.00  0.00    -0.227 A  
HETATM   17  O   UNL     1     -12.109  10.428  69.251  1.00  0.00    -0.133 OA 
HETATM   18  C   UNL     1     -10.119  14.993  69.136  1.00  0.00    -0.245 A  
HETATM   19  N   UNL     1     -11.816  13.333  69.617  1.00  0.00    -0.317 NA 
HETATM   20  C   UNL     1     -11.349  14.603  69.678  1.00  0.00    -0.280 A  
BRANCH  12  21
HETATM   21  C   UNL     1      -9.691   9.204  67.964  1.00  0.00    -0.154 A  
HETATM   22 CL   UNL     1      -8.635   4.924  67.150  1.00  0.00    -0.105 Cl 
HETATM   23  C   UNL     1     -10.366   6.991  67.264  1.00  0.00    -0.331 A  
HETATM   24  C   UNL     1      -8.141   7.468  67.922  1.00  0.00    -0.119 A  
HETATM   25  N   UNL     1      -8.429   8.771  68.157  1.00  0.00    -0.129 NA 
HETATM   26  C   UNL     1     -10.686   8.326  67.531  1.00  0.00    -0.217 A  
HETATM   27  C   UNL     1      -9.068   6.552  67.466  1.00  0.00    -0.115 A  
ENDBRANCH  12  21
ENDBRANCH  10  11
ENDBRANCH   7  10
TORSDOF 3
ENDMDL
MODEL      176
REMARK 921   NORMALIZED FREE ENERGY PREDICTED BY IDOCK:   -3.40 KCAL/MOL
REMARK 922        TOTAL FREE ENERGY PREDICTED BY IDOCK:   -4.60 KCAL/MOL
REMARK 923 INTER-LIGAND FREE ENERGY PREDICTED BY IDOCK:   -4.61 KCAL/MOL
REMARK 924 INTRA-LIGAND FREE ENERGY PREDICTED BY IDOCK:    0.02 KCAL/MOL
REMARK 927      BINDING AFFINITY PREDICTED BY RF-SCORE:    0.00 PKD
ROOT
HETATM    1  C   UNL     1      -7.311   6.152  71.989  1.00  0.00    -0.093 C  
HETATM    2  N   UNL     1      -6.726   7.466  72.258  1.00  0.00    -0.058 NA 
HETATM    3  C   UNL     1      -5.593   7.745  71.348  1.00  0.00    -0.035 C  
HETATM    4  C   UNL     1      -6.006   8.065  69.899  1.00  0.00    -0.022 C  
HETATM    5  N   UNL     1      -7.008   9.129  69.865  1.00  0.00    -0.050 N  
HETATM    6  C   UNL     1      -8.176   8.899  70.715  1.00  0.00    -0.171 C  
HETATM    7  C   UNL     1      -6.707  10.299  69.202  1.00  0.00    -0.058 C  
HETATM    8  O   UNL     1      -5.623  10.485  68.663  1.00  0.00    -0.041 OA 
HETATM    9  C   UNL     1      -7.731   8.550  72.155  1.00  0.00    -0.078 C  
ENDROOT
BRANCH   7  10
HETATM   10  O   UNL     1      -7.719  11.202  69.169  1.00  0.00    -0.129 OA 
BRANCH  10  11
HETATM   11  C   UNL     1      -8.556  11.178  67.991  1.00  0.00    -0.140 C  
HETATM   12  N   UNL     1      -9.841  10.551  68.234  1.00  0.00    -0.146 N  
HETATM   13  C   UNL     1     -10.051   9.476  67.357  1.00  0.00    -0.208 C  
HETATM   14  C   UNL     1      -8.003  10.436  66.799  1.00  0.00    -0.117 A  
HETATM   15  N   UNL     1      -6.892  10.733  66.087  1.00  0.00    -0.134 NA 
HETATM   16  C   UNL     1      -8.886   9.432  66.450  1.00  0.00    -0.145 A  
HETATM   17  O   UNL     1     -11.009   8.734  67.240  1.00  0.00    -0.115 OA 
HETATM   18  C   UNL     1      -6.718   9.924  65.007  1.00  0.00    -0.121 A  
HETATM   19  N   UNL     1      -8.740   8.640  65.368  1.00  0.00    -0.181 NA 
HETATM   20  C   UNL     1      -7.615   8.907  64.662  1.00  0.00    -0.108 A  
BRANCH  12  21
HETATM   21  C   UNL     1     -10.767  10.997  69.193  1.00  0.00    -0.234 A  
HETATM   22 CL   UNL     1     -13.626  12.545  72.280  1.00  0.00    -0.574 Cl 
HETATM   23  C   UNL     1     -12.139  10.600  71.143  1.00  0.00    -0.445 A  
HETATM   24  C   UNL     1     -12.044  12.722  70.094  1.00  0.00    -0.298 A  
HETATM   25  N   UNL     1     -11.164  12.285  69.161  1.00  0.00    -0.250 NA 
HETATM   26  C   UNL     1     -11.254  10.127  70.169  1.00  0.00    -0.377 A  
HETATM   27  C   UNL     1     -12.544  11.924  71.104  1.00  0.00    -0.288 A  
ENDBRANCH  12  21
ENDBRANCH  10  11
ENDBRANCH   7  10
TORSDOF 3
ENDMDL
MODEL      177
REMARK 921   NORMALIZED FREE ENERGY PREDICTED BY IDOCK:   -3.39 KCAL/MOL
REMARK 922        TOTAL FREE ENERGY PREDICTED BY IDOCK:   -4.59 KCAL/MOL
REMARK 923 INTER-LIGAND FREE ENERGY PREDICTED BY IDOCK:   -4.14 KCAL/MOL
REMARK 924 INTRA-LIGAND FREE ENERGY PREDICTED BY IDOCK:   -0.45 KCAL/MOL
REMARK 927      BINDING AFFINITY PREDICTED BY RF-SCORE:    0.00 PKD
ROOT
HETATM    1  C   UNL     1      -7.638   4.754  74.139  1.00  0.00    -0.093 C  
HETATM    2  N   UNL     1      -7.480   6.178  73.847  1.00  0.00    -0.091 NA 
HETATM    3  C   UNL     1      -6.172   6.454  73.211  1.00  0.00    -0.063 C  
HETATM    4  C   UNL     1      -6.069   5.994  71.745  1.00  0.00    -0.040 C  
HETATM    5  N   UNL     1      -7.181   6.517  70.954  1.00  0.00    -0.069 N  
HETATM    6  C   UNL     1      -8.507   6.246  71.506  1.00  0.00    -0.130 C  
HETATM    7  C   UNL     1      -6.901   7.345  69.888  1.00  0.00    -0.055 C  
HETATM    8  O   UNL     1      -5.757   7.674  69.598  1.00  0.00    -0.023 OA 
HETATM    9  C   UNL     1      -8.573   6.691  72.987  1.00  0.00    -0.117 C  
ENDROOT
BRANCH   7  10
HETATM   10  O   UNL     1      -7.990   7.730  69.175  1.00  0.00    -0.115 OA 
BRANCH  10  11
HETATM   11  C   UNL     1      -8.176   7.082  67.897  1.00  0.00    -0.115 C  
HETATM   12  N   UNL     1      -9.466   7.379  67.305  1.00  0.00    -0.140 N  
HETATM   13  C   UNL     1     -10.182   6.202  67.040  1.00  0.00    -0.202 C  
HETATM   14  C   UNL     1      -8.111   5.574  67.901  1.00  0.00    -0.100 A  
HETATM   15  N   UNL     1      -7.051   4.797  68.218  1.00  0.00    -0.060 NA 
HETATM   16  C   UNL     1      -9.301   5.075  67.409  1.00  0.00    -0.127 A  
HETATM   17  O   UNL     1     -11.276   6.046  66.529  1.00  0.00    -0.144 OA 
HETATM   18  C   UNL     1      -7.285   3.470  68.028  1.00  0.00    -0.051 A  
HETATM   19  N   UNL     1      -9.539   3.766  67.192  1.00  0.00    -0.210 NA 
HETATM   20  C   UNL     1      -8.495   2.972  67.533  1.00  0.00    -0.088 A  
BRANCH  12  21
HETATM   21  C   UNL     1      -9.912   8.676  66.998  1.00  0.00    -0.249 A  
HETATM   22 CL   UNL     1     -11.480  12.772  66.068  1.00  0.00    -0.372 Cl 
HETATM   23  C   UNL     1     -10.129  10.519  65.449  1.00  0.00    -0.358 A  
HETATM   24  C   UNL     1     -11.069  10.597  67.621  1.00  0.00    -0.319 A  
HETATM   25  N   UNL     1     -10.623   9.353  67.921  1.00  0.00    -0.245 NA 
HETATM   26  C   UNL     1      -9.637   9.246  65.754  1.00  0.00    -0.341 A  
HETATM   27  C   UNL     1     -10.858  11.211  66.402  1.00  0.00    -0.225 A  
ENDBRANCH  12  21
ENDBRANCH  10  11
ENDBRANCH   7  10
TORSDOF 3
ENDMDL
MODEL      178
REMARK 921   NORMALIZED FREE ENERGY PREDICTED BY IDOCK:   -3.39 KCAL/MOL
REMARK 922        TOTAL FREE ENERGY PREDICTED BY IDOCK:   -4.58 KCAL/MOL
REMARK 923 INTER-LIGAND FREE ENERGY PREDICTED BY IDOCK:   -4.50 KCAL/MOL
REMARK 924 INTRA-LIGAND FREE ENERGY PREDICTED BY IDOCK:   -0.09 KCAL/MOL
REMARK 927      BINDING AFFINITY PREDICTED BY RF-SCORE:    0.00 PKD
ROOT
HETATM    1  C   UNL     1      -5.416  14.059  67.854  1.00  0.00    -0.082 C  
HETATM    2  N   UNL     1      -5.841  12.785  67.273  1.00  0.00    -0.323 NA 
HETATM    3  C   UNL     1      -5.299  11.640  68.038  1.00  0.00    -0.045 C  
HETATM    4  C   UNL     1      -5.978  11.410  69.401  1.00  0.00    -0.066 C  
HETATM    5  N   UNL     1      -7.430  11.330  69.254  1.00  0.00    -0.083 N  
HETATM    6  C   UNL     1      -8.036  12.453  68.539  1.00  0.00    -0.096 C  
HETATM    7  C   UNL     1      -8.070  10.168  69.627  1.00  0.00    -0.168 C  
HETATM    8  O   UNL     1      -7.461   9.195  70.055  1.00  0.00    -0.060 OA 
HETATM    9  C   UNL     1      -7.316  12.680  67.188  1.00  0.00    -0.037 C  
ENDROOT
BRANCH   7  10
HETATM   10  O   UNL     1      -9.422  10.209  69.516  1.00  0.00    -0.211 OA 
BRANCH  10  11
HETATM   11  C   UNL     1     -10.009   9.303  68.555  1.00  0.00    -0.175 C  
HETATM   12  N   UNL     1      -9.683   7.917  68.827  1.00  0.00    -0.156 N  
HETATM   13  C   UNL     1      -9.058   7.320  67.721  1.00  0.00    -0.124 C  
HETATM   14  C   UNL     1      -9.600   9.503  67.117  1.00  0.00    -0.160 A  
HETATM   15  N   UNL     1      -9.829  10.585  66.338  1.00  0.00    -0.202 NA 
HETATM   16  C   UNL     1      -9.031   8.335  66.648  1.00  0.00    -0.150 A  
HETATM   17  O   UNL     1      -8.666   6.178  67.562  1.00  0.00    -0.107 OA 
HETATM   18  C   UNL     1      -9.418  10.415  65.052  1.00  0.00    -0.253 A  
HETATM   19  N   UNL     1      -8.641   8.143  65.371  1.00  0.00    -0.154 NA 
HETATM   20  C   UNL     1      -8.839   9.230  64.587  1.00  0.00    -0.178 A  
BRANCH  12  21
HETATM   21  C   UNL     1      -9.997   7.253  70.026  1.00  0.00    -0.184 A  
HETATM   22 CL   UNL     1     -10.971   4.998  73.776  1.00  0.00    -0.366 Cl 
HETATM   23  C   UNL     1     -11.483   6.861  71.891  1.00  0.00    -0.308 A  
HETATM   24  C   UNL     1      -9.466   5.648  71.625  1.00  0.00    -0.150 A  
HETATM   25  N   UNL     1      -9.157   6.301  70.479  1.00  0.00    -0.154 NA 
HETATM   26  C   UNL     1     -11.164   7.564  70.725  1.00  0.00    -0.287 A  
HETATM   27  C   UNL     1     -10.616   5.884  72.353  1.00  0.00    -0.217 A  
ENDBRANCH  12  21
ENDBRANCH  10  11
ENDBRANCH   7  10
TORSDOF 3
ENDMDL
MODEL      179
REMARK 921   NORMALIZED FREE ENERGY PREDICTED BY IDOCK:   -3.38 KCAL/MOL
REMARK 922        TOTAL FREE ENERGY PREDICTED BY IDOCK:   -4.58 KCAL/MOL
REMARK 923 INTER-LIGAND FREE ENERGY PREDICTED BY IDOCK:   -4.51 KCAL/MOL
REMARK 924 INTRA-LIGAND FREE ENERGY PREDICTED BY IDOCK:   -0.07 KCAL/MOL
REMARK 927      BINDING AFFINITY PREDICTED BY RF-SCORE:    0.00 PKD
ROOT
HETATM    1  C   UNL     1      -8.937   4.751  63.916  1.00  0.00    -0.075 C  
HETATM    2  N   UNL     1      -9.011   4.144  65.245  1.00  0.00    -0.127 NA 
HETATM    3  C   UNL     1      -7.760   4.362  66.005  1.00  0.00    -0.094 C  
HETATM    4  C   UNL     1      -7.570   5.802  66.515  1.00  0.00    -0.091 C  
HETATM    5  N   UNL     1      -8.745   6.253  67.258  1.00  0.00    -0.106 N  
HETATM    6  C   UNL     1     -10.015   6.101  66.549  1.00  0.00    -0.126 C  
HETATM    7  C   UNL     1      -8.595   6.605  68.583  1.00  0.00    -0.125 C  
HETATM    8  O   UNL     1      -7.517   6.531  69.161  1.00  0.00    -0.090 OA 
HETATM    9  C   UNL     1     -10.166   4.654  66.022  1.00  0.00    -0.277 C  
ENDROOT
BRANCH   7  10
HETATM   10  O   UNL     1      -9.725   7.070  69.172  1.00  0.00    -0.155 OA 
BRANCH  10  11
HETATM   11  C   UNL     1      -9.551   8.143  70.125  1.00  0.00    -0.168 C  
HETATM   12  N   UNL     1      -9.123   9.378  69.499  1.00  0.00    -0.154 N  
HETATM   13  C   UNL     1      -7.921   9.837  70.059  1.00  0.00    -0.184 C  
HETATM   14  C   UNL     1      -8.531   7.907  71.212  1.00  0.00    -0.117 A  
HETATM   15  N   UNL     1      -8.561   6.962  72.178  1.00  0.00    -0.117 NA 
HETATM   16  C   UNL     1      -7.575   8.902  71.149  1.00  0.00    -0.119 A  
HETATM   17  O   UNL     1      -7.274  10.840  69.817  1.00  0.00    -0.151 OA 
HETATM   18  C   UNL     1      -7.538   7.075  73.068  1.00  0.00    -0.083 A  
HETATM   19  N   UNL     1      -6.570   9.042  72.038  1.00  0.00    -0.266 NA 
HETATM   20  C   UNL     1      -6.571   8.083  72.996  1.00  0.00    -0.081 A  
BRANCH  12  21
HETATM   21  C   UNL     1      -9.847  10.046  68.495  1.00  0.00    -0.156 A  
HETATM   22 CL   UNL     1     -12.018  12.224  65.233  1.00  0.00    -0.429 Cl 
HETATM   23  C   UNL     1     -11.591  11.577  67.818  1.00  0.00    -0.338 A  
HETATM   24  C   UNL     1     -10.169  10.528  66.241  1.00  0.00    -0.235 A  
HETATM   25  N   UNL     1      -9.483   9.873  67.209  1.00  0.00    -0.151 NA 
HETATM   26  C   UNL     1     -10.912  10.885  68.826  1.00  0.00    -0.285 A  
HETATM   27  C   UNL     1     -11.213  11.393  66.498  1.00  0.00    -0.209 A  
ENDBRANCH  12  21
ENDBRANCH  10  11
ENDBRANCH   7  10
TORSDOF 3
ENDMDL
MODEL      180
REMARK 921   NORMALIZED FREE ENERGY PREDICTED BY IDOCK:   -3.37 KCAL/MOL
REMARK 922        TOTAL FREE ENERGY PREDICTED BY IDOCK:   -4.56 KCAL/MOL
REMARK 923 INTER-LIGAND FREE ENERGY PREDICTED BY IDOCK:   -4.46 KCAL/MOL
REMARK 924 INTRA-LIGAND FREE ENERGY PREDICTED BY IDOCK:   -0.10 KCAL/MOL
REMARK 927      BINDING AFFINITY PREDICTED BY RF-SCORE:    0.00 PKD
ROOT
HETATM    1  C   UNL     1     -10.712  16.283  67.759  1.00  0.00    -0.325 C  
HETATM    2  N   UNL     1     -10.559  15.224  66.761  1.00  0.00    -0.299 NA 
HETATM    3  C   UNL     1      -9.209  15.249  66.156  1.00  0.00    -0.310 C  
HETATM    4  C   UNL     1      -8.090  14.737  67.082  1.00  0.00    -0.197 C  
HETATM    5  N   UNL     1      -8.421  13.420  67.624  1.00  0.00    -0.173 N  
HETATM    6  C   UNL     1      -9.730  13.335  68.271  1.00  0.00    -0.225 C  
HETATM    7  C   UNL     1      -7.588  12.359  67.338  1.00  0.00    -0.160 C  
HETATM    8  O   UNL     1      -6.597  12.479  66.629  1.00  0.00     0.081 OA 
HETATM    9  C   UNL     1     -10.830  13.883  67.331  1.00  0.00    -0.285 C  
ENDROOT
BRANCH   7  10
HETATM   10  O   UNL     1      -7.941  11.192  67.935  1.00  0.00    -0.108 OA 
BRANCH  10  11
HETATM   11  C   UNL     1      -8.945  10.407  67.254  1.00  0.00    -0.135 C  
HETATM   12  N   UNL     1      -9.068   9.069  67.798  1.00  0.00    -0.134 N  
HETATM   13  C   UNL     1      -8.866   8.099  66.804  1.00  0.00    -0.138 C  
HETATM   14  C   UNL     1      -8.726  10.185  65.777  1.00  0.00    -0.152 A  
HETATM   15  N   UNL     1      -8.696  11.120  64.800  1.00  0.00     0.028 NA 
HETATM   16  C   UNL     1      -8.668   8.827  65.534  1.00  0.00    -0.185 A  
HETATM   17  O   UNL     1      -8.914   6.884  66.870  1.00  0.00    -0.115 OA 
HETATM   18  C   UNL     1      -8.576  10.586  63.554  1.00  0.00    -0.165 A  
HETATM   19  N   UNL     1      -8.574   8.283  64.303  1.00  0.00     0.029 NA 
HETATM   20  C   UNL     1      -8.514   9.209  63.316  1.00  0.00    -0.195 A  
BRANCH  12  21
HETATM   21  C   UNL     1      -9.393   8.790  69.137  1.00  0.00    -0.149 A  
HETATM   22 CL   UNL     1     -10.492   8.044  73.419  1.00  0.00    -0.152 Cl 
HETATM   23  C   UNL     1      -8.766   8.028  71.344  1.00  0.00    -0.163 A  
HETATM   24  C   UNL     1     -10.951   8.808  70.866  1.00  0.00    -0.262 A  
HETATM   25  N   UNL     1     -10.640   9.061  69.572  1.00  0.00    -0.226 NA 
HETATM   26  C   UNL     1      -8.438   8.256  70.004  1.00  0.00    -0.123 A  
HETATM   27  C   UNL     1     -10.050   8.307  71.785  1.00  0.00    -0.224 A  
ENDBRANCH  12  21
ENDBRANCH  10  11
ENDBRANCH   7  10
TORSDOF 3
ENDMDL
MODEL      181
REMARK 921   NORMALIZED FREE ENERGY PREDICTED BY IDOCK:   -3.35 KCAL/MOL
REMARK 922        TOTAL FREE ENERGY PREDICTED BY IDOCK:   -4.54 KCAL/MOL
REMARK 923 INTER-LIGAND FREE ENERGY PREDICTED BY IDOCK:   -4.49 KCAL/MOL
REMARK 924 INTRA-LIGAND FREE ENERGY PREDICTED BY IDOCK:   -0.05 KCAL/MOL
REMARK 927      BINDING AFFINITY PREDICTED BY RF-SCORE:    0.00 PKD
ROOT
HETATM    1  C   UNL     1      -6.937   5.268  72.768  1.00  0.00    -0.086 C  
HETATM    2  N   UNL     1      -6.257   6.517  72.423  1.00  0.00    -0.045 NA 
HETATM    3  C   UNL     1      -5.318   6.322  71.296  1.00  0.00    -0.018 C  
HETATM    4  C   UNL     1      -5.998   6.145  69.926  1.00  0.00    -0.025 C  
HETATM    5  N   UNL     1      -6.943   7.231  69.668  1.00  0.00    -0.053 N  
HETATM    6  C   UNL     1      -7.926   7.453  70.727  1.00  0.00    -0.104 C  
HETATM    7  C   UNL     1      -6.733   8.044  68.575  1.00  0.00    -0.066 C  
HETATM    8  O   UNL     1      -5.771   7.901  67.829  1.00  0.00    -0.035 OA 
HETATM    9  C   UNL     1      -7.217   7.597  72.096  1.00  0.00    -0.071 C  
ENDROOT
BRANCH   7  10
HETATM   10  O   UNL     1      -7.693   8.982  68.380  1.00  0.00    -0.096 OA 
BRANCH  10  11
HETATM   11  C   UNL     1      -8.744   8.633  67.450  1.00  0.00    -0.134 C  
HETATM   12  N   UNL     1      -9.975   8.257  68.118  1.00  0.00    -0.184 N  
HETATM   13  C   UNL     1     -10.384   6.971  67.734  1.00  0.00    -0.202 C  
HETATM   14  C   UNL     1      -8.456   7.475  66.527  1.00  0.00    -0.131 A  
HETATM   15  N   UNL     1      -7.497   7.398  65.577  1.00  0.00    -0.084 NA 
HETATM   16  C   UNL     1      -9.420   6.503  66.717  1.00  0.00    -0.158 A  
HETATM   17  O   UNL     1     -11.368   6.330  68.056  1.00  0.00    -0.260 OA 
HETATM   18  C   UNL     1      -7.561   6.253  64.844  1.00  0.00    -0.092 A  
HETATM   19  N   UNL     1      -9.511   5.376  65.983  1.00  0.00    -0.158 NA 
HETATM   20  C   UNL     1      -8.538   5.272  65.045  1.00  0.00    -0.150 A  
BRANCH  12  21
HETATM   21  C   UNL     1     -10.683   9.095  68.997  1.00  0.00    -0.153 A  
HETATM   22 CL   UNL     1     -13.044  11.649  71.826  1.00  0.00    -0.554 Cl 
HETATM   23  C   UNL     1     -11.772  11.196  69.489  1.00  0.00    -0.405 A  
HETATM   24  C   UNL     1     -11.732   9.415  71.050  1.00  0.00    -0.323 A  
HETATM   25  N   UNL     1     -11.035   8.615  70.207  1.00  0.00    -0.242 NA 
HETATM   26  C   UNL     1     -11.027  10.393  68.619  1.00  0.00    -0.288 A  
HETATM   27  C   UNL     1     -12.130  10.698  70.731  1.00  0.00    -0.374 A  
ENDBRANCH  12  21
ENDBRANCH  10  11
ENDBRANCH   7  10
TORSDOF 3
ENDMDL
MODEL      182
REMARK 921   NORMALIZED FREE ENERGY PREDICTED BY IDOCK:   -3.35 KCAL/MOL
REMARK 922        TOTAL FREE ENERGY PREDICTED BY IDOCK:   -4.54 KCAL/MOL
REMARK 923 INTER-LIGAND FREE ENERGY PREDICTED BY IDOCK:   -4.45 KCAL/MOL
REMARK 924 INTRA-LIGAND FREE ENERGY PREDICTED BY IDOCK:   -0.09 KCAL/MOL
REMARK 927      BINDING AFFINITY PREDICTED BY RF-SCORE:    0.00 PKD
ROOT
HETATM    1  C   UNL     1      -7.104   7.794  71.054  1.00  0.00    -0.053 C  
HETATM    2  N   UNL     1      -6.302   8.941  70.628  1.00  0.00    -0.040 NA 
HETATM    3  C   UNL     1      -5.477   8.609  69.446  1.00  0.00    -0.034 C  
HETATM    4  C   UNL     1      -6.270   8.490  68.131  1.00  0.00    -0.051 C  
HETATM    5  N   UNL     1      -7.090   9.680  67.907  1.00  0.00    -0.079 N  
HETATM    6  C   UNL     1      -7.960  10.044  69.024  1.00  0.00    -0.108 C  
HETATM    7  C   UNL     1      -6.859  10.438  66.779  1.00  0.00    -0.091 C  
HETATM    8  O   UNL     1      -5.979  10.162  65.974  1.00  0.00    -0.068 OA 
HETATM    9  C   UNL     1      -7.143  10.126  70.336  1.00  0.00    -0.088 C  
ENDROOT
BRANCH   7  10
HETATM   10  O   UNL     1      -7.709  11.485  66.623  1.00  0.00    -0.151 OA 
BRANCH  10  11
HETATM   11  C   UNL     1      -9.109  11.153  66.489  1.00  0.00    -0.182 C  
HETATM   12  N   UNL     1      -9.462  10.764  65.138  1.00  0.00    -0.211 N  
HETATM   13  C   UNL     1     -10.488  11.576  64.630  1.00  0.00    -0.301 C  
HETATM   14  C   UNL     1     -10.087  12.253  66.822  1.00  0.00    -0.209 A  
HETATM   15  N   UNL     1     -10.274  12.854  68.019  1.00  0.00    -0.223 NA 
HETATM   16  C   UNL     1     -10.878  12.498  65.716  1.00  0.00    -0.276 A  
HETATM   17  O   UNL     1     -11.060  11.539  63.556  1.00  0.00    -0.407 OA 
HETATM   18  C   UNL     1     -11.303  13.744  68.016  1.00  0.00    -0.288 A  
HETATM   19  N   UNL     1     -11.916  13.358  65.705  1.00  0.00    -0.377 NA 
HETATM   20  C   UNL     1     -12.097  13.989  66.890  1.00  0.00    -0.430 A  
BRANCH  12  21
HETATM   21  C   UNL     1      -8.880   9.684  64.451  1.00  0.00    -0.230 A  
HETATM   22 CL   UNL     1      -6.940   6.205  62.394  1.00  0.00    -0.040 Cl 
HETATM   23  C   UNL     1      -7.704   8.789  62.538  1.00  0.00    -0.119 A  
HETATM   24  C   UNL     1      -8.282   7.435  64.393  1.00  0.00    -0.001 A  
HETATM   25  N   UNL     1      -8.858   8.474  65.045  1.00  0.00    -0.095 NA 
HETATM   26  C   UNL     1      -8.321   9.865  63.185  1.00  0.00    -0.166 A  
HETATM   27  C   UNL     1      -7.687   7.548  63.152  1.00  0.00    -0.130 A  
ENDBRANCH  12  21
ENDBRANCH  10  11
ENDBRANCH   7  10
TORSDOF 3
ENDMDL
MODEL      183
REMARK 921   NORMALIZED FREE ENERGY PREDICTED BY IDOCK:   -3.34 KCAL/MOL
REMARK 922        TOTAL FREE ENERGY PREDICTED BY IDOCK:   -4.53 KCAL/MOL
REMARK 923 INTER-LIGAND FREE ENERGY PREDICTED BY IDOCK:   -4.00 KCAL/MOL
REMARK 924 INTRA-LIGAND FREE ENERGY PREDICTED BY IDOCK:   -0.53 KCAL/MOL
REMARK 927      BINDING AFFINITY PREDICTED BY RF-SCORE:    0.00 PKD
ROOT
HETATM    1  C   UNL     1      -9.176   4.207  62.756  1.00  0.00    -0.124 C  
HETATM    2  N   UNL     1      -9.707   3.310  63.782  1.00  0.00    -0.129 NA 
HETATM    3  C   UNL     1      -8.651   2.900  64.735  1.00  0.00    -0.102 C  
HETATM    4  C   UNL     1      -8.220   4.005  65.718  1.00  0.00    -0.105 C  
HETATM    5  N   UNL     1      -9.379   4.578  66.401  1.00  0.00    -0.139 N  
HETATM    6  C   UNL     1     -10.446   5.040  65.515  1.00  0.00     0.045 C  
HETATM    7  C   UNL     1      -9.452   4.480  67.774  1.00  0.00    -0.156 C  
HETATM    8  O   UNL     1      -8.592   3.911  68.436  1.00  0.00    -0.090 OA 
HETATM    9  C   UNL     1     -10.838   3.922  64.519  1.00  0.00    -0.098 C  
ENDROOT
BRANCH   7  10
HETATM   10  O   UNL     1     -10.529   5.095  68.324  1.00  0.00    -0.115 OA 
BRANCH  10  11
HETATM   11  C   UNL     1     -10.251   6.045  69.377  1.00  0.00    -0.211 C  
HETATM   12  N   UNL     1      -9.290   7.054  68.976  1.00  0.00    -0.137 N  
HETATM   13  C   UNL     1      -8.186   7.072  69.842  1.00  0.00    -0.130 C  
HETATM   14  C   UNL     1      -9.677   5.476  70.651  1.00  0.00    -0.176 A  
HETATM   15  N   UNL     1     -10.265   4.603  71.501  1.00  0.00    -0.183 NA 
HETATM   16  C   UNL     1      -8.459   6.078  70.901  1.00  0.00    -0.127 A  
HETATM   17  O   UNL     1      -7.201   7.788  69.846  1.00  0.00    -0.064 OA 
HETATM   18  C   UNL     1      -9.522   4.359  72.615  1.00  0.00    -0.134 A  
HETATM   19  N   UNL     1      -7.724   5.865  72.011  1.00  0.00    -0.101 NA 
HETATM   20  C   UNL     1      -8.288   4.970  72.858  1.00  0.00    -0.108 A  
BRANCH  12  21
HETATM   21  C   UNL     1      -9.470   7.927  67.889  1.00  0.00    -0.145 A  
HETATM   22 CL   UNL     1      -9.890  10.740  64.423  1.00  0.00    -0.342 Cl 
HETATM   23  C   UNL     1     -10.594   9.801  66.854  1.00  0.00    -0.243 A  
HETATM   24  C   UNL     1      -8.822   8.657  65.776  1.00  0.00    -0.193 A  
HETATM   25  N   UNL     1      -8.661   7.806  66.818  1.00  0.00    -0.128 NA 
HETATM   26  C   UNL     1     -10.460   8.912  67.925  1.00  0.00    -0.281 A  
HETATM   27  C   UNL     1      -9.760   9.670  65.756  1.00  0.00    -0.280 A  
ENDBRANCH  12  21
ENDBRANCH  10  11
ENDBRANCH   7  10
TORSDOF 3
ENDMDL
MODEL      184
REMARK 921   NORMALIZED FREE ENERGY PREDICTED BY IDOCK:   -3.31 KCAL/MOL
REMARK 922        TOTAL FREE ENERGY PREDICTED BY IDOCK:   -4.49 KCAL/MOL
REMARK 923 INTER-LIGAND FREE ENERGY PREDICTED BY IDOCK:   -4.51 KCAL/MOL
REMARK 924 INTRA-LIGAND FREE ENERGY PREDICTED BY IDOCK:    0.02 KCAL/MOL
REMARK 927      BINDING AFFINITY PREDICTED BY RF-SCORE:    0.00 PKD
ROOT
HETATM    1  C   UNL     1      -8.652  20.323  65.719  1.00  0.00     0.169 C  
HETATM    2  N   UNL     1      -8.726  19.469  66.904  1.00  0.00    -0.297 NA 
HETATM    3  C   UNL     1     -10.097  18.949  67.106  1.00  0.00    -0.358 C  
HETATM    4  C   UNL     1     -10.511  17.849  66.110  1.00  0.00    -0.321 C  
HETATM    5  N   UNL     1      -9.520  16.776  66.075  1.00  0.00    -0.257 N  
HETATM    6  C   UNL     1      -8.146  17.217  65.841  1.00  0.00    -0.001 C  
HETATM    7  C   UNL     1      -9.912  15.502  66.429  1.00  0.00    -0.283 C  
HETATM    8  O   UNL     1     -11.054  15.247  66.791  1.00  0.00    -0.320 OA 
HETATM    9  C   UNL     1      -7.767  18.342  66.834  1.00  0.00    -0.224 C  
ENDROOT
BRANCH   7  10
HETATM   10  O   UNL     1      -8.942  14.561  66.305  1.00  0.00    -0.194 OA 
BRANCH  10  11
HETATM   11  C   UNL     1      -9.041  13.424  67.192  1.00  0.00    -0.235 C  
HETATM   12  N   UNL     1      -7.807  13.168  67.908  1.00  0.00    -0.135 N  
HETATM   13  C   UNL     1      -7.352  11.861  67.676  1.00  0.00    -0.123 C  
HETATM   14  C   UNL     1      -9.373  12.103  66.542  1.00  0.00    -0.228 A  
HETATM   15  N   UNL     1     -10.504  11.772  65.880  1.00  0.00    -0.246 NA 
HETATM   16  C   UNL     1      -8.364  11.202  66.824  1.00  0.00    -0.152 A  
HETATM   17  O   UNL     1      -6.378  11.278  68.117  1.00  0.00    -0.052 OA 
HETATM   18  C   UNL     1     -10.536  10.467  65.496  1.00  0.00    -0.122 A  
HETATM   19  N   UNL     1      -8.393   9.901  66.473  1.00  0.00    -0.124 NA 
HETATM   20  C   UNL     1      -9.509   9.561  65.782  1.00  0.00    -0.250 A  
BRANCH  12  21
HETATM   21  C   UNL     1      -7.181  14.096  68.757  1.00  0.00    -0.120 A  
HETATM   22 CL   UNL     1      -5.163  17.155  71.341  1.00  0.00    -0.067 Cl 
HETATM   23  C   UNL     1      -5.511  14.643  70.418  1.00  0.00    -0.126 A  
HETATM   24  C   UNL     1      -6.965  16.284  69.522  1.00  0.00    -0.171 A  
HETATM   25  N   UNL     1      -7.579  15.384  68.717  1.00  0.00    -0.133 NA 
HETATM   26  C   UNL     1      -6.154  13.696  69.614  1.00  0.00    -0.120 A  
HETATM   27  C   UNL     1      -5.926  15.963  70.373  1.00  0.00    -0.023 A  
ENDBRANCH  12  21
ENDBRANCH  10  11
ENDBRANCH   7  10
TORSDOF 3
ENDMDL
MODEL      185
REMARK 921   NORMALIZED FREE ENERGY PREDICTED BY IDOCK:   -3.27 KCAL/MOL
REMARK 922        TOTAL FREE ENERGY PREDICTED BY IDOCK:   -4.45 KCAL/MOL
REMARK 923 INTER-LIGAND FREE ENERGY PREDICTED BY IDOCK:   -3.72 KCAL/MOL
REMARK 924 INTRA-LIGAND FREE ENERGY PREDICTED BY IDOCK:   -0.73 KCAL/MOL
REMARK 927      BINDING AFFINITY PREDICTED BY RF-SCORE:    0.00 PKD
ROOT
HETATM    1  C   UNL     1     -14.086   8.760  71.940  1.00  0.00    -0.420 C  
HETATM    2  N   UNL     1     -13.064   8.344  70.980  1.00  0.00     0.001 NA 
HETATM    3  C   UNL     1     -11.999   9.364  70.855  1.00  0.00    -0.280 C  
HETATM    4  C   UNL     1     -11.045   9.436  72.061  1.00  0.00     0.058 C  
HETATM    5  N   UNL     1     -10.501   8.117  72.377  1.00  0.00    -0.293 N  
HETATM    6  C   UNL     1     -11.503   7.067  72.553  1.00  0.00    -0.237 C  
HETATM    7  C   UNL     1      -9.137   7.931  72.312  1.00  0.00    -0.161 C  
HETATM    8  O   UNL     1      -8.370   8.826  71.977  1.00  0.00    -0.324 OA 
HETATM    9  C   UNL     1     -12.466   7.036  71.342  1.00  0.00    -0.384 C  
ENDROOT
BRANCH   7  10
HETATM   10  O   UNL     1      -8.720   6.694  72.683  1.00  0.00    -0.124 OA 
BRANCH  10  11
HETATM   11  C   UNL     1      -7.541   6.192  72.014  1.00  0.00    -0.096 C  
HETATM   12  N   UNL     1      -7.829   5.684  70.687  1.00  0.00    -0.097 N  
HETATM   13  C   UNL     1      -7.422   4.347  70.561  1.00  0.00    -0.049 C  
HETATM   14  C   UNL     1      -6.823   5.054  72.698  1.00  0.00    -0.071 A  
HETATM   15  N   UNL     1      -6.214   5.072  73.905  1.00  0.00    -0.050 NA 
HETATM   16  C   UNL     1      -6.776   3.975  71.836  1.00  0.00    -0.026 A  
HETATM   17  O   UNL     1      -7.473   3.597  69.602  1.00  0.00    -0.051 OA 
HETATM   18  C   UNL     1      -5.571   3.908  74.196  1.00  0.00    -0.004 A  
HETATM   19  N   UNL     1      -6.122   2.826  72.100  1.00  0.00    -0.013 NA 
HETATM   20  C   UNL     1      -5.531   2.819  73.320  1.00  0.00     0.000 A  
BRANCH  12  21
HETATM   21  C   UNL     1      -8.398   6.450  69.656  1.00  0.00    -0.126 A  
HETATM   22 CL   UNL     1     -10.280   8.763  66.307  1.00  0.00    -0.276 Cl 
HETATM   23  C   UNL     1      -8.188   8.053  67.858  1.00  0.00    -0.129 A  
HETATM   24  C   UNL     1     -10.259   7.031  68.384  1.00  0.00    -0.179 A  
HETATM   25  N   UNL     1      -9.712   6.305  69.389  1.00  0.00    -0.140 NA 
HETATM   26  C   UNL     1      -7.615   7.333  68.911  1.00  0.00    -0.103 A  
HETATM   27  C   UNL     1      -9.539   7.901  67.590  1.00  0.00    -0.150 A  
ENDBRANCH  12  21
ENDBRANCH  10  11
ENDBRANCH   7  10
TORSDOF 3
ENDMDL
MODEL      186
REMARK 921   NORMALIZED FREE ENERGY PREDICTED BY IDOCK:   -3.24 KCAL/MOL
REMARK 922        TOTAL FREE ENERGY PREDICTED BY IDOCK:   -4.42 KCAL/MOL
REMARK 923 INTER-LIGAND FREE ENERGY PREDICTED BY IDOCK:   -3.99 KCAL/MOL
REMARK 924 INTRA-LIGAND FREE ENERGY PREDICTED BY IDOCK:   -0.43 KCAL/MOL
REMARK 927      BINDING AFFINITY PREDICTED BY RF-SCORE:    0.00 PKD
ROOT
HETATM    1  C   UNL     1     -11.587  13.983  65.375  1.00  0.00    -0.328 C  
HETATM    2  N   UNL     1     -10.326  13.828  66.100  1.00  0.00    -0.294 NA 
HETATM    3  C   UNL     1     -10.541  13.870  67.564  1.00  0.00    -0.256 C  
HETATM    4  C   UNL     1     -11.198  12.604  68.145  1.00  0.00    -0.269 C  
HETATM    5  N   UNL     1     -10.472  11.404  67.734  1.00  0.00    -0.180 N  
HETATM    6  C   UNL     1     -10.259  11.280  66.293  1.00  0.00    -0.236 C  
HETATM    7  C   UNL     1      -9.912  10.604  68.708  1.00  0.00    -0.193 C  
HETATM    8  O   UNL     1      -9.983  10.878  69.899  1.00  0.00     0.113 OA 
HETATM    9  C   UNL     1      -9.626  12.576  65.731  1.00  0.00    -0.129 C  
ENDROOT
BRANCH   7  10
HETATM   10  O   UNL     1      -9.315   9.480  68.236  1.00  0.00    -0.133 OA 
BRANCH  10  11
HETATM   11  C   UNL     1      -7.900   9.353  68.501  1.00  0.00    -0.089 C  
HETATM   12  N   UNL     1      -7.611   8.363  69.520  1.00  0.00    -0.088 N  
HETATM   13  C   UNL     1      -6.886   8.927  70.581  1.00  0.00    -0.057 C  
HETATM   14  C   UNL     1      -7.201  10.598  68.989  1.00  0.00    -0.095 A  
HETATM   15  N   UNL     1      -7.041  11.766  68.326  1.00  0.00    -0.074 NA 
HETATM   16  C   UNL     1      -6.624  10.335  70.216  1.00  0.00    -0.142 A  
HETATM   17  O   UNL     1      -6.445   8.413  71.592  1.00  0.00    -0.050 OA 
HETATM   18  C   UNL     1      -6.276  12.665  69.003  1.00  0.00    -0.091 A  
HETATM   19  N   UNL     1      -5.844  11.206  70.887  1.00  0.00    -0.345 NA 
HETATM   20  C   UNL     1      -5.699  12.392  70.248  1.00  0.00    -0.166 A  
BRANCH  12  21
HETATM   21  C   UNL     1      -7.974   7.008  69.428  1.00  0.00    -0.118 A  
HETATM   22 CL   UNL     1      -9.157   2.707  68.978  1.00  0.00    -0.177 Cl 
HETATM   23  C   UNL     1      -9.277   5.118  70.185  1.00  0.00    -0.188 A  
HETATM   24  C   UNL     1      -7.790   4.953  68.349  1.00  0.00    -0.082 A  
HETATM   25  N   UNL     1      -7.429   6.256  68.451  1.00  0.00    -0.086 NA 
HETATM   26  C   UNL     1      -8.893   6.456  70.321  1.00  0.00    -0.151 A  
HETATM   27  C   UNL     1      -8.713   4.350  69.180  1.00  0.00    -0.085 A  
ENDBRANCH  12  21
ENDBRANCH  10  11
ENDBRANCH   7  10
TORSDOF 3
ENDMDL
MODEL      187
REMARK 921   NORMALIZED FREE ENERGY PREDICTED BY IDOCK:   -3.23 KCAL/MOL
REMARK 922        TOTAL FREE ENERGY PREDICTED BY IDOCK:   -4.40 KCAL/MOL
REMARK 923 INTER-LIGAND FREE ENERGY PREDICTED BY IDOCK:   -3.48 KCAL/MOL
REMARK 924 INTRA-LIGAND FREE ENERGY PREDICTED BY IDOCK:   -0.92 KCAL/MOL
REMARK 927      BINDING AFFINITY PREDICTED BY RF-SCORE:    0.00 PKD
ROOT
HETATM    1  C   UNL     1     -12.029   9.370  72.050  1.00  0.00    -0.275 C  
HETATM    2  N   UNL     1     -11.491   9.363  70.690  1.00  0.00    -0.274 NA 
HETATM    3  C   UNL     1     -10.091   9.841  70.664  1.00  0.00    -0.182 C  
HETATM    4  C   UNL     1      -9.068   8.838  71.229  1.00  0.00    -0.234 C  
HETATM    5  N   UNL     1      -9.210   7.531  70.590  1.00  0.00    -0.159 N  
HETATM    6  C   UNL     1     -10.565   6.982  70.613  1.00  0.00    -0.225 C  
HETATM    7  C   UNL     1      -8.140   7.019  69.887  1.00  0.00    -0.125 C  
HETATM    8  O   UNL     1      -7.087   7.632  69.762  1.00  0.00    -0.063 OA 
HETATM    9  C   UNL     1     -11.575   8.020  70.069  1.00  0.00     0.173 C  
ENDROOT
BRANCH   7  10
HETATM   10  O   UNL     1      -8.343   5.776  69.383  1.00  0.00    -0.109 OA 
BRANCH  10  11
HETATM   11  C   UNL     1      -7.587   5.438  68.198  1.00  0.00    -0.081 C  
HETATM   12  N   UNL     1      -8.325   5.691  66.976  1.00  0.00    -0.108 N  
HETATM   13  C   UNL     1      -8.428   4.527  66.199  1.00  0.00    -0.113 C  
HETATM   14  C   UNL     1      -7.153   3.998  68.075  1.00  0.00    -0.059 A  
HETATM   15  N   UNL     1      -6.312   3.320  68.888  1.00  0.00    -0.029 NA 
HETATM   16  C   UNL     1      -7.667   3.475  66.905  1.00  0.00    -0.080 A  
HETATM   17  O   UNL     1      -8.945   4.352  65.111  1.00  0.00    -0.131 OA 
HETATM   18  C   UNL     1      -6.045   2.059  68.450  1.00  0.00    -0.024 A  
HETATM   19  N   UNL     1      -7.392   2.238  66.444  1.00  0.00    -0.060 NA 
HETATM   20  C   UNL     1      -6.574   1.536  67.265  1.00  0.00    -0.028 A  
BRANCH  12  21
HETATM   21  C   UNL     1      -8.828   6.951  66.605  1.00  0.00    -0.135 A  
HETATM   22 CL   UNL     1     -10.560  10.895  65.366  1.00  0.00    -0.283 Cl 
HETATM   23  C   UNL     1      -8.575   9.071  65.471  1.00  0.00    -0.190 A  
HETATM   24  C   UNL     1     -10.580   8.483  66.587  1.00  0.00    -0.048 A  
HETATM   25  N   UNL     1     -10.087   7.276  66.958  1.00  0.00    -0.222 NA 
HETATM   26  C   UNL     1      -8.042   7.841  65.871  1.00  0.00    -0.121 A  
HETATM   27  C   UNL     1      -9.869   9.400  65.838  1.00  0.00    -0.291 A  
ENDBRANCH  12  21
ENDBRANCH  10  11
ENDBRANCH   7  10
TORSDOF 3
ENDMDL
MODEL      188
REMARK 921   NORMALIZED FREE ENERGY PREDICTED BY IDOCK:   -3.23 KCAL/MOL
REMARK 922        TOTAL FREE ENERGY PREDICTED BY IDOCK:   -4.40 KCAL/MOL
REMARK 923 INTER-LIGAND FREE ENERGY PREDICTED BY IDOCK:   -3.43 KCAL/MOL
REMARK 924 INTRA-LIGAND FREE ENERGY PREDICTED BY IDOCK:   -0.96 KCAL/MOL
REMARK 927      BINDING AFFINITY PREDICTED BY RF-SCORE:    0.00 PKD
ROOT
HETATM    1  C   UNL     1      -8.750   8.756  62.541  1.00  0.00    -0.119 C  
HETATM    2  N   UNL     1      -8.499  10.196  62.610  1.00  0.00    -0.155 NA 
HETATM    3  C   UNL     1      -9.711  10.931  63.035  1.00  0.00    -0.350 C  
HETATM    4  C   UNL     1     -10.059  10.774  64.527  1.00  0.00    -0.350 C  
HETATM    5  N   UNL     1      -8.907  11.090  65.368  1.00  0.00    -0.179 N  
HETATM    6  C   UNL     1      -7.682  10.368  65.027  1.00  0.00    -0.095 C  
HETATM    7  C   UNL     1      -9.009  12.131  66.266  1.00  0.00    -0.094 C  
HETATM    8  O   UNL     1     -10.023  12.812  66.364  1.00  0.00    -0.252 OA 
HETATM    9  C   UNL     1      -7.373  10.518  63.518  1.00  0.00     0.063 C  
ENDROOT
BRANCH   7  10
HETATM   10  O   UNL     1      -7.914  12.310  67.046  1.00  0.00    -0.169 OA 
BRANCH  10  11
HETATM   11  C   UNL     1      -8.121  12.188  68.471  1.00  0.00    -0.112 C  
HETATM   12  N   UNL     1      -7.657  13.351  69.202  1.00  0.00     0.108 N  
HETATM   13  C   UNL     1      -6.713  12.992  70.176  1.00  0.00     0.461 C  
HETATM   14  C   UNL     1      -7.430  11.029  69.146  1.00  0.00    -0.121 A  
HETATM   15  N   UNL     1      -7.638   9.710  68.934  1.00  0.00    -0.074 NA 
HETATM   16  C   UNL     1      -6.597  11.519  70.133  1.00  0.00     0.105 A  
HETATM   17  O   UNL     1      -6.125  13.678  70.992  1.00  0.00    -0.141 OA 
HETATM   18  C   UNL     1      -6.923   8.914  69.775  1.00  0.00    -0.050 A  
HETATM   19  N   UNL     1      -5.902  10.744  70.990  1.00  0.00    -0.328 NA 
HETATM   20  C   UNL     1      -6.079   9.418  70.770  1.00  0.00    -0.067 A  
BRANCH  12  21
HETATM   21  C   UNL     1      -8.131  14.657  68.988  1.00  0.00    -0.115 A  
HETATM   22 CL   UNL     1      -9.531  18.876  68.406  1.00  0.00    -0.379 Cl 
HETATM   23  C   UNL     1      -9.940  16.260  68.927  1.00  0.00    -0.248 A  
HETATM   24  C   UNL     1      -7.697  16.892  68.501  1.00  0.00    -0.227 A  
HETATM   25  N   UNL     1      -7.245  15.629  68.691  1.00  0.00    -0.123 NA 
HETATM   26  C   UNL     1      -9.493  14.946  69.097  1.00  0.00    -0.158 A  
HETATM   27  C   UNL     1      -9.024  17.253  68.620  1.00  0.00    -0.265 A  
ENDBRANCH  12  21
ENDBRANCH  10  11
ENDBRANCH   7  10
TORSDOF 3
ENDMDL
MODEL      189
REMARK 921   NORMALIZED FREE ENERGY PREDICTED BY IDOCK:   -3.23 KCAL/MOL
REMARK 922        TOTAL FREE ENERGY PREDICTED BY IDOCK:   -4.40 KCAL/MOL
REMARK 923 INTER-LIGAND FREE ENERGY PREDICTED BY IDOCK:   -4.08 KCAL/MOL
REMARK 924 INTRA-LIGAND FREE ENERGY PREDICTED BY IDOCK:   -0.32 KCAL/MOL
REMARK 927      BINDING AFFINITY PREDICTED BY RF-SCORE:    0.00 PKD
ROOT
HETATM    1  C   UNL     1     -11.845  10.998  68.598  1.00  0.00    -0.247 C  
HETATM    2  N   UNL     1     -11.837  12.244  67.830  1.00  0.00    -0.457 NA 
HETATM    3  C   UNL     1     -11.867  13.423  68.723  1.00  0.00    -0.351 C  
HETATM    4  C   UNL     1     -10.541  13.698  69.456  1.00  0.00     0.252 C  
HETATM    5  N   UNL     1      -9.425  13.754  68.514  1.00  0.00    -0.196 N  
HETATM    6  C   UNL     1      -9.314  12.599  67.626  1.00  0.00    -0.190 C  
HETATM    7  C   UNL     1      -8.700  14.923  68.418  1.00  0.00    -0.172 C  
HETATM    8  O   UNL     1      -8.974  15.919  69.076  1.00  0.00    -0.214 OA 
HETATM    9  C   UNL     1     -10.667  12.328  66.925  1.00  0.00    -0.232 C  
ENDROOT
BRANCH   7  10
HETATM   10  O   UNL     1      -7.646  14.861  67.565  1.00  0.00    -0.163 OA 
BRANCH  10  11
HETATM   11  C   UNL     1      -6.336  14.984  68.163  1.00  0.00    -0.134 C  
HETATM   12  N   UNL     1      -6.101  13.995  69.197  1.00  0.00    -0.093 N  
HETATM   13  C   UNL     1      -5.772  14.609  70.416  1.00  0.00    -0.146 C  
HETATM   14  C   UNL     1      -6.034  16.301  68.836  1.00  0.00    -0.129 A  
HETATM   15  N   UNL     1      -5.961  17.522  68.260  1.00  0.00    -0.160 NA 
HETATM   16  C   UNL     1      -5.719  16.063  70.160  1.00  0.00    -0.164 A  
HETATM   17  O   UNL     1      -5.485  14.116  71.492  1.00  0.00    -0.178 OA 
HETATM   18  C   UNL     1      -5.571  18.498  69.125  1.00  0.00    -0.206 A  
HETATM   19  N   UNL     1      -5.308  17.015  71.022  1.00  0.00    -0.144 NA 
HETATM   20  C   UNL     1      -5.258  18.250  70.466  1.00  0.00    -0.259 A  
BRANCH  12  21
HETATM   21  C   UNL     1      -6.154  12.607  68.987  1.00  0.00    -0.085 A  
HETATM   22 CL   UNL     1      -6.237   8.157  68.448  1.00  0.00    -0.048 Cl 
HETATM   23  C   UNL     1      -5.834  10.676  67.568  1.00  0.00    -0.044 A  
HETATM   24  C   UNL     1      -6.553  10.468  69.815  1.00  0.00    -0.112 A  
HETATM   25  N   UNL     1      -6.518  11.809  70.011  1.00  0.00    -0.088 NA 
HETATM   26  C   UNL     1      -5.821  12.063  67.745  1.00  0.00    -0.074 A  
HETATM   27  C   UNL     1      -6.210   9.861  68.623  1.00  0.00    -0.041 A  
ENDBRANCH  12  21
ENDBRANCH  10  11
ENDBRANCH   7  10
TORSDOF 3
ENDMDL
MODEL      190
REMARK 921   NORMALIZED FREE ENERGY PREDICTED BY IDOCK:   -3.11 KCAL/MOL
REMARK 922        TOTAL FREE ENERGY PREDICTED BY IDOCK:   -4.26 KCAL/MOL
REMARK 923 INTER-LIGAND FREE ENERGY PREDICTED BY IDOCK:   -4.09 KCAL/MOL
REMARK 924 INTRA-LIGAND FREE ENERGY PREDICTED BY IDOCK:   -0.17 KCAL/MOL
REMARK 927      BINDING AFFINITY PREDICTED BY RF-SCORE:    0.00 PKD
ROOT
HETATM    1  C   UNL     1      -6.042  14.629  67.598  1.00  0.00    -0.057 C  
HETATM    2  N   UNL     1      -5.276  13.488  68.099  1.00  0.00    -0.099 NA 
HETATM    3  C   UNL     1      -5.630  13.178  69.502  1.00  0.00    -0.088 C  
HETATM    4  C   UNL     1      -7.009  12.514  69.676  1.00  0.00     0.263 C  
HETATM    5  N   UNL     1      -7.137  11.343  68.809  1.00  0.00    -0.094 N  
HETATM    6  C   UNL     1      -6.837  11.588  67.400  1.00  0.00    -0.104 C  
HETATM    7  C   UNL     1      -7.348  10.111  69.390  1.00  0.00    -0.106 C  
HETATM    8  O   UNL     1      -7.407   9.962  70.605  1.00  0.00    -0.278 OA 
HETATM    9  C   UNL     1      -5.462  12.283  67.256  1.00  0.00    -0.113 C  
ENDROOT
BRANCH   7  10
HETATM   10  O   UNL     1      -7.518   9.095  68.507  1.00  0.00    -0.080 OA 
BRANCH  10  11
HETATM   11  C   UNL     1      -8.876   8.836  68.088  1.00  0.00    -0.141 C  
HETATM   12  N   UNL     1      -9.061   9.011  66.660  1.00  0.00    -0.153 N  
HETATM   13  C   UNL     1     -10.068   9.952  66.394  1.00  0.00    -0.240 C  
HETATM   14  C   UNL     1      -9.940   9.709  68.707  1.00  0.00    -0.173 A  
HETATM   15  N   UNL     1     -10.285   9.785  70.013  1.00  0.00    -0.247 NA 
HETATM   16  C   UNL     1     -10.619  10.367  67.701  1.00  0.00    -0.257 A  
HETATM   17  O   UNL     1     -10.519  10.340  65.332  1.00  0.00    -0.217 OA 
HETATM   18  C   UNL     1     -11.353  10.598  70.237  1.00  0.00    -0.319 A  
HETATM   19  N   UNL     1     -11.694  11.155  67.904  1.00  0.00    -0.593 NA 
HETATM   20  C   UNL     1     -12.033  11.264  69.212  1.00  0.00    -0.342 A  
BRANCH  12  21
HETATM   21  C   UNL     1      -8.353   8.294  65.680  1.00  0.00    -0.148 A  
HETATM   22 CL   UNL     1      -6.054   5.904  62.664  1.00  0.00    -0.025 Cl 
HETATM   23  C   UNL     1      -6.730   8.211  63.890  1.00  0.00    -0.071 A  
HETATM   24  C   UNL     1      -7.848   6.267  64.654  1.00  0.00    -0.111 A  
HETATM   25  N   UNL     1      -8.542   6.963  65.587  1.00  0.00    -0.138 NA 
HETATM   26  C   UNL     1      -7.460   8.947  64.829  1.00  0.00    -0.103 A  
HETATM   27  C   UNL     1      -6.929   6.843  63.799  1.00  0.00    -0.056 A  
ENDBRANCH  12  21
ENDBRANCH  10  11
ENDBRANCH   7  10
TORSDOF 3
ENDMDL
MODEL      191
REMARK 921   NORMALIZED FREE ENERGY PREDICTED BY IDOCK:   -3.06 KCAL/MOL
REMARK 922        TOTAL FREE ENERGY PREDICTED BY IDOCK:   -4.20 KCAL/MOL
REMARK 923 INTER-LIGAND FREE ENERGY PREDICTED BY IDOCK:   -4.13 KCAL/MOL
REMARK 924 INTRA-LIGAND FREE ENERGY PREDICTED BY IDOCK:   -0.06 KCAL/MOL
REMARK 927      BINDING AFFINITY PREDICTED BY RF-SCORE:    0.00 PKD
ROOT
HETATM    1  C   UNL     1     -11.178   5.272  72.797  1.00  0.00    -0.284 C  
HETATM    2  N   UNL     1     -11.075   6.598  72.189  1.00  0.00    -0.244 NA 
HETATM    3  C   UNL     1      -9.874   7.316  72.670  1.00  0.00    -0.169 C  
HETATM    4  C   UNL     1      -8.546   6.790  72.093  1.00  0.00    -0.117 C  
HETATM    5  N   UNL     1      -8.598   6.729  70.634  1.00  0.00    -0.141 N  
HETATM    6  C   UNL     1      -9.742   5.998  70.091  1.00  0.00    -0.167 C  
HETATM    7  C   UNL     1      -7.701   7.484  69.909  1.00  0.00    -0.098 C  
HETATM    8  O   UNL     1      -6.881   8.219  70.445  1.00  0.00    -0.036 OA 
HETATM    9  C   UNL     1     -11.059   6.527  70.709  1.00  0.00    -0.300 C  
ENDROOT
BRANCH   7  10
HETATM   10  O   UNL     1      -7.782   7.315  68.565  1.00  0.00    -0.115 OA 
BRANCH  10  11
HETATM   11  C   UNL     1      -8.901   7.953  67.909  1.00  0.00    -0.123 C  
HETATM   12  N   UNL     1      -8.977   7.629  66.498  1.00  0.00    -0.151 N  
HETATM   13  C   UNL     1      -8.957   8.792  65.712  1.00  0.00    -0.206 C  
HETATM   14  C   UNL     1      -8.918   9.462  67.943  1.00  0.00    -0.123 A  
HETATM   15  N   UNL     1      -9.012  10.260  69.031  1.00  0.00    -0.162 NA 
HETATM   16  C   UNL     1      -8.936   9.937  66.646  1.00  0.00    -0.139 A  
HETATM   17  O   UNL     1      -9.030   8.925  64.504  1.00  0.00    -0.113 OA 
HETATM   18  C   UNL     1      -9.100  11.581  68.718  1.00  0.00    -0.056 A  
HETATM   19  N   UNL     1      -9.048  11.241  66.320  1.00  0.00    -0.193 NA 
HETATM   20  C   UNL     1      -9.114  12.055  67.402  1.00  0.00    -0.178 A  
BRANCH  12  21
HETATM   21  C   UNL     1      -9.100   6.323  65.994  1.00  0.00    -0.109 A  
HETATM   22 CL   UNL     1      -9.522   2.217  64.244  1.00  0.00    -0.137 Cl 
HETATM   23  C   UNL     1     -10.074   4.112  66.084  1.00  0.00    -0.145 A  
HETATM   24  C   UNL     1      -8.548   4.736  64.384  1.00  0.00    -0.145 A  
HETATM   25  N   UNL     1      -8.417   5.990  64.881  1.00  0.00    -0.104 NA 
HETATM   26  C   UNL     1      -9.928   5.393  66.626  1.00  0.00    -0.220 A  
HETATM   27  C   UNL     1      -9.368   3.775  64.941  1.00  0.00    -0.156 A  
ENDBRANCH  12  21
ENDBRANCH  10  11
ENDBRANCH   7  10
TORSDOF 3
ENDMDL
MODEL      192
REMARK 921   NORMALIZED FREE ENERGY PREDICTED BY IDOCK:   -3.04 KCAL/MOL
REMARK 922        TOTAL FREE ENERGY PREDICTED BY IDOCK:   -4.18 KCAL/MOL
REMARK 923 INTER-LIGAND FREE ENERGY PREDICTED BY IDOCK:   -4.11 KCAL/MOL
REMARK 924 INTRA-LIGAND FREE ENERGY PREDICTED BY IDOCK:   -0.06 KCAL/MOL
REMARK 927      BINDING AFFINITY PREDICTED BY RF-SCORE:    0.00 PKD
ROOT
HETATM    1  C   UNL     1     -11.472   6.398  69.573  1.00  0.00    -0.343 C  
HETATM    2  N   UNL     1     -11.117   7.227  70.724  1.00  0.00    -0.259 NA 
HETATM    3  C   UNL     1      -9.794   6.850  71.270  1.00  0.00    -0.175 C  
HETATM    4  C   UNL     1      -8.601   7.290  70.402  1.00  0.00    -0.144 C  
HETATM    5  N   UNL     1      -8.677   8.717  70.094  1.00  0.00    -0.139 N  
HETATM    6  C   UNL     1      -9.947   9.152  69.515  1.00  0.00    -0.189 C  
HETATM    7  C   UNL     1      -7.657   9.541  70.520  1.00  0.00    -0.149 C  
HETATM    8  O   UNL     1      -6.704   9.121  71.165  1.00  0.00    -0.086 OA 
HETATM    9  C   UNL     1     -11.129   8.671  70.390  1.00  0.00    -0.230 C  
ENDROOT
BRANCH   7  10
HETATM   10  O   UNL     1      -7.782  10.835  70.134  1.00  0.00     0.052 OA 
BRANCH  10  11
HETATM   11  C   UNL     1      -7.268  11.162  68.823  1.00  0.00    -0.098 C  
HETATM   12  N   UNL     1      -8.257  11.810  67.984  1.00  0.00    -0.143 N  
HETATM   13  C   UNL     1      -8.449  11.099  66.789  1.00  0.00    -0.153 C  
HETATM   14  C   UNL     1      -6.784   9.999  67.991  1.00  0.00    -0.064 A  
HETATM   15  N   UNL     1      -5.754   9.166  68.263  1.00  0.00    -0.038 NA 
HETATM   16  C   UNL     1      -7.497   9.969  66.809  1.00  0.00    -0.096 A  
HETATM   17  O   UNL     1      -9.168  11.341  65.837  1.00  0.00    -0.204 OA 
HETATM   18  C   UNL     1      -5.509   8.276  67.262  1.00  0.00    -0.038 A  
HETATM   19  N   UNL     1      -7.249   9.110  65.799  1.00  0.00    -0.088 NA 
HETATM   20  C   UNL     1      -6.238   8.249  66.069  1.00  0.00    -0.049 A  
BRANCH  12  21
HETATM   21  C   UNL     1      -8.899  13.016  68.311  1.00  0.00    -0.172 A  
HETATM   22 CL   UNL     1     -10.839  16.890  69.465  1.00  0.00    -0.248 Cl 
HETATM   23  C   UNL     1     -10.891  14.250  68.910  1.00  0.00    -0.272 A  
HETATM   24  C   UNL     1      -8.774  15.300  68.745  1.00  0.00    -0.195 A  
HETATM   25  N   UNL     1      -8.159  14.138  68.414  1.00  0.00    -0.139 NA 
HETATM   26  C   UNL     1     -10.276  13.049  68.540  1.00  0.00    -0.218 A  
HETATM   27  C   UNL     1     -10.125  15.399  69.012  1.00  0.00    -0.234 A  
ENDBRANCH  12  21
ENDBRANCH  10  11
ENDBRANCH   7  10
TORSDOF 3
ENDMDL
MODEL      193
REMARK 921   NORMALIZED FREE ENERGY PREDICTED BY IDOCK:   -3.04 KCAL/MOL
REMARK 922        TOTAL FREE ENERGY PREDICTED BY IDOCK:   -4.17 KCAL/MOL
REMARK 923 INTER-LIGAND FREE ENERGY PREDICTED BY IDOCK:   -3.58 KCAL/MOL
REMARK 924 INTRA-LIGAND FREE ENERGY PREDICTED BY IDOCK:   -0.59 KCAL/MOL
REMARK 927      BINDING AFFINITY PREDICTED BY RF-SCORE:    0.00 PKD
ROOT
HETATM    1  C   UNL     1      -7.383  11.161  66.610  1.00  0.00    -0.145 C  
HETATM    2  N   UNL     1      -6.362  10.344  67.265  1.00  0.00    -0.061 NA 
HETATM    3  C   UNL     1      -6.656  10.172  68.705  1.00  0.00    -0.052 C  
HETATM    4  C   UNL     1      -7.823   9.212  69.004  1.00  0.00    -0.090 C  
HETATM    5  N   UNL     1      -7.630   7.930  68.329  1.00  0.00    -0.113 N  
HETATM    6  C   UNL     1      -7.373   8.025  66.893  1.00  0.00    -0.090 C  
HETATM    7  C   UNL     1      -7.533   6.788  69.095  1.00  0.00    -0.095 C  
HETATM    8  O   UNL     1      -7.579   6.815  70.319  1.00  0.00    -0.091 OA 
HETATM    9  C   UNL     1      -6.217   9.017  66.620  1.00  0.00    -0.061 C  
ENDROOT
BRANCH   7  10
HETATM   10  O   UNL     1      -7.419   5.640  68.381  1.00  0.00    -0.075 OA 
BRANCH  10  11
HETATM   11  C   UNL     1      -8.652   5.079  67.877  1.00  0.00    -0.103 C  
HETATM   12  N   UNL     1      -9.180   4.036  68.735  1.00  0.00    -0.138 N  
HETATM   13  C   UNL     1      -9.347   2.836  68.027  1.00  0.00    -0.204 C  
HETATM   14  C   UNL     1      -8.580   4.433  66.515  1.00  0.00    -0.112 A  
HETATM   15  N   UNL     1      -8.290   5.029  65.336  1.00  0.00    -0.126 NA 
HETATM   16  C   UNL     1      -8.977   3.115  66.624  1.00  0.00    -0.156 A  
HETATM   17  O   UNL     1      -9.784   1.761  68.395  1.00  0.00    -0.178 OA 
HETATM   18  C   UNL     1      -8.403   4.190  64.271  1.00  0.00    -0.098 A  
HETATM   19  N   UNL     1      -9.118   2.278  65.576  1.00  0.00    -0.123 NA 
HETATM   20  C   UNL     1      -8.802   2.854  64.390  1.00  0.00    -0.107 A  
BRANCH  12  21
HETATM   21  C   UNL     1      -9.521   4.225  70.086  1.00  0.00    -0.182 A  
HETATM   22 CL   UNL     1     -10.620   4.668  74.410  1.00  0.00    -0.325 Cl 
HETATM   23  C   UNL     1     -10.879   5.270  71.792  1.00  0.00    -0.198 A  
HETATM   24  C   UNL     1      -9.215   3.671  72.326  1.00  0.00    -0.117 A  
HETATM   25  N   UNL     1      -8.876   3.503  71.025  1.00  0.00    -0.078 NA 
HETATM   26  C   UNL     1     -10.520   5.130  70.447  1.00  0.00    -0.287 A  
HETATM   27  C   UNL     1     -10.211   4.528  72.751  1.00  0.00    -0.179 A  
ENDBRANCH  12  21
ENDBRANCH  10  11
ENDBRANCH   7  10
TORSDOF 3
ENDMDL
MODEL      194
REMARK 921   NORMALIZED FREE ENERGY PREDICTED BY IDOCK:   -2.97 KCAL/MOL
REMARK 922        TOTAL FREE ENERGY PREDICTED BY IDOCK:   -4.10 KCAL/MOL
REMARK 923 INTER-LIGAND FREE ENERGY PREDICTED BY IDOCK:   -3.15 KCAL/MOL
REMARK 924 INTRA-LIGAND FREE ENERGY PREDICTED BY IDOCK:   -0.95 KCAL/MOL
REMARK 927      BINDING AFFINITY PREDICTED BY RF-SCORE:    0.00 PKD
ROOT
HETATM    1  C   UNL     1     -11.660  11.796  68.628  1.00  0.00    -0.309 C  
HETATM    2  N   UNL     1     -10.380  11.428  68.022  1.00  0.00    -0.179 NA 
HETATM    3  C   UNL     1      -9.523  10.698  68.982  1.00  0.00    -0.191 C  
HETATM    4  C   UNL     1      -9.972   9.251  69.262  1.00  0.00    -0.180 C  
HETATM    5  N   UNL     1     -10.149   8.509  68.015  1.00  0.00    -0.191 N  
HETATM    6  C   UNL     1     -11.018   9.157  67.034  1.00  0.00     0.183 C  
HETATM    7  C   UNL     1      -9.376   7.389  67.797  1.00  0.00    -0.136 C  
HETATM    8  O   UNL     1      -8.532   7.011  68.600  1.00  0.00    -0.121 OA 
HETATM    9  C   UNL     1     -10.563  10.617  66.795  1.00  0.00    -0.237 C  
ENDROOT
BRANCH   7  10
HETATM   10  O   UNL     1      -9.654   6.731  66.643  1.00  0.00    -0.165 OA 
BRANCH  10  11
HETATM   11  C   UNL     1      -8.551   6.025  66.032  1.00  0.00    -0.147 C  
HETATM   12  N   UNL     1      -7.793   6.860  65.120  1.00  0.00    -0.113 N  
HETATM   13  C   UNL     1      -7.748   6.293  63.837  1.00  0.00    -0.107 C  
HETATM   14  C   UNL     1      -8.913   4.813  65.208  1.00  0.00    -0.151 A  
HETATM   15  N   UNL     1      -9.496   3.671  65.636  1.00  0.00    -0.162 NA 
HETATM   16  C   UNL     1      -8.447   4.994  63.920  1.00  0.00    -0.129 A  
HETATM   17  O   UNL     1      -7.192   6.682  62.826  1.00  0.00    -0.053 OA 
HETATM   18  C   UNL     1      -9.601   2.727  64.661  1.00  0.00    -0.112 A  
HETATM   19  N   UNL     1      -8.521   4.060  62.951  1.00  0.00    -0.086 NA 
HETATM   20  C   UNL     1      -9.130   2.919  63.358  1.00  0.00    -0.095 A  
BRANCH  12  21
HETATM   21  C   UNL     1      -7.153   8.055  65.492  1.00  0.00    -0.060 A  
HETATM   22 CL   UNL     1      -5.132  11.919  66.533  1.00  0.00     0.004 Cl 
HETATM   23  C   UNL     1      -5.287   9.225  66.488  1.00  0.00    -0.045 A  
HETATM   24  C   UNL     1      -7.111  10.382  65.516  1.00  0.00    -0.133 A  
HETATM   25  N   UNL     1      -7.734   9.229  65.173  1.00  0.00    -0.105 NA 
HETATM   26  C   UNL     1      -5.931   8.026  66.167  1.00  0.00    -0.041 A  
HETATM   27  C   UNL     1      -5.889  10.428  66.158  1.00  0.00    -0.087 A  
ENDBRANCH  12  21
ENDBRANCH  10  11
ENDBRANCH   7  10
TORSDOF 3
ENDMDL
MODEL      195
REMARK 921   NORMALIZED FREE ENERGY PREDICTED BY IDOCK:   -2.90 KCAL/MOL
REMARK 922        TOTAL FREE ENERGY PREDICTED BY IDOCK:   -4.01 KCAL/MOL
REMARK 923 INTER-LIGAND FREE ENERGY PREDICTED BY IDOCK:   -3.61 KCAL/MOL
REMARK 924 INTRA-LIGAND FREE ENERGY PREDICTED BY IDOCK:   -0.40 KCAL/MOL
REMARK 927      BINDING AFFINITY PREDICTED BY RF-SCORE:    0.00 PKD
ROOT
HETATM    1  C   UNL     1     -10.747   4.562  65.222  1.00  0.00    -0.110 C  
HETATM    2  N   UNL     1     -10.354   4.865  66.598  1.00  0.00    -0.253 NA 
HETATM    3  C   UNL     1      -8.885   4.995  66.720  1.00  0.00    -0.107 C  
HETATM    4  C   UNL     1      -8.311   6.291  66.117  1.00  0.00    -0.130 C  
HETATM    5  N   UNL     1      -9.007   7.464  66.640  1.00  0.00    -0.140 N  
HETATM    6  C   UNL     1     -10.464   7.418  66.516  1.00  0.00     0.039 C  
HETATM    7  C   UNL     1      -8.284   8.405  67.342  1.00  0.00    -0.120 C  
HETATM    8  O   UNL     1      -7.085   8.278  67.560  1.00  0.00    -0.080 OA 
HETATM    9  C   UNL     1     -11.011   6.095  67.102  1.00  0.00    -0.331 C  
ENDROOT
BRANCH   7  10
HETATM   10  O   UNL     1      -9.001   9.488  67.733  1.00  0.00    -0.123 OA 
BRANCH  10  11
HETATM   11  C   UNL     1      -8.988   9.783  69.147  1.00  0.00    -0.161 C  
HETATM   12  N   UNL     1      -7.804  10.514  69.553  1.00  0.00    -0.151 N  
HETATM   13  C   UNL     1      -7.110   9.830  70.563  1.00  0.00    -0.122 C  
HETATM   14  C   UNL     1      -9.023   8.593  70.074  1.00  0.00    -0.147 A  
HETATM   15  N   UNL     1     -10.010   7.679  70.204  1.00  0.00    -0.185 NA 
HETATM   16  C   UNL     1      -7.906   8.628  70.887  1.00  0.00    -0.118 A  
HETATM   17  O   UNL     1      -6.098  10.136  71.167  1.00  0.00    -0.261 OA 
HETATM   18  C   UNL     1      -9.780   6.781  71.200  1.00  0.00    -0.174 A  
HETATM   19  N   UNL     1      -7.676   7.761  71.894  1.00  0.00    -0.086 NA 
HETATM   20  C   UNL     1      -8.645   6.821  72.017  1.00  0.00    -0.122 A  
BRANCH  12  21
HETATM   21  C   UNL     1      -7.432  11.765  69.030  1.00  0.00    -0.030 A  
HETATM   22 CL   UNL     1      -6.348  15.732  67.245  1.00  0.00    -0.170 Cl 
HETATM   23  C   UNL     1      -5.735  13.325  68.301  1.00  0.00    -0.095 A  
HETATM   24  C   UNL     1      -8.044  13.834  68.157  1.00  0.00    -0.155 A  
HETATM   25  N   UNL     1      -8.400  12.634  68.677  1.00  0.00    -0.040 NA 
HETATM   26  C   UNL     1      -6.085  12.095  68.866  1.00  0.00    -0.072 A  
HETATM   27  C   UNL     1      -6.734  14.215  67.942  1.00  0.00    -0.167 A  
ENDBRANCH  12  21
ENDBRANCH  10  11
ENDBRANCH   7  10
TORSDOF 3
ENDMDL
MODEL      196
REMARK 921   NORMALIZED FREE ENERGY PREDICTED BY IDOCK:   -2.75 KCAL/MOL
REMARK 922        TOTAL FREE ENERGY PREDICTED BY IDOCK:   -3.84 KCAL/MOL
REMARK 923 INTER-LIGAND FREE ENERGY PREDICTED BY IDOCK:   -3.62 KCAL/MOL
REMARK 924 INTRA-LIGAND FREE ENERGY PREDICTED BY IDOCK:   -0.22 KCAL/MOL
REMARK 927      BINDING AFFINITY PREDICTED BY RF-SCORE:    0.00 PKD
ROOT
HETATM    1  C   UNL     1      -7.700  10.664  66.091  1.00  0.00    -0.145 C  
HETATM    2  N   UNL     1      -6.914  10.571  67.321  1.00  0.00    -0.085 NA 
HETATM    3  C   UNL     1      -7.748  10.846  68.512  1.00  0.00    -0.119 C  
HETATM    4  C   UNL     1      -8.725   9.713  68.878  1.00  0.00    -0.132 C  
HETATM    5  N   UNL     1      -8.025   8.434  68.986  1.00  0.00    -0.109 N  
HETATM    6  C   UNL     1      -7.210   8.082  67.824  1.00  0.00    -0.091 C  
HETATM    7  C   UNL     1      -8.042   7.771  70.195  1.00  0.00    -0.117 C  
HETATM    8  O   UNL     1      -8.603   8.228  71.183  1.00  0.00    -0.123 OA 
HETATM    9  C   UNL     1      -6.261   9.248  67.461  1.00  0.00    -0.058 C  
ENDROOT
BRANCH   7  10
HETATM   10  O   UNL     1      -7.421   6.565  70.182  1.00  0.00    -0.089 OA 
BRANCH  10  11
HETATM   11  C   UNL     1      -8.036   5.540  69.369  1.00  0.00    -0.094 C  
HETATM   12  N   UNL     1      -9.148   4.893  70.038  1.00  0.00    -0.105 N  
HETATM   13  C   UNL     1      -8.951   3.506  70.118  1.00  0.00    -0.107 C  
HETATM   14  C   UNL     1      -7.142   4.398  68.951  1.00  0.00    -0.052 A  
HETATM   15  N   UNL     1      -6.044   4.458  68.165  1.00  0.00    -0.030 NA 
HETATM   16  C   UNL     1      -7.686   3.214  69.411  1.00  0.00    -0.047 A  
HETATM   17  O   UNL     1      -9.667   2.636  70.579  1.00  0.00    -0.114 OA 
HETATM   18  C   UNL     1      -5.513   3.234  67.895  1.00  0.00    -0.017 A  
HETATM   19  N   UNL     1      -7.187   1.994  69.131  1.00  0.00    -0.043 NA 
HETATM   20  C   UNL     1      -6.068   2.040  68.368  1.00  0.00    -0.024 A  
BRANCH  12  21
HETATM   21  C   UNL     1     -10.291   5.569  70.501  1.00  0.00    -0.272 A  
HETATM   22 CL   UNL     1     -13.976   7.593  72.056  1.00  0.00    -0.341 Cl 
HETATM   23  C   UNL     1     -12.277   6.883  70.083  1.00  0.00    -0.001 A  
HETATM   24  C   UNL     1     -11.689   6.166  72.263  1.00  0.00    -0.302 A  
HETATM   25  N   UNL     1     -10.579   5.529  71.817  1.00  0.00    -0.231 NA 
HETATM   26  C   UNL     1     -11.119   6.255  69.612  1.00  0.00    -0.479 A  
HETATM   27  C   UNL     1     -12.567   6.839  71.437  1.00  0.00    -0.297 A  
ENDBRANCH  12  21
ENDBRANCH  10  11
ENDBRANCH   7  10
TORSDOF 3
ENDMDL
MODEL      197
REMARK 921   NORMALIZED FREE ENERGY PREDICTED BY IDOCK:   -2.72 KCAL/MOL
REMARK 922        TOTAL FREE ENERGY PREDICTED BY IDOCK:   -3.80 KCAL/MOL
REMARK 923 INTER-LIGAND FREE ENERGY PREDICTED BY IDOCK:   -3.47 KCAL/MOL
REMARK 924 INTRA-LIGAND FREE ENERGY PREDICTED BY IDOCK:   -0.33 KCAL/MOL
REMARK 927      BINDING AFFINITY PREDICTED BY RF-SCORE:    0.00 PKD
ROOT
HETATM    1  C   UNL     1     -11.445  11.590  69.848  1.00  0.00    -0.260 C  
HETATM    2  N   UNL     1     -10.992  10.995  68.591  1.00  0.00    -0.204 NA 
HETATM    3  C   UNL     1      -9.695  11.564  68.164  1.00  0.00    -0.192 C  
HETATM    4  C   UNL     1      -8.489  11.086  68.993  1.00  0.00    -0.076 C  
HETATM    5  N   UNL     1      -8.447   9.626  69.061  1.00  0.00    -0.125 N  
HETATM    6  C   UNL     1      -9.688   8.998  69.513  1.00  0.00    -0.170 C  
HETATM    7  C   UNL     1      -7.349   8.971  68.546  1.00  0.00    -0.077 C  
HETATM    8  O   UNL     1      -6.422   9.569  68.014  1.00  0.00    -0.060 OA 
HETATM    9  C   UNL     1     -10.886   9.519  68.684  1.00  0.00    -0.139 C  
ENDROOT
BRANCH   7  10
HETATM   10  O   UNL     1      -7.370   7.624  68.710  1.00  0.00    -0.086 OA 
BRANCH  10  11
HETATM   11  C   UNL     1      -8.378   6.907  67.963  1.00  0.00    -0.121 C  
HETATM   12  N   UNL     1      -8.524   5.533  68.402  1.00  0.00    -0.101 N  
HETATM   13  C   UNL     1      -8.325   4.640  67.338  1.00  0.00    -0.104 C  
HETATM   14  C   UNL     1      -8.149   6.797  66.475  1.00  0.00    -0.108 A  
HETATM   15  N   UNL     1      -8.098   7.803  65.573  1.00  0.00    -0.121 NA 
HETATM   16  C   UNL     1      -8.106   5.460  66.129  1.00  0.00    -0.106 A  
HETATM   17  O   UNL     1      -8.390   3.424  67.310  1.00  0.00    -0.089 OA 
HETATM   18  C   UNL     1      -7.974   7.365  64.291  1.00  0.00    -0.097 A  
HETATM   19  N   UNL     1      -8.009   5.011  64.861  1.00  0.00    -0.094 NA 
HETATM   20  C   UNL     1      -7.927   6.009  63.948  1.00  0.00    -0.114 A  
BRANCH  12  21
HETATM   21  C   UNL     1      -8.865   5.156  69.712  1.00  0.00    -0.106 A  
HETATM   22 CL   UNL     1      -9.892   3.811  73.864  1.00  0.00    -0.142 Cl 
HETATM   23  C   UNL     1     -10.485   4.963  71.496  1.00  0.00    -0.179 A  
HETATM   24  C   UNL     1      -8.264   4.176  71.736  1.00  0.00    -0.091 A  
HETATM   25  N   UNL     1      -7.933   4.555  70.478  1.00  0.00    -0.056 NA 
HETATM   26  C   UNL     1     -10.150   5.386  70.206  1.00  0.00    -0.318 A  
HETATM   27  C   UNL     1      -9.522   4.347  72.279  1.00  0.00    -0.135 A  
ENDBRANCH  12  21
ENDBRANCH  10  11
ENDBRANCH   7  10
TORSDOF 3
ENDMDL
MODEL      198
REMARK 921   NORMALIZED FREE ENERGY PREDICTED BY IDOCK:   -2.59 KCAL/MOL
REMARK 922        TOTAL FREE ENERGY PREDICTED BY IDOCK:   -3.65 KCAL/MOL
REMARK 923 INTER-LIGAND FREE ENERGY PREDICTED BY IDOCK:   -3.52 KCAL/MOL
REMARK 924 INTRA-LIGAND FREE ENERGY PREDICTED BY IDOCK:   -0.12 KCAL/MOL
REMARK 927      BINDING AFFINITY PREDICTED BY RF-SCORE:    0.00 PKD
ROOT
HETATM    1  C   UNL     1      -8.310   4.744  69.130  1.00  0.00    -0.081 C  
HETATM    2  N   UNL     1      -8.616   5.812  70.082  1.00  0.00    -0.127 NA 
HETATM    3  C   UNL     1      -7.390   6.534  70.489  1.00  0.00    -0.082 C  
HETATM    4  C   UNL     1      -6.813   7.466  69.407  1.00  0.00    -0.053 C  
HETATM    5  N   UNL     1      -7.839   8.375  68.899  1.00  0.00    -0.111 N  
HETATM    6  C   UNL     1      -9.065   7.722  68.442  1.00  0.00    -0.131 C  
HETATM    7  C   UNL     1      -7.651   9.733  69.048  1.00  0.00    -0.082 C  
HETATM    8  O   UNL     1      -6.668  10.199  69.611  1.00  0.00    -0.055 OA 
HETATM    9  C   UNL     1      -9.606   6.771  69.537  1.00  0.00    -0.147 C  
ENDROOT
BRANCH   7  10
HETATM   10  O   UNL     1      -8.623  10.499  68.491  1.00  0.00    -0.122 OA 
BRANCH  10  11
HETATM   11  C   UNL     1      -8.256  11.222  67.295  1.00  0.00    -0.140 C  
HETATM   12  N   UNL     1      -8.326  12.660  67.471  1.00  0.00    -0.166 N  
HETATM   13  C   UNL     1      -9.186  13.242  66.527  1.00  0.00    -0.172 C  
HETATM   14  C   UNL     1      -9.101  10.958  66.073  1.00  0.00    -0.191 A  
HETATM   15  N   UNL     1      -9.241   9.790  65.406  1.00  0.00    -0.208 NA 
HETATM   16  C   UNL     1      -9.650  12.151  65.645  1.00  0.00    -0.165 A  
HETATM   17  O   UNL     1      -9.476  14.410  66.343  1.00  0.00    -0.280 OA 
HETATM   18  C   UNL     1     -10.001   9.905  64.283  1.00  0.00     0.241 A  
HETATM   19  N   UNL     1     -10.384  12.285  64.521  1.00  0.00    -0.298 NA 
HETATM   20  C   UNL     1     -10.557  11.116  63.858  1.00  0.00    -0.364 A  
BRANCH  12  21
HETATM   21  C   UNL     1      -7.591  13.373  68.434  1.00  0.00    -0.133 A  
HETATM   22 CL   UNL     1      -5.274  15.781  71.422  1.00  0.00    -0.086 Cl 
HETATM   23  C   UNL     1      -5.596  13.676  69.765  1.00  0.00    -0.100 A  
HETATM   24  C   UNL     1      -7.405  15.202  69.861  1.00  0.00    -0.068 A  
HETATM   25  N   UNL     1      -8.119  14.503  68.945  1.00  0.00    -0.145 NA 
HETATM   26  C   UNL     1      -6.333  12.928  68.841  1.00  0.00    -0.090 A  
HETATM   27  C   UNL     1      -6.144  14.835  70.288  1.00  0.00    -0.167 A  
ENDBRANCH  12  21
ENDBRANCH  10  11
ENDBRANCH   7  10
TORSDOF 3
ENDMDL
MODEL      199
REMARK 921   NORMALIZED FREE ENERGY PREDICTED BY IDOCK:   -2.54 KCAL/MOL
REMARK 922        TOTAL FREE ENERGY PREDICTED BY IDOCK:   -3.58 KCAL/MOL
REMARK 923 INTER-LIGAND FREE ENERGY PREDICTED BY IDOCK:   -3.66 KCAL/MOL
REMARK 924 INTRA-LIGAND FREE ENERGY PREDICTED BY IDOCK:    0.07 KCAL/MOL
REMARK 927      BINDING AFFINITY PREDICTED BY RF-SCORE:    0.00 PKD
ROOT
HETATM    1  C   UNL     1     -13.058  15.521  69.757  1.00  0.00     0.518 C  
HETATM    2  N   UNL     1     -11.767  15.029  70.237  1.00  0.00    -0.274 NA 
HETATM    3  C   UNL     1     -11.923  13.769  70.998  1.00  0.00    -0.121 C  
HETATM    4  C   UNL     1     -12.233  12.537  70.128  1.00  0.00    -0.234 C  
HETATM    5  N   UNL     1     -11.260  12.403  69.045  1.00  0.00    -0.260 N  
HETATM    6  C   UNL     1     -11.085  13.603  68.228  1.00  0.00    -0.256 C  
HETATM    7  C   UNL     1     -10.484  11.265  68.990  1.00  0.00    -0.194 C  
HETATM    8  O   UNL     1     -10.568  10.376  69.828  1.00  0.00    -0.247 OA 
HETATM    9  C   UNL     1     -10.804  14.830  69.128  1.00  0.00    -0.260 C  
ENDROOT
BRANCH   7  10
HETATM   10  O   UNL     1      -9.656  11.201  67.917  1.00  0.00    -0.167 OA 
BRANCH  10  11
HETATM   11  C   UNL     1      -8.252  11.018  68.206  1.00  0.00    -0.130 C  
HETATM   12  N   UNL     1      -7.410  11.958  67.492  1.00  0.00    -0.122 N  
HETATM   13  C   UNL     1      -6.457  11.288  66.710  1.00  0.00    -0.136 C  
HETATM   14  C   UNL     1      -7.674   9.668  67.860  1.00  0.00    -0.087 A  
HETATM   15  N   UNL     1      -8.009   8.469  68.387  1.00  0.00    -0.116 NA 
HETATM   16  C   UNL     1      -6.632   9.844  66.970  1.00  0.00    -0.070 A  
HETATM   17  O   UNL     1      -5.571  11.729  66.001  1.00  0.00    -0.170 OA 
HETATM   18  C   UNL     1      -7.232   7.448  67.932  1.00  0.00    -0.091 A  
HETATM   19  N   UNL     1      -5.837   8.847  66.530  1.00  0.00    -0.054 NA 
HETATM   20  C   UNL     1      -6.180   7.634  67.028  1.00  0.00    -0.053 A  
BRANCH  12  21
HETATM   21  C   UNL     1      -7.512  13.355  67.610  1.00  0.00    -0.178 A  
HETATM   22 CL   UNL     1      -7.847  17.793  68.144  1.00  0.00    -0.254 Cl 
HETATM   23  C   UNL     1      -8.547  15.452  66.998  1.00  0.00    -0.262 A  
HETATM   24  C   UNL     1      -6.829  15.335  68.624  1.00  0.00    -0.109 A  
HETATM   25  N   UNL     1      -6.721  13.990  68.497  1.00  0.00    -0.090 NA 
HETATM   26  C   UNL     1      -8.427  14.068  66.834  1.00  0.00    -0.102 A  
HETATM   27  C   UNL     1      -7.730  16.100  67.911  1.00  0.00    -0.137 A  
ENDBRANCH  12  21
ENDBRANCH  10  11
ENDBRANCH   7  10
TORSDOF 3
ENDMDL
MODEL      200
REMARK 921   NORMALIZED FREE ENERGY PREDICTED BY IDOCK:   -2.52 KCAL/MOL
REMARK 922        TOTAL FREE ENERGY PREDICTED BY IDOCK:   -3.57 KCAL/MOL
REMARK 923 INTER-LIGAND FREE ENERGY PREDICTED BY IDOCK:   -3.58 KCAL/MOL
REMARK 924 INTRA-LIGAND FREE ENERGY PREDICTED BY IDOCK:    0.01 KCAL/MOL
REMARK 927      BINDING AFFINITY PREDICTED BY RF-SCORE:    0.00 PKD
ROOT
HETATM    1  C   UNL     1      -7.239  10.171  63.124  1.00  0.00    -0.132 C  
HETATM    2  N   UNL     1      -6.090   9.576  63.807  1.00  0.00    -0.092 NA 
HETATM    3  C   UNL     1      -5.780  10.296  65.062  1.00  0.00    -0.128 C  
HETATM    4  C   UNL     1      -6.778  10.036  66.205  1.00  0.00    -0.094 C  
HETATM    5  N   UNL     1      -6.956   8.603  66.428  1.00  0.00    -0.077 N  
HETATM    6  C   UNL     1      -7.302   7.835  65.234  1.00  0.00    -0.078 C  
HETATM    7  C   UNL     1      -6.622   8.079  67.659  1.00  0.00    -0.057 C  
HETATM    8  O   UNL     1      -6.162   8.770  68.561  1.00  0.00    -0.051 OA 
HETATM    9  C   UNL     1      -6.302   8.137  64.092  1.00  0.00    -0.066 C  
ENDROOT
BRANCH   7  10
HETATM   10  O   UNL     1      -6.880   6.754  67.795  1.00  0.00    -0.074 OA 
BRANCH  10  11
HETATM   11  C   UNL     1      -8.112   6.410  68.467  1.00  0.00    -0.110 C  
HETATM   12  N   UNL     1      -9.165   6.037  67.543  1.00  0.00    -0.112 N  
HETATM   13  C   UNL     1     -10.299   6.846  67.716  1.00  0.00    -0.203 C  
HETATM   14  C   UNL     1      -8.732   7.495  69.313  1.00  0.00    -0.136 A  
HETATM   15  N   UNL     1      -8.211   8.076  70.418  1.00  0.00    -0.116 NA 
HETATM   16  C   UNL     1     -10.008   7.748  68.850  1.00  0.00    -0.182 A  
HETATM   17  O   UNL     1     -11.377   6.819  67.151  1.00  0.00    -0.330 OA 
HETATM   18  C   UNL     1      -9.063   8.955  71.011  1.00  0.00    -0.243 A  
HETATM   19  N   UNL     1     -10.873   8.597  69.441  1.00  0.00    -0.155 NA 
HETATM   20  C   UNL     1     -10.354   9.209  70.533  1.00  0.00    -0.235 A  
BRANCH  12  21
HETATM   21  C   UNL     1      -9.071   4.973  66.628  1.00  0.00    -0.119 A  
HETATM   22 CL   UNL     1      -8.900   1.637  63.639  1.00  0.00    -0.087 Cl 
HETATM   23  C   UNL     1      -8.874   2.611  66.156  1.00  0.00    -0.136 A  
HETATM   24  C   UNL     1      -9.072   4.218  64.427  1.00  0.00    -0.150 A  
HETATM   25  N   UNL     1      -9.145   5.243  65.310  1.00  0.00    -0.131 NA 
HETATM   26  C   UNL     1      -8.919   3.661  67.078  1.00  0.00    -0.159 A  
HETATM   27  C   UNL     1      -8.949   2.895  64.802  1.00  0.00    -0.127 A  
ENDBRANCH  12  21
ENDBRANCH  10  11
ENDBRANCH   7  10
TORSDOF 3
ENDMDL
MODEL      201
REMARK 921   NORMALIZED FREE ENERGY PREDICTED BY IDOCK:   -2.52 KCAL/MOL
REMARK 922        TOTAL FREE ENERGY PREDICTED BY IDOCK:   -3.56 KCAL/MOL
REMARK 923 INTER-LIGAND FREE ENERGY PREDICTED BY IDOCK:   -2.79 KCAL/MOL
REMARK 924 INTRA-LIGAND FREE ENERGY PREDICTED BY IDOCK:   -0.77 KCAL/MOL
REMARK 927      BINDING AFFINITY PREDICTED BY RF-SCORE:    0.00 PKD
ROOT
HETATM    1  C   UNL     1     -11.617  10.715  70.181  1.00  0.00    -0.330 C  
HETATM    2  N   UNL     1     -10.609  10.698  69.121  1.00  0.00    -0.213 NA 
HETATM    3  C   UNL     1      -9.245  10.570  69.680  1.00  0.00     0.039 C  
HETATM    4  C   UNL     1      -8.910   9.167  70.220  1.00  0.00    -0.213 C  
HETATM    5  N   UNL     1      -9.187   8.141  69.217  1.00  0.00    -0.151 N  
HETATM    6  C   UNL     1     -10.534   8.186  68.650  1.00  0.00    -0.165 C  
HETATM    7  C   UNL     1      -8.147   7.354  68.772  1.00  0.00    -0.128 C  
HETATM    8  O   UNL     1      -6.998   7.502  69.170  1.00  0.00    -0.068 OA 
HETATM    9  C   UNL     1     -10.855   9.612  68.142  1.00  0.00    -0.190 C  
ENDROOT
BRANCH   7  10
HETATM   10  O   UNL     1      -8.510   6.389  67.890  1.00  0.00    -0.118 OA 
BRANCH  10  11
HETATM   11  C   UNL     1      -7.431   5.649  67.275  1.00  0.00    -0.084 C  
HETATM   12  N   UNL     1      -7.443   5.748  65.829  1.00  0.00    -0.076 N  
HETATM   13  C   UNL     1      -7.506   4.477  65.237  1.00  0.00    -0.077 C  
HETATM   14  C   UNL     1      -7.407   4.164  67.543  1.00  0.00    -0.068 A  
HETATM   15  N   UNL     1      -7.243   3.545  68.734  1.00  0.00    -0.050 NA 
HETATM   16  C   UNL     1      -7.466   3.492  66.338  1.00  0.00    -0.077 A  
HETATM   17  O   UNL     1      -7.508   4.156  64.062  1.00  0.00    -0.067 OA 
HETATM   18  C   UNL     1      -7.170   2.191  68.627  1.00  0.00    -0.044 A  
HETATM   19  N   UNL     1      -7.369   2.153  66.213  1.00  0.00    -0.060 NA 
HETATM   20  C   UNL     1      -7.234   1.517  67.402  1.00  0.00    -0.042 A  
BRANCH  12  21
HETATM   21  C   UNL     1      -7.355   6.959  65.120  1.00  0.00    -0.081 A  
HETATM   22 CL   UNL     1      -7.220  10.794  62.802  1.00  0.00    -0.019 Cl 
HETATM   23  C   UNL     1      -6.174   8.446  63.624  1.00  0.00    -0.073 A  
HETATM   24  C   UNL     1      -8.316   8.981  64.482  1.00  0.00    -0.175 A  
HETATM   25  N   UNL     1      -8.391   7.820  65.178  1.00  0.00    -0.133 NA 
HETATM   26  C   UNL     1      -6.224   7.257  64.360  1.00  0.00    -0.037 A  
HETATM   27  C   UNL     1      -7.240   9.327  63.689  1.00  0.00    -0.094 A  
ENDBRANCH  12  21
ENDBRANCH  10  11
ENDBRANCH   7  10
TORSDOF 3
ENDMDL
MODEL      202
REMARK 921   NORMALIZED FREE ENERGY PREDICTED BY IDOCK:   -2.50 KCAL/MOL
REMARK 922        TOTAL FREE ENERGY PREDICTED BY IDOCK:   -3.54 KCAL/MOL
REMARK 923 INTER-LIGAND FREE ENERGY PREDICTED BY IDOCK:   -5.17 KCAL/MOL
REMARK 924 INTRA-LIGAND FREE ENERGY PREDICTED BY IDOCK:    1.63 KCAL/MOL
REMARK 927      BINDING AFFINITY PREDICTED BY RF-SCORE:    0.00 PKD
ROOT
HETATM    1  C   UNL     1     -12.196  11.570  68.068  1.00  0.00     0.357 C  
HETATM    2  N   UNL     1     -11.687  11.679  66.701  1.00  0.00    -0.504 NA 
HETATM    3  C   UNL     1     -12.459  12.670  65.919  1.00  0.00     0.011 C  
HETATM    4  C   UNL     1     -12.176  14.136  66.295  1.00  0.00    -0.449 C  
HETATM    5  N   UNL     1     -10.742  14.416  66.265  1.00  0.00    -0.301 N  
HETATM    6  C   UNL     1      -9.921  13.495  67.050  1.00  0.00    -0.247 C  
HETATM    7  C   UNL     1     -10.274  15.375  65.392  1.00  0.00    -0.377 C  
HETATM    8  O   UNL     1     -11.015  15.982  64.629  1.00  0.00    -0.590 OA 
HETATM    9  C   UNL     1     -10.247  12.030  66.673  1.00  0.00    -0.204 C  
ENDROOT
BRANCH   7  10
HETATM   10  O   UNL     1      -8.940  15.611  65.479  1.00  0.00    -0.051 OA 
BRANCH  10  11
HETATM   11  C   UNL     1      -8.535  16.641  66.408  1.00  0.00    -0.313 C  
HETATM   12  N   UNL     1      -8.469  16.163  67.775  1.00  0.00    -0.158 N  
HETATM   13  C   UNL     1      -9.292  16.928  68.617  1.00  0.00    -0.268 C  
HETATM   14  C   UNL     1      -9.428  17.855  66.484  1.00  0.00    -0.299 A  
HETATM   15  N   UNL     1      -9.690  18.747  65.502  1.00  0.00    -0.064 NA 
HETATM   16  C   UNL     1      -9.874  18.000  67.783  1.00  0.00    -0.305 A  
HETATM   17  O   UNL     1      -9.477  16.848  69.817  1.00  0.00     0.250 OA 
HETATM   18  C   UNL     1     -10.461  19.789  65.918  1.00  0.00    -0.486 A  
HETATM   19  N   UNL     1     -10.617  19.038  68.216  1.00  0.00    -0.257 NA 
HETATM   20  C   UNL     1     -10.912  19.926  67.236  1.00  0.00    -0.127 A  
BRANCH  12  21
HETATM   21  C   UNL     1      -7.650  15.103  68.201  1.00  0.00    -0.112 A  
HETATM   22 CL   UNL     1      -5.138  11.620  69.488  1.00  0.00    -0.052 Cl 
HETATM   23  C   UNL     1      -6.472  13.920  69.949  1.00  0.00    -0.077 A  
HETATM   24  C   UNL     1      -6.498  13.140  67.713  1.00  0.00    -0.153 A  
HETATM   25  N   UNL     1      -7.274  14.172  67.301  1.00  0.00    -0.102 NA 
HETATM   26  C   UNL     1      -7.247  15.007  69.534  1.00  0.00    -0.199 A  
HETATM   27  C   UNL     1      -6.087  12.968  69.020  1.00  0.00    -0.089 A  
ENDBRANCH  12  21
ENDBRANCH  10  11
ENDBRANCH   7  10
TORSDOF 3
ENDMDL
MODEL      203
REMARK 921   NORMALIZED FREE ENERGY PREDICTED BY IDOCK:   -2.48 KCAL/MOL
REMARK 922        TOTAL FREE ENERGY PREDICTED BY IDOCK:   -3.52 KCAL/MOL
REMARK 923 INTER-LIGAND FREE ENERGY PREDICTED BY IDOCK:   -4.41 KCAL/MOL
REMARK 924 INTRA-LIGAND FREE ENERGY PREDICTED BY IDOCK:    0.89 KCAL/MOL
REMARK 927      BINDING AFFINITY PREDICTED BY RF-SCORE:    0.00 PKD
ROOT
HETATM    1  C   UNL     1      -6.212  12.715  70.668  1.00  0.00     0.362 C  
HETATM    2  N   UNL     1      -6.142  12.574  69.214  1.00  0.00    -0.091 NA 
HETATM    3  C   UNL     1      -7.467  12.242  68.644  1.00  0.00    -0.100 C  
HETATM    4  C   UNL     1      -8.463  13.417  68.628  1.00  0.00     0.001 C  
HETATM    5  N   UNL     1      -7.874  14.593  67.991  1.00  0.00    -0.122 N  
HETATM    6  C   UNL     1      -6.579  15.000  68.534  1.00  0.00    -0.096 C  
HETATM    7  C   UNL     1      -8.474  15.101  66.858  1.00  0.00    -0.244 C  
HETATM    8  O   UNL     1      -9.466  14.587  66.357  1.00  0.00    -0.276 OA 
HETATM    9  C   UNL     1      -5.608  13.795  68.566  1.00  0.00    -0.093 C  
ENDROOT
BRANCH   7  10
HETATM   10  O   UNL     1      -7.895  16.229  66.375  1.00  0.00    -0.278 OA 
BRANCH  10  11
HETATM   11  C   UNL     1      -7.736  17.316  67.314  1.00  0.00    -0.188 C  
HETATM   12  N   UNL     1      -9.004  17.807  67.817  1.00  0.00    -0.246 N  
HETATM   13  C   UNL     1      -9.148  19.180  67.567  1.00  0.00    -0.294 C  
HETATM   14  C   UNL     1      -7.044  18.550  66.790  1.00  0.00    -0.211 A  
HETATM   15  N   UNL     1      -5.770  18.655  66.347  1.00  0.00    -0.149 NA 
HETATM   16  C   UNL     1      -7.892  19.632  66.933  1.00  0.00    -0.275 A  
HETATM   17  O   UNL     1     -10.052  19.942  67.860  1.00  0.00    -0.395 OA 
HETATM   18  C   UNL     1      -5.418  19.931  66.032  1.00  0.00    -0.155 A  
HETATM   19  N   UNL     1      -7.548  20.904  66.649  1.00  0.00    -0.063 NA 
HETATM   20  C   UNL     1      -6.284  21.021  66.176  1.00  0.00    -0.255 A  
BRANCH  12  21
HETATM   21  C   UNL     1      -9.939  17.014  68.504  1.00  0.00    -0.293 A  
HETATM   22 CL   UNL     1     -13.037  14.587  70.651  1.00  0.00    -0.370 Cl 
HETATM   23  C   UNL     1     -10.666  15.867  70.504  1.00  0.00    -0.204 A  
HETATM   24  C   UNL     1     -11.987  15.908  68.539  1.00  0.00    -0.039 A  
HETATM   25  N   UNL     1     -11.076  16.658  67.873  1.00  0.00    -0.273 NA 
HETATM   26  C   UNL     1      -9.703  16.616  69.821  1.00  0.00     0.302 A  
HETATM   27  C   UNL     1     -11.831  15.503  69.849  1.00  0.00    -0.362 A  
ENDBRANCH  12  21
ENDBRANCH  10  11
ENDBRANCH   7  10
TORSDOF 3
ENDMDL
MODEL      204
REMARK 921   NORMALIZED FREE ENERGY PREDICTED BY IDOCK:   -2.47 KCAL/MOL
REMARK 922        TOTAL FREE ENERGY PREDICTED BY IDOCK:   -3.51 KCAL/MOL
REMARK 923 INTER-LIGAND FREE ENERGY PREDICTED BY IDOCK:   -3.64 KCAL/MOL
REMARK 924 INTRA-LIGAND FREE ENERGY PREDICTED BY IDOCK:    0.13 KCAL/MOL
REMARK 927      BINDING AFFINITY PREDICTED BY RF-SCORE:    0.00 PKD
ROOT
HETATM    1  C   UNL     1      -6.648  12.706  68.267  1.00  0.00    -0.079 C  
HETATM    2  N   UNL     1      -5.644  11.722  68.671  1.00  0.00    -0.046 NA 
HETATM    3  C   UNL     1      -5.901  11.224  70.041  1.00  0.00    -0.118 C  
HETATM    4  C   UNL     1      -7.099  10.262  70.151  1.00  0.00    -0.148 C  
HETATM    5  N   UNL     1      -6.982   9.170  69.187  1.00  0.00    -0.057 N  
HETATM    6  C   UNL     1      -6.765   9.594  67.805  1.00  0.00    -0.066 C  
HETATM    7  C   UNL     1      -6.911   7.877  69.658  1.00  0.00    -0.042 C  
HETATM    8  O   UNL     1      -6.919   7.616  70.855  1.00  0.00    -0.052 OA 
HETATM    9  C   UNL     1      -5.576  10.582  67.727  1.00  0.00    -0.043 C  
ENDROOT
BRANCH   7  10
HETATM   10  O   UNL     1      -6.869   6.927  68.690  1.00  0.00    -0.064 OA 
BRANCH  10  11
HETATM   11  C   UNL     1      -7.773   7.111  67.578  1.00  0.00    -0.111 C  
HETATM   12  N   UNL     1      -9.098   6.584  67.846  1.00  0.00    -0.115 N  
HETATM   13  C   UNL     1      -9.468   5.637  66.879  1.00  0.00    -0.135 C  
HETATM   14  C   UNL     1      -7.371   6.456  66.279  1.00  0.00    -0.080 A  
HETATM   15  N   UNL     1      -6.281   6.724  65.525  1.00  0.00    -0.038 NA 
HETATM   16  C   UNL     1      -8.370   5.584  65.892  1.00  0.00    -0.125 A  
HETATM   17  O   UNL     1     -10.501   5.004  66.754  1.00  0.00    -0.251 OA 
HETATM   18  C   UNL     1      -6.255   6.027  64.357  1.00  0.00    -0.030 A  
HETATM   19  N   UNL     1      -8.370   4.905  64.726  1.00  0.00    -0.129 NA 
HETATM   20  C   UNL     1      -7.269   5.142  63.973  1.00  0.00    -0.050 A  
BRANCH  12  21
HETATM   21  C   UNL     1      -9.914   7.007  68.909  1.00  0.00    -0.160 A  
HETATM   22 CL   UNL     1     -12.422   8.478  72.321  1.00  0.00    -0.434 Cl 
HETATM   23  C   UNL     1     -11.067   6.563  70.987  1.00  0.00    -0.339 A  
HETATM   24  C   UNL     1     -11.086   8.708  69.982  1.00  0.00    -0.157 A  
HETATM   25  N   UNL     1     -10.312   8.294  68.949  1.00  0.00    -0.217 NA 
HETATM   26  C   UNL     1     -10.293   6.114  69.913  1.00  0.00    -0.272 A  
HETATM   27  C   UNL     1     -11.474   7.887  71.022  1.00  0.00    -0.280 A  
ENDBRANCH  12  21
ENDBRANCH  10  11
ENDBRANCH   7  10
TORSDOF 3
ENDMDL
MODEL      205
REMARK 921   NORMALIZED FREE ENERGY PREDICTED BY IDOCK:   -2.42 KCAL/MOL
REMARK 922        TOTAL FREE ENERGY PREDICTED BY IDOCK:   -3.45 KCAL/MOL
REMARK 923 INTER-LIGAND FREE ENERGY PREDICTED BY IDOCK:   -4.08 KCAL/MOL
REMARK 924 INTRA-LIGAND FREE ENERGY PREDICTED BY IDOCK:    0.63 KCAL/MOL
REMARK 927      BINDING AFFINITY PREDICTED BY RF-SCORE:    0.00 PKD
ROOT
HETATM    1  C   UNL     1      -9.606   5.633  68.751  1.00  0.00    -0.131 C  
HETATM    2  N   UNL     1     -10.933   6.176  68.461  1.00  0.00    -0.324 NA 
HETATM    3  C   UNL     1     -11.245   7.328  69.335  1.00  0.00     0.011 C  
HETATM    4  C   UNL     1     -10.481   8.617  68.982  1.00  0.00    -0.199 C  
HETATM    5  N   UNL     1     -10.641   8.948  67.567  1.00  0.00    -0.269 N  
HETATM    6  C   UNL     1     -10.312   7.863  66.643  1.00  0.00    -0.200 C  
HETATM    7  C   UNL     1     -11.234  10.146  67.231  1.00  0.00     0.053 C  
HETATM    8  O   UNL     1     -11.651  10.929  68.076  1.00  0.00    -0.464 OA 
HETATM    9  C   UNL     1     -11.069   6.573  67.039  1.00  0.00    -0.339 C  
ENDROOT
BRANCH   7  10
HETATM   10  O   UNL     1     -11.281  10.395  65.898  1.00  0.00     0.315 OA 
BRANCH  10  11
HETATM   11  C   UNL     1     -10.560  11.561  65.442  1.00  0.00    -0.282 C  
HETATM   12  N   UNL     1      -9.592  12.031  66.413  1.00  0.00    -0.224 N  
HETATM   13  C   UNL     1      -9.830  13.372  66.754  1.00  0.00    -0.265 C  
HETATM   14  C   UNL     1     -11.394  12.779  65.132  1.00  0.00    -0.311 A  
HETATM   15  N   UNL     1     -12.342  12.907  64.176  1.00  0.00    -0.553 NA 
HETATM   16  C   UNL     1     -10.963  13.828  65.922  1.00  0.00    -0.283 A  
HETATM   17  O   UNL     1      -9.223  14.111  67.506  1.00  0.00    -0.180 OA 
HETATM   18  C   UNL     1     -12.846  14.168  64.089  1.00  0.00     0.393 A  
HETATM   19  N   UNL     1     -11.434  15.088  65.829  1.00  0.00    -0.289 NA 
HETATM   20  C   UNL     1     -12.406  15.224  64.894  1.00  0.00     0.124 A  
BRANCH  12  21
HETATM   21  C   UNL     1      -8.530  11.255  66.908  1.00  0.00    -0.152 A  
HETATM   22 CL   UNL     1      -5.222   8.647  68.443  1.00  0.00    -0.033 Cl 
HETATM   23  C   UNL     1      -6.995  10.668  68.681  1.00  0.00    -0.072 A  
HETATM   24  C   UNL     1      -7.011   9.516  66.611  1.00  0.00    -0.085 A  
HETATM   25  N   UNL     1      -8.024  10.277  66.130  1.00  0.00    -0.126 NA 
HETATM   26  C   UNL     1      -8.020  11.481  68.188  1.00  0.00    -0.136 A  
HETATM   27  C   UNL     1      -6.478   9.666  67.876  1.00  0.00    -0.061 A  
ENDBRANCH  12  21
ENDBRANCH  10  11
ENDBRANCH   7  10
TORSDOF 3
ENDMDL
MODEL      206
REMARK 921   NORMALIZED FREE ENERGY PREDICTED BY IDOCK:   -2.36 KCAL/MOL
REMARK 922        TOTAL FREE ENERGY PREDICTED BY IDOCK:   -3.38 KCAL/MOL
REMARK 923 INTER-LIGAND FREE ENERGY PREDICTED BY IDOCK:   -3.86 KCAL/MOL
REMARK 924 INTRA-LIGAND FREE ENERGY PREDICTED BY IDOCK:    0.48 KCAL/MOL
REMARK 927      BINDING AFFINITY PREDICTED BY RF-SCORE:    0.00 PKD
ROOT
HETATM    1  C   UNL     1     -12.130   5.699  73.167  1.00  0.00     0.504 C  
HETATM    2  N   UNL     1     -12.141   6.205  71.795  1.00  0.00    -0.209 NA 
HETATM    3  C   UNL     1     -12.507   7.638  71.755  1.00  0.00    -0.329 C  
HETATM    4  C   UNL     1     -11.402   8.589  72.251  1.00  0.00    -0.371 C  
HETATM    5  N   UNL     1     -10.140   8.329  71.560  1.00  0.00    -0.195 N  
HETATM    6  C   UNL     1      -9.699   6.935  71.593  1.00  0.00    -0.161 C  
HETATM    7  C   UNL     1      -9.577   9.339  70.809  1.00  0.00    -0.275 C  
HETATM    8  O   UNL     1     -10.109  10.435  70.684  1.00  0.00     0.213 OA 
HETATM    9  C   UNL     1     -10.838   6.001  71.119  1.00  0.00    -0.277 C  
ENDROOT
BRANCH   7  10
HETATM   10  O   UNL     1      -8.377   9.026  70.257  1.00  0.00    -0.123 OA 
BRANCH  10  11
HETATM   11  C   UNL     1      -8.355   8.886  68.819  1.00  0.00    -0.123 C  
HETATM   12  N   UNL     1      -9.058   9.960  68.145  1.00  0.00    -0.121 N  
HETATM   13  C   UNL     1     -10.075   9.456  67.319  1.00  0.00    -0.226 C  
HETATM   14  C   UNL     1      -8.980   7.630  68.264  1.00  0.00    -0.127 A  
HETATM   15  N   UNL     1      -8.579   6.354  68.463  1.00  0.00    -0.122 NA 
HETATM   16  C   UNL     1      -9.997   7.982  67.398  1.00  0.00    -0.207 A  
HETATM   17  O   UNL     1     -10.852  10.038  66.585  1.00  0.00    -0.119 OA 
HETATM   18  C   UNL     1      -9.297   5.450  67.743  1.00  0.00    -0.116 A  
HETATM   19  N   UNL     1     -10.699   7.101  66.659  1.00  0.00    -0.168 NA 
HETATM   20  C   UNL     1     -10.328   5.815  66.870  1.00  0.00    -0.251 A  
BRANCH  12  21
HETATM   21  C   UNL     1      -8.729  11.320  68.272  1.00  0.00    -0.158 A  
HETATM   22 CL   UNL     1      -7.741  15.686  68.534  1.00  0.00    -0.126 Cl 
HETATM   23  C   UNL     1      -7.117  13.066  68.716  1.00  0.00    -0.097 A  
HETATM   24  C   UNL     1      -9.356  13.557  68.122  1.00  0.00    -0.213 A  
HETATM   25  N   UNL     1      -9.677  12.244  68.016  1.00  0.00    -0.200 NA 
HETATM   26  C   UNL     1      -7.439  11.708  68.640  1.00  0.00    -0.117 A  
HETATM   27  C   UNL     1      -8.096  14.011  68.454  1.00  0.00    -0.148 A  
ENDBRANCH  12  21
ENDBRANCH  10  11
ENDBRANCH   7  10
TORSDOF 3
ENDMDL
MODEL      207
REMARK 921   NORMALIZED FREE ENERGY PREDICTED BY IDOCK:   -2.32 KCAL/MOL
REMARK 922        TOTAL FREE ENERGY PREDICTED BY IDOCK:   -3.33 KCAL/MOL
REMARK 923 INTER-LIGAND FREE ENERGY PREDICTED BY IDOCK:   -4.10 KCAL/MOL
REMARK 924 INTRA-LIGAND FREE ENERGY PREDICTED BY IDOCK:    0.77 KCAL/MOL
REMARK 927      BINDING AFFINITY PREDICTED BY RF-SCORE:    0.00 PKD
ROOT
HETATM    1  C   UNL     1      -6.071  14.059  68.281  1.00  0.00    -0.117 C  
HETATM    2  N   UNL     1      -5.504  12.783  67.844  1.00  0.00    -0.097 NA 
HETATM    3  C   UNL     1      -5.414  11.824  68.967  1.00  0.00    -0.050 C  
HETATM    4  C   UNL     1      -6.768  11.236  69.409  1.00  0.00    -0.123 C  
HETATM    5  N   UNL     1      -7.491  10.676  68.270  1.00  0.00    -0.088 N  
HETATM    6  C   UNL     1      -7.650  11.586  67.137  1.00  0.00    -0.149 C  
HETATM    7  C   UNL     1      -7.800   9.332  68.278  1.00  0.00    -0.098 C  
HETATM    8  O   UNL     1      -7.468   8.591  69.196  1.00  0.00    -0.084 OA 
HETATM    9  C   UNL     1      -6.281  12.184  66.733  1.00  0.00     0.132 C  
ENDROOT
BRANCH   7  10
HETATM   10  O   UNL     1      -8.526   8.916  67.211  1.00  0.00    -0.114 OA 
BRANCH  10  11
HETATM   11  C   UNL     1      -9.574   7.960  67.487  1.00  0.00    -0.152 C  
HETATM   12  N   UNL     1     -10.124   8.107  68.821  1.00  0.00    -0.194 N  
HETATM   13  C   UNL     1     -10.018   6.909  69.545  1.00  0.00    -0.164 C  
HETATM   14  C   UNL     1      -9.183   6.504  67.408  1.00  0.00    -0.121 A  
HETATM   15  N   UNL     1      -8.756   5.825  66.320  1.00  0.00    -0.129 NA 
HETATM   16  C   UNL     1      -9.436   5.907  68.628  1.00  0.00    -0.122 A  
HETATM   17  O   UNL     1     -10.387   6.638  70.673  1.00  0.00    -0.198 OA 
HETATM   18  C   UNL     1      -8.576   4.497  66.557  1.00  0.00    -0.112 A  
HETATM   19  N   UNL     1      -9.287   4.589  68.870  1.00  0.00    -0.135 NA 
HETATM   20  C   UNL     1      -8.832   3.900  67.796  1.00  0.00    -0.114 A  
BRANCH  12  21
HETATM   21  C   UNL     1     -10.723   9.285  69.301  1.00  0.00    -0.196 A  
HETATM   22 CL   UNL     1     -12.725  12.951  70.928  1.00  0.00    -0.339 Cl 
HETATM   23  C   UNL     1     -11.840  11.392  68.910  1.00  0.00    -0.413 A  
HETATM   24  C   UNL     1     -11.428  10.585  71.098  1.00  0.00    -0.011 A  
HETATM   25  N   UNL     1     -10.836   9.458  70.633  1.00  0.00    -0.258 NA 
HETATM   26  C   UNL     1     -11.205  10.249  68.415  1.00  0.00    -0.284 A  
HETATM   27  C   UNL     1     -11.952  11.566  70.280  1.00  0.00    -0.368 A  
ENDBRANCH  12  21
ENDBRANCH  10  11
ENDBRANCH   7  10
TORSDOF 3
ENDMDL
MODEL      208
REMARK 921   NORMALIZED FREE ENERGY PREDICTED BY IDOCK:   -2.27 KCAL/MOL
REMARK 922        TOTAL FREE ENERGY PREDICTED BY IDOCK:   -3.27 KCAL/MOL
REMARK 923 INTER-LIGAND FREE ENERGY PREDICTED BY IDOCK:   -3.23 KCAL/MOL
REMARK 924 INTRA-LIGAND FREE ENERGY PREDICTED BY IDOCK:   -0.04 KCAL/MOL
REMARK 927      BINDING AFFINITY PREDICTED BY RF-SCORE:    0.00 PKD
ROOT
HETATM    1  C   UNL     1      -9.684   7.931  68.572  1.00  0.00    -0.161 C  
HETATM    2  N   UNL     1      -8.449   8.612  68.183  1.00  0.00    -0.130 NA 
HETATM    3  C   UNL     1      -8.164   8.424  66.743  1.00  0.00    -0.102 C  
HETATM    4  C   UNL     1      -9.078   9.235  65.804  1.00  0.00    -0.209 C  
HETATM    5  N   UNL     1      -9.089  10.648  66.178  1.00  0.00    -0.164 N  
HETATM    6  C   UNL     1      -9.402  10.907  67.583  1.00  0.00    -0.156 C  
HETATM    7  C   UNL     1      -8.647  11.578  65.262  1.00  0.00     0.322 C  
HETATM    8  O   UNL     1      -8.226  11.258  64.157  1.00  0.00     0.402 OA 
HETATM    9  C   UNL     1      -8.491  10.059  68.501  1.00  0.00    -0.115 C  
ENDROOT
BRANCH   7  10
HETATM   10  O   UNL     1      -8.754  12.866  65.673  1.00  0.00     0.665 OA 
BRANCH  10  11
HETATM   11  C   UNL     1      -9.833  13.633  65.093  1.00  0.00    -0.085 C  
HETATM   12  N   UNL     1     -10.458  14.525  66.050  1.00  0.00    -0.296 N  
HETATM   13  C   UNL     1     -11.835  14.274  66.149  1.00  0.00    -0.402 C  
HETATM   14  C   UNL     1     -10.982  12.837  64.525  1.00  0.00    -0.341 A  
HETATM   15  N   UNL     1     -10.950  11.970  63.488  1.00  0.00    -0.431 NA 
HETATM   16  C   UNL     1     -12.146  13.215  65.166  1.00  0.00    -0.421 A  
HETATM   17  O   UNL     1     -12.689  14.827  66.817  1.00  0.00     0.261 OA 
HETATM   18  C   UNL     1     -12.178  11.487  63.157  1.00  0.00     0.141 A  
HETATM   19  N   UNL     1     -13.373  12.765  64.833  1.00  0.00    -0.546 NA 
HETATM   20  C   UNL     1     -13.352  11.872  63.814  1.00  0.00     0.396 A  
BRANCH  12  21
HETATM   21  C   UNL     1      -9.775  15.537  66.747  1.00  0.00    -0.239 A  
HETATM   22 CL   UNL     1      -7.507  18.788  68.842  1.00  0.00    -0.339 Cl 
HETATM   23  C   UNL     1      -8.564  16.309  68.691  1.00  0.00    -0.222 A  
HETATM   24  C   UNL     1      -8.921  17.702  66.809  1.00  0.00    -0.257 A  
HETATM   25  N   UNL     1      -9.594  16.730  66.146  1.00  0.00    -0.376 NA 
HETATM   26  C   UNL     1      -9.281  15.306  68.032  1.00  0.00    -0.188 A  
HETATM   27  C   UNL     1      -8.382  17.533  68.069  1.00  0.00    -0.241 A  
ENDBRANCH  12  21
ENDBRANCH  10  11
ENDBRANCH   7  10
TORSDOF 3
ENDMDL
MODEL      209
REMARK 921   NORMALIZED FREE ENERGY PREDICTED BY IDOCK:   -2.21 KCAL/MOL
REMARK 922        TOTAL FREE ENERGY PREDICTED BY IDOCK:   -3.20 KCAL/MOL
REMARK 923 INTER-LIGAND FREE ENERGY PREDICTED BY IDOCK:   -2.29 KCAL/MOL
REMARK 924 INTRA-LIGAND FREE ENERGY PREDICTED BY IDOCK:   -0.90 KCAL/MOL
REMARK 927      BINDING AFFINITY PREDICTED BY RF-SCORE:    0.00 PKD
ROOT
HETATM    1  C   UNL     1     -12.112  10.307  70.134  1.00  0.00    -0.202 C  
HETATM    2  N   UNL     1     -11.153   9.550  69.329  1.00  0.00    -0.143 NA 
HETATM    3  C   UNL     1      -9.762   9.954  69.631  1.00  0.00    -0.229 C  
HETATM    4  C   UNL     1      -9.237   9.453  70.990  1.00  0.00    -0.110 C  
HETATM    5  N   UNL     1      -9.428   8.010  71.124  1.00  0.00    -0.151 N  
HETATM    6  C   UNL     1     -10.792   7.546  70.875  1.00  0.00    -0.240 C  
HETATM    7  C   UNL     1      -8.318   7.209  71.291  1.00  0.00    -0.113 C  
HETATM    8  O   UNL     1      -7.181   7.664  71.308  1.00  0.00    -0.060 OA 
HETATM    9  C   UNL     1     -11.304   8.088  69.519  1.00  0.00     0.279 C  
ENDROOT
BRANCH   7  10
HETATM   10  O   UNL     1      -8.597   5.893  71.470  1.00  0.00    -0.130 OA 
BRANCH  10  11
HETATM   11  C   UNL     1      -7.495   4.978  71.280  1.00  0.00    -0.082 C  
HETATM   12  N   UNL     1      -7.835   3.871  70.407  1.00  0.00    -0.050 N  
HETATM   13  C   UNL     1      -7.627   2.640  71.049  1.00  0.00    -0.036 C  
HETATM   14  C   UNL     1      -6.961   4.314  72.526  1.00  0.00    -0.056 A  
HETATM   15  N   UNL     1      -6.373   4.909  73.589  1.00  0.00    -0.057 NA 
HETATM   16  C   UNL     1      -7.060   2.944  72.379  1.00  0.00    -0.031 A  
HETATM   17  O   UNL     1      -7.772   1.504  70.636  1.00  0.00    -0.036 OA 
HETATM   18  C   UNL     1      -5.912   4.021  74.511  1.00  0.00    -0.024 A  
HETATM   19  N   UNL     1      -6.585   2.052  73.272  1.00  0.00    -0.017 NA 
HETATM   20  C   UNL     1      -6.019   2.635  74.356  1.00  0.00    -0.004 A  
BRANCH  12  21
HETATM   21  C   UNL     1      -8.271   4.020  69.080  1.00  0.00    -0.069 A  
HETATM   22 CL   UNL     1      -9.790   4.407  64.879  1.00  0.00    -0.170 Cl 
HETATM   23  C   UNL     1      -7.871   3.873  66.700  1.00  0.00    -0.089 A  
HETATM   24  C   UNL     1      -9.973   4.527  67.574  1.00  0.00    -0.098 A  
HETATM   25  N   UNL     1      -9.545   4.399  68.854  1.00  0.00    -0.165 NA 
HETATM   26  C   UNL     1      -7.406   3.765  68.014  1.00  0.00    -0.062 A  
HETATM   27  C   UNL     1      -9.181   4.264  66.475  1.00  0.00    -0.149 A  
ENDBRANCH  12  21
ENDBRANCH  10  11
ENDBRANCH   7  10
TORSDOF 3
ENDMDL
MODEL      210
REMARK 921   NORMALIZED FREE ENERGY PREDICTED BY IDOCK:   -2.13 KCAL/MOL
REMARK 922        TOTAL FREE ENERGY PREDICTED BY IDOCK:   -3.11 KCAL/MOL
REMARK 923 INTER-LIGAND FREE ENERGY PREDICTED BY IDOCK:   -4.86 KCAL/MOL
REMARK 924 INTRA-LIGAND FREE ENERGY PREDICTED BY IDOCK:    1.75 KCAL/MOL
REMARK 927      BINDING AFFINITY PREDICTED BY RF-SCORE:    0.00 PKD
ROOT
HETATM    1  C   UNL     1     -13.497  14.204  71.467  1.00  0.00    -0.344 C  
HETATM    2  N   UNL     1     -13.117  14.649  70.127  1.00  0.00    -0.041 NA 
HETATM    3  C   UNL     1     -12.425  15.957  70.173  1.00  0.00    -0.071 C  
HETATM    4  C   UNL     1     -10.986  15.893  70.717  1.00  0.00    -0.241 C  
HETATM    5  N   UNL     1     -10.202  14.886  70.006  1.00  0.00    -0.017 N  
HETATM    6  C   UNL     1     -10.812  13.558  69.956  1.00  0.00     0.614 C  
HETATM    7  C   UNL     1      -9.081  15.289  69.312  1.00  0.00    -0.240 C  
HETATM    8  O   UNL     1      -8.735  16.462  69.254  1.00  0.00    -0.220 OA 
HETATM    9  C   UNL     1     -12.266  13.654  69.434  1.00  0.00    -0.259 C  
ENDROOT
BRANCH   7  10
HETATM   10  O   UNL     1      -8.382  14.277  68.737  1.00  0.00    -0.148 OA 
BRANCH  10  11
HETATM   11  C   UNL     1      -8.744  13.947  67.377  1.00  0.00    -0.203 C  
HETATM   12  N   UNL     1      -9.510  14.997  66.735  1.00  0.00    -0.232 N  
HETATM   13  C   UNL     1     -10.742  14.511  66.272  1.00  0.00    -0.309 C  
HETATM   14  C   UNL     1      -9.589  12.710  67.197  1.00  0.00    -0.207 A  
HETATM   15  N   UNL     1      -9.253  11.433  67.490  1.00  0.00    -0.159 NA 
HETATM   16  C   UNL     1     -10.764  13.062  66.560  1.00  0.00    -0.278 A  
HETATM   17  O   UNL     1     -11.633  15.078  65.666  1.00  0.00    -0.302 OA 
HETATM   18  C   UNL     1     -10.203  10.532  67.118  1.00  0.00    -0.223 A  
HETATM   19  N   UNL     1     -11.701  12.178  66.162  1.00  0.00    -0.522 NA 
HETATM   20  C   UNL     1     -11.391  10.897  66.476  1.00  0.00     0.220 A  
BRANCH  12  21
HETATM   21  C   UNL     1      -9.051  16.314  66.562  1.00  0.00    -0.269 A  
HETATM   22 CL   UNL     1      -7.705  20.540  65.905  1.00  0.00    -0.060 Cl 
HETATM   23  C   UNL     1      -7.272  17.883  66.092  1.00  0.00    -0.339 A  
HETATM   24  C   UNL     1      -9.503  18.595  66.447  1.00  0.00    -0.311 A  
HETATM   25  N   UNL     1      -9.941  17.325  66.630  1.00  0.00    -0.282 NA 
HETATM   26  C   UNL     1      -7.702  16.570  66.308  1.00  0.00    -0.215 A  
HETATM   27  C   UNL     1      -8.191  18.917  66.165  1.00  0.00    -0.204 A  
ENDBRANCH  12  21
ENDBRANCH  10  11
ENDBRANCH   7  10
TORSDOF 3
ENDMDL
MODEL      211
REMARK 921   NORMALIZED FREE ENERGY PREDICTED BY IDOCK:   -2.09 KCAL/MOL
REMARK 922        TOTAL FREE ENERGY PREDICTED BY IDOCK:   -3.06 KCAL/MOL
REMARK 923 INTER-LIGAND FREE ENERGY PREDICTED BY IDOCK:   -2.97 KCAL/MOL
REMARK 924 INTRA-LIGAND FREE ENERGY PREDICTED BY IDOCK:   -0.09 KCAL/MOL
REMARK 927      BINDING AFFINITY PREDICTED BY RF-SCORE:    0.00 PKD
ROOT
HETATM    1  C   UNL     1      -9.100   9.961  63.346  1.00  0.00    -0.261 C  
HETATM    2  N   UNL     1      -9.772  11.250  63.504  1.00  0.00    -0.302 NA 
HETATM    3  C   UNL     1     -11.187  11.073  63.899  1.00  0.00     0.253 C  
HETATM    4  C   UNL     1     -11.386  10.626  65.360  1.00  0.00     0.799 C  
HETATM    5  N   UNL     1     -10.670  11.509  66.278  1.00  0.00    -0.264 N  
HETATM    6  C   UNL     1      -9.254  11.698  65.967  1.00  0.00    -0.208 C  
HETATM    7  C   UNL     1     -11.392  12.208  67.222  1.00  0.00    -0.334 C  
HETATM    8  O   UNL     1     -12.612  12.130  67.300  1.00  0.00     0.287 OA 
HETATM    9  C   UNL     1      -9.081  12.117  64.487  1.00  0.00     0.675 C  
ENDROOT
BRANCH   7  10
HETATM   10  O   UNL     1     -10.637  12.951  68.070  1.00  0.00    -0.216 OA 
BRANCH  10  11
HETATM   11  C   UNL     1     -10.641  12.538  69.455  1.00  0.00     0.269 C  
HETATM   12  N   UNL     1     -10.826  11.108  69.608  1.00  0.00    -0.192 N  
HETATM   13  C   UNL     1     -11.940  10.827  70.413  1.00  0.00    -0.357 C  
HETATM   14  C   UNL     1     -11.714  13.144  70.326  1.00  0.00    -0.127 A  
HETATM   15  N   UNL     1     -11.877  14.448  70.644  1.00  0.00    -0.302 NA 
HETATM   16  C   UNL     1     -12.476  12.127  70.868  1.00  0.00    -0.279 A  
HETATM   17  O   UNL     1     -12.392   9.759  70.785  1.00  0.00    -0.286 OA 
HETATM   18  C   UNL     1     -12.886  14.659  71.532  1.00  0.00    -0.333 A  
HETATM   19  N   UNL     1     -13.461  12.318  71.768  1.00  0.00    -0.254 NA 
HETATM   20  C   UNL     1     -13.655  13.624  72.074  1.00  0.00    -0.495 A  
BRANCH  12  21
HETATM   21  C   UNL     1      -9.969  10.139  69.057  1.00  0.00    -0.208 A  
HETATM   22 CL   UNL     1      -7.326   6.935  67.369  1.00  0.00    -0.089 Cl 
HETATM   23  C   UNL     1      -7.750   9.259  68.674  1.00  0.00    -0.085 A  
HETATM   24  C   UNL     1      -9.688   8.141  67.896  1.00  0.00    -0.161 A  
HETATM   25  N   UNL     1     -10.511   9.085  68.413  1.00  0.00    -0.207 NA 
HETATM   26  C   UNL     1      -8.585  10.257  69.188  1.00  0.00    -0.167 A  
HETATM   27  C   UNL     1      -8.313   8.180  68.012  1.00  0.00    -0.129 A  
ENDBRANCH  12  21
ENDBRANCH  10  11
ENDBRANCH   7  10
TORSDOF 3
ENDMDL
MODEL      212
REMARK 921   NORMALIZED FREE ENERGY PREDICTED BY IDOCK:   -1.59 KCAL/MOL
REMARK 922        TOTAL FREE ENERGY PREDICTED BY IDOCK:   -2.47 KCAL/MOL
REMARK 923 INTER-LIGAND FREE ENERGY PREDICTED BY IDOCK:   -1.60 KCAL/MOL
REMARK 924 INTRA-LIGAND FREE ENERGY PREDICTED BY IDOCK:   -0.87 KCAL/MOL
REMARK 927      BINDING AFFINITY PREDICTED BY RF-SCORE:    0.00 PKD
ROOT
HETATM    1  C   UNL     1     -10.622  12.862  68.077  1.00  0.00    -0.227 C  
HETATM    2  N   UNL     1     -10.576  11.852  69.134  1.00  0.00    -0.110 NA 
HETATM    3  C   UNL     1     -11.701  10.898  69.014  1.00  0.00    -0.320 C  
HETATM    4  C   UNL     1     -11.563   9.897  67.851  1.00  0.00     0.711 C  
HETATM    5  N   UNL     1     -10.272   9.214  67.900  1.00  0.00    -0.204 N  
HETATM    6  C   UNL     1      -9.112  10.101  67.981  1.00  0.00    -0.131 C  
HETATM    7  C   UNL     1     -10.254   7.843  68.041  1.00  0.00    -0.208 C  
HETATM    8  O   UNL     1     -11.281   7.184  68.149  1.00  0.00    -0.007 OA 
HETATM    9  C   UNL     1      -9.290  11.114  69.137  1.00  0.00     0.039 C  
ENDROOT
BRANCH   7  10
HETATM   10  O   UNL     1      -9.015   7.291  68.013  1.00  0.00    -0.132 OA 
BRANCH  10  11
HETATM   11  C   UNL     1      -8.536   6.736  69.259  1.00  0.00    -0.129 C  
HETATM   12  N   UNL     1      -7.148   7.065  69.517  1.00  0.00    -0.069 N  
HETATM   13  C   UNL     1      -6.380   5.905  69.697  1.00  0.00    -0.040 C  
HETATM   14  C   UNL     1      -8.588   5.233  69.379  1.00  0.00    -0.101 A  
HETATM   15  N   UNL     1      -9.685   4.443  69.370  1.00  0.00    -0.199 NA 
HETATM   16  C   UNL     1      -7.312   4.761  69.621  1.00  0.00    -0.055 A  
HETATM   17  O   UNL     1      -5.197   5.778  69.955  1.00  0.00    -0.004 OA 
HETATM   18  C   UNL     1      -9.402   3.132  69.597  1.00  0.00    -0.151 A  
HETATM   19  N   UNL     1      -7.019   3.469  69.873  1.00  0.00    -0.041 NA 
HETATM   20  C   UNL     1      -8.107   2.661  69.838  1.00  0.00    -0.041 A  
BRANCH  12  21
HETATM   21  C   UNL     1      -6.655   8.378  69.619  1.00  0.00    -0.037 A  
HETATM   22 CL   UNL     1      -5.224  12.610  69.994  1.00  0.00    -0.086 Cl 
HETATM   23  C   UNL     1      -5.509  10.280  68.663  1.00  0.00    -0.038 A  
HETATM   24  C   UNL     1      -6.426  10.342  70.846  1.00  0.00     0.151 A  
HETATM   25  N   UNL     1      -6.886   9.071  70.752  1.00  0.00    -0.065 NA 
HETATM   26  C   UNL     1      -5.952   8.957  68.561  1.00  0.00    -0.045 A  
HETATM   27  C   UNL     1      -5.749  10.987  69.830  1.00  0.00    -0.062 A  
ENDBRANCH  12  21
ENDBRANCH  10  11
ENDBRANCH   7  10
TORSDOF 3
ENDMDL
MODEL      213
REMARK 921   NORMALIZED FREE ENERGY PREDICTED BY IDOCK:   -1.22 KCAL/MOL
REMARK 922        TOTAL FREE ENERGY PREDICTED BY IDOCK:   -2.04 KCAL/MOL
REMARK 923 INTER-LIGAND FREE ENERGY PREDICTED BY IDOCK:   -1.14 KCAL/MOL
REMARK 924 INTRA-LIGAND FREE ENERGY PREDICTED BY IDOCK:   -0.89 KCAL/MOL
REMARK 927      BINDING AFFINITY PREDICTED BY RF-SCORE:    0.00 PKD
ROOT
HETATM    1  C   UNL     1      -9.029   7.720  62.357  1.00  0.00     0.571 C  
HETATM    2  N   UNL     1      -8.470   9.071  62.366  1.00  0.00    -0.198 NA 
HETATM    3  C   UNL     1      -9.534  10.092  62.492  1.00  0.00    -0.196 C  
HETATM    4  C   UNL     1     -10.160  10.186  63.896  1.00  0.00     0.251 C  
HETATM    5  N   UNL     1      -9.128  10.345  64.919  1.00  0.00    -0.192 N  
HETATM    6  C   UNL     1      -8.063   9.344  64.876  1.00  0.00    -0.128 C  
HETATM    7  C   UNL     1      -9.141  11.481  65.699  1.00  0.00    -0.126 C  
HETATM    8  O   UNL     1      -9.972  12.369  65.549  1.00  0.00    -0.260 OA 
HETATM    9  C   UNL     1      -7.473   9.250  63.449  1.00  0.00    -0.097 C  
ENDROOT
BRANCH   7  10
HETATM   10  O   UNL     1      -8.185  11.512  66.662  1.00  0.00    -0.165 OA 
BRANCH  10  11
HETATM   11  C   UNL     1      -8.649  11.731  68.013  1.00  0.00    -0.158 C  
HETATM   12  N   UNL     1      -7.659  12.391  68.841  1.00  0.00    -0.027 N  
HETATM   13  C   UNL     1      -7.364  11.627  69.981  1.00  0.00     0.972 C  
HETATM   14  C   UNL     1      -9.021  10.496  68.796  1.00  0.00    -0.166 A  
HETATM   15  N   UNL     1     -10.012   9.617  68.526  1.00  0.00    -0.160 NA 
HETATM   16  C   UNL     1      -8.247  10.443  69.939  1.00  0.00     0.074 A  
HETATM   17  O   UNL     1      -6.612  11.860  70.910  1.00  0.00     0.360 OA 
HETATM   18  C   UNL     1     -10.152   8.658  69.482  1.00  0.00    -0.203 A  
HETATM   19  N   UNL     1      -8.391   9.515  70.907  1.00  0.00    -0.281 NA 
HETATM   20  C   UNL     1      -9.362   8.610  70.635  1.00  0.00    -0.185 A  
BRANCH  12  21
HETATM   21  C   UNL     1      -7.107  13.652  68.556  1.00  0.00    -0.107 A  
HETATM   22 CL   UNL     1      -5.235  17.647  67.757  1.00  0.00    -0.129 Cl 
HETATM   23  C   UNL     1      -7.344  16.040  68.261  1.00  0.00    -0.129 A  
HETATM   24  C   UNL     1      -5.241  14.964  68.094  1.00  0.00    -0.118 A  
HETATM   25  N   UNL     1      -5.778  13.747  68.353  1.00  0.00    -0.093 NA 
HETATM   26  C   UNL     1      -7.918  14.787  68.500  1.00  0.00    -0.136 A  
HETATM   27  C   UNL     1      -5.978  16.131  68.051  1.00  0.00    -0.118 A  
ENDBRANCH  12  21
ENDBRANCH  10  11
ENDBRANCH   7  10
TORSDOF 3
ENDMDL
MODEL      214
REMARK 921   NORMALIZED FREE ENERGY PREDICTED BY IDOCK:   -1.16 KCAL/MOL
REMARK 922        TOTAL FREE ENERGY PREDICTED BY IDOCK:   -1.96 KCAL/MOL
REMARK 923 INTER-LIGAND FREE ENERGY PREDICTED BY IDOCK:   -2.13 KCAL/MOL
REMARK 924 INTRA-LIGAND FREE ENERGY PREDICTED BY IDOCK:    0.16 KCAL/MOL
REMARK 927      BINDING AFFINITY PREDICTED BY RF-SCORE:    0.00 PKD
ROOT
HETATM    1  C   UNL     1      -8.570   6.135  72.684  1.00  0.00    -0.124 C  
HETATM    2  N   UNL     1      -8.018   5.337  71.589  1.00  0.00    -0.113 NA 
HETATM    3  C   UNL     1      -8.998   5.183  70.491  1.00  0.00    -0.134 C  
HETATM    4  C   UNL     1      -9.214   6.455  69.650  1.00  0.00    -0.142 C  
HETATM    5  N   UNL     1      -7.939   6.987  69.172  1.00  0.00    -0.118 N  
HETATM    6  C   UNL     1      -6.935   7.200  70.213  1.00  0.00    -0.061 C  
HETATM    7  C   UNL     1      -7.727   7.076  67.813  1.00  0.00    -0.112 C  
HETATM    8  O   UNL     1      -8.560   6.703  66.996  1.00  0.00    -0.112 OA 
HETATM    9  C   UNL     1      -6.760   5.918  71.061  1.00  0.00    -0.060 C  
ENDROOT
BRANCH   7  10
HETATM   10  O   UNL     1      -6.543   7.639  67.464  1.00  0.00    -0.059 OA 
BRANCH  10  11
HETATM   11  C   UNL     1      -6.512   8.318  66.188  1.00  0.00    -0.050 C  
HETATM   12  N   UNL     1      -7.315   9.525  66.181  1.00  0.00    -0.092 N  
HETATM   13  C   UNL     1      -8.283   9.480  65.165  1.00  0.00    -0.133 C  
HETATM   14  C   UNL     1      -7.018   7.530  65.005  1.00  0.00    -0.058 A  
HETATM   15  N   UNL     1      -6.499   6.393  64.490  1.00  0.00    -0.033 NA 
HETATM   16  C   UNL     1      -8.066   8.220  64.426  1.00  0.00    -0.145 A  
HETATM   17  O   UNL     1      -9.113  10.307  64.834  1.00  0.00    -0.179 OA 
HETATM   18  C   UNL     1      -7.131   5.982  63.357  1.00  0.00    -0.048 A  
HETATM   19  N   UNL     1      -8.685   7.839  63.290  1.00  0.00     0.405 NA 
HETATM   20  C   UNL     1      -8.194   6.684  62.778  1.00  0.00     0.004 A  
BRANCH  12  21
HETATM   21  C   UNL     1      -7.114  10.611  67.050  1.00  0.00    -0.100 A  
HETATM   22 CL   UNL     1      -6.628  14.108  69.813  1.00  0.00    -0.127 Cl 
HETATM   23  C   UNL     1      -5.943  12.637  67.656  1.00  0.00    -0.142 A  
HETATM   24  C   UNL     1      -7.749  11.806  68.944  1.00  0.00    -0.041 A  
HETATM   25  N   UNL     1      -7.930  10.751  68.114  1.00  0.00    -0.110 NA 
HETATM   26  C   UNL     1      -6.098  11.537  66.807  1.00  0.00    -0.147 A  
HETATM   27  C   UNL     1      -6.784  12.774  68.749  1.00  0.00    -0.093 A  
ENDBRANCH  12  21
ENDBRANCH  10  11
ENDBRANCH   7  10
TORSDOF 3
ENDMDL
MODEL      215
REMARK 921   NORMALIZED FREE ENERGY PREDICTED BY IDOCK:   -1.15 KCAL/MOL
REMARK 922        TOTAL FREE ENERGY PREDICTED BY IDOCK:   -1.95 KCAL/MOL
REMARK 923 INTER-LIGAND FREE ENERGY PREDICTED BY IDOCK:   -2.67 KCAL/MOL
REMARK 924 INTRA-LIGAND FREE ENERGY PREDICTED BY IDOCK:    0.72 KCAL/MOL
REMARK 927      BINDING AFFINITY PREDICTED BY RF-SCORE:    0.00 PKD
ROOT
HETATM    1  C   UNL     1      -9.577   5.282  73.230  1.00  0.00    -0.141 C  
HETATM    2  N   UNL     1      -8.619   4.994  72.163  1.00  0.00    -0.124 NA 
HETATM    3  C   UNL     1      -9.309   4.581  70.921  1.00  0.00    -0.153 C  
HETATM    4  C   UNL     1     -10.016   5.728  70.175  1.00  0.00    -0.198 C  
HETATM    5  N   UNL     1      -9.099   6.844  69.945  1.00  0.00    -0.145 N  
HETATM    6  C   UNL     1      -8.411   7.328  71.140  1.00  0.00    -0.116 C  
HETATM    7  C   UNL     1      -8.830   7.221  68.646  1.00  0.00    -0.129 C  
HETATM    8  O   UNL     1      -9.314   6.639  67.683  1.00  0.00    -0.121 OA 
HETATM    9  C   UNL     1      -7.736   6.152  71.885  1.00  0.00    -0.097 C  
ENDROOT
BRANCH   7  10
HETATM   10  O   UNL     1      -8.021   8.304  68.532  1.00  0.00    -0.118 OA 
BRANCH  10  11
HETATM   11  C   UNL     1      -7.173   8.344  67.363  1.00  0.00    -0.088 C  
HETATM   12  N   UNL     1      -7.876   8.805  66.182  1.00  0.00    -0.100 N  
HETATM   13  C   UNL     1      -7.799   7.858  65.148  1.00  0.00    -0.114 C  
HETATM   14  C   UNL     1      -6.561   7.031  66.940  1.00  0.00    -0.055 A  
HETATM   15  N   UNL     1      -5.685   6.270  67.633  1.00  0.00    -0.012 NA 
HETATM   16  C   UNL     1      -6.951   6.754  65.644  1.00  0.00    -0.063 A  
HETATM   17  O   UNL     1      -8.237   7.897  64.013  1.00  0.00    -0.121 OA 
HETATM   18  C   UNL     1      -5.246   5.189  66.933  1.00  0.00    -0.008 A  
HETATM   19  N   UNL     1      -6.505   5.702  64.929  1.00  0.00    -0.040 NA 
HETATM   20  C   UNL     1      -5.648   4.913  65.622  1.00  0.00    -0.014 A  
BRANCH  12  21
HETATM   21  C   UNL     1      -8.509  10.055  66.078  1.00  0.00    -0.131 A  
HETATM   22 CL   UNL     1     -10.658  13.981  65.816  1.00  0.00    -0.291 Cl 
HETATM   23  C   UNL     1      -9.183  11.976  64.774  1.00  0.00     0.343 A  
HETATM   24  C   UNL     1      -9.756  11.757  67.062  1.00  0.00    -0.185 A  
HETATM   25  N   UNL     1      -9.131  10.559  67.163  1.00  0.00    -0.143 NA 
HETATM   26  C   UNL     1      -8.508  10.755  64.870  1.00  0.00    -0.055 A  
HETATM   27  C   UNL     1      -9.818  12.489  65.893  1.00  0.00    -0.247 A  
ENDBRANCH  12  21
ENDBRANCH  10  11
ENDBRANCH   7  10
TORSDOF 3
ENDMDL
MODEL      216
REMARK 921   NORMALIZED FREE ENERGY PREDICTED BY IDOCK:   -0.75 KCAL/MOL
REMARK 922        TOTAL FREE ENERGY PREDICTED BY IDOCK:   -1.49 KCAL/MOL
REMARK 923 INTER-LIGAND FREE ENERGY PREDICTED BY IDOCK:   -1.56 KCAL/MOL
REMARK 924 INTRA-LIGAND FREE ENERGY PREDICTED BY IDOCK:    0.07 KCAL/MOL
REMARK 927      BINDING AFFINITY PREDICTED BY RF-SCORE:    0.00 PKD
ROOT
HETATM    1  C   UNL     1     -11.861  17.756  67.945  1.00  0.00     1.886 C  
HETATM    2  N   UNL     1     -11.280  17.440  66.640  1.00  0.00     0.448 NA 
HETATM    3  C   UNL     1     -10.489  18.576  66.117  1.00  0.00    -0.413 C  
HETATM    4  C   UNL     1      -9.139  18.790  66.828  1.00  0.00    -0.312 C  
HETATM    5  N   UNL     1      -8.363  17.552  66.858  1.00  0.00    -0.222 N  
HETATM    6  C   UNL     1      -9.074  16.396  67.401  1.00  0.00    -0.199 C  
HETATM    7  C   UNL     1      -7.133  17.527  66.235  1.00  0.00    -0.305 C  
HETATM    8  O   UNL     1      -6.683  18.498  65.640  1.00  0.00    -0.276 OA 
HETATM    9  C   UNL     1     -10.438  16.222  66.690  1.00  0.00    -0.290 C  
ENDROOT
BRANCH   7  10
HETATM   10  O   UNL     1      -6.459  16.357  66.370  1.00  0.00    -0.177 OA 
BRANCH  10  11
HETATM   11  C   UNL     1      -5.651  16.222  67.561  1.00  0.00    -0.148 C  
HETATM   12  N   UNL     1      -6.091  15.132  68.410  1.00  0.00    -0.099 N  
HETATM   13  C   UNL     1      -6.390  15.588  69.702  1.00  0.00    -0.163 C  
HETATM   14  C   UNL     1      -5.620  17.417  68.482  1.00  0.00    -0.155 A  
HETATM   15  N   UNL     1      -5.138  18.651  68.213  1.00  0.00    -0.172 NA 
HETATM   16  C   UNL     1      -6.071  17.031  69.729  1.00  0.00    -0.227 A  
HETATM   17  O   UNL     1      -6.759  14.974  70.687  1.00  0.00     0.038 OA 
HETATM   18  C   UNL     1      -5.167  19.483  69.290  1.00  0.00    -0.180 A  
HETATM   19  N   UNL     1      -6.081  17.835  70.812  1.00  0.00     0.476 NA 
HETATM   20  C   UNL     1      -5.628  19.085  70.549  1.00  0.00    -0.214 A  
BRANCH  12  21
HETATM   21  C   UNL     1      -6.160  13.790  67.997  1.00  0.00    -0.140 A  
HETATM   22 CL   UNL     1      -6.346   9.556  66.533  1.00  0.00    -0.065 Cl 
HETATM   23  C   UNL     1      -7.325  11.675  67.889  1.00  0.00    -0.096 A  
HETATM   24  C   UNL     1      -5.232  12.002  66.831  1.00  0.00    -0.037 A  
HETATM   25  N   UNL     1      -5.159  13.290  67.244  1.00  0.00    -0.326 NA 
HETATM   26  C   UNL     1      -7.251  12.994  68.347  1.00  0.00    -0.110 A  
HETATM   27  C   UNL     1      -6.293  11.167  67.116  1.00  0.00    -0.083 A  
ENDBRANCH  12  21
ENDBRANCH  10  11
ENDBRANCH   7  10
TORSDOF 3
ENDMDL
MODEL      217
REMARK 921   NORMALIZED FREE ENERGY PREDICTED BY IDOCK:    0.10 KCAL/MOL
REMARK 922        TOTAL FREE ENERGY PREDICTED BY IDOCK:   -0.49 KCAL/MOL
REMARK 923 INTER-LIGAND FREE ENERGY PREDICTED BY IDOCK:   -3.07 KCAL/MOL
REMARK 924 INTRA-LIGAND FREE ENERGY PREDICTED BY IDOCK:    2.58 KCAL/MOL
REMARK 927      BINDING AFFINITY PREDICTED BY RF-SCORE:    0.00 PKD
ROOT
HETATM    1  C   UNL     1     -14.361  13.752  72.946  1.00  0.00     0.858 C  
HETATM    2  N   UNL     1     -12.964  14.050  72.627  1.00  0.00    -0.410 NA 
HETATM    3  C   UNL     1     -12.370  12.989  71.783  1.00  0.00     0.303 C  
HETATM    4  C   UNL     1     -12.856  12.994  70.322  1.00  0.00     0.236 C  
HETATM    5  N   UNL     1     -12.701  14.318  69.723  1.00  0.00    -0.102 N  
HETATM    6  C   UNL     1     -13.301  15.410  70.488  1.00  0.00    -0.125 C  
HETATM    7  C   UNL     1     -11.883  14.455  68.623  1.00  0.00    -0.331 C  
HETATM    8  O   UNL     1     -11.266  13.510  68.146  1.00  0.00    -0.249 OA 
HETATM    9  C   UNL     1     -12.819  15.364  71.958  1.00  0.00    -0.388 C  
ENDROOT
BRANCH   7  10
HETATM   10  O   UNL     1     -11.850  15.706  68.098  1.00  0.00    -0.286 OA 
BRANCH  10  11
HETATM   11  C   UNL     1     -10.674  16.044  67.331  1.00  0.00    -0.306 C  
HETATM   12  N   UNL     1     -10.112  14.900  66.640  1.00  0.00    -0.252 N  
HETATM   13  C   UNL     1      -8.770  14.702  67.001  1.00  0.00    -0.235 C  
HETATM   14  C   UNL     1      -9.512  16.611  68.111  1.00  0.00    -0.228 A  
HETATM   15  N   UNL     1      -9.475  17.769  68.807  1.00  0.00    -0.281 NA 
HETATM   16  C   UNL     1      -8.409  15.803  67.917  1.00  0.00    -0.149 A  
HETATM   17  O   UNL     1      -7.968  13.871  66.617  1.00  0.00     0.264 OA 
HETATM   18  C   UNL     1      -8.246  18.045  69.320  1.00  0.00     0.259 A  
HETATM   19  N   UNL     1      -7.179  16.076  68.398  1.00  0.00    -0.122 NA 
HETATM   20  C   UNL     1      -7.133  17.220  69.123  1.00  0.00    -0.204 A  
BRANCH  12  21
HETATM   21  C   UNL     1     -10.812  14.125  65.700  1.00  0.00    -0.305 A  
HETATM   22 CL   UNL     1     -13.183  11.715  62.755  1.00  0.00     0.712 Cl 
HETATM   23  C   UNL     1     -11.304  11.992  64.672  1.00  0.00    -0.377 A  
HETATM   24  C   UNL     1     -12.427  13.976  64.030  1.00  0.00    -0.190 A  
HETATM   25  N   UNL     1     -11.739  14.725  64.926  1.00  0.00    -0.389 NA 
HETATM   26  C   UNL     1     -10.564  12.756  65.581  1.00  0.00    -0.297 A  
HETATM   27  C   UNL     1     -12.254  12.615  63.879  1.00  0.00    -0.481 A  
ENDBRANCH  12  21
ENDBRANCH  10  11
ENDBRANCH   7  10
TORSDOF 3
ENDMDL
MODEL      218
REMARK 921   NORMALIZED FREE ENERGY PREDICTED BY IDOCK:    0.89 KCAL/MOL
REMARK 922        TOTAL FREE ENERGY PREDICTED BY IDOCK:    0.44 KCAL/MOL
REMARK 923 INTER-LIGAND FREE ENERGY PREDICTED BY IDOCK:   -1.52 KCAL/MOL
REMARK 924 INTRA-LIGAND FREE ENERGY PREDICTED BY IDOCK:    1.96 KCAL/MOL
REMARK 927      BINDING AFFINITY PREDICTED BY RF-SCORE:    0.00 PKD
ROOT
HETATM    1  C   UNL     1     -12.535  12.951  66.300  1.00  0.00     0.063 C  
HETATM    2  N   UNL     1     -12.673  13.695  67.553  1.00  0.00     0.471 NA 
HETATM    3  C   UNL     1     -11.903  13.056  68.643  1.00  0.00    -0.318 C  
HETATM    4  C   UNL     1     -10.378  13.240  68.534  1.00  0.00    -0.239 C  
HETATM    5  N   UNL     1     -10.031  14.651  68.375  1.00  0.00    -0.220 N  
HETATM    6  C   UNL     1     -10.730  15.335  67.287  1.00  0.00    -0.311 C  
HETATM    7  C   UNL     1      -9.241  15.249  69.332  1.00  0.00    -0.233 C  
HETATM    8  O   UNL     1      -8.840  14.646  70.320  1.00  0.00     0.752 OA 
HETATM    9  C   UNL     1     -12.256  15.109  67.405  1.00  0.00     0.416 C  
ENDROOT
BRANCH   7  10
HETATM   10  O   UNL     1      -8.919  16.541  69.068  1.00  0.00    -0.257 OA 
BRANCH  10  11
HETATM   11  C   UNL     1      -8.483  16.826  67.720  1.00  0.00    -0.193 C  
HETATM   12  N   UNL     1      -7.259  16.129  67.373  1.00  0.00    -0.163 N  
HETATM   13  C   UNL     1      -6.262  17.031  66.970  1.00  0.00    -0.190 C  
HETATM   14  C   UNL     1      -8.184  18.272  67.411  1.00  0.00    -0.237 A  
HETATM   15  N   UNL     1      -9.048  19.312  67.424  1.00  0.00    -0.291 NA 
HETATM   16  C   UNL     1      -6.873  18.376  66.986  1.00  0.00    -0.190 A  
HETATM   17  O   UNL     1      -5.126  16.825  66.585  1.00  0.00    -0.316 OA 
HETATM   18  C   UNL     1      -8.487  20.478  67.001  1.00  0.00    -0.230 A  
HETATM   19  N   UNL     1      -6.312  19.518  66.541  1.00  0.00    -0.184 NA 
HETATM   20  C   UNL     1      -7.158  20.576  66.576  1.00  0.00    -0.240 A  
BRANCH  12  21
HETATM   21  C   UNL     1      -7.115  14.731  67.396  1.00  0.00    -0.143 A  
HETATM   22 CL   UNL     1      -6.811  10.259  67.478  1.00  0.00    -0.072 Cl 
HETATM   23  C   UNL     1      -6.115  12.729  68.312  1.00  0.00    -0.075 A  
HETATM   24  C   UNL     1      -7.749  12.638  66.600  1.00  0.00     0.389 A  
HETATM   25  N   UNL     1      -7.875  13.987  66.568  1.00  0.00     0.736 NA 
HETATM   26  C   UNL     1      -6.212  14.124  68.270  1.00  0.00    -0.117 A  
HETATM   27  C   UNL     1      -6.898  11.970  67.457  1.00  0.00    -0.128 A  
ENDBRANCH  12  21
ENDBRANCH  10  11
ENDBRANCH   7  10
TORSDOF 3
ENDMDL
MODEL      219
REMARK 921   NORMALIZED FREE ENERGY PREDICTED BY IDOCK:    2.93 KCAL/MOL
REMARK 922        TOTAL FREE ENERGY PREDICTED BY IDOCK:    2.85 KCAL/MOL
REMARK 923 INTER-LIGAND FREE ENERGY PREDICTED BY IDOCK:    2.69 KCAL/MOL
REMARK 924 INTRA-LIGAND FREE ENERGY PREDICTED BY IDOCK:    0.15 KCAL/MOL
REMARK 927      BINDING AFFINITY PREDICTED BY RF-SCORE:    0.00 PKD
ROOT
HETATM    1  C   UNL     1     -13.106   6.704  70.605  1.00  0.00     0.799 C  
HETATM    2  N   UNL     1     -11.701   7.072  70.431  1.00  0.00    -0.304 NA 
HETATM    3  C   UNL     1     -11.192   6.635  69.112  1.00  0.00    -0.242 C  
HETATM    4  C   UNL     1     -11.708   7.469  67.925  1.00  0.00     1.645 C  
HETATM    5  N   UNL     1     -11.483   8.896  68.151  1.00  0.00     0.790 N  
HETATM    6  C   UNL     1     -11.997   9.403  69.423  1.00  0.00     0.835 C  
HETATM    7  C   UNL     1     -10.681   9.587  67.268  1.00  0.00    -0.199 C  
HETATM    8  O   UNL     1     -10.134   9.041  66.317  1.00  0.00    -0.295 OA 
HETATM    9  C   UNL     1     -11.487   8.530  70.594  1.00  0.00    -0.228 C  
ENDROOT
BRANCH   7  10
HETATM   10  O   UNL     1     -10.581  10.916  67.522  1.00  0.00    -0.201 OA 
BRANCH  10  11
HETATM   11  C   UNL     1      -9.382  11.346  68.205  1.00  0.00    -0.181 C  
HETATM   12  N   UNL     1      -9.276  12.789  68.288  1.00  0.00    -0.204 N  
HETATM   13  C   UNL     1      -8.079  13.241  67.711  1.00  0.00    -0.166 C  
HETATM   14  C   UNL     1      -8.075  10.915  67.586  1.00  0.00    -0.115 A  
HETATM   15  N   UNL     1      -7.615   9.653  67.428  1.00  0.00    -0.094 NA 
HETATM   16  C   UNL     1      -7.329  12.040  67.289  1.00  0.00    -0.151 A  
HETATM   17  O   UNL     1      -7.630  14.369  67.615  1.00  0.00    -0.148 OA 
HETATM   18  C   UNL     1      -6.352   9.604  66.922  1.00  0.00    -0.066 A  
HETATM   19  N   UNL     1      -6.069  12.007  66.811  1.00  0.00    -0.191 NA 
HETATM   20  C   UNL     1      -5.606  10.748  66.620  1.00  0.00    -0.075 A  
BRANCH  12  21
HETATM   21  C   UNL     1     -10.230  13.615  68.908  1.00  0.00    -0.077 A  
HETATM   22 CL   UNL     1     -13.287  16.140  71.000  1.00  0.00     0.687 Cl 
HETATM   23  C   UNL     1     -12.252  14.937  68.817  1.00  0.00    -0.122 A  
HETATM   24  C   UNL     1     -11.041  14.645  70.832  1.00  0.00     0.090 A  
HETATM   25  N   UNL     1     -10.113  13.863  70.228  1.00  0.00     1.566 NA 
HETATM   26  C   UNL     1     -11.286  14.156  68.174  1.00  0.00    -0.316 A  
HETATM   27  C   UNL     1     -12.125  15.189  70.173  1.00  0.00    -0.343 A  
ENDBRANCH  12  21
ENDBRANCH  10  11
ENDBRANCH   7  10
TORSDOF 3
ENDMDL
MODEL      220
REMARK 921   NORMALIZED FREE ENERGY PREDICTED BY IDOCK:    3.13 KCAL/MOL
REMARK 922        TOTAL FREE ENERGY PREDICTED BY IDOCK:    3.07 KCAL/MOL
REMARK 923 INTER-LIGAND FREE ENERGY PREDICTED BY IDOCK:    3.05 KCAL/MOL
REMARK 924 INTRA-LIGAND FREE ENERGY PREDICTED BY IDOCK:    0.02 KCAL/MOL
REMARK 927      BINDING AFFINITY PREDICTED BY RF-SCORE:    0.00 PKD
ROOT
HETATM    1  C   UNL     1     -10.887  15.934  66.103  1.00  0.00    -0.208 C  
HETATM    2  N   UNL     1     -11.053  14.782  66.989  1.00  0.00    -0.325 NA 
HETATM    3  C   UNL     1     -12.161  13.912  66.535  1.00  0.00    -0.442 C  
HETATM    4  C   UNL     1     -11.842  13.082  65.278  1.00  0.00    -0.376 C  
HETATM    5  N   UNL     1     -10.597  12.335  65.447  1.00  0.00    -0.265 N  
HETATM    6  C   UNL     1      -9.449  13.143  65.859  1.00  0.00    -0.019 C  
HETATM    7  C   UNL     1     -10.637  10.959  65.383  1.00  0.00    -0.173 C  
HETATM    8  O   UNL     1     -11.682  10.343  65.212  1.00  0.00     1.514 OA 
HETATM    9  C   UNL     1      -9.807  13.988  67.104  1.00  0.00    -0.240 C  
ENDROOT
BRANCH   7  10
HETATM   10  O   UNL     1      -9.426  10.356  65.487  1.00  0.00    -0.185 OA 
BRANCH  10  11
HETATM   11  C   UNL     1      -9.440   8.917  65.623  1.00  0.00    -0.159 C  
HETATM   12  N   UNL     1      -8.756   8.464  66.818  1.00  0.00    -0.124 N  
HETATM   13  C   UNL     1      -7.726   7.565  66.500  1.00  0.00    -0.097 C  
HETATM   14  C   UNL     1      -8.788   8.138  64.507  1.00  0.00     0.372 A  
HETATM   15  N   UNL     1      -9.164   8.088  63.209  1.00  0.00     1.381 NA 
HETATM   16  C   UNL     1      -7.776   7.362  65.037  1.00  0.00    -0.114 A  
HETATM   17  O   UNL     1      -6.959   6.960  67.226  1.00  0.00    -0.073 OA 
HETATM   18  C   UNL     1      -8.426   7.214  62.472  1.00  0.00     0.119 A  
HETATM   19  N   UNL     1      -7.053   6.474  64.325  1.00  0.00    -0.057 NA 
HETATM   20  C   UNL     1      -7.400   6.434  63.016  1.00  0.00    -0.064 A  
BRANCH  12  21
HETATM   21  C   UNL     1      -9.113   8.845  68.123  1.00  0.00    -0.140 A  
HETATM   22 CL   UNL     1     -10.222  10.210  72.247  1.00  0.00     3.636 Cl 
HETATM   23  C   UNL     1      -8.898   8.614  70.520  1.00  0.00    -0.182 A  
HETATM   24  C   UNL     1     -10.314  10.243  69.545  1.00  0.00    -0.242 A  
HETATM   25  N   UNL     1      -9.981   9.863  68.287  1.00  0.00    -0.147 NA 
HETATM   26  C   UNL     1      -8.567   8.191  69.229  1.00  0.00    -0.135 A  
HETATM   27  C   UNL     1      -9.792   9.660  70.682  1.00  0.00    -0.200 A  
ENDBRANCH  12  21
ENDBRANCH  10  11
ENDBRANCH   7  10
TORSDOF 3
ENDMDL
MODEL      221
REMARK 921   NORMALIZED FREE ENERGY PREDICTED BY IDOCK:    3.64 KCAL/MOL
REMARK 922        TOTAL FREE ENERGY PREDICTED BY IDOCK:    3.67 KCAL/MOL
REMARK 923 INTER-LIGAND FREE ENERGY PREDICTED BY IDOCK:    3.28 KCAL/MOL
REMARK 924 INTRA-LIGAND FREE ENERGY PREDICTED BY IDOCK:    0.39 KCAL/MOL
REMARK 927      BINDING AFFINITY PREDICTED BY RF-SCORE:    0.00 PKD
ROOT
HETATM    1  C   UNL     1     -12.365   6.267  68.328  1.00  0.00     4.683 C  
HETATM    2  N   UNL     1     -12.097   6.873  69.632  1.00  0.00     0.171 NA 
HETATM    3  C   UNL     1     -11.542   5.881  70.581  1.00  0.00     0.099 C  
HETATM    4  C   UNL     1     -10.080   5.486  70.302  1.00  0.00    -0.237 C  
HETATM    5  N   UNL     1      -9.231   6.671  70.193  1.00  0.00    -0.155 N  
HETATM    6  C   UNL     1      -9.702   7.677  69.242  1.00  0.00    -0.164 C  
HETATM    7  C   UNL     1      -8.192   6.824  71.085  1.00  0.00    -0.119 C  
HETATM    8  O   UNL     1      -7.972   6.014  71.978  1.00  0.00    -0.105 OA 
HETATM    9  C   UNL     1     -11.181   8.033  69.526  1.00  0.00     0.152 C  
ENDROOT
BRANCH   7  10
HETATM   10  O   UNL     1      -7.420   7.919  70.867  1.00  0.00    -0.069 OA 
BRANCH  10  11
HETATM   11  C   UNL     1      -6.356   7.766  69.901  1.00  0.00    -0.030 C  
HETATM   12  N   UNL     1      -6.675   8.372  68.623  1.00  0.00    -0.058 N  
HETATM   13  C   UNL     1      -6.591   7.431  67.585  1.00  0.00    -0.061 C  
HETATM   14  C   UNL     1      -5.974   6.349  69.553  1.00  0.00    -0.021 A  
HETATM   15  N   UNL     1      -5.454   5.410  70.376  1.00  0.00    -0.004 NA 
HETATM   16  C   UNL     1      -6.132   6.166  68.193  1.00  0.00    -0.024 A  
HETATM   17  O   UNL     1      -6.760   7.567  66.386  1.00  0.00    -0.055 OA 
HETATM   18  C   UNL     1      -5.126   4.257  69.732  1.00  0.00     0.000 A  
HETATM   19  N   UNL     1      -5.788   5.039  67.537  1.00  0.00    -0.021 NA 
HETATM   20  C   UNL     1      -5.292   4.078  68.354  1.00  0.00    -0.012 A  
BRANCH  12  21
HETATM   21  C   UNL     1      -6.980   9.733  68.450  1.00  0.00    -0.068 A  
HETATM   22 CL   UNL     1      -7.874  14.106  68.030  1.00  0.00    -0.131 Cl 
HETATM   23  C   UNL     1      -8.584  11.503  68.076  1.00  0.00    -0.150 A  
HETATM   24  C   UNL     1      -6.281  11.952  68.395  1.00  0.00    -0.050 A  
HETATM   25  N   UNL     1      -5.986  10.638  68.545  1.00  0.00    -0.040 NA 
HETATM   26  C   UNL     1      -8.291  10.141  68.199  1.00  0.00    -0.117 A  
HETATM   27  C   UNL     1      -7.558  12.428  68.173  1.00  0.00    -0.129 A  
ENDBRANCH  12  21
ENDBRANCH  10  11
ENDBRANCH   7  10
TORSDOF 3
ENDMDL
MODEL      222
REMARK 921   NORMALIZED FREE ENERGY PREDICTED BY IDOCK:    3.70 KCAL/MOL
REMARK 922        TOTAL FREE ENERGY PREDICTED BY IDOCK:    3.74 KCAL/MOL
REMARK 923 INTER-LIGAND FREE ENERGY PREDICTED BY IDOCK:   -2.22 KCAL/MOL
REMARK 924 INTRA-LIGAND FREE ENERGY PREDICTED BY IDOCK:    5.96 KCAL/MOL
REMARK 927      BINDING AFFINITY PREDICTED BY RF-SCORE:    0.00 PKD
ROOT
HETATM    1  C   UNL     1      -5.133  18.119  67.460  1.00  0.00    -0.138 C  
HETATM    2  N   UNL     1      -5.410  17.275  68.622  1.00  0.00    -0.143 NA 
HETATM    3  C   UNL     1      -6.606  17.746  69.355  1.00  0.00    -0.202 C  
HETATM    4  C   UNL     1      -7.941  17.456  68.643  1.00  0.00    -0.271 C  
HETATM    5  N   UNL     1      -8.044  16.043  68.282  1.00  0.00    -0.147 N  
HETATM    6  C   UNL     1      -6.910  15.521  67.522  1.00  0.00    -0.195 C  
HETATM    7  C   UNL     1      -9.073  15.298  68.816  1.00  0.00    -0.200 C  
HETATM    8  O   UNL     1      -9.887  15.773  69.598  1.00  0.00    -0.276 OA 
HETATM    9  C   UNL     1      -5.581  15.852  68.243  1.00  0.00    -0.108 C  
ENDROOT
BRANCH   7  10
HETATM   10  O   UNL     1      -9.126  14.015  68.376  1.00  0.00    -0.191 OA 
BRANCH  10  11
HETATM   11  C   UNL     1      -8.563  13.768  67.068  1.00  0.00    -0.166 C  
HETATM   12  N   UNL     1      -9.444  14.188  65.995  1.00  0.00    -0.216 N  
HETATM   13  C   UNL     1      -9.729  13.120  65.130  1.00  0.00     0.061 C  
HETATM   14  C   UNL     1      -8.245  12.329  66.742  1.00  0.00    -0.058 A  
HETATM   15  N   UNL     1      -7.347  11.526  67.356  1.00  0.00    -0.115 NA 
HETATM   16  C   UNL     1      -8.949  11.962  65.612  1.00  0.00     0.111 A  
HETATM   17  O   UNL     1     -10.400  13.089  64.115  1.00  0.00    -0.419 OA 
HETATM   18  C   UNL     1      -7.226  10.308  66.761  1.00  0.00    -0.105 A  
HETATM   19  N   UNL     1      -8.821  10.768  64.997  1.00  0.00    -0.195 NA 
HETATM   20  C   UNL     1      -7.945   9.942  65.618  1.00  0.00    -0.130 A  
BRANCH  12  21
HETATM   21  C   UNL     1      -9.909  15.503  65.826  1.00  0.00    -0.357 A  
HETATM   22 CL   UNL     1     -11.428  19.665  65.135  1.00  0.00     0.938 Cl 
HETATM   23  C   UNL     1      -9.587  17.893  66.004  1.00  0.00    -0.100 A  
HETATM   24  C   UNL     1     -11.560  16.964  65.079  1.00  0.00     0.834 A  
HETATM   25  N   UNL     1     -11.117  15.697  65.259  1.00  0.00    -0.331 NA 
HETATM   26  C   UNL     1      -9.128  16.590  66.223  1.00  0.00    -0.348 A  
HETATM   27  C   UNL     1     -10.829  18.085  65.422  1.00  0.00     0.249 A  
ENDBRANCH  12  21
ENDBRANCH  10  11
ENDBRANCH   7  10
TORSDOF 3
ENDMDL
MODEL      223
REMARK 921   NORMALIZED FREE ENERGY PREDICTED BY IDOCK:    3.75 KCAL/MOL
REMARK 922        TOTAL FREE ENERGY PREDICTED BY IDOCK:    3.81 KCAL/MOL
REMARK 923 INTER-LIGAND FREE ENERGY PREDICTED BY IDOCK:    3.33 KCAL/MOL
REMARK 924 INTRA-LIGAND FREE ENERGY PREDICTED BY IDOCK:    0.47 KCAL/MOL
REMARK 927      BINDING AFFINITY PREDICTED BY RF-SCORE:    0.00 PKD
ROOT
HETATM    1  C   UNL     1     -12.878   7.356  69.818  1.00  0.00     2.162 C  
HETATM    2  N   UNL     1     -11.485   6.992  69.558  1.00  0.00    -0.093 NA 
HETATM    3  C   UNL     1     -11.380   6.060  68.413  1.00  0.00     0.223 C  
HETATM    4  C   UNL     1     -11.617   6.713  67.039  1.00  0.00     0.720 C  
HETATM    5  N   UNL     1     -10.766   7.889  66.866  1.00  0.00    -0.280 N  
HETATM    6  C   UNL     1     -10.851   8.871  67.945  1.00  0.00    -0.030 C  
HETATM    7  C   UNL     1      -9.854   7.898  65.832  1.00  0.00     0.372 C  
HETATM    8  O   UNL     1      -9.719   6.948  65.071  1.00  0.00     1.324 OA 
HETATM    9  C   UNL     1     -10.639   8.183  69.315  1.00  0.00    -0.182 C  
ENDROOT
BRANCH   7  10
HETATM   10  O   UNL     1      -9.155   9.055  65.711  1.00  0.00    -0.190 OA 
BRANCH  10  11
HETATM   11  C   UNL     1      -7.726   8.957  65.904  1.00  0.00    -0.098 C  
HETATM   12  N   UNL     1      -7.050  10.224  65.705  1.00  0.00    -0.132 N  
HETATM   13  C   UNL     1      -6.059  10.118  64.716  1.00  0.00    -0.127 C  
HETATM   14  C   UNL     1      -6.996   8.002  64.991  1.00  0.00    -0.062 A  
HETATM   15  N   UNL     1      -7.146   6.661  64.913  1.00  0.00    -0.054 NA 
HETATM   16  C   UNL     1      -6.032   8.703  64.292  1.00  0.00    -0.066 A  
HETATM   17  O   UNL     1      -5.275  10.949  64.296  1.00  0.00    -0.154 OA 
HETATM   18  C   UNL     1      -6.267   6.074  64.056  1.00  0.00    -0.029 A  
HETATM   19  N   UNL     1      -5.139   8.132  63.458  1.00  0.00    -0.045 NA 
HETATM   20  C   UNL     1      -5.296   6.790  63.349  1.00  0.00    -0.027 A  
BRANCH  12  21
HETATM   21  C   UNL     1      -7.326  11.389  66.441  1.00  0.00    -0.006 A  
HETATM   22 CL   UNL     1      -8.227  15.015  68.920  1.00  0.00    -0.168 Cl 
HETATM   23  C   UNL     1      -8.542  13.458  66.738  1.00  0.00    -0.043 A  
HETATM   24  C   UNL     1      -6.974  12.690  68.339  1.00  0.00    -0.094 A  
HETATM   25  N   UNL     1      -6.697  11.576  67.619  1.00  0.00    -0.073 NA 
HETATM   26  C   UNL     1      -8.245  12.327  65.969  1.00  0.00     0.643 A  
HETATM   27  C   UNL     1      -7.891  13.644  67.947  1.00  0.00    -0.159 A  
ENDBRANCH  12  21
ENDBRANCH  10  11
ENDBRANCH   7  10
TORSDOF 3
ENDMDL
MODEL      224
REMARK 921   NORMALIZED FREE ENERGY PREDICTED BY IDOCK:    3.90 KCAL/MOL
REMARK 922        TOTAL FREE ENERGY PREDICTED BY IDOCK:    3.98 KCAL/MOL
REMARK 923 INTER-LIGAND FREE ENERGY PREDICTED BY IDOCK:    2.94 KCAL/MOL
REMARK 924 INTRA-LIGAND FREE ENERGY PREDICTED BY IDOCK:    1.04 KCAL/MOL
REMARK 927      BINDING AFFINITY PREDICTED BY RF-SCORE:    0.00 PKD
ROOT
HETATM    1  C   UNL     1     -12.600   5.914  73.391  1.00  0.00     2.281 C  
HETATM    2  N   UNL     1     -12.813   5.532  71.995  1.00  0.00     1.037 NA 
HETATM    3  C   UNL     1     -12.908   6.723  71.121  1.00  0.00    -0.140 C  
HETATM    4  C   UNL     1     -11.566   7.436  70.872  1.00  0.00    -0.291 C  
HETATM    5  N   UNL     1     -10.553   6.493  70.401  1.00  0.00    -0.221 N  
HETATM    6  C   UNL     1     -10.380   5.309  71.241  1.00  0.00    -0.222 C  
HETATM    7  C   UNL     1      -9.989   6.696  69.160  1.00  0.00    -0.157 C  
HETATM    8  O   UNL     1     -10.324   7.622  68.432  1.00  0.00    -0.192 OA 
HETATM    9  C   UNL     1     -11.746   4.630  71.499  1.00  0.00     2.173 C  
ENDROOT
BRANCH   7  10
HETATM   10  O   UNL     1      -9.014   5.809  68.834  1.00  0.00    -0.113 OA 
BRANCH  10  11
HETATM   11  C   UNL     1      -7.822   6.364  68.236  1.00  0.00    -0.105 C  
HETATM   12  N   UNL     1      -7.224   7.405  69.049  1.00  0.00    -0.083 N  
HETATM   13  C   UNL     1      -7.108   8.604  68.329  1.00  0.00    -0.078 C  
HETATM   14  C   UNL     1      -7.996   7.008  66.882  1.00  0.00    -0.115 A  
HETATM   15  N   UNL     1      -8.380   6.412  65.730  1.00  0.00    -0.140 NA 
HETATM   16  C   UNL     1      -7.587   8.325  66.959  1.00  0.00    -0.092 A  
HETATM   17  O   UNL     1      -6.639   9.677  68.660  1.00  0.00    -0.051 OA 
HETATM   18  C   UNL     1      -8.346   7.250  64.659  1.00  0.00     0.055 A  
HETATM   19  N   UNL     1      -7.524   9.160  65.901  1.00  0.00    -0.093 NA 
HETATM   20  C   UNL     1      -7.933   8.584  64.745  1.00  0.00    -0.143 A  
BRANCH  12  21
HETATM   21  C   UNL     1      -6.780   7.216  70.369  1.00  0.00    -0.052 A  
HETATM   22 CL   UNL     1      -5.214   6.619  74.528  1.00  0.00    -0.045 Cl 
HETATM   23  C   UNL     1      -6.826   5.995  72.455  1.00  0.00    -0.074 A  
HETATM   24  C   UNL     1      -5.377   7.838  72.119  1.00  0.00    -0.036 A  
HETATM   25  N   UNL     1      -5.819   8.029  70.852  1.00  0.00    -0.033 NA 
HETATM   26  C   UNL     1      -7.314   6.197  71.160  1.00  0.00    -0.084 A  
HETATM   27  C   UNL     1      -5.840   6.834  72.947  1.00  0.00    -0.042 A  
ENDBRANCH  12  21
ENDBRANCH  10  11
ENDBRANCH   7  10
TORSDOF 3
ENDMDL
MODEL      225
REMARK 921   NORMALIZED FREE ENERGY PREDICTED BY IDOCK:    4.53 KCAL/MOL
REMARK 922        TOTAL FREE ENERGY PREDICTED BY IDOCK:    4.72 KCAL/MOL
REMARK 923 INTER-LIGAND FREE ENERGY PREDICTED BY IDOCK:    3.93 KCAL/MOL
REMARK 924 INTRA-LIGAND FREE ENERGY PREDICTED BY IDOCK:    0.79 KCAL/MOL
REMARK 927      BINDING AFFINITY PREDICTED BY RF-SCORE:    0.00 PKD
ROOT
HETATM    1  C   UNL     1     -12.615  11.699  69.455  1.00  0.00     0.229 C  
HETATM    2  N   UNL     1     -11.805  11.373  68.282  1.00  0.00    -0.567 NA 
HETATM    3  C   UNL     1     -12.134  12.255  67.141  1.00  0.00     0.057 C  
HETATM    4  C   UNL     1     -11.612  13.697  67.281  1.00  0.00    -0.356 C  
HETATM    5  N   UNL     1     -10.181  13.707  67.583  1.00  0.00    -0.236 N  
HETATM    6  C   UNL     1      -9.790  12.884  68.726  1.00  0.00     0.035 C  
HETATM    7  C   UNL     1      -9.323  14.322  66.696  1.00  0.00    -0.284 C  
HETATM    8  O   UNL     1      -9.716  14.838  65.657  1.00  0.00    -0.332 OA 
HETATM    9  C   UNL     1     -10.353  11.451  68.574  1.00  0.00    -0.205 C  
ENDROOT
BRANCH   7  10
HETATM   10  O   UNL     1      -8.025  14.336  67.090  1.00  0.00    -0.185 OA 
BRANCH  10  11
HETATM   11  C   UNL     1      -7.512  15.609  67.544  1.00  0.00    -0.179 C  
HETATM   12  N   UNL     1      -7.661  15.790  68.975  1.00  0.00    -0.176 N  
HETATM   13  C   UNL     1      -8.392  16.953  69.263  1.00  0.00     0.070 C  
HETATM   14  C   UNL     1      -8.156  16.836  66.948  1.00  0.00    -0.211 A  
HETATM   15  N   UNL     1      -8.153  17.220  65.652  1.00  0.00    -0.309 NA 
HETATM   16  C   UNL     1      -8.680  17.605  67.969  1.00  0.00    -0.253 A  
HETATM   17  O   UNL     1      -8.695  17.445  70.334  1.00  0.00     2.703 OA 
HETATM   18  C   UNL     1      -8.742  18.431  65.452  1.00  0.00     1.491 A  
HETATM   19  N   UNL     1      -9.244  18.817  67.790  1.00  0.00    -0.286 NA 
HETATM   20  C   UNL     1      -9.274  19.202  66.491  1.00  0.00    -0.345 A  
BRANCH  12  21
HETATM   21  C   UNL     1      -7.103  14.933  69.941  1.00  0.00    -0.109 A  
HETATM   22 CL   UNL     1      -5.223  12.317  73.058  1.00  0.00     0.435 Cl 
HETATM   23  C   UNL     1      -6.145  12.805  70.569  1.00  0.00     0.041 A  
HETATM   24  C   UNL     1      -6.358  14.584  72.118  1.00  0.00     0.925 A  
HETATM   25  N   UNL     1      -6.911  15.402  71.190  1.00  0.00     1.109 NA 
HETATM   26  C   UNL     1      -6.741  13.627  69.607  1.00  0.00     0.011 A  
HETATM   27  C   UNL     1      -5.951  13.292  71.851  1.00  0.00     0.854 A  
ENDBRANCH  12  21
ENDBRANCH  10  11
ENDBRANCH   7  10
TORSDOF 3
ENDMDL
MODEL      226
REMARK 921   NORMALIZED FREE ENERGY PREDICTED BY IDOCK:    4.64 KCAL/MOL
REMARK 922        TOTAL FREE ENERGY PREDICTED BY IDOCK:    4.85 KCAL/MOL
REMARK 923 INTER-LIGAND FREE ENERGY PREDICTED BY IDOCK:    4.63 KCAL/MOL
REMARK 924 INTRA-LIGAND FREE ENERGY PREDICTED BY IDOCK:    0.22 KCAL/MOL
REMARK 927      BINDING AFFINITY PREDICTED BY RF-SCORE:    0.00 PKD
ROOT
HETATM    1  C   UNL     1      -5.125  10.953  72.183  1.00  0.00     0.136 C  
HETATM    2  N   UNL     1      -5.691  10.354  70.975  1.00  0.00    -0.205 NA 
HETATM    3  C   UNL     1      -7.165  10.249  71.068  1.00  0.00     0.982 C  
HETATM    4  C   UNL     1      -7.906  11.592  70.925  1.00  0.00     5.292 C  
HETATM    5  N   UNL     1      -7.485  12.295  69.715  1.00  0.00     0.732 N  
HETATM    6  C   UNL     1      -6.039  12.467  69.578  1.00  0.00    -0.120 C  
HETATM    7  C   UNL     1      -8.428  12.573  68.749  1.00  0.00     0.155 C  
HETATM    8  O   UNL     1      -9.599  12.231  68.862  1.00  0.00    -0.007 OA 
HETATM    9  C   UNL     1      -5.318  11.110  69.756  1.00  0.00    -0.049 C  
ENDROOT
BRANCH   7  10
HETATM   10  O   UNL     1      -7.958  13.283  67.693  1.00  0.00    -0.148 OA 
BRANCH  10  11
HETATM   11  C   UNL     1      -8.653  13.094  66.439  1.00  0.00     0.312 C  
HETATM   12  N   UNL     1      -9.874  13.872  66.357  1.00  0.00    -0.287 N  
HETATM   13  C   UNL     1     -10.981  13.046  66.109  1.00  0.00    -0.280 C  
HETATM   14  C   UNL     1      -9.091  11.684  66.129  1.00  0.00    -0.203 A  
HETATM   15  N   UNL     1      -8.305  10.601  65.936  1.00  0.00    -0.158 NA 
HETATM   16  C   UNL     1     -10.462  11.672  65.953  1.00  0.00    -0.255 A  
HETATM   17  O   UNL     1     -12.154  13.331  65.952  1.00  0.00    -0.398 OA 
HETATM   18  C   UNL     1      -9.005   9.491  65.575  1.00  0.00    -0.194 A  
HETATM   19  N   UNL     1     -11.165  10.586  65.572  1.00  0.00     0.473 NA 
HETATM   20  C   UNL     1     -10.393   9.486  65.403  1.00  0.00     0.533 A  
BRANCH  12  21
HETATM   21  C   UNL     1      -9.926  15.272  66.466  1.00  0.00    -0.265 A  
HETATM   22 CL   UNL     1      -9.976  19.749  66.705  1.00  0.00    -0.504 Cl 
HETATM   23  C   UNL     1      -9.888  17.285  67.804  1.00  0.00    -0.281 A  
HETATM   24  C   UNL     1     -10.035  17.359  65.441  1.00  0.00     0.425 A  
HETATM   25  N   UNL     1     -10.002  16.008  65.339  1.00  0.00    -0.472 NA 
HETATM   26  C   UNL     1      -9.883  15.889  67.718  1.00  0.00    -0.222 A  
HETATM   27  C   UNL     1      -9.969  18.036  66.643  1.00  0.00    -0.362 A  
ENDBRANCH  12  21
ENDBRANCH  10  11
ENDBRANCH   7  10
TORSDOF 3
ENDMDL
MODEL      227
REMARK 921   NORMALIZED FREE ENERGY PREDICTED BY IDOCK:    6.76 KCAL/MOL
REMARK 922        TOTAL FREE ENERGY PREDICTED BY IDOCK:    7.35 KCAL/MOL
REMARK 923 INTER-LIGAND FREE ENERGY PREDICTED BY IDOCK:    0.82 KCAL/MOL
REMARK 924 INTRA-LIGAND FREE ENERGY PREDICTED BY IDOCK:    6.53 KCAL/MOL
REMARK 927      BINDING AFFINITY PREDICTED BY RF-SCORE:    0.00 PKD
ROOT
HETATM    1  C   UNL     1     -12.217  11.136  70.194  1.00  0.00    -0.337 C  
HETATM    2  N   UNL     1     -11.665  10.501  68.997  1.00  0.00    -0.216 NA 
HETATM    3  C   UNL     1     -12.335  10.991  67.772  1.00  0.00     1.496 C  
HETATM    4  C   UNL     1     -11.946  12.425  67.367  1.00  0.00    -0.175 C  
HETATM    5  N   UNL     1     -10.494  12.570  67.289  1.00  0.00    -0.219 N  
HETATM    6  C   UNL     1      -9.770  12.139  68.484  1.00  0.00    -0.149 C  
HETATM    7  C   UNL     1      -9.928  12.920  66.082  1.00  0.00    -0.272 C  
HETATM    8  O   UNL     1     -10.598  13.089  65.071  1.00  0.00    -0.295 OA 
HETATM    9  C   UNL     1     -10.202  10.708  68.886  1.00  0.00    -0.201 C  
ENDROOT
BRANCH   7  10
HETATM   10  O   UNL     1      -8.583  13.093  66.121  1.00  0.00     0.312 OA 
BRANCH  10  11
HETATM   11  C   UNL     1      -8.101  14.148  66.984  1.00  0.00    -0.017 C  
HETATM   12  N   UNL     1      -8.155  13.787  68.387  1.00  0.00    -0.146 N  
HETATM   13  C   UNL     1      -8.920  14.710  69.116  1.00  0.00    -0.025 C  
HETATM   14  C   UNL     1      -8.847  15.457  66.911  1.00  0.00    -0.253 A  
HETATM   15  N   UNL     1      -8.956  16.284  65.847  1.00  0.00    -0.437 NA 
HETATM   16  C   UNL     1      -9.333  15.765  68.167  1.00  0.00    -0.194 A  
HETATM   17  O   UNL     1      -9.169  14.758  70.307  1.00  0.00     0.543 OA 
HETATM   18  C   UNL     1      -9.617  17.439  66.133  1.00  0.00    -0.193 A  
HETATM   19  N   UNL     1      -9.967  16.915  68.471  1.00  0.00    -0.260 NA 
HETATM   20  C   UNL     1     -10.109  17.741  67.407  1.00  0.00    -0.338 A  
BRANCH  12  21
HETATM   21  C   UNL     1      -7.488  12.681  68.943  1.00  0.00     0.018 A  
HETATM   22 CL   UNL     1      -5.264   9.256  70.791  1.00  0.00    -0.027 Cl 
HETATM   23  C   UNL     1      -6.365  10.555  68.698  1.00  0.00    -0.047 A  
HETATM   24  C   UNL     1      -6.592  11.611  70.805  1.00  0.00     1.233 A  
HETATM   25  N   UNL     1      -7.249  12.668  70.270  1.00  0.00     1.189 NA 
HETATM   26  C   UNL     1      -7.068  11.624  68.134  1.00  0.00    -0.078 A  
HETATM   27  C   UNL     1      -6.123  10.546  70.062  1.00  0.00    -0.091 A  
ENDBRANCH  12  21
ENDBRANCH  10  11
ENDBRANCH   7  10
TORSDOF 3
ENDMDL
MODEL      228
REMARK 921   NORMALIZED FREE ENERGY PREDICTED BY IDOCK:   10.57 KCAL/MOL
REMARK 922        TOTAL FREE ENERGY PREDICTED BY IDOCK:   11.82 KCAL/MOL
REMARK 923 INTER-LIGAND FREE ENERGY PREDICTED BY IDOCK:    7.16 KCAL/MOL
REMARK 924 INTRA-LIGAND FREE ENERGY PREDICTED BY IDOCK:    4.67 KCAL/MOL
REMARK 927      BINDING AFFINITY PREDICTED BY RF-SCORE:    0.00 PKD
ROOT
HETATM    1  C   UNL     1     -11.848  18.972  65.751  1.00  0.00     3.383 C  
HETATM    2  N   UNL     1     -10.784  18.347  64.965  1.00  0.00    -0.331 NA 
HETATM    3  C   UNL     1      -9.620  19.250  64.826  1.00  0.00     3.651 C  
HETATM    4  C   UNL     1      -8.780  19.406  66.107  1.00  0.00    -0.279 C  
HETATM    5  N   UNL     1      -8.397  18.101  66.642  1.00  0.00    -0.255 N  
HETATM    6  C   UNL     1      -9.507  17.170  66.842  1.00  0.00    -0.259 C  
HETATM    7  C   UNL     1      -7.057  17.796  66.746  1.00  0.00    -0.201 C  
HETATM    8  O   UNL     1      -6.180  18.571  66.384  1.00  0.00    -0.163 OA 
HETATM    9  C   UNL     1     -10.350  17.056  65.549  1.00  0.00    -0.143 C  
ENDROOT
BRANCH   7  10
HETATM   10  O   UNL     1      -6.797  16.590  67.312  1.00  0.00    -0.142 OA 
BRANCH  10  11
HETATM   11  C   UNL     1      -7.276  16.404  68.662  1.00  0.00    -0.178 C  
HETATM   12  N   UNL     1      -7.939  15.127  68.845  1.00  0.00    -0.164 N  
HETATM   13  C   UNL     1      -9.249  15.303  69.319  1.00  0.00    -0.233 C  
HETATM   14  C   UNL     1      -8.281  17.416  69.156  1.00  0.00     0.037 A  
HETATM   15  N   UNL     1      -8.093  18.743  69.333  1.00  0.00     0.129 NA 
HETATM   16  C   UNL     1      -9.437  16.754  69.523  1.00  0.00     0.163 A  
HETATM   17  O   UNL     1     -10.095  14.478  69.614  1.00  0.00    -0.007 OA 
HETATM   18  C   UNL     1      -9.170  19.366  69.886  1.00  0.00     0.715 A  
HETATM   19  N   UNL     1     -10.501  17.353  70.095  1.00  0.00     0.443 NA 
HETATM   20  C   UNL     1     -10.338  18.689  70.252  1.00  0.00     1.593 A  
BRANCH  12  21
HETATM   21  C   UNL     1      -7.328  13.882  68.620  1.00  0.00    -0.117 A  
HETATM   22 CL   UNL     1      -5.253   9.985  67.841  1.00  0.00    -0.038 Cl 
HETATM   23  C   UNL     1      -7.378  11.643  67.708  1.00  0.00    -0.106 A  
HETATM   24  C   UNL     1      -5.462  12.503  68.803  1.00  0.00    -0.058 A  
HETATM   25  N   UNL     1      -6.059  13.698  69.034  1.00  0.00    -0.083 NA 
HETATM   26  C   UNL     1      -8.018  12.860  67.965  1.00  0.00    -0.158 A  
HETATM   27  C   UNL     1      -6.074  11.460  68.137  1.00  0.00    -0.045 A  
ENDBRANCH  12  21
ENDBRANCH  10  11
ENDBRANCH   7  10
TORSDOF 3
ENDMDL
MODEL      229
REMARK 921   NORMALIZED FREE ENERGY PREDICTED BY IDOCK:   11.20 KCAL/MOL
REMARK 922        TOTAL FREE ENERGY PREDICTED BY IDOCK:   12.56 KCAL/MOL
REMARK 923 INTER-LIGAND FREE ENERGY PREDICTED BY IDOCK:    7.08 KCAL/MOL
REMARK 924 INTRA-LIGAND FREE ENERGY PREDICTED BY IDOCK:    5.48 KCAL/MOL
REMARK 927      BINDING AFFINITY PREDICTED BY RF-SCORE:    0.00 PKD
ROOT
HETATM    1  C   UNL     1      -7.978  11.268  63.015  1.00  0.00     0.459 C  
HETATM    2  N   UNL     1      -9.295  11.563  63.581  1.00  0.00    -0.143 NA 
HETATM    3  C   UNL     1      -9.450  10.956  64.922  1.00  0.00    -0.235 C  
HETATM    4  C   UNL     1      -8.653  11.663  66.034  1.00  0.00     0.006 C  
HETATM    5  N   UNL     1      -8.935  13.097  66.049  1.00  0.00     0.209 N  
HETATM    6  C   UNL     1      -8.764  13.768  64.761  1.00  0.00     4.072 C  
HETATM    7  C   UNL     1      -9.489  13.650  67.183  1.00  0.00    -0.244 C  
HETATM    8  O   UNL     1      -9.774  12.977  68.167  1.00  0.00    -0.218 OA 
HETATM    9  C   UNL     1      -9.550  13.021  63.657  1.00  0.00     1.637 C  
ENDROOT
BRANCH   7  10
HETATM   10  O   UNL     1      -9.657  14.995  67.128  1.00  0.00    -0.210 OA 
BRANCH  10  11
HETATM   11  C   UNL     1      -8.514  15.795  67.504  1.00  0.00    -0.168 C  
HETATM   12  N   UNL     1      -7.847  15.290  68.688  1.00  0.00    -0.134 N  
HETATM   13  C   UNL     1      -7.783  16.272  69.688  1.00  0.00     0.196 C  
HETATM   14  C   UNL     1      -8.793  17.242  67.827  1.00  0.00    -0.234 A  
HETATM   15  N   UNL     1      -9.271  18.194  66.994  1.00  0.00    -0.263 NA 
HETATM   16  C   UNL     1      -8.371  17.501  69.117  1.00  0.00     0.078 A  
HETATM   17  O   UNL     1      -7.282  16.233  70.798  1.00  0.00     1.735 OA 
HETATM   18  C   UNL     1      -9.319  19.429  67.565  1.00  0.00    -0.311 A  
HETATM   19  N   UNL     1      -8.389  18.723  69.687  1.00  0.00     0.521 NA 
HETATM   20  C   UNL     1      -8.894  19.682  68.873  1.00  0.00    -0.193 A  
BRANCH  12  21
HETATM   21  C   UNL     1      -7.299  14.000  68.795  1.00  0.00    -0.127 A  
HETATM   22 CL   UNL     1      -5.657   9.835  69.027  1.00  0.00    -0.036 Cl 
HETATM   23  C   UNL     1      -6.595  12.112  70.130  1.00  0.00     0.295 A  
HETATM   24  C   UNL     1      -6.473  12.083  67.765  1.00  0.00    -0.087 A  
HETATM   25  N   UNL     1      -6.986  13.333  67.666  1.00  0.00    -0.150 NA 
HETATM   26  C   UNL     1      -7.097  13.414  70.046  1.00  0.00     0.682 A  
HETATM   27  C   UNL     1      -6.273  11.433  68.967  1.00  0.00    -0.058 A  
ENDBRANCH  12  21
ENDBRANCH  10  11
ENDBRANCH   7  10
TORSDOF 3
ENDMDL
MODEL      230
REMARK 921   NORMALIZED FREE ENERGY PREDICTED BY IDOCK:   11.70 KCAL/MOL
REMARK 922        TOTAL FREE ENERGY PREDICTED BY IDOCK:   13.15 KCAL/MOL
REMARK 923 INTER-LIGAND FREE ENERGY PREDICTED BY IDOCK:    5.77 KCAL/MOL
REMARK 924 INTRA-LIGAND FREE ENERGY PREDICTED BY IDOCK:    7.38 KCAL/MOL
REMARK 927      BINDING AFFINITY PREDICTED BY RF-SCORE:    0.00 PKD
ROOT
HETATM    1  C   UNL     1     -12.271  11.040  70.192  1.00  0.00    -0.344 C  
HETATM    2  N   UNL     1     -12.036   9.962  69.230  1.00  0.00     0.376 NA 
HETATM    3  C   UNL     1     -12.627  10.282  67.912  1.00  0.00     4.449 C  
HETATM    4  C   UNL     1     -11.860  11.355  67.116  1.00  0.00     0.200 C  
HETATM    5  N   UNL     1     -10.443  11.013  67.011  1.00  0.00    -0.228 N  
HETATM    6  C   UNL     1      -9.786  10.723  68.284  1.00  0.00    -0.166 C  
HETATM    7  C   UNL     1      -9.900  10.825  65.757  1.00  0.00    -0.240 C  
HETATM    8  O   UNL     1     -10.570  10.911  64.735  1.00  0.00    -0.315 OA 
HETATM    9  C   UNL     1     -10.593   9.665  69.075  1.00  0.00    -0.218 C  
ENDROOT
BRANCH   7  10
HETATM   10  O   UNL     1      -8.567  10.574  65.755  1.00  0.00    -0.160 OA 
BRANCH  10  11
HETATM   11  C   UNL     1      -7.745  11.490  66.513  1.00  0.00    -0.052 C  
HETATM   12  N   UNL     1      -7.545  11.054  67.881  1.00  0.00    -0.093 N  
HETATM   13  C   UNL     1      -7.972  12.034  68.791  1.00  0.00    -0.014 C  
HETATM   14  C   UNL     1      -8.271  12.898  66.648  1.00  0.00     0.217 A  
HETATM   15  N   UNL     1      -8.480  13.797  65.659  1.00  0.00     1.813 NA 
HETATM   16  C   UNL     1      -8.412  13.195  67.990  1.00  0.00    -0.181 A  
HETATM   17  O   UNL     1      -7.941  12.044  70.008  1.00  0.00     1.427 OA 
HETATM   18  C   UNL     1      -8.869  15.017  66.120  1.00  0.00    -0.012 A  
HETATM   19  N   UNL     1      -8.772  14.406  68.462  1.00  0.00    -0.179 NA 
HETATM   20  C   UNL     1      -9.013  15.309  67.480  1.00  0.00    -0.185 A  
BRANCH  12  21
HETATM   21  C   UNL     1      -6.956   9.829  68.240  1.00  0.00    -0.073 A  
HETATM   22 CL   UNL     1      -5.222   5.863  69.407  1.00  0.00    -0.004 Cl 
HETATM   23  C   UNL     1      -5.386   8.552  69.563  1.00  0.00    -0.030 A  
HETATM   24  C   UNL     1      -6.857   7.514  68.024  1.00  0.00    -0.067 A  
HETATM   25  N   UNL     1      -7.412   8.698  67.668  1.00  0.00    -0.089 NA 
HETATM   26  C   UNL     1      -5.928   9.785  69.184  1.00  0.00    -0.034 A  
HETATM   27  C   UNL     1      -5.858   7.393  68.970  1.00  0.00    -0.022 A  
ENDBRANCH  12  21
ENDBRANCH  10  11
ENDBRANCH   7  10
TORSDOF 3
ENDMDL
MODEL      231
REMARK 921   NORMALIZED FREE ENERGY PREDICTED BY IDOCK:   13.94 KCAL/MOL
REMARK 922        TOTAL FREE ENERGY PREDICTED BY IDOCK:   15.79 KCAL/MOL
REMARK 923 INTER-LIGAND FREE ENERGY PREDICTED BY IDOCK:   12.03 KCAL/MOL
REMARK 924 INTRA-LIGAND FREE ENERGY PREDICTED BY IDOCK:    3.76 KCAL/MOL
REMARK 927      BINDING AFFINITY PREDICTED BY RF-SCORE:    0.00 PKD
ROOT
HETATM    1  C   UNL     1     -12.161  18.724  65.526  1.00  0.00     5.536 C  
HETATM    2  N   UNL     1     -11.340  17.744  64.815  1.00  0.00    -0.262 NA 
HETATM    3  C   UNL     1     -10.062  18.340  64.366  1.00  0.00     5.758 C  
HETATM    4  C   UNL     1      -9.045  18.587  65.496  1.00  0.00     1.088 C  
HETATM    5  N   UNL     1      -8.835  17.373  66.283  1.00  0.00    -0.233 N  
HETATM    6  C   UNL     1     -10.057  16.753  66.792  1.00  0.00    -0.294 C  
HETATM    7  C   UNL     1      -7.569  16.830  66.334  1.00  0.00    -0.290 C  
HETATM    8  O   UNL     1      -6.624  17.316  65.725  1.00  0.00    -0.059 OA 
HETATM    9  C   UNL     1     -11.071  16.544  65.642  1.00  0.00     0.089 C  
ENDROOT
BRANCH   7  10
HETATM   10  O   UNL     1      -7.456  15.743  67.139  1.00  0.00    -0.193 OA 
BRANCH  10  11
HETATM   11  C   UNL     1      -7.648  15.975  68.552  1.00  0.00    -0.155 C  
HETATM   12  N   UNL     1      -9.035  15.841  68.954  1.00  0.00    -0.209 N  
HETATM   13  C   UNL     1      -9.496  17.013  69.573  1.00  0.00     0.269 C  
HETATM   14  C   UNL     1      -7.246  17.336  69.063  1.00  0.00    -0.227 A  
HETATM   15  N   UNL     1      -6.008  17.879  69.074  1.00  0.00    -0.203 NA 
HETATM   16  C   UNL     1      -8.346  17.937  69.646  1.00  0.00     0.978 A  
HETATM   17  O   UNL     1     -10.582  17.269  70.061  1.00  0.00     0.018 OA 
HETATM   18  C   UNL     1      -5.960  19.089  69.694  1.00  0.00    -0.259 A  
HETATM   19  N   UNL     1      -8.308  19.124  70.285  1.00  0.00     1.450 NA 
HETATM   20  C   UNL     1      -7.078  19.693  70.278  1.00  0.00     0.298 A  
BRANCH  12  21
HETATM   21  C   UNL     1      -9.796  14.672  68.783  1.00  0.00    -0.227 A  
HETATM   22 CL   UNL     1     -12.109  10.885  68.144  1.00  0.00     0.025 Cl 
HETATM   23  C   UNL     1     -11.876  13.572  68.227  1.00  0.00    -0.401 A  
HETATM   24  C   UNL     1      -9.921  12.347  68.763  1.00  0.00    -0.026 A  
HETATM   25  N   UNL     1      -9.194  13.476  68.943  1.00  0.00     0.105 NA 
HETATM   26  C   UNL     1     -11.147  14.747  68.439  1.00  0.00    -0.274 A  
HETATM   27  C   UNL     1     -11.252  12.347  68.395  1.00  0.00    -0.273 A  
ENDBRANCH  12  21
ENDBRANCH  10  11
ENDBRANCH   7  10
TORSDOF 3
ENDMDL
MODEL      232
REMARK 921   NORMALIZED FREE ENERGY PREDICTED BY IDOCK:   14.91 KCAL/MOL
REMARK 922        TOTAL FREE ENERGY PREDICTED BY IDOCK:   16.92 KCAL/MOL
REMARK 923 INTER-LIGAND FREE ENERGY PREDICTED BY IDOCK:   16.38 KCAL/MOL
REMARK 924 INTRA-LIGAND FREE ENERGY PREDICTED BY IDOCK:    0.54 KCAL/MOL
REMARK 927      BINDING AFFINITY PREDICTED BY RF-SCORE:    0.00 PKD
ROOT
HETATM    1  C   UNL     1     -10.254  17.081  65.479  1.00  0.00    -0.089 C  
HETATM    2  N   UNL     1     -10.905  17.170  66.786  1.00  0.00    -0.072 NA 
HETATM    3  C   UNL     1     -12.080  16.273  66.862  1.00  0.00     1.647 C  
HETATM    4  C   UNL     1     -11.730  14.777  66.975  1.00  0.00    -0.315 C  
HETATM    5  N   UNL     1     -10.793  14.542  68.072  1.00  0.00    -0.241 N  
HETATM    6  C   UNL     1      -9.588  15.370  68.037  1.00  0.00    -0.206 C  
HETATM    7  C   UNL     1     -11.181  13.720  69.108  1.00  0.00    -0.262 C  
HETATM    8  O   UNL     1     -12.290  13.202  69.151  1.00  0.00    -0.164 OA 
HETATM    9  C   UNL     1      -9.968  16.863  67.893  1.00  0.00    -0.274 C  
ENDROOT
BRANCH   7  10
HETATM   10  O   UNL     1     -10.224  13.509  70.047  1.00  0.00     1.037 OA 
BRANCH  10  11
HETATM   11  C   UNL     1      -8.865  13.427  69.563  1.00  0.00     1.387 C  
HETATM   12  N   UNL     1      -8.535  12.110  69.052  1.00  0.00     0.238 N  
HETATM   13  C   UNL     1      -7.422  11.575  69.719  1.00  0.00     0.513 C  
HETATM   14  C   UNL     1      -7.781  13.712  70.573  1.00  0.00     2.755 A  
HETATM   15  N   UNL     1      -7.550  14.873  71.227  1.00  0.00     2.037 NA 
HETATM   16  C   UNL     1      -6.953  12.610  70.663  1.00  0.00     2.270 A  
HETATM   17  O   UNL     1      -6.840  10.518  69.554  1.00  0.00    -0.070 OA 
HETATM   18  C   UNL     1      -6.433  14.837  72.002  1.00  0.00     1.163 A  
HETATM   19  N   UNL     1      -5.829  12.568  71.407  1.00  0.00    -0.223 NA 
HETATM   20  C   UNL     1      -5.601  13.716  72.090  1.00  0.00    -0.024 A  
BRANCH  12  21
HETATM   21  C   UNL     1      -9.218  11.480  67.998  1.00  0.00    -0.175 A  
HETATM   22 CL   UNL     1     -11.382   9.331  64.712  1.00  0.00     6.237 Cl 
HETATM   23  C   UNL     1      -9.485  11.010  65.641  1.00  0.00    -0.250 A  
HETATM   24  C   UNL     1     -10.900  10.042  67.276  1.00  0.00    -0.217 A  
HETATM   25  N   UNL     1     -10.251  10.664  68.290  1.00  0.00    -0.160 NA 
HETATM   26  C   UNL     1      -8.824  11.682  66.674  1.00  0.00    -0.187 A  
HETATM   27  C   UNL     1     -10.547  10.175  65.947  1.00  0.00     0.028 A  
ENDBRANCH  12  21
ENDBRANCH  10  11
ENDBRANCH   7  10
TORSDOF 3
ENDMDL
MODEL      233
REMARK 921   NORMALIZED FREE ENERGY PREDICTED BY IDOCK:   23.95 KCAL/MOL
REMARK 922        TOTAL FREE ENERGY PREDICTED BY IDOCK:   27.55 KCAL/MOL
REMARK 923 INTER-LIGAND FREE ENERGY PREDICTED BY IDOCK:   23.99 KCAL/MOL
REMARK 924 INTRA-LIGAND FREE ENERGY PREDICTED BY IDOCK:    3.56 KCAL/MOL
REMARK 927      BINDING AFFINITY PREDICTED BY RF-SCORE:    0.00 PKD
ROOT
HETATM    1  C   UNL     1      -6.072  19.780  70.010  1.00  0.00    -0.316 C  
HETATM    2  N   UNL     1      -7.426  19.473  69.548  1.00  0.00    -0.184 NA 
HETATM    3  C   UNL     1      -7.413  18.940  68.167  1.00  0.00    -0.270 C  
HETATM    4  C   UNL     1      -6.890  17.497  68.049  1.00  0.00    -0.190 C  
HETATM    5  N   UNL     1      -7.596  16.608  68.970  1.00  0.00    -0.234 N  
HETATM    6  C   UNL     1      -7.614  17.057  70.362  1.00  0.00     2.661 C  
HETATM    7  C   UNL     1      -8.314  15.552  68.450  1.00  0.00    -0.154 C  
HETATM    8  O   UNL     1      -8.397  15.349  67.245  1.00  0.00    -0.168 OA 
HETATM    9  C   UNL     1      -8.115  18.519  70.448  1.00  0.00     2.890 C  
ENDROOT
BRANCH   7  10
HETATM   10  O   UNL     1      -8.883  14.747  69.383  1.00  0.00    -0.090 OA 
BRANCH  10  11
HETATM   11  C   UNL     1     -10.158  14.166  69.030  1.00  0.00    -0.088 C  
HETATM   12  N   UNL     1     -11.058  15.128  68.424  1.00  0.00    -0.269 N  
HETATM   13  C   UNL     1     -12.263  15.211  69.140  1.00  0.00    -0.150 C  
HETATM   14  C   UNL     1     -10.957  13.577  70.166  1.00  0.00     0.592 A  
HETATM   15  N   UNL     1     -10.621  12.530  70.953  1.00  0.00     3.981 NA 
HETATM   16  C   UNL     1     -12.183  14.212  70.226  1.00  0.00    -0.349 A  
HETATM   17  O   UNL     1     -13.259  15.879  68.928  1.00  0.00     1.345 OA 
HETATM   18  C   UNL     1     -11.604  12.182  71.827  1.00  0.00     3.114 A  
HETATM   19  N   UNL     1     -13.175  13.862  71.069  1.00  0.00    -0.244 NA 
HETATM   20  C   UNL     1     -12.841  12.832  71.884  1.00  0.00    -0.201 A  
BRANCH  12  21
HETATM   21  C   UNL     1     -10.773  15.845  67.249  1.00  0.00    -0.306 A  
HETATM   22 CL   UNL     1      -9.944  18.252  63.559  1.00  0.00    12.696 Cl 
HETATM   23  C   UNL     1     -10.742  16.013  64.838  1.00  0.00    -0.339 A  
HETATM   24  C   UNL     1     -10.041  17.802  66.223  1.00  0.00    -0.344 A  
HETATM   25  N   UNL     1     -10.302  17.103  67.355  1.00  0.00    -0.326 NA 
HETATM   26  C   UNL     1     -10.988  15.269  65.996  1.00  0.00    -0.317 A  
HETATM   27  C   UNL     1     -10.256  17.305  64.953  1.00  0.00     1.243 A  
ENDBRANCH  12  21
ENDBRANCH  10  11
ENDBRANCH   7  10
TORSDOF 3
ENDMDL
MODEL      234
REMARK 921   NORMALIZED FREE ENERGY PREDICTED BY IDOCK:   31.64 KCAL/MOL
REMARK 922        TOTAL FREE ENERGY PREDICTED BY IDOCK:   36.58 KCAL/MOL
REMARK 923 INTER-LIGAND FREE ENERGY PREDICTED BY IDOCK:   32.81 KCAL/MOL
REMARK 924 INTRA-LIGAND FREE ENERGY PREDICTED BY IDOCK:    3.77 KCAL/MOL
REMARK 927      BINDING AFFINITY PREDICTED BY RF-SCORE:    0.00 PKD
ROOT
HETATM    1  C   UNL     1      -5.673  11.258  72.615  1.00  0.00     1.533 C  
HETATM    2  N   UNL     1      -6.648  11.265  71.525  1.00  0.00     1.625 NA 
HETATM    3  C   UNL     1      -7.965  11.757  71.987  1.00  0.00    13.997 C  
HETATM    4  C   UNL     1      -8.021  13.275  72.241  1.00  0.00    12.400 C  
HETATM    5  N   UNL     1      -7.539  14.018  71.078  1.00  0.00     2.608 N  
HETATM    6  C   UNL     1      -6.223  13.606  70.591  1.00  0.00     0.005 C  
HETATM    7  C   UNL     1      -8.400  14.889  70.446  1.00  0.00     1.188 C  
HETATM    8  O   UNL     1      -9.559  15.044  70.812  1.00  0.00     0.714 OA 
HETATM    9  C   UNL     1      -6.185  12.075  70.374  1.00  0.00     0.091 C  
ENDROOT
BRANCH   7  10
HETATM   10  O   UNL     1      -7.846  15.579  69.417  1.00  0.00    -0.217 OA 
BRANCH  10  11
HETATM   11  C   UNL     1      -7.482  14.804  68.253  1.00  0.00    -0.115 C  
HETATM   12  N   UNL     1      -7.710  15.521  67.014  1.00  0.00    -0.221 N  
HETATM   13  C   UNL     1      -8.565  14.802  66.165  1.00  0.00     0.421 C  
HETATM   14  C   UNL     1      -8.220  13.501  68.066  1.00  0.00    -0.163 A  
HETATM   15  N   UNL     1      -8.199  12.419  68.877  1.00  0.00     0.121 NA 
HETATM   16  C   UNL     1      -8.861  13.523  66.843  1.00  0.00    -0.182 A  
HETATM   17  O   UNL     1      -8.962  15.063  65.044  1.00  0.00     1.248 OA 
HETATM   18  C   UNL     1      -8.896  11.363  68.378  1.00  0.00    -0.167 A  
HETATM   19  N   UNL     1      -9.534  12.476  66.323  1.00  0.00    -0.232 NA 
HETATM   20  C   UNL     1      -9.546  11.394  67.139  1.00  0.00    -0.179 A  
BRANCH  12  21
HETATM   21  C   UNL     1      -7.112  16.753  66.694  1.00  0.00    -0.240 A  
HETATM   22 CL   UNL     1      -5.241  20.655  65.523  1.00  0.00    -0.210 Cl 
HETATM   23  C   UNL     1      -5.240  18.279  66.803  1.00  0.00    -0.157 A  
HETATM   24  C   UNL     1      -7.205  18.797  65.586  1.00  0.00    -0.139 A  
HETATM   25  N   UNL     1      -7.786  17.616  65.909  1.00  0.00    -0.553 NA 
HETATM   26  C   UNL     1      -5.838  17.069  67.169  1.00  0.00    -0.195 A  
HETATM   27  C   UNL     1      -5.939  19.163  65.996  1.00  0.00    -0.166 A  
ENDBRANCH  12  21
ENDBRANCH  10  11
ENDBRANCH   7  10
TORSDOF 3
ENDMDL
