MODEL        1
REMARK 921   NORMALIZED FREE ENERGY PREDICTED BY IDOCK:   -6.00 KCAL/MOL
REMARK 922        TOTAL FREE ENERGY PREDICTED BY IDOCK:   -8.46 KCAL/MOL
REMARK 923 INTER-LIGAND FREE ENERGY PREDICTED BY IDOCK:   -7.75 KCAL/MOL
REMARK 924 INTRA-LIGAND FREE ENERGY PREDICTED BY IDOCK:   -0.71 KCAL/MOL
REMARK 927      BINDING AFFINITY PREDICTED BY RF-SCORE:    0.00 PKD
ROOT
HETATM    1  C   UNL     1     -12.109  12.151  63.559  1.00  0.00    -0.649 C  
HETATM    2  C   UNL     1     -11.266  12.263  64.825  1.00  0.00    -0.364 C  
ENDROOT
BRANCH   2   3
HETATM    3  C   UNL     1     -11.747  13.327  65.790  1.00  0.00    -0.395 C  
HETATM    4  C   UNL     1     -12.872  14.026  65.553  1.00  0.00    -0.453 C  
BRANCH   3   5
HETATM    5  C   UNL     1     -10.836  13.608  66.956  1.00  0.00    -0.286 C  
HETATM    6  O   UNL     1      -9.626  13.688  66.774  1.00  0.00    -0.258 OA 
BRANCH   5   7
HETATM    7  C   UNL     1     -11.367  13.693  68.350  1.00  0.00    -0.329 A  
HETATM    8  C   UNL     1     -11.751  12.548  69.076  1.00  0.00    -0.318 A  
HETATM    9 CL   UNL     1     -11.470  10.954  68.425  1.00  0.00    -0.367 Cl 
HETATM   10  C   UNL     1     -12.327  12.682  70.366  1.00  0.00    -0.237 A  
HETATM   11 CL   UNL     1     -12.680  11.250  71.290  1.00  0.00    -0.517 Cl 
HETATM   12  C   UNL     1     -12.538  13.963  70.911  1.00  0.00    -0.361 A  
HETATM   13  C   UNL     1     -11.562  14.959  68.920  1.00  0.00    -0.339 A  
HETATM   14  C   UNL     1     -12.116  15.086  70.194  1.00  0.00    -0.378 A  
BRANCH  12  15
HETATM   15  O   UNL     1     -13.071  14.291  72.136  1.00  0.00    -0.335 OA 
BRANCH  15  16
HETATM   16  C   UNL     1     -13.104  15.680  72.487  1.00  0.00    -0.472 C  
HETATM   17  C   UNL     1     -12.516  15.897  73.873  1.00  0.00    -0.625 C  
HETATM   18  O   UNL     1     -12.451  16.985  74.428  1.00  0.00    -0.562 OA 
HETATM   19  O   UNL     1     -12.053  14.757  74.448  1.00  0.00    -0.508 OA 
ENDBRANCH  15  16
ENDBRANCH  12  15
ENDBRANCH   5   7
ENDBRANCH   3   5
ENDBRANCH   2   3
TORSDOF 5
ENDMDL
MODEL        2
REMARK 921   NORMALIZED FREE ENERGY PREDICTED BY IDOCK:   -5.73 KCAL/MOL
REMARK 922        TOTAL FREE ENERGY PREDICTED BY IDOCK:   -8.12 KCAL/MOL
REMARK 923 INTER-LIGAND FREE ENERGY PREDICTED BY IDOCK:   -7.49 KCAL/MOL
REMARK 924 INTRA-LIGAND FREE ENERGY PREDICTED BY IDOCK:   -0.63 KCAL/MOL
REMARK 927      BINDING AFFINITY PREDICTED BY RF-SCORE:    0.00 PKD
ROOT
HETATM    1  C   UNL     1     -11.288  15.743  64.505  1.00  0.00    -0.324 C  
HETATM    2  C   UNL     1     -10.230  14.694  64.831  1.00  0.00    -0.322 C  
ENDROOT
BRANCH   2   3
HETATM    3  C   UNL     1     -10.730  13.267  64.732  1.00  0.00    -0.393 C  
HETATM    4  C   UNL     1     -10.188  12.396  63.863  1.00  0.00    -0.409 C  
BRANCH   3   5
HETATM    5  C   UNL     1     -11.924  12.937  65.590  1.00  0.00    -0.440 C  
HETATM    6  O   UNL     1     -12.982  12.620  65.060  1.00  0.00    -0.812 OA 
BRANCH   5   7
HETATM    7  C   UNL     1     -11.872  13.082  67.077  1.00  0.00    -0.437 A  
HETATM    8  C   UNL     1     -11.655  11.981  67.928  1.00  0.00    -0.337 A  
HETATM    9 CL   UNL     1     -11.279  10.412  67.267  1.00  0.00    -0.263 Cl 
HETATM   10  C   UNL     1     -11.696  12.151  69.337  1.00  0.00    -0.329 A  
HETATM   11 CL   UNL     1     -11.306  10.803  70.366  1.00  0.00    -0.374 Cl 
HETATM   12  C   UNL     1     -11.976  13.418  69.884  1.00  0.00    -0.338 A  
HETATM   13  C   UNL     1     -12.125  14.341  67.640  1.00  0.00    -0.332 A  
HETATM   14  C   UNL     1     -12.150  14.508  69.024  1.00  0.00    -0.286 A  
BRANCH  12  15
HETATM   15  O   UNL     1     -12.050  13.778  71.209  1.00  0.00    -0.294 OA 
BRANCH  15  16
HETATM   16  C   UNL     1     -11.751  15.140  71.537  1.00  0.00    -0.390 C  
HETATM   17  C   UNL     1     -12.241  15.474  72.938  1.00  0.00    -0.439 C  
HETATM   18  O   UNL     1     -12.140  16.579  73.455  1.00  0.00    -0.498 OA 
HETATM   19  O   UNL     1     -12.802  14.418  73.580  1.00  0.00    -0.471 OA 
ENDBRANCH  15  16
ENDBRANCH  12  15
ENDBRANCH   5   7
ENDBRANCH   3   5
ENDBRANCH   2   3
TORSDOF 5
ENDMDL
MODEL        3
REMARK 921   NORMALIZED FREE ENERGY PREDICTED BY IDOCK:   -5.66 KCAL/MOL
REMARK 922        TOTAL FREE ENERGY PREDICTED BY IDOCK:   -8.02 KCAL/MOL
REMARK 923 INTER-LIGAND FREE ENERGY PREDICTED BY IDOCK:   -7.51 KCAL/MOL
REMARK 924 INTRA-LIGAND FREE ENERGY PREDICTED BY IDOCK:   -0.51 KCAL/MOL
REMARK 927      BINDING AFFINITY PREDICTED BY RF-SCORE:    0.00 PKD
ROOT
HETATM    1  C   UNL     1     -10.602  19.794  67.421  1.00  0.00    -0.553 C  
HETATM    2  C   UNL     1      -9.768  19.484  66.182  1.00  0.00    -0.461 C  
ENDROOT
BRANCH   2   3
HETATM    3  C   UNL     1      -9.278  18.052  66.116  1.00  0.00    -0.132 C  
HETATM    4  C   UNL     1      -7.977  17.751  66.277  1.00  0.00    -0.283 C  
BRANCH   3   5
HETATM    5  C   UNL     1     -10.320  17.024  65.761  1.00  0.00    -0.261 C  
HETATM    6  O   UNL     1     -10.920  17.111  64.696  1.00  0.00    -1.005 OA 
BRANCH   5   7
HETATM    7  C   UNL     1     -10.709  15.952  66.728  1.00  0.00    -0.281 A  
HETATM    8  C   UNL     1     -10.917  14.619  66.321  1.00  0.00    -0.327 A  
HETATM    9 CL   UNL     1     -10.571  14.129  64.683  1.00  0.00    -0.433 Cl 
HETATM   10  C   UNL     1     -11.365  13.650  67.257  1.00  0.00    -0.323 A  
HETATM   11 CL   UNL     1     -11.498  11.988  66.760  1.00  0.00    -0.408 Cl 
HETATM   12  C   UNL     1     -11.626  14.028  68.588  1.00  0.00    -0.325 A  
HETATM   13  C   UNL     1     -10.951  16.303  68.063  1.00  0.00    -0.328 A  
HETATM   14  C   UNL     1     -11.378  15.346  68.983  1.00  0.00    -0.324 A  
BRANCH  12  15
HETATM   15  O   UNL     1     -12.055  13.239  69.630  1.00  0.00    -0.306 OA 
BRANCH  15  16
HETATM   16  C   UNL     1     -12.724  13.893  70.716  1.00  0.00    -0.313 C  
HETATM   17  C   UNL     1     -13.248  12.872  71.715  1.00  0.00    -0.384 C  
HETATM   18  O   UNL     1     -13.885  13.160  72.719  1.00  0.00    -0.648 OA 
HETATM   19  O   UNL     1     -12.934  11.591  71.393  1.00  0.00    -0.412 OA 
ENDBRANCH  15  16
ENDBRANCH  12  15
ENDBRANCH   5   7
ENDBRANCH   3   5
ENDBRANCH   2   3
TORSDOF 5
ENDMDL
MODEL        4
REMARK 921   NORMALIZED FREE ENERGY PREDICTED BY IDOCK:   -5.65 KCAL/MOL
REMARK 922        TOTAL FREE ENERGY PREDICTED BY IDOCK:   -8.01 KCAL/MOL
REMARK 923 INTER-LIGAND FREE ENERGY PREDICTED BY IDOCK:   -7.66 KCAL/MOL
REMARK 924 INTRA-LIGAND FREE ENERGY PREDICTED BY IDOCK:   -0.34 KCAL/MOL
REMARK 927      BINDING AFFINITY PREDICTED BY RF-SCORE:    0.00 PKD
ROOT
HETATM    1  C   UNL     1     -11.627   6.468  70.618  1.00  0.00    -0.442 C  
HETATM    2  C   UNL     1     -12.324   7.510  71.488  1.00  0.00    -0.367 C  
ENDROOT
BRANCH   2   3
HETATM    3  C   UNL     1     -11.563   8.814  71.612  1.00  0.00    -0.390 C  
HETATM    4  C   UNL     1     -10.273   8.835  71.992  1.00  0.00    -0.401 C  
BRANCH   3   5
HETATM    5  C   UNL     1     -12.372  10.063  71.382  1.00  0.00    -0.415 C  
HETATM    6  O   UNL     1     -13.364  10.278  72.070  1.00  0.00    -0.434 OA 
BRANCH   5   7
HETATM    7  C   UNL     1     -12.047  11.002  70.265  1.00  0.00    -0.448 A  
HETATM    8  C   UNL     1     -12.235  12.393  70.379  1.00  0.00    -0.287 A  
HETATM    9 CL   UNL     1     -12.714  13.099  71.900  1.00  0.00    -0.286 Cl 
HETATM   10  C   UNL     1     -11.990  13.238  69.265  1.00  0.00    -0.303 A  
HETATM   11 CL   UNL     1     -12.113  14.962  69.466  1.00  0.00    -0.331 Cl 
HETATM   12  C   UNL     1     -11.581  12.682  68.038  1.00  0.00    -0.343 A  
HETATM   13  C   UNL     1     -11.615  10.469  69.042  1.00  0.00    -0.278 A  
HETATM   14  C   UNL     1     -11.362  11.304  67.954  1.00  0.00    -0.367 A  
BRANCH  12  15
HETATM   15  O   UNL     1     -11.292  13.333  66.861  1.00  0.00    -0.295 OA 
BRANCH  15  16
HETATM   16  C   UNL     1     -11.307  12.554  65.659  1.00  0.00    -0.335 C  
HETATM   17  C   UNL     1     -12.520  12.903  64.810  1.00  0.00    -0.455 C  
HETATM   18  O   UNL     1     -12.791  12.362  63.746  1.00  0.00    -0.734 OA 
HETATM   19  O   UNL     1     -13.285  13.891  65.341  1.00  0.00    -0.750 OA 
ENDBRANCH  15  16
ENDBRANCH  12  15
ENDBRANCH   5   7
ENDBRANCH   3   5
ENDBRANCH   2   3
TORSDOF 5
ENDMDL
MODEL        5
REMARK 921   NORMALIZED FREE ENERGY PREDICTED BY IDOCK:   -5.61 KCAL/MOL
REMARK 922        TOTAL FREE ENERGY PREDICTED BY IDOCK:   -7.96 KCAL/MOL
REMARK 923 INTER-LIGAND FREE ENERGY PREDICTED BY IDOCK:   -7.24 KCAL/MOL
REMARK 924 INTRA-LIGAND FREE ENERGY PREDICTED BY IDOCK:   -0.71 KCAL/MOL
REMARK 927      BINDING AFFINITY PREDICTED BY RF-SCORE:    0.00 PKD
ROOT
HETATM    1  C   UNL     1      -9.988  11.212  63.207  1.00  0.00    -0.419 C  
HETATM    2  C   UNL     1     -10.403  10.866  64.633  1.00  0.00    -0.407 C  
ENDROOT
BRANCH   2   3
HETATM    3  C   UNL     1     -11.040  12.017  65.384  1.00  0.00    -0.369 C  
HETATM    4  C   UNL     1     -12.179  12.586  64.952  1.00  0.00    -0.534 C  
BRANCH   3   5
HETATM    5  C   UNL     1     -10.261  12.532  66.566  1.00  0.00    -0.240 C  
HETATM    6  O   UNL     1      -9.140  12.091  66.793  1.00  0.00    -0.187 OA 
BRANCH   5   7
HETATM    7  C   UNL     1     -10.868  13.502  67.529  1.00  0.00    -0.276 A  
HETATM    8  C   UNL     1     -10.596  14.882  67.470  1.00  0.00    -0.266 A  
HETATM    9 CL   UNL     1      -9.652  15.543  66.160  1.00  0.00    -0.332 Cl 
HETATM   10  C   UNL     1     -11.128  15.756  68.454  1.00  0.00    -0.341 A  
HETATM   11 CL   UNL     1     -10.877  17.470  68.291  1.00  0.00    -0.295 Cl 
HETATM   12  C   UNL     1     -11.909  15.238  69.504  1.00  0.00    -0.345 A  
HETATM   13  C   UNL     1     -11.669  13.008  68.568  1.00  0.00    -0.377 A  
HETATM   14  C   UNL     1     -12.202  13.871  69.525  1.00  0.00    -0.356 A  
BRANCH  12  15
HETATM   15  O   UNL     1     -12.512  15.920  70.536  1.00  0.00    -0.380 OA 
BRANCH  15  16
HETATM   16  C   UNL     1     -11.880  15.858  71.820  1.00  0.00    -0.497 C  
HETATM   17  C   UNL     1     -12.920  15.750  72.925  1.00  0.00    -0.500 C  
HETATM   18  O   UNL     1     -12.652  15.712  74.118  1.00  0.00    -0.565 OA 
HETATM   19  O   UNL     1     -14.195  15.688  72.462  1.00  0.00    -0.557 OA 
ENDBRANCH  15  16
ENDBRANCH  12  15
ENDBRANCH   5   7
ENDBRANCH   3   5
ENDBRANCH   2   3
TORSDOF 5
ENDMDL
MODEL        6
REMARK 921   NORMALIZED FREE ENERGY PREDICTED BY IDOCK:   -5.58 KCAL/MOL
REMARK 922        TOTAL FREE ENERGY PREDICTED BY IDOCK:   -7.92 KCAL/MOL
REMARK 923 INTER-LIGAND FREE ENERGY PREDICTED BY IDOCK:   -7.07 KCAL/MOL
REMARK 924 INTRA-LIGAND FREE ENERGY PREDICTED BY IDOCK:   -0.85 KCAL/MOL
REMARK 927      BINDING AFFINITY PREDICTED BY RF-SCORE:    0.00 PKD
ROOT
HETATM    1  C   UNL     1     -10.822  10.921  66.339  1.00  0.00    -0.210 C  
HETATM    2  C   UNL     1     -10.634  11.788  65.098  1.00  0.00    -0.332 C  
ENDROOT
BRANCH   2   3
HETATM    3  C   UNL     1     -11.915  12.417  64.590  1.00  0.00    -0.462 C  
HETATM    4  C   UNL     1     -12.512  11.975  63.469  1.00  0.00    -0.654 C  
BRANCH   3   5
HETATM    5  C   UNL     1     -12.401  13.616  65.362  1.00  0.00    -0.476 C  
HETATM    6  O   UNL     1     -13.601  13.863  65.405  1.00  0.00    -0.571 OA 
BRANCH   5   7
HETATM    7  C   UNL     1     -11.440  14.568  65.998  1.00  0.00    -0.348 A  
HETATM    8  C   UNL     1     -11.283  14.649  67.395  1.00  0.00    -0.342 A  
HETATM    9 CL   UNL     1     -12.098  13.520  68.444  1.00  0.00    -0.361 Cl 
HETATM   10  C   UNL     1     -10.420  15.625  67.959  1.00  0.00    -0.263 A  
HETATM   11 CL   UNL     1     -10.149  15.627  69.678  1.00  0.00    -0.279 Cl 
HETATM   12  C   UNL     1      -9.738  16.529  67.121  1.00  0.00    -0.245 A  
HETATM   13  C   UNL     1     -10.734  15.460  65.178  1.00  0.00    -0.460 A  
HETATM   14  C   UNL     1      -9.876  16.408  65.735  1.00  0.00    -0.303 A  
BRANCH  12  15
HETATM   15  O   UNL     1      -8.863  17.528  67.477  1.00  0.00    -0.226 OA 
BRANCH  15  16
HETATM   16  C   UNL     1      -8.955  18.767  66.763  1.00  0.00    -0.308 C  
HETATM   17  C   UNL     1      -9.660  19.820  67.605  1.00  0.00    -0.355 C  
HETATM   18  O   UNL     1      -9.898  20.957  67.223  1.00  0.00    -0.444 OA 
HETATM   19  O   UNL     1     -10.000  19.381  68.845  1.00  0.00    -0.434 OA 
ENDBRANCH  15  16
ENDBRANCH  12  15
ENDBRANCH   5   7
ENDBRANCH   3   5
ENDBRANCH   2   3
TORSDOF 5
ENDMDL
MODEL        7
REMARK 921   NORMALIZED FREE ENERGY PREDICTED BY IDOCK:   -5.57 KCAL/MOL
REMARK 922        TOTAL FREE ENERGY PREDICTED BY IDOCK:   -7.90 KCAL/MOL
REMARK 923 INTER-LIGAND FREE ENERGY PREDICTED BY IDOCK:   -7.22 KCAL/MOL
REMARK 924 INTRA-LIGAND FREE ENERGY PREDICTED BY IDOCK:   -0.68 KCAL/MOL
REMARK 927      BINDING AFFINITY PREDICTED BY RF-SCORE:    0.00 PKD
ROOT
HETATM    1  C   UNL     1     -12.508  12.884  65.128  1.00  0.00    -0.561 C  
HETATM    2  C   UNL     1     -12.345  13.876  66.275  1.00  0.00    -0.489 C  
ENDROOT
BRANCH   2   3
HETATM    3  C   UNL     1     -10.905  14.100  66.692  1.00  0.00    -0.299 C  
HETATM    4  C   UNL     1      -9.914  14.133  65.784  1.00  0.00    -0.331 C  
BRANCH   3   5
HETATM    5  C   UNL     1     -10.663  14.178  68.176  1.00  0.00    -0.245 C  
HETATM    6  O   UNL     1      -9.828  14.961  68.614  1.00  0.00    -0.212 OA 
BRANCH   5   7
HETATM    7  C   UNL     1     -11.352  13.247  69.122  1.00  0.00    -0.336 A  
HETATM    8  C   UNL     1     -12.154  13.716  70.181  1.00  0.00    -0.361 A  
HETATM    9 CL   UNL     1     -12.506  15.417  70.338  1.00  0.00    -0.431 Cl 
HETATM   10  C   UNL     1     -12.722  12.800  71.104  1.00  0.00    -0.263 A  
HETATM   11 CL   UNL     1     -13.805  13.393  72.330  1.00  0.00    -0.668 Cl 
HETATM   12  C   UNL     1     -12.463  11.422  70.975  1.00  0.00    -0.383 A  
HETATM   13  C   UNL     1     -11.126  11.870  68.996  1.00  0.00    -0.300 A  
HETATM   14  C   UNL     1     -11.698  10.971  69.896  1.00  0.00    -0.424 A  
BRANCH  12  15
HETATM   15  O   UNL     1     -12.926  10.391  71.759  1.00  0.00    -0.420 OA 
BRANCH  15  16
HETATM   16  C   UNL     1     -12.167   9.175  71.758  1.00  0.00    -0.372 C  
HETATM   17  C   UNL     1     -13.088   7.969  71.645  1.00  0.00    -0.329 C  
HETATM   18  O   UNL     1     -12.702   6.808  71.652  1.00  0.00    -0.366 OA 
HETATM   19  O   UNL     1     -14.399   8.300  71.523  1.00  0.00    -0.433 OA 
ENDBRANCH  15  16
ENDBRANCH  12  15
ENDBRANCH   5   7
ENDBRANCH   3   5
ENDBRANCH   2   3
TORSDOF 5
ENDMDL
MODEL        8
REMARK 921   NORMALIZED FREE ENERGY PREDICTED BY IDOCK:   -5.54 KCAL/MOL
REMARK 922        TOTAL FREE ENERGY PREDICTED BY IDOCK:   -7.87 KCAL/MOL
REMARK 923 INTER-LIGAND FREE ENERGY PREDICTED BY IDOCK:   -7.03 KCAL/MOL
REMARK 924 INTRA-LIGAND FREE ENERGY PREDICTED BY IDOCK:   -0.84 KCAL/MOL
REMARK 927      BINDING AFFINITY PREDICTED BY RF-SCORE:    0.00 PKD
ROOT
HETATM    1  C   UNL     1      -9.338  11.438  63.031  1.00  0.00    -0.344 C  
HETATM    2  C   UNL     1     -10.396  10.889  63.983  1.00  0.00    -0.417 C  
ENDROOT
BRANCH   2   3
HETATM    3  C   UNL     1     -11.532  11.853  64.258  1.00  0.00    -0.423 C  
HETATM    4  C   UNL     1     -12.476  12.101  63.333  1.00  0.00    -0.625 C  
BRANCH   3   5
HETATM    5  C   UNL     1     -11.466  12.575  65.578  1.00  0.00    -0.350 C  
HETATM    6  O   UNL     1     -12.075  12.128  66.544  1.00  0.00    -0.627 OA 
BRANCH   5   7
HETATM    7  C   UNL     1     -10.752  13.881  65.712  1.00  0.00    -0.289 A  
HETATM    8  C   UNL     1      -9.520  13.993  66.386  1.00  0.00    -0.259 A  
HETATM    9 CL   UNL     1      -8.693  12.570  66.962  1.00  0.00    -0.205 Cl 
HETATM   10  C   UNL     1      -8.917  15.267  66.560  1.00  0.00    -0.305 A  
HETATM   11 CL   UNL     1      -7.340  15.366  67.288  1.00  0.00    -0.241 Cl 
HETATM   12  C   UNL     1      -9.564  16.421  66.080  1.00  0.00    -0.319 A  
HETATM   13  C   UNL     1     -11.368  15.039  65.219  1.00  0.00    -0.349 A  
HETATM   14  C   UNL     1     -10.766  16.287  65.379  1.00  0.00    -0.342 A  
BRANCH  12  15
HETATM   15  O   UNL     1      -9.137  17.728  66.147  1.00  0.00    -0.457 OA 
BRANCH  15  16
HETATM   16  C   UNL     1      -9.234  18.385  67.416  1.00  0.00    -0.271 C  
HETATM   17  C   UNL     1     -10.109  19.625  67.313  1.00  0.00    -0.409 C  
HETATM   18  O   UNL     1     -10.332  20.386  68.244  1.00  0.00    -0.301 OA 
HETATM   19  O   UNL     1     -10.637  19.811  66.076  1.00  0.00    -0.495 OA 
ENDBRANCH  15  16
ENDBRANCH  12  15
ENDBRANCH   5   7
ENDBRANCH   3   5
ENDBRANCH   2   3
TORSDOF 5
ENDMDL
MODEL        9
REMARK 921   NORMALIZED FREE ENERGY PREDICTED BY IDOCK:   -5.53 KCAL/MOL
REMARK 922        TOTAL FREE ENERGY PREDICTED BY IDOCK:   -7.85 KCAL/MOL
REMARK 923 INTER-LIGAND FREE ENERGY PREDICTED BY IDOCK:   -7.08 KCAL/MOL
REMARK 924 INTRA-LIGAND FREE ENERGY PREDICTED BY IDOCK:   -0.77 KCAL/MOL
REMARK 927      BINDING AFFINITY PREDICTED BY RF-SCORE:    0.00 PKD
ROOT
HETATM    1  C   UNL     1     -10.206  19.913  65.917  1.00  0.00    -0.552 C  
HETATM    2  C   UNL     1     -10.939  19.261  67.085  1.00  0.00    -0.439 C  
ENDROOT
BRANCH   2   3
HETATM    3  C   UNL     1     -10.073  19.047  68.310  1.00  0.00    -0.466 C  
HETATM    4  C   UNL     1     -10.056  19.938  69.317  1.00  0.00    -0.268 C  
BRANCH   3   5
HETATM    5  C   UNL     1      -9.175  17.838  68.267  1.00  0.00    -0.280 C  
HETATM    6  O   UNL     1      -8.006  17.939  68.619  1.00  0.00    -0.290 OA 
BRANCH   5   7
HETATM    7  C   UNL     1      -9.656  16.537  67.710  1.00  0.00    -0.232 A  
HETATM    8  C   UNL     1     -10.473  15.662  68.453  1.00  0.00    -0.242 A  
HETATM    9 CL   UNL     1     -11.092  16.140  70.012  1.00  0.00    -0.347 Cl 
HETATM   10  C   UNL     1     -10.838  14.400  67.916  1.00  0.00    -0.251 A  
HETATM   11 CL   UNL     1     -11.945  13.390  68.801  1.00  0.00    -0.378 Cl 
HETATM   12  C   UNL     1     -10.363  14.012  66.649  1.00  0.00    -0.278 A  
HETATM   13  C   UNL     1      -9.213  16.143  66.440  1.00  0.00    -0.334 A  
HETATM   14  C   UNL     1      -9.586  14.908  65.909  1.00  0.00    -0.343 A  
BRANCH  12  15
HETATM   15  O   UNL     1     -10.612  12.844  65.966  1.00  0.00    -0.264 OA 
BRANCH  15  16
HETATM   16  C   UNL     1     -11.951  12.627  65.504  1.00  0.00    -0.456 C  
HETATM   17  C   UNL     1     -11.974  12.437  63.995  1.00  0.00    -0.460 C  
HETATM   18  O   UNL     1     -12.993  12.266  63.340  1.00  0.00    -0.753 OA 
HETATM   19  O   UNL     1     -10.739  12.466  63.429  1.00  0.00    -0.446 OA 
ENDBRANCH  15  16
ENDBRANCH  12  15
ENDBRANCH   5   7
ENDBRANCH   3   5
ENDBRANCH   2   3
TORSDOF 5
ENDMDL
MODEL       10
REMARK 921   NORMALIZED FREE ENERGY PREDICTED BY IDOCK:   -5.51 KCAL/MOL
REMARK 922        TOTAL FREE ENERGY PREDICTED BY IDOCK:   -7.83 KCAL/MOL
REMARK 923 INTER-LIGAND FREE ENERGY PREDICTED BY IDOCK:   -7.57 KCAL/MOL
REMARK 924 INTRA-LIGAND FREE ENERGY PREDICTED BY IDOCK:   -0.26 KCAL/MOL
REMARK 927      BINDING AFFINITY PREDICTED BY RF-SCORE:    0.00 PKD
ROOT
HETATM    1  C   UNL     1     -12.609  15.601  73.718  1.00  0.00    -0.743 C  
HETATM    2  C   UNL     1     -12.136  15.974  72.317  1.00  0.00    -0.617 C  
ENDROOT
BRANCH   2   3
HETATM    3  C   UNL     1     -12.900  15.282  71.206  1.00  0.00    -0.494 C  
HETATM    4  C   UNL     1     -14.243  15.214  71.222  1.00  0.00    -0.527 C  
BRANCH   3   5
HETATM    5  C   UNL     1     -12.055  14.603  70.161  1.00  0.00    -0.327 C  
HETATM    6  O   UNL     1     -11.727  13.432  70.314  1.00  0.00    -0.263 OA 
BRANCH   5   7
HETATM    7  C   UNL     1     -11.524  15.358  68.985  1.00  0.00    -0.349 A  
HETATM    8  C   UNL     1     -11.486  14.797  67.693  1.00  0.00    -0.347 A  
HETATM    9 CL   UNL     1     -12.207  13.240  67.382  1.00  0.00    -0.310 Cl 
HETATM   10  C   UNL     1     -10.898  15.519  66.621  1.00  0.00    -0.285 A  
HETATM   11 CL   UNL     1     -10.971  14.857  65.013  1.00  0.00    -0.404 Cl 
HETATM   12  C   UNL     1     -10.332  16.787  66.854  1.00  0.00    -0.294 A  
HETATM   13  C   UNL     1     -10.978  16.632  69.192  1.00  0.00    -0.276 A  
HETATM   14  C   UNL     1     -10.414  17.344  68.134  1.00  0.00    -0.389 A  
BRANCH  12  15
HETATM   15  O   UNL     1      -9.731  17.632  65.950  1.00  0.00    -0.521 OA 
BRANCH  15  16
HETATM   16  C   UNL     1      -9.387  18.945  66.409  1.00  0.00    -0.328 C  
HETATM   17  C   UNL     1      -7.934  19.261  66.090  1.00  0.00    -0.294 C  
HETATM   18  O   UNL     1      -7.375  20.304  66.399  1.00  0.00    -0.272 OA 
HETATM   19  O   UNL     1      -7.302  18.269  65.411  1.00  0.00    -0.531 OA 
ENDBRANCH  15  16
ENDBRANCH  12  15
ENDBRANCH   5   7
ENDBRANCH   3   5
ENDBRANCH   2   3
TORSDOF 5
ENDMDL
MODEL       11
REMARK 921   NORMALIZED FREE ENERGY PREDICTED BY IDOCK:   -5.50 KCAL/MOL
REMARK 922        TOTAL FREE ENERGY PREDICTED BY IDOCK:   -7.82 KCAL/MOL
REMARK 923 INTER-LIGAND FREE ENERGY PREDICTED BY IDOCK:   -7.08 KCAL/MOL
REMARK 924 INTRA-LIGAND FREE ENERGY PREDICTED BY IDOCK:   -0.73 KCAL/MOL
REMARK 927      BINDING AFFINITY PREDICTED BY RF-SCORE:    0.00 PKD
ROOT
HETATM    1  C   UNL     1      -9.070  16.329  66.138  1.00  0.00    -0.377 C  
HETATM    2  C   UNL     1      -9.737  14.982  65.878  1.00  0.00    -0.376 C  
ENDROOT
BRANCH   2   3
HETATM    3  C   UNL     1     -11.120  15.090  65.270  1.00  0.00    -0.391 C  
HETATM    4  C   UNL     1     -11.436  16.090  64.429  1.00  0.00    -0.246 C  
BRANCH   3   5
HETATM    5  C   UNL     1     -12.122  14.073  65.750  1.00  0.00    -0.427 C  
HETATM    6  O   UNL     1     -13.223  14.006  65.215  1.00  0.00    -0.782 OA 
BRANCH   5   7
HETATM    7  C   UNL     1     -11.838  13.205  66.934  1.00  0.00    -0.444 A  
HETATM    8  C   UNL     1     -11.397  11.874  66.796  1.00  0.00    -0.330 A  
HETATM    9 CL   UNL     1     -11.012  11.228  65.222  1.00  0.00    -0.258 Cl 
HETATM   10  C   UNL     1     -11.218  11.061  67.945  1.00  0.00    -0.310 A  
HETATM   11 CL   UNL     1     -10.558   9.461  67.758  1.00  0.00    -0.319 Cl 
HETATM   12  C   UNL     1     -11.504  11.578  69.223  1.00  0.00    -0.305 A  
HETATM   13  C   UNL     1     -12.093  13.710  68.216  1.00  0.00    -0.306 A  
HETATM   14  C   UNL     1     -11.903  12.912  69.344  1.00  0.00    -0.371 A  
BRANCH  12  15
HETATM   15  O   UNL     1     -11.386  10.952  70.443  1.00  0.00    -0.294 OA 
BRANCH  15  16
HETATM   16  C   UNL     1     -12.545  10.931  71.284  1.00  0.00    -0.421 C  
HETATM   17  C   UNL     1     -12.960   9.501  71.591  1.00  0.00    -0.396 C  
HETATM   18  O   UNL     1     -13.936   9.198  72.263  1.00  0.00    -0.450 OA 
HETATM   19  O   UNL     1     -12.131   8.570  71.051  1.00  0.00    -0.282 OA 
ENDBRANCH  15  16
ENDBRANCH  12  15
ENDBRANCH   5   7
ENDBRANCH   3   5
ENDBRANCH   2   3
TORSDOF 5
ENDMDL
MODEL       12
REMARK 921   NORMALIZED FREE ENERGY PREDICTED BY IDOCK:   -5.48 KCAL/MOL
REMARK 922        TOTAL FREE ENERGY PREDICTED BY IDOCK:   -7.79 KCAL/MOL
REMARK 923 INTER-LIGAND FREE ENERGY PREDICTED BY IDOCK:   -7.08 KCAL/MOL
REMARK 924 INTRA-LIGAND FREE ENERGY PREDICTED BY IDOCK:   -0.70 KCAL/MOL
REMARK 927      BINDING AFFINITY PREDICTED BY RF-SCORE:    0.00 PKD
ROOT
HETATM    1  C   UNL     1      -9.337  11.153  62.835  1.00  0.00    -0.385 C  
HETATM    2  C   UNL     1     -10.715  11.648  63.265  1.00  0.00    -0.404 C  
ENDROOT
BRANCH   2   3
HETATM    3  C   UNL     1     -10.908  11.698  64.766  1.00  0.00    -0.367 C  
HETATM    4  C   UNL     1     -10.377  10.759  65.569  1.00  0.00    -0.308 C  
BRANCH   3   5
HETATM    5  C   UNL     1     -11.806  12.797  65.270  1.00  0.00    -0.403 C  
HETATM    6  O   UNL     1     -12.992  12.802  64.959  1.00  0.00    -0.811 OA 
BRANCH   5   7
HETATM    7  C   UNL     1     -11.260  13.940  66.064  1.00  0.00    -0.300 A  
HETATM    8  C   UNL     1     -11.367  13.994  67.467  1.00  0.00    -0.321 A  
HETATM    9 CL   UNL     1     -12.010  12.639  68.358  1.00  0.00    -0.331 Cl 
HETATM   10  C   UNL     1     -10.907  15.136  68.173  1.00  0.00    -0.266 A  
HETATM   11 CL   UNL     1     -10.940  15.128  69.913  1.00  0.00    -0.275 Cl 
HETATM   12  C   UNL     1     -10.365  16.227  67.467  1.00  0.00    -0.288 A  
HETATM   13  C   UNL     1     -10.694  15.025  65.380  1.00  0.00    -0.389 A  
HETATM   14  C   UNL     1     -10.230  16.140  66.078  1.00  0.00    -0.374 A  
BRANCH  12  15
HETATM   15  O   UNL     1      -9.865  17.405  67.971  1.00  0.00    -0.267 OA 
BRANCH  15  16
HETATM   16  C   UNL     1      -9.791  18.522  67.077  1.00  0.00    -0.325 C  
HETATM   17  C   UNL     1      -9.849  19.832  67.849  1.00  0.00    -0.404 C  
HETATM   18  O   UNL     1      -9.836  20.938  67.326  1.00  0.00    -0.444 OA 
HETATM   19  O   UNL     1      -9.909  19.663  69.195  1.00  0.00    -0.424 OA 
ENDBRANCH  15  16
ENDBRANCH  12  15
ENDBRANCH   5   7
ENDBRANCH   3   5
ENDBRANCH   2   3
TORSDOF 5
ENDMDL
MODEL       13
REMARK 921   NORMALIZED FREE ENERGY PREDICTED BY IDOCK:   -5.48 KCAL/MOL
REMARK 922        TOTAL FREE ENERGY PREDICTED BY IDOCK:   -7.79 KCAL/MOL
REMARK 923 INTER-LIGAND FREE ENERGY PREDICTED BY IDOCK:   -7.00 KCAL/MOL
REMARK 924 INTRA-LIGAND FREE ENERGY PREDICTED BY IDOCK:   -0.79 KCAL/MOL
REMARK 927      BINDING AFFINITY PREDICTED BY RF-SCORE:    0.00 PKD
ROOT
HETATM    1  C   UNL     1     -11.719   6.149  71.933  1.00  0.00    -0.337 C  
HETATM    2  C   UNL     1     -12.706   7.119  71.290  1.00  0.00    -0.412 C  
ENDROOT
BRANCH   2   3
HETATM    3  C   UNL     1     -12.457   8.571  71.643  1.00  0.00    -0.370 C  
HETATM    4  C   UNL     1     -13.367   9.289  72.325  1.00  0.00    -0.547 C  
BRANCH   3   5
HETATM    5  C   UNL     1     -11.185   9.164  71.095  1.00  0.00    -0.325 C  
HETATM    6  O   UNL     1     -10.189   9.225  71.807  1.00  0.00    -0.311 OA 
BRANCH   5   7
HETATM    7  C   UNL     1     -11.140   9.770  69.730  1.00  0.00    -0.272 A  
HETATM    8  C   UNL     1     -10.504   9.129  68.648  1.00  0.00    -0.207 A  
HETATM    9 CL   UNL     1      -9.873   7.513  68.825  1.00  0.00    -0.162 Cl 
HETATM   10  C   UNL     1     -10.414   9.778  67.389  1.00  0.00    -0.259 A  
HETATM   11 CL   UNL     1      -9.732   8.919  66.039  1.00  0.00    -0.331 Cl 
HETATM   12  C   UNL     1     -10.940  11.075  67.228  1.00  0.00    -0.297 A  
HETATM   13  C   UNL     1     -11.679  11.050  69.543  1.00  0.00    -0.400 A  
HETATM   14  C   UNL     1     -11.601  11.679  68.300  1.00  0.00    -0.378 A  
BRANCH  12  15
HETATM   15  O   UNL     1     -10.954  11.854  66.094  1.00  0.00    -0.284 OA 
BRANCH  15  16
HETATM   16  C   UNL     1     -11.434  13.197  66.228  1.00  0.00    -0.334 C  
HETATM   17  C   UNL     1     -12.586  13.452  65.268  1.00  0.00    -0.464 C  
HETATM   18  O   UNL     1     -13.160  14.527  65.155  1.00  0.00    -0.538 OA 
HETATM   19  O   UNL     1     -12.935  12.360  64.541  1.00  0.00    -0.770 OA 
ENDBRANCH  15  16
ENDBRANCH  12  15
ENDBRANCH   5   7
ENDBRANCH   3   5
ENDBRANCH   2   3
TORSDOF 5
ENDMDL
MODEL       14
REMARK 921   NORMALIZED FREE ENERGY PREDICTED BY IDOCK:   -5.46 KCAL/MOL
REMARK 922        TOTAL FREE ENERGY PREDICTED BY IDOCK:   -7.76 KCAL/MOL
REMARK 923 INTER-LIGAND FREE ENERGY PREDICTED BY IDOCK:   -7.13 KCAL/MOL
REMARK 924 INTRA-LIGAND FREE ENERGY PREDICTED BY IDOCK:   -0.63 KCAL/MOL
REMARK 927      BINDING AFFINITY PREDICTED BY RF-SCORE:    0.00 PKD
ROOT
HETATM    1  C   UNL     1     -11.745   6.232  72.186  1.00  0.00    -0.368 C  
HETATM    2  C   UNL     1     -12.501   7.126  71.209  1.00  0.00    -0.425 C  
ENDROOT
BRANCH   2   3
HETATM    3  C   UNL     1     -12.500   8.592  71.593  1.00  0.00    -0.370 C  
HETATM    4  C   UNL     1     -13.565   9.158  72.188  1.00  0.00    -0.534 C  
BRANCH   3   5
HETATM    5  C   UNL     1     -11.282   9.373  71.173  1.00  0.00    -0.357 C  
HETATM    6  O   UNL     1     -10.269   9.332  71.862  1.00  0.00    -0.269 OA 
BRANCH   5   7
HETATM    7  C   UNL     1     -11.315  10.276  69.983  1.00  0.00    -0.370 A  
HETATM    8  C   UNL     1     -10.814   9.878  68.728  1.00  0.00    -0.208 A  
HETATM    9 CL   UNL     1     -10.272   8.240  68.472  1.00  0.00    -0.224 Cl 
HETATM   10  C   UNL     1     -10.790  10.796  67.646  1.00  0.00    -0.279 A  
HETATM   11 CL   UNL     1     -10.279  10.245  66.076  1.00  0.00    -0.314 Cl 
HETATM   12  C   UNL     1     -11.246  12.115  67.834  1.00  0.00    -0.272 A  
HETATM   13  C   UNL     1     -11.788  11.586  70.144  1.00  0.00    -0.440 A  
HETATM   14  C   UNL     1     -11.776  12.482  69.075  1.00  0.00    -0.368 A  
BRANCH  12  15
HETATM   15  O   UNL     1     -11.308  13.135  66.914  1.00  0.00    -0.293 OA 
BRANCH  15  16
HETATM   16  C   UNL     1     -12.269  13.010  65.858  1.00  0.00    -0.432 C  
HETATM   17  C   UNL     1     -11.871  13.867  64.666  1.00  0.00    -0.407 C  
HETATM   18  O   UNL     1     -12.533  13.967  63.642  1.00  0.00    -0.803 OA 
HETATM   19  O   UNL     1     -10.690  14.516  64.838  1.00  0.00    -0.396 OA 
ENDBRANCH  15  16
ENDBRANCH  12  15
ENDBRANCH   5   7
ENDBRANCH   3   5
ENDBRANCH   2   3
TORSDOF 5
ENDMDL
MODEL       15
REMARK 921   NORMALIZED FREE ENERGY PREDICTED BY IDOCK:   -5.46 KCAL/MOL
REMARK 922        TOTAL FREE ENERGY PREDICTED BY IDOCK:   -7.76 KCAL/MOL
REMARK 923 INTER-LIGAND FREE ENERGY PREDICTED BY IDOCK:   -6.99 KCAL/MOL
REMARK 924 INTRA-LIGAND FREE ENERGY PREDICTED BY IDOCK:   -0.77 KCAL/MOL
REMARK 927      BINDING AFFINITY PREDICTED BY RF-SCORE:    0.00 PKD
ROOT
HETATM    1  C   UNL     1      -6.854  18.712  68.737  1.00  0.00    -0.298 C  
HETATM    2  C   UNL     1      -8.300  19.196  68.679  1.00  0.00    -0.403 C  
ENDROOT
BRANCH   2   3
HETATM    3  C   UNL     1      -8.900  19.170  67.289  1.00  0.00    -0.317 C  
HETATM    4  C   UNL     1      -8.259  19.718  66.241  1.00  0.00    -0.372 C  
BRANCH   3   5
HETATM    5  C   UNL     1     -10.287  18.589  67.191  1.00  0.00    -0.399 C  
HETATM    6  O   UNL     1     -11.259  19.299  67.419  1.00  0.00    -0.344 OA 
BRANCH   5   7
HETATM    7  C   UNL     1     -10.498  17.135  66.914  1.00  0.00    -0.274 A  
HETATM    8  C   UNL     1     -10.670  16.195  67.949  1.00  0.00    -0.321 A  
HETATM    9 CL   UNL     1     -10.800  16.719  69.608  1.00  0.00    -0.295 Cl 
HETATM   10  C   UNL     1     -10.785  14.814  67.644  1.00  0.00    -0.270 A  
HETATM   11 CL   UNL     1     -11.118  13.687  68.928  1.00  0.00    -0.278 Cl 
HETATM   12  C   UNL     1     -10.705  14.380  66.307  1.00  0.00    -0.307 A  
HETATM   13  C   UNL     1     -10.445  16.687  65.587  1.00  0.00    -0.313 A  
HETATM   14  C   UNL     1     -10.573  15.331  65.290  1.00  0.00    -0.438 A  
BRANCH  12  15
HETATM   15  O   UNL     1     -10.801  13.098  65.819  1.00  0.00    -0.271 OA 
BRANCH  15  16
HETATM   16  C   UNL     1     -12.096  12.651  65.400  1.00  0.00    -0.462 C  
HETATM   17  C   UNL     1     -12.087  12.295  63.921  1.00  0.00    -0.506 C  
HETATM   18  O   UNL     1     -13.071  11.915  63.301  1.00  0.00    -0.674 OA 
HETATM   19  O   UNL     1     -10.867  12.429  63.340  1.00  0.00    -0.451 OA 
ENDBRANCH  15  16
ENDBRANCH  12  15
ENDBRANCH   5   7
ENDBRANCH   3   5
ENDBRANCH   2   3
TORSDOF 5
ENDMDL
MODEL       16
REMARK 921   NORMALIZED FREE ENERGY PREDICTED BY IDOCK:   -5.45 KCAL/MOL
REMARK 922        TOTAL FREE ENERGY PREDICTED BY IDOCK:   -7.75 KCAL/MOL
REMARK 923 INTER-LIGAND FREE ENERGY PREDICTED BY IDOCK:   -7.15 KCAL/MOL
REMARK 924 INTRA-LIGAND FREE ENERGY PREDICTED BY IDOCK:   -0.60 KCAL/MOL
REMARK 927      BINDING AFFINITY PREDICTED BY RF-SCORE:    0.00 PKD
ROOT
HETATM    1  C   UNL     1     -10.259  18.372  66.938  1.00  0.00    -0.403 C  
HETATM    2  C   UNL     1     -10.425  17.217  65.955  1.00  0.00    -0.285 C  
ENDROOT
BRANCH   2   3
HETATM    3  C   UNL     1      -9.966  15.879  66.498  1.00  0.00    -0.286 C  
HETATM    4  C   UNL     1      -8.660  15.597  66.646  1.00  0.00    -0.330 C  
BRANCH   3   5
HETATM    5  C   UNL     1     -11.058  14.874  66.757  1.00  0.00    -0.335 C  
HETATM    6  O   UNL     1     -11.623  14.336  65.811  1.00  0.00    -0.333 OA 
BRANCH   5   7
HETATM    7  C   UNL     1     -11.534  14.589  68.145  1.00  0.00    -0.337 A  
HETATM    8  C   UNL     1     -11.693  13.275  68.625  1.00  0.00    -0.341 A  
HETATM    9 CL   UNL     1     -11.185  11.913  67.662  1.00  0.00    -0.313 Cl 
HETATM   10  C   UNL     1     -12.226  13.050  69.922  1.00  0.00    -0.202 A  
HETATM   11 CL   UNL     1     -12.300  11.425  70.538  1.00  0.00    -0.440 Cl 
HETATM   12  C   UNL     1     -12.619  14.143  70.718  1.00  0.00    -0.362 A  
HETATM   13  C   UNL     1     -11.908  15.665  68.962  1.00  0.00    -0.379 A  
HETATM   14  C   UNL     1     -12.418  15.441  70.241  1.00  0.00    -0.413 A  
BRANCH  12  15
HETATM   15  O   UNL     1     -13.144  14.125  71.990  1.00  0.00    -0.342 OA 
BRANCH  15  16
HETATM   16  C   UNL     1     -13.506  15.386  72.567  1.00  0.00    -0.504 C  
HETATM   17  C   UNL     1     -12.713  15.640  73.840  1.00  0.00    -0.600 C  
HETATM   18  O   UNL     1     -12.849  16.629  74.548  1.00  0.00    -0.640 OA 
HETATM   19  O   UNL     1     -11.817  14.659  74.123  1.00  0.00    -0.306 OA 
ENDBRANCH  15  16
ENDBRANCH  12  15
ENDBRANCH   5   7
ENDBRANCH   3   5
ENDBRANCH   2   3
TORSDOF 5
ENDMDL
MODEL       17
REMARK 921   NORMALIZED FREE ENERGY PREDICTED BY IDOCK:   -5.45 KCAL/MOL
REMARK 922        TOTAL FREE ENERGY PREDICTED BY IDOCK:   -7.75 KCAL/MOL
REMARK 923 INTER-LIGAND FREE ENERGY PREDICTED BY IDOCK:   -7.98 KCAL/MOL
REMARK 924 INTRA-LIGAND FREE ENERGY PREDICTED BY IDOCK:    0.23 KCAL/MOL
REMARK 927      BINDING AFFINITY PREDICTED BY RF-SCORE:    0.00 PKD
ROOT
HETATM    1  C   UNL     1     -12.472  16.256  73.575  1.00  0.00    -0.637 C  
HETATM    2  C   UNL     1     -12.000  15.183  72.599  1.00  0.00    -0.486 C  
ENDROOT
BRANCH   2   3
HETATM    3  C   UNL     1     -13.128  14.452  71.899  1.00  0.00    -0.433 C  
HETATM    4  C   UNL     1     -14.407  14.843  72.041  1.00  0.00    -0.651 C  
BRANCH   3   5
HETATM    5  C   UNL     1     -12.726  13.219  71.133  1.00  0.00    -0.320 C  
HETATM    6  O   UNL     1     -12.800  12.120  71.671  1.00  0.00    -0.359 OA 
BRANCH   5   7
HETATM    7  C   UNL     1     -12.145  13.317  69.759  1.00  0.00    -0.355 A  
HETATM    8  C   UNL     1     -11.502  12.228  69.140  1.00  0.00    -0.296 A  
HETATM    9 CL   UNL     1     -11.495  10.657  69.898  1.00  0.00    -0.356 Cl 
HETATM   10  C   UNL     1     -10.892  12.389  67.868  1.00  0.00    -0.222 A  
HETATM   11 CL   UNL     1     -10.211  11.000  67.072  1.00  0.00    -0.238 Cl 
HETATM   12  C   UNL     1     -10.911  13.647  67.235  1.00  0.00    -0.284 A  
HETATM   13  C   UNL     1     -12.175  14.555  69.102  1.00  0.00    -0.234 A  
HETATM   14  C   UNL     1     -11.587  14.707  67.846  1.00  0.00    -0.373 A  
BRANCH  12  15
HETATM   15  O   UNL     1     -10.386  13.993  66.012  1.00  0.00    -0.289 OA 
BRANCH  15  16
HETATM   16  C   UNL     1     -11.291  14.529  65.038  1.00  0.00    -0.377 C  
HETATM   17  C   UNL     1     -10.992  15.998  64.780  1.00  0.00    -0.356 C  
HETATM   18  O   UNL     1     -11.635  16.705  64.015  1.00  0.00    -1.197 OA 
HETATM   19  O   UNL     1      -9.924  16.463  65.479  1.00  0.00    -0.518 OA 
ENDBRANCH  15  16
ENDBRANCH  12  15
ENDBRANCH   5   7
ENDBRANCH   3   5
ENDBRANCH   2   3
TORSDOF 5
ENDMDL
MODEL       18
REMARK 921   NORMALIZED FREE ENERGY PREDICTED BY IDOCK:   -5.42 KCAL/MOL
REMARK 922        TOTAL FREE ENERGY PREDICTED BY IDOCK:   -7.71 KCAL/MOL
REMARK 923 INTER-LIGAND FREE ENERGY PREDICTED BY IDOCK:   -7.58 KCAL/MOL
REMARK 924 INTRA-LIGAND FREE ENERGY PREDICTED BY IDOCK:   -0.13 KCAL/MOL
REMARK 927      BINDING AFFINITY PREDICTED BY RF-SCORE:    0.00 PKD
ROOT
HETATM    1  C   UNL     1     -10.913   8.321  70.650  1.00  0.00    -0.257 C  
HETATM    2  C   UNL     1     -11.022   9.666  71.361  1.00  0.00    -0.354 C  
ENDROOT
BRANCH   2   3
HETATM    3  C   UNL     1     -12.446  10.147  71.548  1.00  0.00    -0.526 C  
HETATM    4  C   UNL     1     -13.431   9.296  71.888  1.00  0.00    -0.497 C  
BRANCH   3   5
HETATM    5  C   UNL     1     -12.689  11.599  71.232  1.00  0.00    -0.340 C  
HETATM    6  O   UNL     1     -13.400  12.270  71.971  1.00  0.00    -0.506 OA 
BRANCH   5   7
HETATM    7  C   UNL     1     -12.157  12.217  69.979  1.00  0.00    -0.346 A  
HETATM    8  C   UNL     1     -11.877  13.595  69.885  1.00  0.00    -0.320 A  
HETATM    9 CL   UNL     1     -11.993  14.618  71.293  1.00  0.00    -0.391 Cl 
HETATM   10  C   UNL     1     -11.451  14.153  68.652  1.00  0.00    -0.299 A  
HETATM   11 CL   UNL     1     -10.996  15.831  68.592  1.00  0.00    -0.288 Cl 
HETATM   12  C   UNL     1     -11.332  13.332  67.514  1.00  0.00    -0.296 A  
HETATM   13  C   UNL     1     -12.008  11.412  68.841  1.00  0.00    -0.371 A  
HETATM   14  C   UNL     1     -11.576  11.961  67.634  1.00  0.00    -0.382 A  
BRANCH  12  15
HETATM   15  O   UNL     1     -10.931  13.685  66.246  1.00  0.00    -0.297 OA 
BRANCH  15  16
HETATM   16  C   UNL     1     -11.915  14.277  65.388  1.00  0.00    -0.383 C  
HETATM   17  C   UNL     1     -11.374  15.546  64.748  1.00  0.00    -0.357 C  
HETATM   18  O   UNL     1     -12.019  16.263  63.995  1.00  0.00    -0.955 OA 
HETATM   19  O   UNL     1     -10.085  15.814  65.083  1.00  0.00    -0.418 OA 
ENDBRANCH  15  16
ENDBRANCH  12  15
ENDBRANCH   5   7
ENDBRANCH   3   5
ENDBRANCH   2   3
TORSDOF 5
ENDMDL
MODEL       19
REMARK 921   NORMALIZED FREE ENERGY PREDICTED BY IDOCK:   -5.39 KCAL/MOL
REMARK 922        TOTAL FREE ENERGY PREDICTED BY IDOCK:   -7.68 KCAL/MOL
REMARK 923 INTER-LIGAND FREE ENERGY PREDICTED BY IDOCK:   -6.98 KCAL/MOL
REMARK 924 INTRA-LIGAND FREE ENERGY PREDICTED BY IDOCK:   -0.70 KCAL/MOL
REMARK 927      BINDING AFFINITY PREDICTED BY RF-SCORE:    0.00 PKD
ROOT
HETATM    1  C   UNL     1     -11.182   6.543  69.180  1.00  0.00    -0.367 C  
HETATM    2  C   UNL     1     -11.524   6.274  70.642  1.00  0.00    -0.397 C  
ENDROOT
BRANCH   2   3
HETATM    3  C   UNL     1     -12.316   7.385  71.300  1.00  0.00    -0.380 C  
HETATM    4  C   UNL     1     -13.653   7.309  71.423  1.00  0.00    -0.399 C  
BRANCH   3   5
HETATM    5  C   UNL     1     -11.522   8.598  71.705  1.00  0.00    -0.324 C  
HETATM    6  O   UNL     1     -10.525   8.465  72.406  1.00  0.00    -0.310 OA 
BRANCH   5   7
HETATM    7  C   UNL     1     -11.979   9.976  71.350  1.00  0.00    -0.470 A  
HETATM    8  C   UNL     1     -11.436  10.687  70.261  1.00  0.00    -0.337 A  
HETATM    9 CL   UNL     1     -10.306   9.918  69.178  1.00  0.00    -0.206 Cl 
HETATM   10  C   UNL     1     -11.841  12.024  70.010  1.00  0.00    -0.314 A  
HETATM   11 CL   UNL     1     -11.248  12.838  68.592  1.00  0.00    -0.298 Cl 
HETATM   12  C   UNL     1     -12.770  12.649  70.865  1.00  0.00    -0.188 A  
HETATM   13  C   UNL     1     -12.921  10.607  72.174  1.00  0.00    -0.328 A  
HETATM   14  C   UNL     1     -13.328  11.916  71.916  1.00  0.00    -0.405 A  
BRANCH  12  15
HETATM   15  O   UNL     1     -13.285  13.922  70.780  1.00  0.00    -0.215 OA 
BRANCH  15  16
HETATM   16  C   UNL     1     -13.999  14.418  71.919  1.00  0.00    -0.487 C  
HETATM   17  C   UNL     1     -13.296  15.632  72.505  1.00  0.00    -0.516 C  
HETATM   18  O   UNL     1     -13.677  16.232  73.500  1.00  0.00    -0.595 OA 
HETATM   19  O   UNL     1     -12.191  16.006  71.807  1.00  0.00    -0.446 OA 
ENDBRANCH  15  16
ENDBRANCH  12  15
ENDBRANCH   5   7
ENDBRANCH   3   5
ENDBRANCH   2   3
TORSDOF 5
ENDMDL
MODEL       20
REMARK 921   NORMALIZED FREE ENERGY PREDICTED BY IDOCK:   -5.34 KCAL/MOL
REMARK 922        TOTAL FREE ENERGY PREDICTED BY IDOCK:   -7.61 KCAL/MOL
REMARK 923 INTER-LIGAND FREE ENERGY PREDICTED BY IDOCK:   -6.96 KCAL/MOL
REMARK 924 INTRA-LIGAND FREE ENERGY PREDICTED BY IDOCK:   -0.65 KCAL/MOL
REMARK 927      BINDING AFFINITY PREDICTED BY RF-SCORE:    0.00 PKD
ROOT
HETATM    1  C   UNL     1     -10.146   4.737  72.047  1.00  0.00    -0.258 C  
HETATM    2  C   UNL     1     -11.067   5.664  72.834  1.00  0.00    -0.337 C  
ENDROOT
BRANCH   2   3
HETATM    3  C   UNL     1     -10.960   7.120  72.431  1.00  0.00    -0.286 C  
HETATM    4  C   UNL     1     -10.040   7.931  72.985  1.00  0.00    -0.384 C  
BRANCH   3   5
HETATM    5  C   UNL     1     -12.006   7.605  71.462  1.00  0.00    -0.303 C  
HETATM    6  O   UNL     1     -12.648   6.793  70.806  1.00  0.00    -0.311 OA 
BRANCH   5   7
HETATM    7  C   UNL     1     -12.210   9.065  71.210  1.00  0.00    -0.373 A  
HETATM    8  C   UNL     1     -11.473   9.765  70.235  1.00  0.00    -0.255 A  
HETATM    9 CL   UNL     1     -10.392   8.915  69.163  1.00  0.00    -0.224 Cl 
HETATM   10  C   UNL     1     -11.641  11.167  70.087  1.00  0.00    -0.323 A  
HETATM   11 CL   UNL     1     -10.810  11.989  68.797  1.00  0.00    -0.255 Cl 
HETATM   12  C   UNL     1     -12.528  11.862  70.931  1.00  0.00    -0.300 A  
HETATM   13  C   UNL     1     -13.106   9.770  72.025  1.00  0.00    -0.546 A  
HETATM   14  C   UNL     1     -13.279  11.145  71.867  1.00  0.00    -0.488 A  
BRANCH  12  15
HETATM   15  O   UNL     1     -12.827  13.204  70.935  1.00  0.00    -0.257 OA 
BRANCH  15  16
HETATM   16  C   UNL     1     -13.448  13.735  72.112  1.00  0.00    -0.502 C  
HETATM   17  C   UNL     1     -13.743  15.217  71.940  1.00  0.00    -0.499 C  
HETATM   18  O   UNL     1     -14.244  15.922  72.806  1.00  0.00    -0.523 OA 
HETATM   19  O   UNL     1     -13.404  15.697  70.715  1.00  0.00    -0.535 OA 
ENDBRANCH  15  16
ENDBRANCH  12  15
ENDBRANCH   5   7
ENDBRANCH   3   5
ENDBRANCH   2   3
TORSDOF 5
ENDMDL
MODEL       21
REMARK 921   NORMALIZED FREE ENERGY PREDICTED BY IDOCK:   -5.34 KCAL/MOL
REMARK 922        TOTAL FREE ENERGY PREDICTED BY IDOCK:   -7.61 KCAL/MOL
REMARK 923 INTER-LIGAND FREE ENERGY PREDICTED BY IDOCK:   -7.33 KCAL/MOL
REMARK 924 INTRA-LIGAND FREE ENERGY PREDICTED BY IDOCK:   -0.27 KCAL/MOL
REMARK 927      BINDING AFFINITY PREDICTED BY RF-SCORE:    0.00 PKD
ROOT
HETATM    1  C   UNL     1     -12.211   7.015  71.068  1.00  0.00    -0.419 C  
HETATM    2  C   UNL     1     -11.636   8.278  71.701  1.00  0.00    -0.337 C  
ENDROOT
BRANCH   2   3
HETATM    3  C   UNL     1     -11.903   9.539  70.905  1.00  0.00    -0.385 C  
HETATM    4  C   UNL     1     -13.114  10.123  70.909  1.00  0.00    -0.412 C  
BRANCH   3   5
HETATM    5  C   UNL     1     -10.762  10.019  70.047  1.00  0.00    -0.299 C  
HETATM    6  O   UNL     1      -9.607   9.833  70.414  1.00  0.00    -0.252 OA 
BRANCH   5   7
HETATM    7  C   UNL     1     -11.009  10.806  68.800  1.00  0.00    -0.295 A  
HETATM    8  C   UNL     1     -10.603  10.345  67.533  1.00  0.00    -0.262 A  
HETATM    9 CL   UNL     1      -9.927   8.748  67.346  1.00  0.00    -0.246 Cl 
HETATM   10  C   UNL     1     -10.785  11.162  66.386  1.00  0.00    -0.247 A  
HETATM   11 CL   UNL     1     -10.386  10.523  64.817  1.00  0.00    -0.375 Cl 
HETATM   12  C   UNL     1     -11.350  12.445  66.520  1.00  0.00    -0.340 A  
HETATM   13  C   UNL     1     -11.593  12.076  68.910  1.00  0.00    -0.377 A  
HETATM   14  C   UNL     1     -11.783  12.870  67.780  1.00  0.00    -0.412 A  
BRANCH  12  15
HETATM   15  O   UNL     1     -11.610  13.369  65.535  1.00  0.00    -0.313 OA 
BRANCH  15  16
HETATM   16  C   UNL     1     -10.935  14.630  65.624  1.00  0.00    -0.335 C  
HETATM   17  C   UNL     1     -11.553  15.638  64.667  1.00  0.00    -0.249 C  
HETATM   18  O   UNL     1     -11.147  16.783  64.520  1.00  0.00    -0.989 OA 
HETATM   19  O   UNL     1     -12.619  15.149  63.982  1.00  0.00    -0.791 OA 
ENDBRANCH  15  16
ENDBRANCH  12  15
ENDBRANCH   5   7
ENDBRANCH   3   5
ENDBRANCH   2   3
TORSDOF 5
ENDMDL
MODEL       22
REMARK 921   NORMALIZED FREE ENERGY PREDICTED BY IDOCK:   -5.31 KCAL/MOL
REMARK 922        TOTAL FREE ENERGY PREDICTED BY IDOCK:   -7.57 KCAL/MOL
REMARK 923 INTER-LIGAND FREE ENERGY PREDICTED BY IDOCK:   -6.79 KCAL/MOL
REMARK 924 INTRA-LIGAND FREE ENERGY PREDICTED BY IDOCK:   -0.78 KCAL/MOL
REMARK 927      BINDING AFFINITY PREDICTED BY RF-SCORE:    0.00 PKD
ROOT
HETATM    1  C   UNL     1      -6.568  16.946  67.944  1.00  0.00    -0.152 C  
HETATM    2  C   UNL     1      -7.263  16.981  66.587  1.00  0.00    -0.293 C  
ENDROOT
BRANCH   2   3
HETATM    3  C   UNL     1      -8.286  18.091  66.450  1.00  0.00    -0.285 C  
HETATM    4  C   UNL     1      -7.931  19.384  66.557  1.00  0.00    -0.309 C  
BRANCH   3   5
HETATM    5  C   UNL     1      -9.715  17.641  66.292  1.00  0.00    -0.263 C  
HETATM    6  O   UNL     1     -10.439  18.200  65.476  1.00  0.00    -0.626 OA 
BRANCH   5   7
HETATM    7  C   UNL     1     -10.298  16.590  67.181  1.00  0.00    -0.298 A  
HETATM    8  C   UNL     1     -10.740  15.350  66.680  1.00  0.00    -0.309 A  
HETATM    9 CL   UNL     1     -10.478  14.926  65.009  1.00  0.00    -0.433 Cl 
HETATM   10  C   UNL     1     -11.363  14.414  67.547  1.00  0.00    -0.328 A  
HETATM   11 CL   UNL     1     -11.791  12.843  66.932  1.00  0.00    -0.446 Cl 
HETATM   12  C   UNL     1     -11.560  14.735  68.903  1.00  0.00    -0.313 A  
HETATM   13  C   UNL     1     -10.481  16.882  68.539  1.00  0.00    -0.361 A  
HETATM   14  C   UNL     1     -11.080  15.954  69.391  1.00  0.00    -0.322 A  
BRANCH  12  15
HETATM   15  O   UNL     1     -12.132  13.963  69.888  1.00  0.00    -0.308 OA 
BRANCH  15  16
HETATM   16  C   UNL     1     -12.972  14.629  70.839  1.00  0.00    -0.365 C  
HETATM   17  C   UNL     1     -13.549  13.634  71.834  1.00  0.00    -0.427 C  
HETATM   18  O   UNL     1     -14.323  13.933  72.733  1.00  0.00    -0.548 OA 
HETATM   19  O   UNL     1     -13.115  12.362  71.639  1.00  0.00    -0.404 OA 
ENDBRANCH  15  16
ENDBRANCH  12  15
ENDBRANCH   5   7
ENDBRANCH   3   5
ENDBRANCH   2   3
TORSDOF 5
ENDMDL
MODEL       23
REMARK 921   NORMALIZED FREE ENERGY PREDICTED BY IDOCK:   -5.30 KCAL/MOL
REMARK 922        TOTAL FREE ENERGY PREDICTED BY IDOCK:   -7.56 KCAL/MOL
REMARK 923 INTER-LIGAND FREE ENERGY PREDICTED BY IDOCK:   -6.75 KCAL/MOL
REMARK 924 INTRA-LIGAND FREE ENERGY PREDICTED BY IDOCK:   -0.80 KCAL/MOL
REMARK 927      BINDING AFFINITY PREDICTED BY RF-SCORE:    0.00 PKD
ROOT
HETATM    1  C   UNL     1     -10.330  17.162  66.296  1.00  0.00    -0.315 C  
HETATM    2  C   UNL     1     -10.217  15.847  65.532  1.00  0.00    -0.394 C  
ENDROOT
BRANCH   2   3
HETATM    3  C   UNL     1     -10.218  14.620  66.420  1.00  0.00    -0.296 C  
HETATM    4  C   UNL     1      -9.071  14.093  66.883  1.00  0.00    -0.260 C  
BRANCH   3   5
HETATM    5  C   UNL     1     -11.565  13.988  66.655  1.00  0.00    -0.382 C  
HETATM    6  O   UNL     1     -12.456  14.133  65.825  1.00  0.00    -0.466 OA 
BRANCH   5   7
HETATM    7  C   UNL     1     -11.871  13.269  67.929  1.00  0.00    -0.388 A  
HETATM    8  C   UNL     1     -12.080  13.953  69.142  1.00  0.00    -0.338 A  
HETATM    9 CL   UNL     1     -12.145  15.696  69.175  1.00  0.00    -0.322 Cl 
HETATM   10  C   UNL     1     -12.286  13.226  70.344  1.00  0.00    -0.332 A  
HETATM   11 CL   UNL     1     -12.661  14.092  71.806  1.00  0.00    -0.415 Cl 
HETATM   12  C   UNL     1     -12.258  11.819  70.326  1.00  0.00    -0.299 A  
HETATM   13  C   UNL     1     -11.871  11.867  67.927  1.00  0.00    -0.308 A  
HETATM   14  C   UNL     1     -12.088  11.156  69.107  1.00  0.00    -0.352 A  
BRANCH  12  15
HETATM   15  O   UNL     1     -12.442  10.949  71.376  1.00  0.00    -0.367 OA 
BRANCH  15  16
HETATM   16  C   UNL     1     -11.731   9.706  71.331  1.00  0.00    -0.404 C  
HETATM   17  C   UNL     1     -12.555   8.594  71.962  1.00  0.00    -0.378 C  
HETATM   18  O   UNL     1     -12.171   7.438  72.081  1.00  0.00    -0.285 OA 
HETATM   19  O   UNL     1     -13.781   9.001  72.381  1.00  0.00    -0.453 OA 
ENDBRANCH  15  16
ENDBRANCH  12  15
ENDBRANCH   5   7
ENDBRANCH   3   5
ENDBRANCH   2   3
TORSDOF 5
ENDMDL
MODEL       24
REMARK 921   NORMALIZED FREE ENERGY PREDICTED BY IDOCK:   -5.27 KCAL/MOL
REMARK 922        TOTAL FREE ENERGY PREDICTED BY IDOCK:   -7.52 KCAL/MOL
REMARK 923 INTER-LIGAND FREE ENERGY PREDICTED BY IDOCK:   -6.86 KCAL/MOL
REMARK 924 INTRA-LIGAND FREE ENERGY PREDICTED BY IDOCK:   -0.66 KCAL/MOL
REMARK 927      BINDING AFFINITY PREDICTED BY RF-SCORE:    0.00 PKD
ROOT
HETATM    1  C   UNL     1     -10.618   5.600  69.585  1.00  0.00    -0.401 C  
HETATM    2  C   UNL     1     -10.912   7.093  69.466  1.00  0.00    -0.214 C  
ENDROOT
BRANCH   2   3
HETATM    3  C   UNL     1     -10.514   7.691  68.133  1.00  0.00    -0.233 C  
HETATM    4  C   UNL     1     -10.667   7.005  66.986  1.00  0.00    -0.423 C  
BRANCH   3   5
HETATM    5  C   UNL     1      -9.854   9.044  68.198  1.00  0.00    -0.166 C  
HETATM    6  O   UNL     1      -8.819   9.183  68.841  1.00  0.00    -0.136 OA 
BRANCH   5   7
HETATM    7  C   UNL     1     -10.488  10.245  67.575  1.00  0.00    -0.293 A  
HETATM    8  C   UNL     1     -10.213  10.632  66.249  1.00  0.00    -0.245 A  
HETATM    9 CL   UNL     1      -9.230   9.624  65.219  1.00  0.00    -0.272 Cl 
HETATM   10  C   UNL     1     -10.773  11.826  65.724  1.00  0.00    -0.280 A  
HETATM   11 CL   UNL     1     -10.517  12.219  64.049  1.00  0.00    -0.390 Cl 
HETATM   12  C   UNL     1     -11.587  12.637  66.539  1.00  0.00    -0.381 A  
HETATM   13  C   UNL     1     -11.320  11.053  68.363  1.00  0.00    -0.363 A  
HETATM   14  C   UNL     1     -11.881  12.218  67.840  1.00  0.00    -0.358 A  
BRANCH  12  15
HETATM   15  O   UNL     1     -12.219  13.814  66.210  1.00  0.00    -0.425 OA 
BRANCH  15  16
HETATM   16  C   UNL     1     -11.394  14.968  66.008  1.00  0.00    -0.270 C  
HETATM   17  C   UNL     1     -11.635  15.564  64.630  1.00  0.00    -0.281 C  
HETATM   18  O   UNL     1     -11.038  16.537  64.190  1.00  0.00    -0.903 OA 
HETATM   19  O   UNL     1     -12.595  14.916  63.921  1.00  0.00    -0.831 OA 
ENDBRANCH  15  16
ENDBRANCH  12  15
ENDBRANCH   5   7
ENDBRANCH   3   5
ENDBRANCH   2   3
TORSDOF 5
ENDMDL
MODEL       25
REMARK 921   NORMALIZED FREE ENERGY PREDICTED BY IDOCK:   -5.27 KCAL/MOL
REMARK 922        TOTAL FREE ENERGY PREDICTED BY IDOCK:   -7.52 KCAL/MOL
REMARK 923 INTER-LIGAND FREE ENERGY PREDICTED BY IDOCK:   -7.03 KCAL/MOL
REMARK 924 INTRA-LIGAND FREE ENERGY PREDICTED BY IDOCK:   -0.48 KCAL/MOL
REMARK 927      BINDING AFFINITY PREDICTED BY RF-SCORE:    0.00 PKD
ROOT
HETATM    1  C   UNL     1     -12.823  11.933  71.408  1.00  0.00    -0.411 C  
HETATM    2  C   UNL     1     -13.331  13.156  72.165  1.00  0.00    -0.621 C  
ENDROOT
BRANCH   2   3
HETATM    3  C   UNL     1     -13.182  14.456  71.402  1.00  0.00    -0.418 C  
HETATM    4  C   UNL     1     -14.231  15.274  71.206  1.00  0.00    -0.506 C  
BRANCH   3   5
HETATM    5  C   UNL     1     -11.823  14.706  70.804  1.00  0.00    -0.311 C  
HETATM    6  O   UNL     1     -10.879  14.979  71.537  1.00  0.00    -0.119 OA 
BRANCH   5   7
HETATM    7  C   UNL     1     -11.620  14.724  69.323  1.00  0.00    -0.331 A  
HETATM    8  C   UNL     1     -11.105  15.851  68.653  1.00  0.00    -0.337 A  
HETATM    9 CL   UNL     1     -10.529  17.230  69.553  1.00  0.00    -0.192 Cl 
HETATM   10  C   UNL     1     -11.007  15.855  67.237  1.00  0.00    -0.234 A  
HETATM   11 CL   UNL     1     -10.256  17.209  66.442  1.00  0.00    -0.322 Cl 
HETATM   12  C   UNL     1     -11.447  14.739  66.499  1.00  0.00    -0.327 A  
HETATM   13  C   UNL     1     -12.031  13.613  68.573  1.00  0.00    -0.396 A  
HETATM   14  C   UNL     1     -11.920  13.614  67.183  1.00  0.00    -0.434 A  
BRANCH  12  15
HETATM   15  O   UNL     1     -11.426  14.556  65.136  1.00  0.00    -0.341 OA 
BRANCH  15  16
HETATM   16  C   UNL     1     -12.521  13.838  64.554  1.00  0.00    -0.285 C  
HETATM   17  C   UNL     1     -12.013  12.722  63.654  1.00  0.00    -0.539 C  
HETATM   18  O   UNL     1     -12.738  11.976  63.010  1.00  0.00    -0.492 OA 
HETATM   19  O   UNL     1     -10.659  12.618  63.634  1.00  0.00    -0.418 OA 
ENDBRANCH  15  16
ENDBRANCH  12  15
ENDBRANCH   5   7
ENDBRANCH   3   5
ENDBRANCH   2   3
TORSDOF 5
ENDMDL
MODEL       26
REMARK 921   NORMALIZED FREE ENERGY PREDICTED BY IDOCK:   -5.27 KCAL/MOL
REMARK 922        TOTAL FREE ENERGY PREDICTED BY IDOCK:   -7.52 KCAL/MOL
REMARK 923 INTER-LIGAND FREE ENERGY PREDICTED BY IDOCK:   -6.76 KCAL/MOL
REMARK 924 INTRA-LIGAND FREE ENERGY PREDICTED BY IDOCK:   -0.75 KCAL/MOL
REMARK 927      BINDING AFFINITY PREDICTED BY RF-SCORE:    0.00 PKD
ROOT
HETATM    1  C   UNL     1     -10.597   7.649  66.939  1.00  0.00    -0.359 C  
HETATM    2  C   UNL     1     -10.018   8.993  67.370  1.00  0.00    -0.266 C  
ENDROOT
BRANCH   2   3
HETATM    3  C   UNL     1     -10.319  10.126  66.410  1.00  0.00    -0.258 C  
HETATM    4  C   UNL     1      -9.864  10.107  65.145  1.00  0.00    -0.394 C  
BRANCH   3   5
HETATM    5  C   UNL     1     -11.061  11.297  66.999  1.00  0.00    -0.293 C  
HETATM    6  O   UNL     1     -11.993  11.098  67.771  1.00  0.00    -0.630 OA 
BRANCH   5   7
HETATM    7  C   UNL     1     -10.749  12.699  66.585  1.00  0.00    -0.275 A  
HETATM    8  C   UNL     1     -11.475  13.359  65.575  1.00  0.00    -0.305 A  
HETATM    9 CL   UNL     1     -12.884  12.614  64.867  1.00  0.00    -0.473 Cl 
HETATM   10  C   UNL     1     -11.091  14.660  65.157  1.00  0.00    -0.377 A  
HETATM   11 CL   UNL     1     -12.075  15.502  63.994  1.00  0.00    -0.139 Cl 
HETATM   12  C   UNL     1      -9.968  15.282  65.737  1.00  0.00    -0.360 A  
HETATM   13  C   UNL     1      -9.649  13.344  67.168  1.00  0.00    -0.241 A  
HETATM   14  C   UNL     1      -9.283  14.628  66.765  1.00  0.00    -0.285 A  
BRANCH  12  15
HETATM   15  O   UNL     1      -9.452  16.529  65.471  1.00  0.00    -0.473 OA 
BRANCH  15  16
HETATM   16  C   UNL     1      -9.316  17.432  66.575  1.00  0.00    -0.270 C  
HETATM   17  C   UNL     1     -10.252  18.620  66.414  1.00  0.00    -0.425 C  
HETATM   18  O   UNL     1     -10.315  19.555  67.200  1.00  0.00    -0.389 OA 
HETATM   19  O   UNL     1     -11.032  18.547  65.304  1.00  0.00    -0.551 OA 
ENDBRANCH  15  16
ENDBRANCH  12  15
ENDBRANCH   5   7
ENDBRANCH   3   5
ENDBRANCH   2   3
TORSDOF 5
ENDMDL
MODEL       27
REMARK 921   NORMALIZED FREE ENERGY PREDICTED BY IDOCK:   -5.25 KCAL/MOL
REMARK 922        TOTAL FREE ENERGY PREDICTED BY IDOCK:   -7.49 KCAL/MOL
REMARK 923 INTER-LIGAND FREE ENERGY PREDICTED BY IDOCK:   -6.81 KCAL/MOL
REMARK 924 INTRA-LIGAND FREE ENERGY PREDICTED BY IDOCK:   -0.69 KCAL/MOL
REMARK 927      BINDING AFFINITY PREDICTED BY RF-SCORE:    0.00 PKD
ROOT
HETATM    1  C   UNL     1     -10.233   4.979  70.069  1.00  0.00    -0.339 C  
HETATM    2  C   UNL     1     -11.102   6.192  69.751  1.00  0.00    -0.486 C  
ENDROOT
BRANCH   2   3
HETATM    3  C   UNL     1     -10.675   6.942  68.506  1.00  0.00    -0.252 C  
HETATM    4  C   UNL     1     -10.933   6.460  67.278  1.00  0.00    -0.474 C  
BRANCH   3   5
HETATM    5  C   UNL     1      -9.866   8.191  68.746  1.00  0.00    -0.176 C  
HETATM    6  O   UNL     1      -8.723   8.099  69.179  1.00  0.00    -0.138 OA 
BRANCH   5   7
HETATM    7  C   UNL     1     -10.465   9.548  68.559  1.00  0.00    -0.247 A  
HETATM    8  C   UNL     1     -11.084  10.244  69.616  1.00  0.00    -0.274 A  
HETATM    9 CL   UNL     1     -11.038   9.609  71.240  1.00  0.00    -0.435 Cl 
HETATM   10  C   UNL     1     -11.711  11.494  69.374  1.00  0.00    -0.346 A  
HETATM   11 CL   UNL     1     -12.362  12.389  70.716  1.00  0.00    -0.444 Cl 
HETATM   12  C   UNL     1     -11.735  12.028  68.071  1.00  0.00    -0.331 A  
HETATM   13  C   UNL     1     -10.477  10.107  67.274  1.00  0.00    -0.313 A  
HETATM   14  C   UNL     1     -11.082  11.342  67.043  1.00  0.00    -0.364 A  
BRANCH  12  15
HETATM   15  O   UNL     1     -12.282  13.216  67.647  1.00  0.00    -0.279 OA 
BRANCH  15  16
HETATM   16  C   UNL     1     -11.443  14.088  66.879  1.00  0.00    -0.356 C  
HETATM   17  C   UNL     1     -12.045  14.340  65.506  1.00  0.00    -0.394 C  
HETATM   18  O   UNL     1     -11.517  15.024  64.640  1.00  0.00    -0.404 OA 
HETATM   19  O   UNL     1     -13.247  13.734  65.324  1.00  0.00    -0.755 OA 
ENDBRANCH  15  16
ENDBRANCH  12  15
ENDBRANCH   5   7
ENDBRANCH   3   5
ENDBRANCH   2   3
TORSDOF 5
ENDMDL
MODEL       28
REMARK 921   NORMALIZED FREE ENERGY PREDICTED BY IDOCK:   -5.24 KCAL/MOL
REMARK 922        TOTAL FREE ENERGY PREDICTED BY IDOCK:   -7.47 KCAL/MOL
REMARK 923 INTER-LIGAND FREE ENERGY PREDICTED BY IDOCK:   -6.79 KCAL/MOL
REMARK 924 INTRA-LIGAND FREE ENERGY PREDICTED BY IDOCK:   -0.68 KCAL/MOL
REMARK 927      BINDING AFFINITY PREDICTED BY RF-SCORE:    0.00 PKD
ROOT
HETATM    1  C   UNL     1      -6.125  21.099  67.015  1.00  0.00    -0.392 C  
HETATM    2  C   UNL     1      -7.565  20.613  67.141  1.00  0.00    -0.364 C  
ENDROOT
BRANCH   2   3
HETATM    3  C   UNL     1      -7.838  19.825  68.406  1.00  0.00    -0.329 C  
HETATM    4  C   UNL     1      -6.873  19.616  69.319  1.00  0.00    -0.390 C  
BRANCH   3   5
HETATM    5  C   UNL     1      -9.214  19.221  68.511  1.00  0.00    -0.382 C  
HETATM    6  O   UNL     1     -10.081  19.797  69.158  1.00  0.00    -0.438 OA 
BRANCH   5   7
HETATM    7  C   UNL     1      -9.517  17.881  67.922  1.00  0.00    -0.272 A  
HETATM    8  C   UNL     1     -10.198  17.740  66.697  1.00  0.00    -0.361 A  
HETATM    9 CL   UNL     1     -10.581  19.141  65.731  1.00  0.00    -0.508 Cl 
HETATM   10  C   UNL     1     -10.538  16.448  66.216  1.00  0.00    -0.242 A  
HETATM   11 CL   UNL     1     -11.270  16.294  64.645  1.00  0.00    -0.385 Cl 
HETATM   12  C   UNL     1     -10.214  15.308  66.976  1.00  0.00    -0.260 A  
HETATM   13  C   UNL     1      -9.182  16.732  68.653  1.00  0.00    -0.257 A  
HETATM   14  C   UNL     1      -9.504  15.464  68.170  1.00  0.00    -0.202 A  
BRANCH  12  15
HETATM   15  O   UNL     1     -10.452  13.987  66.674  1.00  0.00    -0.268 OA 
BRANCH  15  16
HETATM   16  C   UNL     1     -10.629  13.085  67.773  1.00  0.00    -0.226 C  
HETATM   17  C   UNL     1     -11.620  11.989  67.413  1.00  0.00    -0.318 C  
HETATM   18  O   UNL     1     -11.976  11.106  68.181  1.00  0.00    -0.615 OA 
HETATM   19  O   UNL     1     -12.078  12.073  66.137  1.00  0.00    -0.582 OA 
ENDBRANCH  15  16
ENDBRANCH  12  15
ENDBRANCH   5   7
ENDBRANCH   3   5
ENDBRANCH   2   3
TORSDOF 5
ENDMDL
MODEL       29
REMARK 921   NORMALIZED FREE ENERGY PREDICTED BY IDOCK:   -5.23 KCAL/MOL
REMARK 922        TOTAL FREE ENERGY PREDICTED BY IDOCK:   -7.46 KCAL/MOL
REMARK 923 INTER-LIGAND FREE ENERGY PREDICTED BY IDOCK:   -6.86 KCAL/MOL
REMARK 924 INTRA-LIGAND FREE ENERGY PREDICTED BY IDOCK:   -0.60 KCAL/MOL
REMARK 927      BINDING AFFINITY PREDICTED BY RF-SCORE:    0.00 PKD
ROOT
HETATM    1  C   UNL     1      -6.897  17.004  66.547  1.00  0.00    -0.281 C  
HETATM    2  C   UNL     1      -8.211  16.231  66.499  1.00  0.00    -0.344 C  
ENDROOT
BRANCH   2   3
HETATM    3  C   UNL     1      -9.398  17.065  66.061  1.00  0.00    -0.187 C  
HETATM    4  C   UNL     1      -9.414  18.398  66.232  1.00  0.00    -0.246 C  
BRANCH   3   5
HETATM    5  C   UNL     1     -10.574  16.291  65.525  1.00  0.00    -0.353 C  
HETATM    6  O   UNL     1     -11.197  16.723  64.562  1.00  0.00    -0.997 OA 
BRANCH   5   7
HETATM    7  C   UNL     1     -11.059  15.051  66.206  1.00  0.00    -0.334 A  
HETATM    8  C   UNL     1     -11.436  15.042  67.563  1.00  0.00    -0.328 A  
HETATM    9 CL   UNL     1     -11.501  16.529  68.473  1.00  0.00    -0.243 Cl 
HETATM   10  C   UNL     1     -11.812  13.826  68.190  1.00  0.00    -0.376 A  
HETATM   11 CL   UNL     1     -12.389  13.860  69.831  1.00  0.00    -0.381 Cl 
HETATM   12  C   UNL     1     -11.785  12.622  67.460  1.00  0.00    -0.368 A  
HETATM   13  C   UNL     1     -11.062  13.846  65.489  1.00  0.00    -0.304 A  
HETATM   14  C   UNL     1     -11.446  12.655  66.104  1.00  0.00    -0.413 A  
BRANCH  12  15
HETATM   15  O   UNL     1     -12.118  11.358  67.888  1.00  0.00    -0.646 OA 
BRANCH  15  16
HETATM   16  C   UNL     1     -11.046  10.500  68.296  1.00  0.00    -0.284 C  
HETATM   17  C   UNL     1     -11.240  10.047  69.735  1.00  0.00    -0.258 C  
HETATM   18  O   UNL     1     -10.453   9.332  70.342  1.00  0.00    -0.211 OA 
HETATM   19  O   UNL     1     -12.389  10.506  70.296  1.00  0.00    -0.303 OA 
ENDBRANCH  15  16
ENDBRANCH  12  15
ENDBRANCH   5   7
ENDBRANCH   3   5
ENDBRANCH   2   3
TORSDOF 5
ENDMDL
MODEL       30
REMARK 921   NORMALIZED FREE ENERGY PREDICTED BY IDOCK:   -5.22 KCAL/MOL
REMARK 922        TOTAL FREE ENERGY PREDICTED BY IDOCK:   -7.45 KCAL/MOL
REMARK 923 INTER-LIGAND FREE ENERGY PREDICTED BY IDOCK:   -7.01 KCAL/MOL
REMARK 924 INTRA-LIGAND FREE ENERGY PREDICTED BY IDOCK:   -0.45 KCAL/MOL
REMARK 927      BINDING AFFINITY PREDICTED BY RF-SCORE:    0.00 PKD
ROOT
HETATM    1  C   UNL     1     -11.601   6.231  72.123  1.00  0.00    -0.367 C  
HETATM    2  C   UNL     1     -12.318   6.988  71.009  1.00  0.00    -0.402 C  
ENDROOT
BRANCH   2   3
HETATM    3  C   UNL     1     -12.487   8.468  71.284  1.00  0.00    -0.275 C  
HETATM    4  C   UNL     1     -13.667   8.972  71.684  1.00  0.00    -0.442 C  
BRANCH   3   5
HETATM    5  C   UNL     1     -11.287   9.326  70.981  1.00  0.00    -0.320 C  
HETATM    6  O   UNL     1     -10.399   9.445  71.818  1.00  0.00    -0.260 OA 
BRANCH   5   7
HETATM    7  C   UNL     1     -11.201  10.117  69.715  1.00  0.00    -0.325 A  
HETATM    8  C   UNL     1     -11.685  11.437  69.624  1.00  0.00    -0.345 A  
HETATM    9 CL   UNL     1     -12.269  12.265  71.044  1.00  0.00    -0.329 Cl 
HETATM   10  C   UNL     1     -11.657  12.121  68.381  1.00  0.00    -0.327 A  
HETATM   11 CL   UNL     1     -12.148  13.790  68.321  1.00  0.00    -0.378 Cl 
HETATM   12  C   UNL     1     -11.167  11.472  67.232  1.00  0.00    -0.301 A  
HETATM   13  C   UNL     1     -10.694   9.496  68.566  1.00  0.00    -0.222 A  
HETATM   14  C   UNL     1     -10.655  10.176  67.349  1.00  0.00    -0.329 A  
BRANCH  12  15
HETATM   15  O   UNL     1     -11.055  11.968  65.954  1.00  0.00    -0.301 OA 
BRANCH  15  16
HETATM   16  C   UNL     1     -12.213  12.599  65.392  1.00  0.00    -0.459 C  
HETATM   17  C   UNL     1     -11.953  13.006  63.950  1.00  0.00    -0.485 C  
HETATM   18  O   UNL     1     -12.765  13.591  63.245  1.00  0.00    -0.726 OA 
HETATM   19  O   UNL     1     -10.722  12.650  63.500  1.00  0.00    -0.417 OA 
ENDBRANCH  15  16
ENDBRANCH  12  15
ENDBRANCH   5   7
ENDBRANCH   3   5
ENDBRANCH   2   3
TORSDOF 5
ENDMDL
MODEL       31
REMARK 921   NORMALIZED FREE ENERGY PREDICTED BY IDOCK:   -5.22 KCAL/MOL
REMARK 922        TOTAL FREE ENERGY PREDICTED BY IDOCK:   -7.45 KCAL/MOL
REMARK 923 INTER-LIGAND FREE ENERGY PREDICTED BY IDOCK:   -6.74 KCAL/MOL
REMARK 924 INTRA-LIGAND FREE ENERGY PREDICTED BY IDOCK:   -0.71 KCAL/MOL
REMARK 927      BINDING AFFINITY PREDICTED BY RF-SCORE:    0.00 PKD
ROOT
HETATM    1  C   UNL     1     -13.156  10.690  71.763  1.00  0.00    -0.571 C  
HETATM    2  C   UNL     1     -12.463  11.751  70.912  1.00  0.00    -0.416 C  
ENDROOT
BRANCH   2   3
HETATM    3  C   UNL     1     -11.603  11.181  69.802  1.00  0.00    -0.409 C  
HETATM    4  C   UNL     1     -10.785  10.137  70.020  1.00  0.00    -0.356 C  
BRANCH   3   5
HETATM    5  C   UNL     1     -11.658  11.922  68.493  1.00  0.00    -0.318 C  
HETATM    6  O   UNL     1     -12.128  11.372  67.503  1.00  0.00    -0.592 OA 
BRANCH   5   7
HETATM    7  C   UNL     1     -11.061  13.285  68.350  1.00  0.00    -0.299 A  
HETATM    8  C   UNL     1      -9.678  13.480  68.167  1.00  0.00    -0.233 A  
HETATM    9 CL   UNL     1      -8.615  12.116  67.941  1.00  0.00    -0.158 Cl 
HETATM   10  C   UNL     1      -9.144  14.795  68.118  1.00  0.00    -0.180 A  
HETATM   11 CL   UNL     1      -7.453  15.011  67.771  1.00  0.00    -0.155 Cl 
HETATM   12  C   UNL     1      -9.996  15.905  68.277  1.00  0.00    -0.222 A  
HETATM   13  C   UNL     1     -11.896  14.404  68.480  1.00  0.00    -0.369 A  
HETATM   14  C   UNL     1     -11.371  15.694  68.418  1.00  0.00    -0.365 A  
BRANCH  12  15
HETATM   15  O   UNL     1      -9.668  17.241  68.252  1.00  0.00    -0.271 OA 
BRANCH  15  16
HETATM   16  C   UNL     1     -10.635  18.143  67.699  1.00  0.00    -0.406 C  
HETATM   17  C   UNL     1     -10.099  18.792  66.433  1.00  0.00    -0.404 C  
HETATM   18  O   UNL     1     -10.710  19.627  65.778  1.00  0.00    -0.516 OA 
HETATM   19  O   UNL     1      -8.864  18.351  66.080  1.00  0.00    -0.498 OA 
ENDBRANCH  15  16
ENDBRANCH  12  15
ENDBRANCH   5   7
ENDBRANCH   3   5
ENDBRANCH   2   3
TORSDOF 5
ENDMDL
MODEL       32
REMARK 921   NORMALIZED FREE ENERGY PREDICTED BY IDOCK:   -5.18 KCAL/MOL
REMARK 922        TOTAL FREE ENERGY PREDICTED BY IDOCK:   -7.40 KCAL/MOL
REMARK 923 INTER-LIGAND FREE ENERGY PREDICTED BY IDOCK:   -6.72 KCAL/MOL
REMARK 924 INTRA-LIGAND FREE ENERGY PREDICTED BY IDOCK:   -0.68 KCAL/MOL
REMARK 927      BINDING AFFINITY PREDICTED BY RF-SCORE:    0.00 PKD
ROOT
HETATM    1  C   UNL     1     -10.044  19.711  68.799  1.00  0.00    -0.532 C  
HETATM    2  C   UNL     1     -10.107  18.250  68.363  1.00  0.00    -0.412 C  
ENDROOT
BRANCH   2   3
HETATM    3  C   UNL     1      -9.980  18.051  66.867  1.00  0.00    -0.340 C  
HETATM    4  C   UNL     1     -10.484  18.946  65.999  1.00  0.00    -0.507 C  
BRANCH   3   5
HETATM    5  C   UNL     1      -9.351  16.752  66.435  1.00  0.00    -0.278 C  
HETATM    6  O   UNL     1      -8.318  16.769  65.774  1.00  0.00    -0.434 OA 
BRANCH   5   7
HETATM    7  C   UNL     1     -10.013  15.442  66.714  1.00  0.00    -0.256 A  
HETATM    8  C   UNL     1     -11.053  14.943  65.904  1.00  0.00    -0.338 A  
HETATM    9 CL   UNL     1     -11.507  15.770  64.437  1.00  0.00    -0.356 Cl 
HETATM   10  C   UNL     1     -11.709  13.733  66.253  1.00  0.00    -0.376 A  
HETATM   11 CL   UNL     1     -12.905  13.076  65.174  1.00  0.00    -0.469 Cl 
HETATM   12  C   UNL     1     -11.336  13.044  67.423  1.00  0.00    -0.305 A  
HETATM   13  C   UNL     1      -9.640  14.728  67.861  1.00  0.00    -0.210 A  
HETATM   14  C   UNL     1     -10.277  13.533  68.193  1.00  0.00    -0.249 A  
BRANCH  12  15
HETATM   15  O   UNL     1     -11.845  11.865  67.917  1.00  0.00    -0.492 OA 
BRANCH  15  16
HETATM   16  C   UNL     1     -11.967  11.749  69.340  1.00  0.00    -0.298 C  
HETATM   17  C   UNL     1     -11.289  10.480  69.834  1.00  0.00    -0.309 C  
HETATM   18  O   UNL     1     -11.272  10.123  71.004  1.00  0.00    -0.339 OA 
HETATM   19  O   UNL     1     -10.686   9.770  68.846  1.00  0.00    -0.216 OA 
ENDBRANCH  15  16
ENDBRANCH  12  15
ENDBRANCH   5   7
ENDBRANCH   3   5
ENDBRANCH   2   3
TORSDOF 5
ENDMDL
MODEL       33
REMARK 921   NORMALIZED FREE ENERGY PREDICTED BY IDOCK:   -5.17 KCAL/MOL
REMARK 922        TOTAL FREE ENERGY PREDICTED BY IDOCK:   -7.38 KCAL/MOL
REMARK 923 INTER-LIGAND FREE ENERGY PREDICTED BY IDOCK:   -7.13 KCAL/MOL
REMARK 924 INTRA-LIGAND FREE ENERGY PREDICTED BY IDOCK:   -0.26 KCAL/MOL
REMARK 927      BINDING AFFINITY PREDICTED BY RF-SCORE:    0.00 PKD
ROOT
HETATM    1  C   UNL     1     -11.692   6.793  70.505  1.00  0.00    -0.430 C  
HETATM    2  C   UNL     1     -12.226   7.820  71.498  1.00  0.00    -0.344 C  
ENDROOT
BRANCH   2   3
HETATM    3  C   UNL     1     -11.568   9.180  71.389  1.00  0.00    -0.411 C  
HETATM    4  C   UNL     1     -10.230   9.311  71.421  1.00  0.00    -0.371 C  
BRANCH   3   5
HETATM    5  C   UNL     1     -12.508  10.356  71.347  1.00  0.00    -0.415 C  
HETATM    6  O   UNL     1     -13.518  10.350  72.042  1.00  0.00    -0.389 OA 
BRANCH   5   7
HETATM    7  C   UNL     1     -12.285  11.490  70.399  1.00  0.00    -0.442 A  
HETATM    8  C   UNL     1     -12.517  12.830  70.770  1.00  0.00    -0.271 A  
HETATM    9 CL   UNL     1     -12.927  13.234  72.416  1.00  0.00    -0.393 Cl 
HETATM   10  C   UNL     1     -12.371  13.869  69.814  1.00  0.00    -0.275 A  
HETATM   11 CL   UNL     1     -12.545  15.523  70.326  1.00  0.00    -0.412 Cl 
HETATM   12  C   UNL     1     -12.018  13.557  68.487  1.00  0.00    -0.344 A  
HETATM   13  C   UNL     1     -11.910  11.203  69.080  1.00  0.00    -0.418 A  
HETATM   14  C   UNL     1     -11.754  12.227  68.146  1.00  0.00    -0.408 A  
BRANCH  12  15
HETATM   15  O   UNL     1     -11.824  14.418  67.432  1.00  0.00    -0.382 OA 
BRANCH  15  16
HETATM   16  C   UNL     1     -10.577  15.121  67.379  1.00  0.00    -0.271 C  
HETATM   17  C   UNL     1     -10.299  15.615  65.967  1.00  0.00    -0.335 C  
HETATM   18  O   UNL     1      -9.287  16.218  65.638  1.00  0.00    -0.457 OA 
HETATM   19  O   UNL     1     -11.296  15.330  65.090  1.00  0.00    -0.357 OA 
ENDBRANCH  15  16
ENDBRANCH  12  15
ENDBRANCH   5   7
ENDBRANCH   3   5
ENDBRANCH   2   3
TORSDOF 5
ENDMDL
MODEL       34
REMARK 921   NORMALIZED FREE ENERGY PREDICTED BY IDOCK:   -5.09 KCAL/MOL
REMARK 922        TOTAL FREE ENERGY PREDICTED BY IDOCK:   -7.28 KCAL/MOL
REMARK 923 INTER-LIGAND FREE ENERGY PREDICTED BY IDOCK:   -6.54 KCAL/MOL
REMARK 924 INTRA-LIGAND FREE ENERGY PREDICTED BY IDOCK:   -0.74 KCAL/MOL
REMARK 927      BINDING AFFINITY PREDICTED BY RF-SCORE:    0.00 PKD
ROOT
HETATM    1  C   UNL     1      -6.231  16.754  67.052  1.00  0.00    -0.221 C  
HETATM    2  C   UNL     1      -7.413  17.223  66.209  1.00  0.00    -0.354 C  
ENDROOT
BRANCH   2   3
HETATM    3  C   UNL     1      -8.378  18.122  66.955  1.00  0.00    -0.258 C  
HETATM    4  C   UNL     1      -7.961  18.914  67.958  1.00  0.00    -0.315 C  
BRANCH   3   5
HETATM    5  C   UNL     1      -9.826  17.986  66.563  1.00  0.00    -0.353 C  
HETATM    6  O   UNL     1     -10.477  18.989  66.290  1.00  0.00    -0.421 OA 
BRANCH   5   7
HETATM    7  C   UNL     1     -10.515  16.660  66.594  1.00  0.00    -0.258 A  
HETATM    8  C   UNL     1     -10.888  16.040  67.802  1.00  0.00    -0.324 A  
HETATM    9 CL   UNL     1     -10.699  16.876  69.321  1.00  0.00    -0.325 Cl 
HETATM   10  C   UNL     1     -11.466  14.743  67.788  1.00  0.00    -0.345 A  
HETATM   11 CL   UNL     1     -12.029  14.049  69.281  1.00  0.00    -0.377 Cl 
HETATM   12  C   UNL     1     -11.645  14.067  66.566  1.00  0.00    -0.374 A  
HETATM   13  C   UNL     1     -10.724  15.981  65.385  1.00  0.00    -0.399 A  
HETATM   14  C   UNL     1     -11.305  14.713  65.374  1.00  0.00    -0.344 A  
BRANCH  12  15
HETATM   15  O   UNL     1     -12.189  12.821  66.352  1.00  0.00    -0.507 OA 
BRANCH  15  16
HETATM   16  C   UNL     1     -11.281  11.748  66.076  1.00  0.00    -0.296 C  
HETATM   17  C   UNL     1     -11.282  10.739  67.214  1.00  0.00    -0.197 C  
HETATM   18  O   UNL     1     -10.574   9.741  67.247  1.00  0.00    -0.258 OA 
HETATM   19  O   UNL     1     -12.160  11.042  68.204  1.00  0.00    -0.610 OA 
ENDBRANCH  15  16
ENDBRANCH  12  15
ENDBRANCH   5   7
ENDBRANCH   3   5
ENDBRANCH   2   3
TORSDOF 5
ENDMDL
MODEL       35
REMARK 921   NORMALIZED FREE ENERGY PREDICTED BY IDOCK:   -5.02 KCAL/MOL
REMARK 922        TOTAL FREE ENERGY PREDICTED BY IDOCK:   -7.20 KCAL/MOL
REMARK 923 INTER-LIGAND FREE ENERGY PREDICTED BY IDOCK:   -6.42 KCAL/MOL
REMARK 924 INTRA-LIGAND FREE ENERGY PREDICTED BY IDOCK:   -0.78 KCAL/MOL
REMARK 927      BINDING AFFINITY PREDICTED BY RF-SCORE:    0.00 PKD
ROOT
HETATM    1  C   UNL     1     -12.400  13.569  63.675  1.00  0.00    -0.377 C  
HETATM    2  C   UNL     1     -12.071  12.596  64.802  1.00  0.00    -0.495 C  
ENDROOT
BRANCH   2   3
HETATM    3  C   UNL     1     -10.630  12.128  64.806  1.00  0.00    -0.335 C  
HETATM    4  C   UNL     1     -10.173  11.267  63.879  1.00  0.00    -0.420 C  
BRANCH   3   5
HETATM    5  C   UNL     1      -9.794  12.608  65.963  1.00  0.00    -0.254 C  
HETATM    6  O   UNL     1      -8.962  11.859  66.462  1.00  0.00    -0.200 OA 
BRANCH   5   7
HETATM    7  C   UNL     1     -10.025  13.950  66.580  1.00  0.00    -0.288 A  
HETATM    8  C   UNL     1     -10.858  14.123  67.703  1.00  0.00    -0.260 A  
HETATM    9 CL   UNL     1     -11.535  12.740  68.523  1.00  0.00    -0.320 Cl 
HETATM   10  C   UNL     1     -11.115  15.425  68.206  1.00  0.00    -0.309 A  
HETATM   11 CL   UNL     1     -12.047  15.602  69.664  1.00  0.00    -0.371 Cl 
HETATM   12  C   UNL     1     -10.555  16.548  67.566  1.00  0.00    -0.313 A  
HETATM   13  C   UNL     1      -9.457  15.078  65.972  1.00  0.00    -0.337 A  
HETATM   14  C   UNL     1      -9.700  16.355  66.477  1.00  0.00    -0.287 A  
BRANCH  12  15
HETATM   15  O   UNL     1     -10.682  17.874  67.907  1.00  0.00    -0.392 OA 
BRANCH  15  16
HETATM   16  C   UNL     1      -9.476  18.599  68.183  1.00  0.00    -0.325 C  
HETATM   17  C   UNL     1      -9.386  19.841  67.309  1.00  0.00    -0.346 C  
HETATM   18  O   UNL     1      -8.443  20.620  67.320  1.00  0.00    -0.336 OA 
HETATM   19  O   UNL     1     -10.468  20.017  66.507  1.00  0.00    -0.449 OA 
ENDBRANCH  15  16
ENDBRANCH  12  15
ENDBRANCH   5   7
ENDBRANCH   3   5
ENDBRANCH   2   3
TORSDOF 5
ENDMDL
MODEL       36
REMARK 921   NORMALIZED FREE ENERGY PREDICTED BY IDOCK:   -5.00 KCAL/MOL
REMARK 922        TOTAL FREE ENERGY PREDICTED BY IDOCK:   -7.17 KCAL/MOL
REMARK 923 INTER-LIGAND FREE ENERGY PREDICTED BY IDOCK:   -6.65 KCAL/MOL
REMARK 924 INTRA-LIGAND FREE ENERGY PREDICTED BY IDOCK:   -0.51 KCAL/MOL
REMARK 927      BINDING AFFINITY PREDICTED BY RF-SCORE:    0.00 PKD
ROOT
HETATM    1  C   UNL     1     -13.368  12.168  72.083  1.00  0.00    -0.438 C  
HETATM    2  C   UNL     1     -13.294  13.572  72.675  1.00  0.00    -0.546 C  
ENDROOT
BRANCH   2   3
HETATM    3  C   UNL     1     -13.046  14.658  71.647  1.00  0.00    -0.423 C  
HETATM    4  C   UNL     1     -13.998  15.556  71.339  1.00  0.00    -0.476 C  
BRANCH   3   5
HETATM    5  C   UNL     1     -11.718  14.592  70.939  1.00  0.00    -0.280 C  
HETATM    6  O   UNL     1     -10.718  15.049  71.483  1.00  0.00     0.008 OA 
BRANCH   5   7
HETATM    7  C   UNL     1     -11.611  14.069  69.543  1.00  0.00    -0.350 A  
HETATM    8  C   UNL     1     -11.434  14.922  68.437  1.00  0.00    -0.318 A  
HETATM    9 CL   UNL     1     -11.174  16.631  68.670  1.00  0.00    -0.297 Cl 
HETATM   10  C   UNL     1     -11.419  14.389  67.121  1.00  0.00    -0.362 A  
HETATM   11 CL   UNL     1     -11.079  15.445  65.781  1.00  0.00    -0.300 Cl 
HETATM   12  C   UNL     1     -11.606  13.007  66.921  1.00  0.00    -0.366 A  
HETATM   13  C   UNL     1     -11.770  12.693  69.326  1.00  0.00    -0.379 A  
HETATM   14  C   UNL     1     -11.741  12.170  68.033  1.00  0.00    -0.409 A  
BRANCH  12  15
HETATM   15  O   UNL     1     -11.616  12.311  65.735  1.00  0.00    -0.363 OA 
BRANCH  15  16
HETATM   16  C   UNL     1     -10.378  11.732  65.304  1.00  0.00    -0.274 C  
HETATM   17  C   UNL     1     -10.259  11.788  63.789  1.00  0.00    -0.399 C  
HETATM   18  O   UNL     1      -9.314  11.334  63.157  1.00  0.00    -0.296 OA 
HETATM   19  O   UNL     1     -11.309  12.405  63.187  1.00  0.00    -0.386 OA 
ENDBRANCH  15  16
ENDBRANCH  12  15
ENDBRANCH   5   7
ENDBRANCH   3   5
ENDBRANCH   2   3
TORSDOF 5
ENDMDL
MODEL       37
REMARK 921   NORMALIZED FREE ENERGY PREDICTED BY IDOCK:   -4.99 KCAL/MOL
REMARK 922        TOTAL FREE ENERGY PREDICTED BY IDOCK:   -7.16 KCAL/MOL
REMARK 923 INTER-LIGAND FREE ENERGY PREDICTED BY IDOCK:   -6.51 KCAL/MOL
REMARK 924 INTRA-LIGAND FREE ENERGY PREDICTED BY IDOCK:   -0.65 KCAL/MOL
REMARK 927      BINDING AFFINITY PREDICTED BY RF-SCORE:    0.00 PKD
ROOT
HETATM    1  C   UNL     1     -10.560  16.805  69.560  1.00  0.00    -0.283 C  
HETATM    2  C   UNL     1     -10.570  15.789  70.699  1.00  0.00    -0.089 C  
ENDROOT
BRANCH   2   3
HETATM    3  C   UNL     1     -11.861  15.767  71.490  1.00  0.00    -0.514 C  
HETATM    4  C   UNL     1     -11.982  16.442  72.647  1.00  0.00    -0.595 C  
BRANCH   3   5
HETATM    5  C   UNL     1     -12.941  14.868  70.947  1.00  0.00    -0.380 C  
HETATM    6  O   UNL     1     -14.010  15.351  70.591  1.00  0.00    -0.269 OA 
BRANCH   5   7
HETATM    7  C   UNL     1     -12.772  13.383  70.923  1.00  0.00    -0.349 A  
HETATM    8  C   UNL     1     -12.248  12.709  69.803  1.00  0.00    -0.143 A  
HETATM    9 CL   UNL     1     -11.622  13.604  68.444  1.00  0.00    -0.354 Cl 
HETATM   10  C   UNL     1     -12.182  11.291  69.793  1.00  0.00    -0.275 A  
HETATM   11 CL   UNL     1     -11.420  10.487  68.450  1.00  0.00    -0.331 Cl 
HETATM   12  C   UNL     1     -12.663  10.557  70.894  1.00  0.00    -0.402 A  
HETATM   13  C   UNL     1     -13.224  12.636  72.020  1.00  0.00    -0.531 A  
HETATM   14  C   UNL     1     -13.144  11.244  72.012  1.00  0.00    -0.431 A  
BRANCH  12  15
HETATM   15  O   UNL     1     -12.676   9.192  71.069  1.00  0.00    -0.252 OA 
BRANCH  15  16
HETATM   16  C   UNL     1     -12.535   8.701  72.408  1.00  0.00    -0.362 C  
HETATM   17  C   UNL     1     -11.195   8.003  72.583  1.00  0.00    -0.397 C  
HETATM   18  O   UNL     1     -10.832   7.466  73.621  1.00  0.00    -0.346 OA 
HETATM   19  O   UNL     1     -10.418   8.036  71.470  1.00  0.00    -0.209 OA 
ENDBRANCH  15  16
ENDBRANCH  12  15
ENDBRANCH   5   7
ENDBRANCH   3   5
ENDBRANCH   2   3
TORSDOF 5
ENDMDL
MODEL       38
REMARK 921   NORMALIZED FREE ENERGY PREDICTED BY IDOCK:   -4.98 KCAL/MOL
REMARK 922        TOTAL FREE ENERGY PREDICTED BY IDOCK:   -7.14 KCAL/MOL
REMARK 923 INTER-LIGAND FREE ENERGY PREDICTED BY IDOCK:   -6.35 KCAL/MOL
REMARK 924 INTRA-LIGAND FREE ENERGY PREDICTED BY IDOCK:   -0.80 KCAL/MOL
REMARK 927      BINDING AFFINITY PREDICTED BY RF-SCORE:    0.00 PKD
ROOT
HETATM    1  C   UNL     1     -12.592  11.604  63.442  1.00  0.00    -0.305 C  
HETATM    2  C   UNL     1     -11.587  12.700  63.784  1.00  0.00    -0.550 C  
ENDROOT
BRANCH   2   3
HETATM    3  C   UNL     1     -11.740  13.255  65.185  1.00  0.00    -0.358 C  
HETATM    4  C   UNL     1     -12.773  14.052  65.512  1.00  0.00    -0.517 C  
BRANCH   3   5
HETATM    5  C   UNL     1     -10.615  12.938  66.136  1.00  0.00    -0.271 C  
HETATM    6  O   UNL     1      -9.521  13.467  65.978  1.00  0.00    -0.207 OA 
BRANCH   5   7
HETATM    7  C   UNL     1     -10.779  11.915  67.214  1.00  0.00    -0.276 A  
HETATM    8  C   UNL     1     -10.598  10.539  66.971  1.00  0.00    -0.253 A  
HETATM    9 CL   UNL     1     -10.017   9.982  65.424  1.00  0.00    -0.378 Cl 
HETATM   10  C   UNL     1     -10.843   9.596  68.004  1.00  0.00    -0.196 A  
HETATM   11 CL   UNL     1     -10.497   7.915  67.716  1.00  0.00    -0.286 Cl 
HETATM   12  C   UNL     1     -11.291  10.035  69.264  1.00  0.00    -0.117 A  
HETATM   13  C   UNL     1     -11.201  12.335  68.483  1.00  0.00    -0.316 A  
HETATM   14  C   UNL     1     -11.427  11.407  69.499  1.00  0.00    -0.381 A  
BRANCH  12  15
HETATM   15  O   UNL     1     -11.572   9.281  70.380  1.00  0.00    -0.254 OA 
BRANCH  15  16
HETATM   16  C   UNL     1     -12.407   9.876  71.381  1.00  0.00    -0.404 C  
HETATM   17  C   UNL     1     -13.471   8.893  71.844  1.00  0.00    -0.414 C  
HETATM   18  O   UNL     1     -14.334   9.156  72.671  1.00  0.00    -0.561 OA 
HETATM   19  O   UNL     1     -13.373   7.673  71.256  1.00  0.00    -0.302 OA 
ENDBRANCH  15  16
ENDBRANCH  12  15
ENDBRANCH   5   7
ENDBRANCH   3   5
ENDBRANCH   2   3
TORSDOF 5
ENDMDL
MODEL       39
REMARK 921   NORMALIZED FREE ENERGY PREDICTED BY IDOCK:   -4.98 KCAL/MOL
REMARK 922        TOTAL FREE ENERGY PREDICTED BY IDOCK:   -7.14 KCAL/MOL
REMARK 923 INTER-LIGAND FREE ENERGY PREDICTED BY IDOCK:   -6.45 KCAL/MOL
REMARK 924 INTRA-LIGAND FREE ENERGY PREDICTED BY IDOCK:   -0.69 KCAL/MOL
REMARK 927      BINDING AFFINITY PREDICTED BY RF-SCORE:    0.00 PKD
ROOT
HETATM    1  C   UNL     1      -9.460  15.641  65.815  1.00  0.00    -0.338 C  
HETATM    2  C   UNL     1     -10.859  15.299  65.312  1.00  0.00    -0.417 C  
ENDROOT
BRANCH   2   3
HETATM    3  C   UNL     1     -11.659  14.436  66.266  1.00  0.00    -0.377 C  
HETATM    4  C   UNL     1     -11.881  14.820  67.535  1.00  0.00    -0.326 C  
BRANCH   3   5
HETATM    5  C   UNL     1     -12.089  13.097  65.726  1.00  0.00    -0.447 C  
HETATM    6  O   UNL     1     -13.120  13.012  65.068  1.00  0.00    -0.761 OA 
BRANCH   5   7
HETATM    7  C   UNL     1     -11.335  11.850  66.057  1.00  0.00    -0.375 A  
HETATM    8  C   UNL     1     -10.538  11.183  65.106  1.00  0.00    -0.253 A  
HETATM    9 CL   UNL     1     -10.273  11.880  63.530  1.00  0.00    -0.445 Cl 
HETATM   10  C   UNL     1      -9.905   9.958  65.441  1.00  0.00    -0.313 A  
HETATM   11 CL   UNL     1      -8.830   9.216  64.291  1.00  0.00    -0.185 Cl 
HETATM   12  C   UNL     1     -10.093   9.396  66.718  1.00  0.00    -0.256 A  
HETATM   13  C   UNL     1     -11.490  11.288  67.332  1.00  0.00    -0.300 A  
HETATM   14  C   UNL     1     -10.855  10.091  67.663  1.00  0.00    -0.336 A  
BRANCH  12  15
HETATM   15  O   UNL     1      -9.562   8.233  67.225  1.00  0.00    -0.149 OA 
BRANCH  15  16
HETATM   16  C   UNL     1      -9.998   7.825  68.528  1.00  0.00    -0.182 C  
HETATM   17  C   UNL     1     -10.796   6.533  68.446  1.00  0.00    -0.289 C  
HETATM   18  O   UNL     1     -11.311   5.983  69.409  1.00  0.00    -0.398 OA 
HETATM   19  O   UNL     1     -10.882   6.029  67.187  1.00  0.00    -0.301 OA 
ENDBRANCH  15  16
ENDBRANCH  12  15
ENDBRANCH   5   7
ENDBRANCH   3   5
ENDBRANCH   2   3
TORSDOF 5
ENDMDL
MODEL       40
REMARK 921   NORMALIZED FREE ENERGY PREDICTED BY IDOCK:   -4.96 KCAL/MOL
REMARK 922        TOTAL FREE ENERGY PREDICTED BY IDOCK:   -7.12 KCAL/MOL
REMARK 923 INTER-LIGAND FREE ENERGY PREDICTED BY IDOCK:   -6.55 KCAL/MOL
REMARK 924 INTRA-LIGAND FREE ENERGY PREDICTED BY IDOCK:   -0.56 KCAL/MOL
REMARK 927      BINDING AFFINITY PREDICTED BY RF-SCORE:    0.00 PKD
ROOT
HETATM    1  C   UNL     1     -11.460   6.426  72.064  1.00  0.00    -0.350 C  
HETATM    2  C   UNL     1     -11.638   7.799  72.704  1.00  0.00    -0.398 C  
ENDROOT
BRANCH   2   3
HETATM    3  C   UNL     1     -11.363   8.955  71.763  1.00  0.00    -0.431 C  
HETATM    4  C   UNL     1     -10.106   9.309  71.443  1.00  0.00    -0.348 C  
BRANCH   3   5
HETATM    5  C   UNL     1     -12.575   9.723  71.306  1.00  0.00    -0.365 C  
HETATM    6  O   UNL     1     -13.658   9.156  71.226  1.00  0.00    -0.324 OA 
BRANCH   5   7
HETATM    7  C   UNL     1     -12.464  11.144  70.852  1.00  0.00    -0.509 A  
HETATM    8  C   UNL     1     -11.920  11.488  69.600  1.00  0.00    -0.339 A  
HETATM    9 CL   UNL     1     -11.493  10.248  68.450  1.00  0.00    -0.240 Cl 
HETATM   10  C   UNL     1     -11.759  12.853  69.244  1.00  0.00    -0.321 A  
HETATM   11 CL   UNL     1     -11.198  13.253  67.646  1.00  0.00    -0.292 Cl 
HETATM   12  C   UNL     1     -12.122  13.863  70.155  1.00  0.00    -0.349 A  
HETATM   13  C   UNL     1     -12.842  12.164  71.736  1.00  0.00    -0.367 A  
HETATM   14  C   UNL     1     -12.696  13.504  71.378  1.00  0.00    -0.423 A  
BRANCH  12  15
HETATM   15  O   UNL     1     -12.047  15.227  69.990  1.00  0.00    -0.314 OA 
BRANCH  15  16
HETATM   16  C   UNL     1     -10.778  15.848  70.227  1.00  0.00    -0.304 C  
HETATM   17  C   UNL     1     -10.348  16.669  69.021  1.00  0.00    -0.317 C  
HETATM   18  O   UNL     1      -9.290  17.278  68.946  1.00  0.00    -0.257 OA 
HETATM   19  O   UNL     1     -11.264  16.674  68.017  1.00  0.00    -0.306 OA 
ENDBRANCH  15  16
ENDBRANCH  12  15
ENDBRANCH   5   7
ENDBRANCH   3   5
ENDBRANCH   2   3
TORSDOF 5
ENDMDL
MODEL       41
REMARK 921   NORMALIZED FREE ENERGY PREDICTED BY IDOCK:   -4.95 KCAL/MOL
REMARK 922        TOTAL FREE ENERGY PREDICTED BY IDOCK:   -7.11 KCAL/MOL
REMARK 923 INTER-LIGAND FREE ENERGY PREDICTED BY IDOCK:   -6.49 KCAL/MOL
REMARK 924 INTRA-LIGAND FREE ENERGY PREDICTED BY IDOCK:   -0.62 KCAL/MOL
REMARK 927      BINDING AFFINITY PREDICTED BY RF-SCORE:    0.00 PKD
ROOT
HETATM    1  C   UNL     1     -11.401  15.964  68.210  1.00  0.00    -0.342 C  
HETATM    2  C   UNL     1     -10.448  15.453  67.133  1.00  0.00    -0.290 C  
ENDROOT
BRANCH   2   3
HETATM    3  C   UNL     1     -11.140  15.013  65.860  1.00  0.00    -0.334 C  
HETATM    4  C   UNL     1     -11.018  15.716  64.720  1.00  0.00    -0.418 C  
BRANCH   3   5
HETATM    5  C   UNL     1     -12.040  13.812  65.991  1.00  0.00    -0.436 C  
HETATM    6  O   UNL     1     -13.175  13.851  65.531  1.00  0.00    -0.698 OA 
BRANCH   5   7
HETATM    7  C   UNL     1     -11.609  12.603  66.757  1.00  0.00    -0.438 A  
HETATM    8  C   UNL     1     -11.026  11.486  66.126  1.00  0.00    -0.266 A  
HETATM    9 CL   UNL     1     -10.636  11.534  64.427  1.00  0.00    -0.365 Cl 
HETATM   10  C   UNL     1     -10.707  10.327  66.881  1.00  0.00    -0.184 A  
HETATM   11 CL   UNL     1      -9.878   9.010  66.103  1.00  0.00    -0.356 Cl 
HETATM   12  C   UNL     1     -10.996  10.285  68.259  1.00  0.00    -0.264 A  
HETATM   13  C   UNL     1     -11.866  12.551  68.134  1.00  0.00    -0.371 A  
HETATM   14  C   UNL     1     -11.539  11.416  68.876  1.00  0.00    -0.388 A  
BRANCH  12  15
HETATM   15  O   UNL     1     -10.757   9.264  69.149  1.00  0.00    -0.224 OA 
BRANCH  15  16
HETATM   16  C   UNL     1      -9.428   9.148  69.673  1.00  0.00    -0.172 C  
HETATM   17  C   UNL     1      -9.459   9.025  71.188  1.00  0.00    -0.278 C  
HETATM   18  O   UNL     1      -8.460   8.943  71.890  1.00  0.00    -0.348 OA 
HETATM   19  O   UNL     1     -10.715   9.003  71.704  1.00  0.00    -0.321 OA 
ENDBRANCH  15  16
ENDBRANCH  12  15
ENDBRANCH   5   7
ENDBRANCH   3   5
ENDBRANCH   2   3
TORSDOF 5
ENDMDL
MODEL       42
REMARK 921   NORMALIZED FREE ENERGY PREDICTED BY IDOCK:   -4.93 KCAL/MOL
REMARK 922        TOTAL FREE ENERGY PREDICTED BY IDOCK:   -7.07 KCAL/MOL
REMARK 923 INTER-LIGAND FREE ENERGY PREDICTED BY IDOCK:   -6.32 KCAL/MOL
REMARK 924 INTRA-LIGAND FREE ENERGY PREDICTED BY IDOCK:   -0.76 KCAL/MOL
REMARK 927      BINDING AFFINITY PREDICTED BY RF-SCORE:    0.00 PKD
ROOT
HETATM    1  C   UNL     1     -10.009  19.689  68.581  1.00  0.00    -0.553 C  
HETATM    2  C   UNL     1      -8.546  19.263  68.667  1.00  0.00    -0.401 C  
ENDROOT
BRANCH   2   3
HETATM    3  C   UNL     1      -7.713  19.690  67.475  1.00  0.00    -0.303 C  
HETATM    4  C   UNL     1      -7.141  20.905  67.424  1.00  0.00    -0.418 C  
BRANCH   3   5
HETATM    5  C   UNL     1      -7.662  18.709  66.333  1.00  0.00    -0.268 C  
HETATM    6  O   UNL     1      -7.205  19.060  65.252  1.00  0.00    -0.466 OA 
BRANCH   5   7
HETATM    7  C   UNL     1      -8.249  17.340  66.463  1.00  0.00    -0.311 A  
HETATM    8  C   UNL     1      -7.506  16.253  66.964  1.00  0.00    -0.222 A  
HETATM    9 CL   UNL     1      -5.904  16.497  67.607  1.00  0.00    -0.147 Cl 
HETATM   10  C   UNL     1      -8.077  14.953  66.992  1.00  0.00    -0.166 A  
HETATM   11 CL   UNL     1      -7.185  13.651  67.726  1.00  0.00    -0.149 Cl 
HETATM   12  C   UNL     1      -9.379  14.747  66.497  1.00  0.00    -0.290 A  
HETATM   13  C   UNL     1      -9.552  17.119  65.997  1.00  0.00    -0.190 A  
HETATM   14  C   UNL     1     -10.115  15.844  66.039  1.00  0.00    -0.359 A  
BRANCH  12  15
HETATM   15  O   UNL     1     -10.096  13.574  66.447  1.00  0.00    -0.279 OA 
BRANCH  15  16
HETATM   16  C   UNL     1     -10.784  13.277  65.226  1.00  0.00    -0.311 C  
HETATM   17  C   UNL     1     -12.226  12.883  65.506  1.00  0.00    -0.474 C  
HETATM   18  O   UNL     1     -13.026  12.550  64.642  1.00  0.00    -0.803 OA 
HETATM   19  O   UNL     1     -12.557  12.942  66.821  1.00  0.00    -0.205 OA 
ENDBRANCH  15  16
ENDBRANCH  12  15
ENDBRANCH   5   7
ENDBRANCH   3   5
ENDBRANCH   2   3
TORSDOF 5
ENDMDL
MODEL       43
REMARK 921   NORMALIZED FREE ENERGY PREDICTED BY IDOCK:   -4.91 KCAL/MOL
REMARK 922        TOTAL FREE ENERGY PREDICTED BY IDOCK:   -7.05 KCAL/MOL
REMARK 923 INTER-LIGAND FREE ENERGY PREDICTED BY IDOCK:   -6.30 KCAL/MOL
REMARK 924 INTRA-LIGAND FREE ENERGY PREDICTED BY IDOCK:   -0.75 KCAL/MOL
REMARK 927      BINDING AFFINITY PREDICTED BY RF-SCORE:    0.00 PKD
ROOT
HETATM    1  C   UNL     1      -9.516  10.033  64.617  1.00  0.00    -0.367 C  
HETATM    2  C   UNL     1      -9.353  10.825  65.911  1.00  0.00    -0.220 C  
ENDROOT
BRANCH   2   3
HETATM    3  C   UNL     1     -10.354  10.456  66.986  1.00  0.00    -0.295 C  
HETATM    4  C   UNL     1     -10.509   9.182  67.388  1.00  0.00    -0.339 C  
BRANCH   3   5
HETATM    5  C   UNL     1     -11.216  11.585  67.486  1.00  0.00    -0.298 C  
HETATM    6  O   UNL     1     -12.251  11.335  68.094  1.00  0.00    -0.622 OA 
BRANCH   5   7
HETATM    7  C   UNL     1     -10.887  13.009  67.170  1.00  0.00    -0.278 A  
HETATM    8  C   UNL     1     -11.319  13.630  65.982  1.00  0.00    -0.312 A  
HETATM    9 CL   UNL     1     -12.400  12.801  64.893  1.00  0.00    -0.519 Cl 
HETATM   10  C   UNL     1     -10.914  14.957  65.684  1.00  0.00    -0.344 A  
HETATM   11 CL   UNL     1     -11.558  15.744  64.272  1.00  0.00    -0.314 Cl 
HETATM   12  C   UNL     1     -10.059  15.645  66.566  1.00  0.00    -0.282 A  
HETATM   13  C   UNL     1     -10.056  13.719  68.048  1.00  0.00    -0.245 A  
HETATM   14  C   UNL     1      -9.672  15.028  67.759  1.00  0.00    -0.215 A  
BRANCH  12  15
HETATM   15  O   UNL     1      -9.570  16.926  66.454  1.00  0.00    -0.258 OA 
BRANCH  15  16
HETATM   16  C   UNL     1     -10.417  17.993  66.898  1.00  0.00    -0.341 C  
HETATM   17  C   UNL     1      -9.754  18.769  68.026  1.00  0.00    -0.325 C  
HETATM   18  O   UNL     1     -10.274  19.712  68.608  1.00  0.00    -0.433 OA 
HETATM   19  O   UNL     1      -8.509  18.322  68.331  1.00  0.00    -0.291 OA 
ENDBRANCH  15  16
ENDBRANCH  12  15
ENDBRANCH   5   7
ENDBRANCH   3   5
ENDBRANCH   2   3
TORSDOF 5
ENDMDL
MODEL       44
REMARK 921   NORMALIZED FREE ENERGY PREDICTED BY IDOCK:   -4.90 KCAL/MOL
REMARK 922        TOTAL FREE ENERGY PREDICTED BY IDOCK:   -7.05 KCAL/MOL
REMARK 923 INTER-LIGAND FREE ENERGY PREDICTED BY IDOCK:   -6.32 KCAL/MOL
REMARK 924 INTRA-LIGAND FREE ENERGY PREDICTED BY IDOCK:   -0.72 KCAL/MOL
REMARK 927      BINDING AFFINITY PREDICTED BY RF-SCORE:    0.00 PKD
ROOT
HETATM    1  C   UNL     1      -9.551   9.409  65.483  1.00  0.00    -0.328 C  
HETATM    2  C   UNL     1     -10.202  10.778  65.315  1.00  0.00    -0.351 C  
ENDROOT
BRANCH   2   3
HETATM    3  C   UNL     1     -10.913  11.276  66.557  1.00  0.00    -0.303 C  
HETATM    4  C   UNL     1     -11.022  10.506  67.654  1.00  0.00    -0.375 C  
BRANCH   3   5
HETATM    5  C   UNL     1     -11.564  12.628  66.435  1.00  0.00    -0.384 C  
HETATM    6  O   UNL     1     -12.605  12.746  65.799  1.00  0.00    -0.562 OA 
BRANCH   5   7
HETATM    7  C   UNL     1     -10.913  13.853  66.993  1.00  0.00    -0.301 A  
HETATM    8  C   UNL     1     -11.257  14.372  68.257  1.00  0.00    -0.275 A  
HETATM    9 CL   UNL     1     -12.356  13.508  69.299  1.00  0.00    -0.234 Cl 
HETATM   10  C   UNL     1     -10.673  15.583  68.712  1.00  0.00    -0.249 A  
HETATM   11 CL   UNL     1     -11.022  16.139  70.324  1.00  0.00    -0.353 Cl 
HETATM   12  C   UNL     1      -9.767  16.279  67.889  1.00  0.00    -0.233 A  
HETATM   13  C   UNL     1      -9.990  14.547  66.199  1.00  0.00    -0.330 A  
HETATM   14  C   UNL     1      -9.407  15.729  66.655  1.00  0.00    -0.284 A  
BRANCH  12  15
HETATM   15  O   UNL     1      -9.099  17.451  68.157  1.00  0.00    -0.252 OA 
BRANCH  15  16
HETATM   16  C   UNL     1      -9.123  18.465  67.145  1.00  0.00    -0.267 C  
HETATM   17  C   UNL     1      -9.727  19.751  67.688  1.00  0.00    -0.371 C  
HETATM   18  O   UNL     1      -9.894  20.765  67.024  1.00  0.00    -0.427 OA 
HETATM   19  O   UNL     1     -10.062  19.677  69.002  1.00  0.00    -0.445 OA 
ENDBRANCH  15  16
ENDBRANCH  12  15
ENDBRANCH   5   7
ENDBRANCH   3   5
ENDBRANCH   2   3
TORSDOF 5
ENDMDL
MODEL       45
REMARK 921   NORMALIZED FREE ENERGY PREDICTED BY IDOCK:   -4.89 KCAL/MOL
REMARK 922        TOTAL FREE ENERGY PREDICTED BY IDOCK:   -7.03 KCAL/MOL
REMARK 923 INTER-LIGAND FREE ENERGY PREDICTED BY IDOCK:   -6.17 KCAL/MOL
REMARK 924 INTRA-LIGAND FREE ENERGY PREDICTED BY IDOCK:   -0.86 KCAL/MOL
REMARK 927      BINDING AFFINITY PREDICTED BY RF-SCORE:    0.00 PKD
ROOT
HETATM    1  C   UNL     1     -10.252   5.563  70.089  1.00  0.00    -0.333 C  
HETATM    2  C   UNL     1     -11.338   6.534  69.638  1.00  0.00    -0.443 C  
ENDROOT
BRANCH   2   3
HETATM    3  C   UNL     1     -11.892   7.396  70.755  1.00  0.00    -0.288 C  
HETATM    4  C   UNL     1     -13.072   7.113  71.334  1.00  0.00    -0.408 C  
BRANCH   3   5
HETATM    5  C   UNL     1     -11.087   8.624  71.088  1.00  0.00    -0.266 C  
HETATM    6  O   UNL     1     -10.630   8.761  72.217  1.00  0.00    -0.337 OA 
BRANCH   5   7
HETATM    7  C   UNL     1     -10.916   9.729  70.097  1.00  0.00    -0.339 A  
HETATM    8  C   UNL     1      -9.705   9.931  69.405  1.00  0.00    -0.214 A  
HETATM    9 CL   UNL     1      -8.394   8.792  69.564  1.00  0.00    -0.117 Cl 
HETATM   10  C   UNL     1      -9.560  11.043  68.533  1.00  0.00    -0.187 A  
HETATM   11 CL   UNL     1      -8.101  11.203  67.599  1.00  0.00    -0.115 Cl 
HETATM   12  C   UNL     1     -10.619  11.957  68.379  1.00  0.00    -0.218 A  
HETATM   13  C   UNL     1     -11.968  10.637  69.911  1.00  0.00    -0.385 A  
HETATM   14  C   UNL     1     -11.827  11.720  69.043  1.00  0.00    -0.379 A  
BRANCH  12  15
HETATM   15  O   UNL     1     -10.669  13.078  67.583  1.00  0.00    -0.223 OA 
BRANCH  15  16
HETATM   16  C   UNL     1     -11.962  13.630  67.307  1.00  0.00    -0.381 C  
HETATM   17  C   UNL     1     -12.241  13.621  65.812  1.00  0.00    -0.464 C  
HETATM   18  O   UNL     1     -13.261  14.064  65.302  1.00  0.00    -0.782 OA 
HETATM   19  O   UNL     1     -11.244  13.060  65.080  1.00  0.00    -0.288 OA 
ENDBRANCH  15  16
ENDBRANCH  12  15
ENDBRANCH   5   7
ENDBRANCH   3   5
ENDBRANCH   2   3
TORSDOF 5
ENDMDL
MODEL       46
REMARK 921   NORMALIZED FREE ENERGY PREDICTED BY IDOCK:   -4.89 KCAL/MOL
REMARK 922        TOTAL FREE ENERGY PREDICTED BY IDOCK:   -7.03 KCAL/MOL
REMARK 923 INTER-LIGAND FREE ENERGY PREDICTED BY IDOCK:   -6.53 KCAL/MOL
REMARK 924 INTRA-LIGAND FREE ENERGY PREDICTED BY IDOCK:   -0.50 KCAL/MOL
REMARK 927      BINDING AFFINITY PREDICTED BY RF-SCORE:    0.00 PKD
ROOT
HETATM    1  C   UNL     1     -12.239  15.436  70.842  1.00  0.00    -0.425 C  
HETATM    2  C   UNL     1     -12.426  13.956  70.524  1.00  0.00    -0.422 C  
ENDROOT
BRANCH   2   3
HETATM    3  C   UNL     1     -11.622  13.478  69.333  1.00  0.00    -0.369 C  
HETATM    4  C   UNL     1     -10.887  14.332  68.598  1.00  0.00    -0.265 C  
BRANCH   3   5
HETATM    5  C   UNL     1     -11.786  12.023  68.980  1.00  0.00    -0.325 C  
HETATM    6  O   UNL     1     -12.158  11.710  67.854  1.00  0.00    -0.613 OA 
BRANCH   5   7
HETATM    7  C   UNL     1     -11.597  10.952  70.005  1.00  0.00    -0.424 A  
HETATM    8  C   UNL     1     -10.412  10.193  70.085  1.00  0.00    -0.255 A  
HETATM    9 CL   UNL     1      -9.043  10.584  69.079  1.00  0.00    -0.183 Cl 
HETATM   10  C   UNL     1     -10.308   9.131  71.021  1.00  0.00    -0.293 A  
HETATM   11 CL   UNL     1      -8.794   8.289  71.183  1.00  0.00    -0.165 Cl 
HETATM   12  C   UNL     1     -11.399   8.821  71.855  1.00  0.00    -0.361 A  
HETATM   13  C   UNL     1     -12.663  10.643  70.861  1.00  0.00    -0.498 A  
HETATM   14  C   UNL     1     -12.553   9.608  71.790  1.00  0.00    -0.497 A  
BRANCH  12  15
HETATM   15  O   UNL     1     -11.484   7.843  72.819  1.00  0.00    -0.390 OA 
BRANCH  15  16
HETATM   16  C   UNL     1     -11.579   6.485  72.370  1.00  0.00    -0.255 C  
HETATM   17  C   UNL     1     -10.832   5.555  73.313  1.00  0.00    -0.293 C  
HETATM   18  O   UNL     1     -10.728   4.348  73.147  1.00  0.00    -0.190 OA 
HETATM   19  O   UNL     1     -10.287   6.193  74.382  1.00  0.00    -0.310 OA 
ENDBRANCH  15  16
ENDBRANCH  12  15
ENDBRANCH   5   7
ENDBRANCH   3   5
ENDBRANCH   2   3
TORSDOF 5
ENDMDL
MODEL       47
REMARK 921   NORMALIZED FREE ENERGY PREDICTED BY IDOCK:   -4.88 KCAL/MOL
REMARK 922        TOTAL FREE ENERGY PREDICTED BY IDOCK:   -7.01 KCAL/MOL
REMARK 923 INTER-LIGAND FREE ENERGY PREDICTED BY IDOCK:   -6.26 KCAL/MOL
REMARK 924 INTRA-LIGAND FREE ENERGY PREDICTED BY IDOCK:   -0.75 KCAL/MOL
REMARK 927      BINDING AFFINITY PREDICTED BY RF-SCORE:    0.00 PKD
ROOT
HETATM    1  C   UNL     1      -9.607   9.076  68.739  1.00  0.00    -0.155 C  
HETATM    2  C   UNL     1      -9.719   9.852  70.048  1.00  0.00    -0.274 C  
ENDROOT
BRANCH   2   3
HETATM    3  C   UNL     1     -11.143  10.185  70.442  1.00  0.00    -0.393 C  
HETATM    4  C   UNL     1     -11.742   9.570  71.477  1.00  0.00    -0.472 C  
BRANCH   3   5
HETATM    5  C   UNL     1     -11.855  11.161  69.543  1.00  0.00    -0.353 C  
HETATM    6  O   UNL     1     -12.659  10.748  68.714  1.00  0.00    -0.257 OA 
BRANCH   5   7
HETATM    7  C   UNL     1     -11.529  12.620  69.572  1.00  0.00    -0.294 A  
HETATM    8  C   UNL     1     -12.165  13.510  70.460  1.00  0.00    -0.361 A  
HETATM    9 CL   UNL     1     -13.258  12.911  71.681  1.00  0.00    -0.460 Cl 
HETATM   10  C   UNL     1     -11.885  14.900  70.398  1.00  0.00    -0.300 A  
HETATM   11 CL   UNL     1     -12.591  15.961  71.582  1.00  0.00    -0.499 Cl 
HETATM   12  C   UNL     1     -10.988  15.392  69.431  1.00  0.00    -0.276 A  
HETATM   13  C   UNL     1     -10.620  13.126  68.633  1.00  0.00    -0.259 A  
HETATM   14  C   UNL     1     -10.336  14.491  68.584  1.00  0.00    -0.242 A  
BRANCH  12  15
HETATM   15  O   UNL     1     -10.588  16.692  69.223  1.00  0.00    -0.308 OA 
BRANCH  15  16
HETATM   16  C   UNL     1     -10.925  17.288  67.964  1.00  0.00    -0.194 C  
HETATM   17  C   UNL     1     -10.564  18.766  67.957  1.00  0.00    -0.296 C  
HETATM   18  O   UNL     1     -10.774  19.519  67.015  1.00  0.00    -0.467 OA 
HETATM   19  O   UNL     1      -9.968  19.182  69.104  1.00  0.00    -0.400 OA 
ENDBRANCH  15  16
ENDBRANCH  12  15
ENDBRANCH   5   7
ENDBRANCH   3   5
ENDBRANCH   2   3
TORSDOF 5
ENDMDL
MODEL       48
REMARK 921   NORMALIZED FREE ENERGY PREDICTED BY IDOCK:   -4.84 KCAL/MOL
REMARK 922        TOTAL FREE ENERGY PREDICTED BY IDOCK:   -6.96 KCAL/MOL
REMARK 923 INTER-LIGAND FREE ENERGY PREDICTED BY IDOCK:   -6.34 KCAL/MOL
REMARK 924 INTRA-LIGAND FREE ENERGY PREDICTED BY IDOCK:   -0.62 KCAL/MOL
REMARK 927      BINDING AFFINITY PREDICTED BY RF-SCORE:    0.00 PKD
ROOT
HETATM    1  C   UNL     1      -6.261  12.479  67.313  1.00  0.00    -0.124 C  
HETATM    2  C   UNL     1      -7.708  12.832  67.641  1.00  0.00    -0.162 C  
ENDROOT
BRANCH   2   3
HETATM    3  C   UNL     1      -8.724  12.131  66.763  1.00  0.00    -0.183 C  
HETATM    4  C   UNL     1      -8.410  11.008  66.092  1.00  0.00    -0.163 C  
BRANCH   3   5
HETATM    5  C   UNL     1     -10.051  12.829  66.620  1.00  0.00    -0.243 C  
HETATM    6  O   UNL     1     -10.604  12.863  65.526  1.00  0.00    -0.271 OA 
BRANCH   5   7
HETATM    7  C   UNL     1     -10.664  13.567  67.766  1.00  0.00    -0.262 A  
HETATM    8  C   UNL     1     -11.287  12.899  68.838  1.00  0.00    -0.288 A  
HETATM    9 CL   UNL     1     -11.231  11.160  68.950  1.00  0.00    -0.282 Cl 
HETATM   10  C   UNL     1     -11.929  13.642  69.864  1.00  0.00    -0.348 A  
HETATM   11 CL   UNL     1     -12.585  12.799  71.238  1.00  0.00    -0.413 Cl 
HETATM   12  C   UNL     1     -11.962  15.048  69.797  1.00  0.00    -0.328 A  
HETATM   13  C   UNL     1     -10.686  14.969  67.730  1.00  0.00    -0.278 A  
HETATM   14  C   UNL     1     -11.304  15.696  68.747  1.00  0.00    -0.351 A  
BRANCH  12  15
HETATM   15  O   UNL     1     -12.523  15.931  70.691  1.00  0.00    -0.394 OA 
BRANCH  15  16
HETATM   16  C   UNL     1     -11.956  15.982  72.006  1.00  0.00    -0.537 C  
HETATM   17  C   UNL     1     -13.050  15.946  73.062  1.00  0.00    -0.541 C  
HETATM   18  O   UNL     1     -12.843  16.008  74.266  1.00  0.00    -0.646 OA 
HETATM   19  O   UNL     1     -14.299  15.827  72.543  1.00  0.00    -0.528 OA 
ENDBRANCH  15  16
ENDBRANCH  12  15
ENDBRANCH   5   7
ENDBRANCH   3   5
ENDBRANCH   2   3
TORSDOF 5
ENDMDL
MODEL       49
REMARK 921   NORMALIZED FREE ENERGY PREDICTED BY IDOCK:   -4.83 KCAL/MOL
REMARK 922        TOTAL FREE ENERGY PREDICTED BY IDOCK:   -6.95 KCAL/MOL
REMARK 923 INTER-LIGAND FREE ENERGY PREDICTED BY IDOCK:   -6.25 KCAL/MOL
REMARK 924 INTRA-LIGAND FREE ENERGY PREDICTED BY IDOCK:   -0.71 KCAL/MOL
REMARK 927      BINDING AFFINITY PREDICTED BY RF-SCORE:    0.00 PKD
ROOT
HETATM    1  C   UNL     1     -10.339   5.914  71.161  1.00  0.00    -0.276 C  
HETATM    2  C   UNL     1     -11.370   6.423  70.158  1.00  0.00    -0.485 C  
ENDROOT
BRANCH   2   3
HETATM    3  C   UNL     1     -10.767   6.930  68.864  1.00  0.00    -0.254 C  
HETATM    4  C   UNL     1     -10.881   6.232  67.720  1.00  0.00    -0.424 C  
BRANCH   3   5
HETATM    5  C   UNL     1      -9.962   8.198  68.976  1.00  0.00    -0.189 C  
HETATM    6  O   UNL     1      -8.764   8.135  69.231  1.00  0.00    -0.138 OA 
BRANCH   5   7
HETATM    7  C   UNL     1     -10.614   9.540  68.879  1.00  0.00    -0.239 A  
HETATM    8  C   UNL     1     -10.647  10.269  67.674  1.00  0.00    -0.263 A  
HETATM    9 CL   UNL     1     -10.059   9.559  66.193  1.00  0.00    -0.351 Cl 
HETATM   10  C   UNL     1     -11.203  11.575  67.647  1.00  0.00    -0.281 A  
HETATM   11 CL   UNL     1     -11.342  12.406  66.124  1.00  0.00    -0.375 Cl 
HETATM   12  C   UNL     1     -11.701  12.151  68.831  1.00  0.00    -0.327 A  
HETATM   13  C   UNL     1     -11.137  10.121  70.042  1.00  0.00    -0.368 A  
HETATM   14  C   UNL     1     -11.696  11.398  70.009  1.00  0.00    -0.416 A  
BRANCH  12  15
HETATM   15  O   UNL     1     -12.279  13.388  69.000  1.00  0.00    -0.295 OA 
BRANCH  15  16
HETATM   16  C   UNL     1     -12.382  13.886  70.340  1.00  0.00    -0.363 C  
HETATM   17  C   UNL     1     -12.172  15.392  70.369  1.00  0.00    -0.391 C  
HETATM   18  O   UNL     1     -12.178  16.065  71.391  1.00  0.00    -0.432 OA 
HETATM   19  O   UNL     1     -11.983  15.935  69.139  1.00  0.00    -0.380 OA 
ENDBRANCH  15  16
ENDBRANCH  12  15
ENDBRANCH   5   7
ENDBRANCH   3   5
ENDBRANCH   2   3
TORSDOF 5
ENDMDL
MODEL       50
REMARK 921   NORMALIZED FREE ENERGY PREDICTED BY IDOCK:   -4.82 KCAL/MOL
REMARK 922        TOTAL FREE ENERGY PREDICTED BY IDOCK:   -6.94 KCAL/MOL
REMARK 923 INTER-LIGAND FREE ENERGY PREDICTED BY IDOCK:   -6.22 KCAL/MOL
REMARK 924 INTRA-LIGAND FREE ENERGY PREDICTED BY IDOCK:   -0.72 KCAL/MOL
REMARK 927      BINDING AFFINITY PREDICTED BY RF-SCORE:    0.00 PKD
ROOT
HETATM    1  C   UNL     1     -11.831  11.676  69.696  1.00  0.00    -0.419 C  
HETATM    2  C   UNL     1     -11.887  12.152  68.248  1.00  0.00    -0.361 C  
ENDROOT
BRANCH   2   3
HETATM    3  C   UNL     1     -11.145  11.254  67.279  1.00  0.00    -0.367 C  
HETATM    4  C   UNL     1     -10.800   9.999  67.615  1.00  0.00    -0.336 C  
BRANCH   3   5
HETATM    5  C   UNL     1     -10.743  11.896  65.977  1.00  0.00    -0.285 C  
HETATM    6  O   UNL     1     -10.664  11.212  64.962  1.00  0.00    -0.289 OA 
BRANCH   5   7
HETATM    7  C   UNL     1     -10.342  13.335  65.915  1.00  0.00    -0.293 A  
HETATM    8  C   UNL     1      -9.205  13.824  66.587  1.00  0.00    -0.223 A  
HETATM    9 CL   UNL     1      -8.120  12.728  67.401  1.00  0.00    -0.178 Cl 
HETATM   10  C   UNL     1      -8.909  15.212  66.568  1.00  0.00    -0.277 A  
HETATM   11 CL   UNL     1      -7.435  15.774  67.304  1.00  0.00    -0.228 Cl 
HETATM   12  C   UNL     1      -9.765  16.104  65.896  1.00  0.00    -0.340 A  
HETATM   13  C   UNL     1     -11.170  14.235  65.230  1.00  0.00    -0.337 A  
HETATM   14  C   UNL     1     -10.867  15.597  65.201  1.00  0.00    -0.448 A  
BRANCH  12  15
HETATM   15  O   UNL     1      -9.641  17.467  65.762  1.00  0.00    -0.523 OA 
BRANCH  15  16
HETATM   16  C   UNL     1     -10.569  18.285  66.486  1.00  0.00    -0.288 C  
HETATM   17  C   UNL     1      -9.832  19.270  67.379  1.00  0.00    -0.336 C  
HETATM   18  O   UNL     1     -10.385  20.064  68.128  1.00  0.00    -0.421 OA 
HETATM   19  O   UNL     1      -8.481  19.197  67.265  1.00  0.00    -0.272 OA 
ENDBRANCH  15  16
ENDBRANCH  12  15
ENDBRANCH   5   7
ENDBRANCH   3   5
ENDBRANCH   2   3
TORSDOF 5
ENDMDL
MODEL       51
REMARK 921   NORMALIZED FREE ENERGY PREDICTED BY IDOCK:   -4.80 KCAL/MOL
REMARK 922        TOTAL FREE ENERGY PREDICTED BY IDOCK:   -6.92 KCAL/MOL
REMARK 923 INTER-LIGAND FREE ENERGY PREDICTED BY IDOCK:   -6.07 KCAL/MOL
REMARK 924 INTRA-LIGAND FREE ENERGY PREDICTED BY IDOCK:   -0.84 KCAL/MOL
REMARK 927      BINDING AFFINITY PREDICTED BY RF-SCORE:    0.00 PKD
ROOT
HETATM    1  C   UNL     1     -11.753  12.372  70.024  1.00  0.00    -0.307 C  
HETATM    2  C   UNL     1     -12.118  11.770  68.671  1.00  0.00    -0.164 C  
ENDROOT
BRANCH   2   3
HETATM    3  C   UNL     1     -11.045  10.871  68.090  1.00  0.00    -0.337 C  
HETATM    4  C   UNL     1     -10.577   9.812  68.774  1.00  0.00    -0.244 C  
BRANCH   3   5
HETATM    5  C   UNL     1     -10.482  11.306  66.762  1.00  0.00    -0.248 C  
HETATM    6  O   UNL     1     -10.035  10.466  65.989  1.00  0.00    -0.218 OA 
BRANCH   5   7
HETATM    7  C   UNL     1     -10.368  12.753  66.407  1.00  0.00    -0.271 A  
HETATM    8  C   UNL     1     -11.212  13.358  65.456  1.00  0.00    -0.288 A  
HETATM    9 CL   UNL     1     -12.543  12.470  64.761  1.00  0.00    -0.554 Cl 
HETATM   10  C   UNL     1     -11.014  14.715  65.088  1.00  0.00    -0.386 A  
HETATM   11 CL   UNL     1     -12.144  15.474  64.003  1.00  0.00    -0.139 Cl 
HETATM   12  C   UNL     1      -9.958  15.450  65.659  1.00  0.00    -0.362 A  
HETATM   13  C   UNL     1      -9.336  13.509  66.982  1.00  0.00    -0.247 A  
HETATM   14  C   UNL     1      -9.154  14.846  66.630  1.00  0.00    -0.309 A  
BRANCH  12  15
HETATM   15  O   UNL     1      -9.615  16.764  65.437  1.00  0.00    -0.461 OA 
BRANCH  15  16
HETATM   16  C   UNL     1      -9.365  17.580  66.587  1.00  0.00    -0.262 C  
HETATM   17  C   UNL     1     -10.186  18.859  66.527  1.00  0.00    -0.414 C  
HETATM   18  O   UNL     1     -10.138  19.746  67.368  1.00  0.00    -0.368 OA 
HETATM   19  O   UNL     1     -10.999  18.928  65.441  1.00  0.00    -0.493 OA 
ENDBRANCH  15  16
ENDBRANCH  12  15
ENDBRANCH   5   7
ENDBRANCH   3   5
ENDBRANCH   2   3
TORSDOF 5
ENDMDL
MODEL       52
REMARK 921   NORMALIZED FREE ENERGY PREDICTED BY IDOCK:   -4.78 KCAL/MOL
REMARK 922        TOTAL FREE ENERGY PREDICTED BY IDOCK:   -6.89 KCAL/MOL
REMARK 923 INTER-LIGAND FREE ENERGY PREDICTED BY IDOCK:   -6.07 KCAL/MOL
REMARK 924 INTRA-LIGAND FREE ENERGY PREDICTED BY IDOCK:   -0.81 KCAL/MOL
REMARK 927      BINDING AFFINITY PREDICTED BY RF-SCORE:    0.00 PKD
ROOT
HETATM    1  C   UNL     1     -10.468   5.737  69.400  1.00  0.00    -0.360 C  
HETATM    2  C   UNL     1     -11.541   6.398  70.259  1.00  0.00    -0.451 C  
ENDROOT
BRANCH   2   3
HETATM    3  C   UNL     1     -11.117   6.638  71.694  1.00  0.00    -0.290 C  
HETATM    4  C   UNL     1     -11.288   5.695  72.638  1.00  0.00    -0.356 C  
BRANCH   3   5
HETATM    5  C   UNL     1     -10.597   8.018  71.995  1.00  0.00    -0.248 C  
HETATM    6  O   UNL     1      -9.902   8.201  72.989  1.00  0.00    -0.280 OA 
BRANCH   5   7
HETATM    7  C   UNL     1     -10.992   9.194  71.160  1.00  0.00    -0.390 A  
HETATM    8  C   UNL     1     -10.167   9.690  70.132  1.00  0.00    -0.264 A  
HETATM    9 CL   UNL     1      -8.707   8.848  69.684  1.00  0.00    -0.136 Cl 
HETATM   10  C   UNL     1     -10.543  10.858  69.418  1.00  0.00    -0.197 A  
HETATM   11 CL   UNL     1      -9.570  11.381  68.074  1.00  0.00    -0.177 Cl 
HETATM   12  C   UNL     1     -11.731  11.535  69.755  1.00  0.00    -0.353 A  
HETATM   13  C   UNL     1     -12.183   9.867  71.464  1.00  0.00    -0.505 A  
HETATM   14  C   UNL     1     -12.557  11.006  70.752  1.00  0.00    -0.463 A  
BRANCH  12  15
HETATM   15  O   UNL     1     -12.261  12.666  69.179  1.00  0.00    -0.191 OA 
BRANCH  15  16
HETATM   16  C   UNL     1     -11.907  13.926  69.762  1.00  0.00    -0.329 C  
HETATM   17  C   UNL     1     -11.747  14.989  68.686  1.00  0.00    -0.337 C  
HETATM   18  O   UNL     1     -11.418  16.146  68.908  1.00  0.00    -0.352 OA 
HETATM   19  O   UNL     1     -12.015  14.535  67.434  1.00  0.00    -0.394 OA 
ENDBRANCH  15  16
ENDBRANCH  12  15
ENDBRANCH   5   7
ENDBRANCH   3   5
ENDBRANCH   2   3
TORSDOF 5
ENDMDL
MODEL       53
REMARK 921   NORMALIZED FREE ENERGY PREDICTED BY IDOCK:   -4.77 KCAL/MOL
REMARK 922        TOTAL FREE ENERGY PREDICTED BY IDOCK:   -6.87 KCAL/MOL
REMARK 923 INTER-LIGAND FREE ENERGY PREDICTED BY IDOCK:   -6.17 KCAL/MOL
REMARK 924 INTRA-LIGAND FREE ENERGY PREDICTED BY IDOCK:   -0.70 KCAL/MOL
REMARK 927      BINDING AFFINITY PREDICTED BY RF-SCORE:    0.00 PKD
ROOT
HETATM    1  C   UNL     1      -8.182   5.704  65.722  1.00  0.00    -0.122 C  
HETATM    2  C   UNL     1      -8.417   6.471  67.019  1.00  0.00    -0.113 C  
ENDROOT
BRANCH   2   3
HETATM    3  C   UNL     1      -9.445   7.577  66.900  1.00  0.00    -0.219 C  
HETATM    4  C   UNL     1     -10.763   7.314  66.957  1.00  0.00    -0.406 C  
BRANCH   3   5
HETATM    5  C   UNL     1      -8.893   8.949  66.615  1.00  0.00    -0.129 C  
HETATM    6  O   UNL     1      -7.679   9.120  66.583  1.00  0.00    -0.095 OA 
BRANCH   5   7
HETATM    7  C   UNL     1      -9.796  10.131  66.467  1.00  0.00    -0.268 A  
HETATM    8  C   UNL     1     -10.403  10.752  67.576  1.00  0.00    -0.206 A  
HETATM    9 CL   UNL     1      -9.996  10.257  69.198  1.00  0.00    -0.220 Cl 
HETATM   10  C   UNL     1     -11.318  11.819  67.382  1.00  0.00    -0.311 A  
HETATM   11 CL   UNL     1     -11.961  12.648  68.771  1.00  0.00    -0.324 Cl 
HETATM   12  C   UNL     1     -11.637  12.243  66.078  1.00  0.00    -0.393 A  
HETATM   13  C   UNL     1     -10.107  10.583  65.177  1.00  0.00    -0.383 A  
HETATM   14  C   UNL     1     -10.996  11.642  64.990  1.00  0.00    -0.334 A  
BRANCH  12  15
HETATM   15  O   UNL     1     -12.486  13.255  65.693  1.00  0.00    -0.457 OA 
BRANCH  15  16
HETATM   16  C   UNL     1     -11.955  14.585  65.674  1.00  0.00    -0.311 C  
HETATM   17  C   UNL     1     -12.069  15.187  64.282  1.00  0.00    -0.261 C  
HETATM   18  O   UNL     1     -11.663  16.302  63.981  1.00  0.00    -0.930 OA 
HETATM   19  O   UNL     1     -12.681  14.369  63.387  1.00  0.00    -0.689 OA 
ENDBRANCH  15  16
ENDBRANCH  12  15
ENDBRANCH   5   7
ENDBRANCH   3   5
ENDBRANCH   2   3
TORSDOF 5
ENDMDL
MODEL       54
REMARK 921   NORMALIZED FREE ENERGY PREDICTED BY IDOCK:   -4.75 KCAL/MOL
REMARK 922        TOTAL FREE ENERGY PREDICTED BY IDOCK:   -6.84 KCAL/MOL
REMARK 923 INTER-LIGAND FREE ENERGY PREDICTED BY IDOCK:   -6.23 KCAL/MOL
REMARK 924 INTRA-LIGAND FREE ENERGY PREDICTED BY IDOCK:   -0.61 KCAL/MOL
REMARK 927      BINDING AFFINITY PREDICTED BY RF-SCORE:    0.00 PKD
ROOT
HETATM    1  C   UNL     1     -11.760  12.562  66.847  1.00  0.00    -0.447 C  
HETATM    2  C   UNL     1     -12.041  14.017  66.484  1.00  0.00    -0.488 C  
ENDROOT
BRANCH   2   3
HETATM    3  C   UNL     1     -10.827  14.919  66.586  1.00  0.00    -0.319 C  
HETATM    4  C   UNL     1      -9.808  14.818  65.714  1.00  0.00    -0.373 C  
BRANCH   3   5
HETATM    5  C   UNL     1     -10.804  15.846  67.773  1.00  0.00    -0.324 C  
HETATM    6  O   UNL     1     -11.796  15.943  68.486  1.00  0.00    -0.366 OA 
BRANCH   5   7
HETATM    7  C   UNL     1      -9.627  16.726  68.044  1.00  0.00    -0.234 A  
HETATM    8  C   UNL     1      -9.434  17.946  67.366  1.00  0.00    -0.258 A  
HETATM    9 CL   UNL     1     -10.656  18.559  66.283  1.00  0.00    -0.419 Cl 
HETATM   10  C   UNL     1      -8.260  18.710  67.595  1.00  0.00    -0.258 A  
HETATM   11 CL   UNL     1      -8.101  20.269  66.838  1.00  0.00    -0.354 Cl 
HETATM   12  C   UNL     1      -7.276  18.237  68.484  1.00  0.00    -0.283 A  
HETATM   13  C   UNL     1      -8.647  16.283  68.943  1.00  0.00    -0.260 A  
HETATM   14  C   UNL     1      -7.502  17.044  69.177  1.00  0.00    -0.162 A  
BRANCH  12  15
HETATM   15  O   UNL     1      -6.088  18.833  68.837  1.00  0.00    -0.213 OA 
BRANCH  15  16
HETATM   16  C   UNL     1      -6.161  20.009  69.652  1.00  0.00    -0.348 C  
HETATM   17  C   UNL     1      -5.610  19.733  71.042  1.00  0.00    -0.282 C  
HETATM   18  O   UNL     1      -5.583  20.558  71.946  1.00  0.00    -0.562 OA 
HETATM   19  O   UNL     1      -5.132  18.471  71.193  1.00  0.00    -0.282 OA 
ENDBRANCH  15  16
ENDBRANCH  12  15
ENDBRANCH   5   7
ENDBRANCH   3   5
ENDBRANCH   2   3
TORSDOF 5
ENDMDL
MODEL       55
REMARK 921   NORMALIZED FREE ENERGY PREDICTED BY IDOCK:   -4.74 KCAL/MOL
REMARK 922        TOTAL FREE ENERGY PREDICTED BY IDOCK:   -6.83 KCAL/MOL
REMARK 923 INTER-LIGAND FREE ENERGY PREDICTED BY IDOCK:   -6.08 KCAL/MOL
REMARK 924 INTRA-LIGAND FREE ENERGY PREDICTED BY IDOCK:   -0.75 KCAL/MOL
REMARK 927      BINDING AFFINITY PREDICTED BY RF-SCORE:    0.00 PKD
ROOT
HETATM    1  C   UNL     1     -10.404   5.471  69.926  1.00  0.00    -0.368 C  
HETATM    2  C   UNL     1     -11.238   6.370  69.018  1.00  0.00    -0.402 C  
ENDROOT
BRANCH   2   3
HETATM    3  C   UNL     1     -10.588   6.662  67.680  1.00  0.00    -0.325 C  
HETATM    4  C   UNL     1     -10.782   5.857  66.620  1.00  0.00    -0.323 C  
BRANCH   3   5
HETATM    5  C   UNL     1      -9.648   7.838  67.658  1.00  0.00    -0.146 C  
HETATM    6  O   UNL     1      -8.605   7.793  68.301  1.00  0.00    -0.124 OA 
BRANCH   5   7
HETATM    7  C   UNL     1     -10.007   9.102  66.945  1.00  0.00    -0.304 A  
HETATM    8  C   UNL     1     -10.781  10.109  67.552  1.00  0.00    -0.290 A  
HETATM    9 CL   UNL     1     -11.226   9.989  69.235  1.00  0.00    -0.238 Cl 
HETATM   10  C   UNL     1     -11.168  11.256  66.810  1.00  0.00    -0.195 A  
HETATM   11 CL   UNL     1     -12.020  12.541  67.617  1.00  0.00    -0.370 Cl 
HETATM   12  C   UNL     1     -10.796  11.375  65.458  1.00  0.00    -0.220 A  
HETATM   13  C   UNL     1      -9.625   9.250  65.604  1.00  0.00    -0.324 A  
HETATM   14  C   UNL     1      -9.994  10.385  64.882  1.00  0.00    -0.409 A  
BRANCH  12  15
HETATM   15  O   UNL     1     -11.067  12.405  64.586  1.00  0.00    -0.286 OA 
BRANCH  15  16
HETATM   16  C   UNL     1     -10.246  13.576  64.679  1.00  0.00    -0.316 C  
HETATM   17  C   UNL     1     -11.100  14.833  64.651  1.00  0.00    -0.325 C  
HETATM   18  O   UNL     1     -10.650  15.970  64.685  1.00  0.00    -0.564 OA 
HETATM   19  O   UNL     1     -12.434  14.579  64.594  1.00  0.00    -0.555 OA 
ENDBRANCH  15  16
ENDBRANCH  12  15
ENDBRANCH   5   7
ENDBRANCH   3   5
ENDBRANCH   2   3
TORSDOF 5
ENDMDL
MODEL       56
REMARK 921   NORMALIZED FREE ENERGY PREDICTED BY IDOCK:   -4.74 KCAL/MOL
REMARK 922        TOTAL FREE ENERGY PREDICTED BY IDOCK:   -6.83 KCAL/MOL
REMARK 923 INTER-LIGAND FREE ENERGY PREDICTED BY IDOCK:   -6.02 KCAL/MOL
REMARK 924 INTRA-LIGAND FREE ENERGY PREDICTED BY IDOCK:   -0.80 KCAL/MOL
REMARK 927      BINDING AFFINITY PREDICTED BY RF-SCORE:    0.00 PKD
ROOT
HETATM    1  C   UNL     1      -8.228  14.479  67.240  1.00  0.00    -0.230 C  
HETATM    2  C   UNL     1      -9.320  15.030  66.329  1.00  0.00    -0.341 C  
ENDROOT
BRANCH   2   3
HETATM    3  C   UNL     1     -10.672  15.157  67.001  1.00  0.00    -0.307 C  
HETATM    4  C   UNL     1     -10.929  16.151  67.870  1.00  0.00    -0.318 C  
BRANCH   3   5
HETATM    5  C   UNL     1     -11.651  14.050  66.707  1.00  0.00    -0.386 C  
HETATM    6  O   UNL     1     -12.725  14.315  66.179  1.00  0.00    -0.401 OA 
BRANCH   5   7
HETATM    7  C   UNL     1     -11.380  12.644  67.136  1.00  0.00    -0.373 A  
HETATM    8  C   UNL     1     -11.458  12.246  68.485  1.00  0.00    -0.303 A  
HETATM    9 CL   UNL     1     -12.034  13.354  69.703  1.00  0.00    -0.382 Cl 
HETATM   10  C   UNL     1     -11.113  10.920  68.857  1.00  0.00    -0.252 A  
HETATM   11 CL   UNL     1     -11.334  10.419  70.509  1.00  0.00    -0.405 Cl 
HETATM   12  C   UNL     1     -10.669  10.009  67.880  1.00  0.00    -0.272 A  
HETATM   13  C   UNL     1     -10.959  11.716  66.174  1.00  0.00    -0.339 A  
HETATM   14  C   UNL     1     -10.634  10.410  66.541  1.00  0.00    -0.220 A  
BRANCH  12  15
HETATM   15  O   UNL     1     -10.300   8.694  68.045  1.00  0.00    -0.214 OA 
BRANCH  15  16
HETATM   16  C   UNL     1     -10.336   7.853  66.886  1.00  0.00    -0.330 C  
HETATM   17  C   UNL     1     -10.869   6.474  67.241  1.00  0.00    -0.390 C  
HETATM   18  O   UNL     1     -10.975   5.552  66.443  1.00  0.00    -0.232 OA 
HETATM   19  O   UNL     1     -11.235   6.354  68.543  1.00  0.00    -0.328 OA 
ENDBRANCH  15  16
ENDBRANCH  12  15
ENDBRANCH   5   7
ENDBRANCH   3   5
ENDBRANCH   2   3
TORSDOF 5
ENDMDL
MODEL       57
REMARK 921   NORMALIZED FREE ENERGY PREDICTED BY IDOCK:   -4.72 KCAL/MOL
REMARK 922        TOTAL FREE ENERGY PREDICTED BY IDOCK:   -6.81 KCAL/MOL
REMARK 923 INTER-LIGAND FREE ENERGY PREDICTED BY IDOCK:   -6.08 KCAL/MOL
REMARK 924 INTRA-LIGAND FREE ENERGY PREDICTED BY IDOCK:   -0.73 KCAL/MOL
REMARK 927      BINDING AFFINITY PREDICTED BY RF-SCORE:    0.00 PKD
ROOT
HETATM    1  C   UNL     1     -10.696   4.929  73.858  1.00  0.00    -0.363 C  
HETATM    2  C   UNL     1     -11.337   5.480  72.588  1.00  0.00    -0.346 C  
ENDROOT
BRANCH   2   3
HETATM    3  C   UNL     1     -11.145   6.971  72.402  1.00  0.00    -0.294 C  
HETATM    4  C   UNL     1     -10.274   7.662  73.158  1.00  0.00    -0.401 C  
BRANCH   3   5
HETATM    5  C   UNL     1     -12.058   7.623  71.397  1.00  0.00    -0.316 C  
HETATM    6  O   UNL     1     -13.128   7.094  71.117  1.00  0.00    -0.361 OA 
BRANCH   5   7
HETATM    7  C   UNL     1     -11.643   8.856  70.660  1.00  0.00    -0.251 A  
HETATM    8  C   UNL     1     -12.239  10.109  70.904  1.00  0.00    -0.356 A  
HETATM    9 CL   UNL     1     -13.389  10.304  72.201  1.00  0.00    -0.499 Cl 
HETATM   10  C   UNL     1     -11.872  11.236  70.123  1.00  0.00    -0.364 A  
HETATM   11 CL   UNL     1     -12.532  12.796  70.523  1.00  0.00    -0.328 Cl 
HETATM   12  C   UNL     1     -10.928  11.096  69.088  1.00  0.00    -0.242 A  
HETATM   13  C   UNL     1     -10.687   8.741  69.642  1.00  0.00    -0.212 A  
HETATM   14  C   UNL     1     -10.318   9.854  68.886  1.00  0.00    -0.221 A  
BRANCH  12  15
HETATM   15  O   UNL     1     -10.444  12.063  68.238  1.00  0.00    -0.192 OA 
BRANCH  15  16
HETATM   16  C   UNL     1     -11.158  12.277  67.014  1.00  0.00    -0.287 C  
HETATM   17  C   UNL     1     -11.579  13.732  66.886  1.00  0.00    -0.370 C  
HETATM   18  O   UNL     1     -12.229  14.179  65.951  1.00  0.00    -0.412 OA 
HETATM   19  O   UNL     1     -11.157  14.510  67.917  1.00  0.00    -0.262 OA 
ENDBRANCH  15  16
ENDBRANCH  12  15
ENDBRANCH   5   7
ENDBRANCH   3   5
ENDBRANCH   2   3
TORSDOF 5
ENDMDL
MODEL       58
REMARK 921   NORMALIZED FREE ENERGY PREDICTED BY IDOCK:   -4.70 KCAL/MOL
REMARK 922        TOTAL FREE ENERGY PREDICTED BY IDOCK:   -6.78 KCAL/MOL
REMARK 923 INTER-LIGAND FREE ENERGY PREDICTED BY IDOCK:   -6.28 KCAL/MOL
REMARK 924 INTRA-LIGAND FREE ENERGY PREDICTED BY IDOCK:   -0.50 KCAL/MOL
REMARK 927      BINDING AFFINITY PREDICTED BY RF-SCORE:    0.00 PKD
ROOT
HETATM    1  C   UNL     1      -7.363  17.434  66.247  1.00  0.00    -0.347 C  
HETATM    2  C   UNL     1      -8.524  16.446  66.295  1.00  0.00    -0.372 C  
ENDROOT
BRANCH   2   3
HETATM    3  C   UNL     1      -9.857  17.047  65.900  1.00  0.00    -0.202 C  
HETATM    4  C   UNL     1     -10.226  18.268  66.327  1.00  0.00    -0.414 C  
BRANCH   3   5
HETATM    5  C   UNL     1     -10.761  16.151  65.094  1.00  0.00    -0.371 C  
HETATM    6  O   UNL     1     -11.440  16.627  64.191  1.00  0.00    -1.131 OA 
BRANCH   5   7
HETATM    7  C   UNL     1     -10.922  14.705  65.437  1.00  0.00    -0.358 A  
HETATM    8  C   UNL     1     -11.319  14.281  66.721  1.00  0.00    -0.348 A  
HETATM    9 CL   UNL     1     -11.796  15.445  67.929  1.00  0.00    -0.203 Cl 
HETATM   10  C   UNL     1     -11.379  12.896  67.026  1.00  0.00    -0.309 A  
HETATM   11 CL   UNL     1     -11.988  12.396  68.578  1.00  0.00    -0.336 Cl 
HETATM   12  C   UNL     1     -11.019  11.946  66.052  1.00  0.00    -0.309 A  
HETATM   13  C   UNL     1     -10.590  13.743  64.473  1.00  0.00    -0.405 A  
HETATM   14  C   UNL     1     -10.664  12.383  64.772  1.00  0.00    -0.332 A  
BRANCH  12  15
HETATM   15  O   UNL     1     -11.020  10.574  66.158  1.00  0.00    -0.037 OA 
BRANCH  15  16
HETATM   16  C   UNL     1      -9.803   9.890  65.833  1.00  0.00    -0.274 C  
HETATM   17  C   UNL     1      -9.521   8.790  66.844  1.00  0.00    -0.177 C  
HETATM   18  O   UNL     1      -8.530   8.073  66.819  1.00  0.00    -0.122 OA 
HETATM   19  O   UNL     1     -10.487   8.664  67.791  1.00  0.00    -0.235 OA 
ENDBRANCH  15  16
ENDBRANCH  12  15
ENDBRANCH   5   7
ENDBRANCH   3   5
ENDBRANCH   2   3
TORSDOF 5
ENDMDL
MODEL       59
REMARK 921   NORMALIZED FREE ENERGY PREDICTED BY IDOCK:   -4.70 KCAL/MOL
REMARK 922        TOTAL FREE ENERGY PREDICTED BY IDOCK:   -6.78 KCAL/MOL
REMARK 923 INTER-LIGAND FREE ENERGY PREDICTED BY IDOCK:   -5.99 KCAL/MOL
REMARK 924 INTRA-LIGAND FREE ENERGY PREDICTED BY IDOCK:   -0.79 KCAL/MOL
REMARK 927      BINDING AFFINITY PREDICTED BY RF-SCORE:    0.00 PKD
ROOT
HETATM    1  C   UNL     1     -12.698  13.946  65.499  1.00  0.00    -0.536 C  
HETATM    2  C   UNL     1     -12.372  12.612  64.834  1.00  0.00    -0.563 C  
ENDROOT
BRANCH   2   3
HETATM    3  C   UNL     1     -10.918  12.207  64.955  1.00  0.00    -0.355 C  
HETATM    4  C   UNL     1     -10.337  11.412  64.039  1.00  0.00    -0.418 C  
BRANCH   3   5
HETATM    5  C   UNL     1     -10.216  12.668  66.206  1.00  0.00    -0.251 C  
HETATM    6  O   UNL     1      -9.455  13.627  66.155  1.00  0.00    -0.241 OA 
BRANCH   5   7
HETATM    7  C   UNL     1     -10.354  11.917  67.491  1.00  0.00    -0.219 A  
HETATM    8  C   UNL     1      -9.560  10.792  67.788  1.00  0.00    -0.162 A  
HETATM    9 CL   UNL     1      -8.263  10.318  66.723  1.00  0.00    -0.123 Cl 
HETATM   10  C   UNL     1      -9.781  10.060  68.984  1.00  0.00    -0.199 A  
HETATM   11 CL   UNL     1      -8.710   8.749  69.386  1.00  0.00    -0.140 Cl 
HETATM   12  C   UNL     1     -10.810  10.446  69.863  1.00  0.00    -0.298 A  
HETATM   13  C   UNL     1     -11.358  12.300  68.391  1.00  0.00    -0.340 A  
HETATM   14  C   UNL     1     -11.562  11.588  69.572  1.00  0.00    -0.400 A  
BRANCH  12  15
HETATM   15  O   UNL     1     -11.168   9.872  71.062  1.00  0.00    -0.340 OA 
BRANCH  15  16
HETATM   16  C   UNL     1     -11.960   8.679  71.007  1.00  0.00    -0.243 C  
HETATM   17  C   UNL     1     -13.286   8.883  71.724  1.00  0.00    -0.378 C  
HETATM   18  O   UNL     1     -14.137   8.014  71.853  1.00  0.00    -0.383 OA 
HETATM   19  O   UNL     1     -13.449  10.141  72.210  1.00  0.00    -0.398 OA 
ENDBRANCH  15  16
ENDBRANCH  12  15
ENDBRANCH   5   7
ENDBRANCH   3   5
ENDBRANCH   2   3
TORSDOF 5
ENDMDL
MODEL       60
REMARK 921   NORMALIZED FREE ENERGY PREDICTED BY IDOCK:   -4.69 KCAL/MOL
REMARK 922        TOTAL FREE ENERGY PREDICTED BY IDOCK:   -6.77 KCAL/MOL
REMARK 923 INTER-LIGAND FREE ENERGY PREDICTED BY IDOCK:   -6.21 KCAL/MOL
REMARK 924 INTRA-LIGAND FREE ENERGY PREDICTED BY IDOCK:   -0.56 KCAL/MOL
REMARK 927      BINDING AFFINITY PREDICTED BY RF-SCORE:    0.00 PKD
ROOT
HETATM    1  C   UNL     1     -11.117  16.194  64.643  1.00  0.00    -0.310 C  
HETATM    2  C   UNL     1     -10.544  15.049  65.474  1.00  0.00    -0.380 C  
ENDROOT
BRANCH   2   3
HETATM    3  C   UNL     1     -11.524  14.466  66.471  1.00  0.00    -0.369 C  
HETATM    4  C   UNL     1     -12.688  13.924  66.070  1.00  0.00    -0.410 C  
BRANCH   3   5
HETATM    5  C   UNL     1     -11.150  14.628  67.921  1.00  0.00    -0.291 C  
HETATM    6  O   UNL     1     -10.522  15.619  68.278  1.00  0.00    -0.241 OA 
BRANCH   5   7
HETATM    7  C   UNL     1     -11.444  13.556  68.920  1.00  0.00    -0.348 A  
HETATM    8  C   UNL     1     -10.987  12.234  68.755  1.00  0.00    -0.236 A  
HETATM    9 CL   UNL     1      -9.915  11.826  67.440  1.00  0.00    -0.195 Cl 
HETATM   10  C   UNL     1     -11.358  11.230  69.687  1.00  0.00    -0.287 A  
HETATM   11 CL   UNL     1     -10.684   9.634  69.528  1.00  0.00    -0.238 Cl 
HETATM   12  C   UNL     1     -12.205  11.552  70.765  1.00  0.00    -0.363 A  
HETATM   13  C   UNL     1     -12.265  13.862  70.014  1.00  0.00    -0.408 A  
HETATM   14  C   UNL     1     -12.617  12.877  70.936  1.00  0.00    -0.355 A  
BRANCH  12  15
HETATM   15  O   UNL     1     -12.664  10.725  71.765  1.00  0.00    -0.413 OA 
BRANCH  15  16
HETATM   16  C   UNL     1     -13.633   9.734  71.403  1.00  0.00    -0.249 C  
HETATM   17  C   UNL     1     -13.159   8.347  71.811  1.00  0.00    -0.351 C  
HETATM   18  O   UNL     1     -13.782   7.317  71.592  1.00  0.00    -0.380 OA 
HETATM   19  O   UNL     1     -11.966   8.353  72.460  1.00  0.00    -0.393 OA 
ENDBRANCH  15  16
ENDBRANCH  12  15
ENDBRANCH   5   7
ENDBRANCH   3   5
ENDBRANCH   2   3
TORSDOF 5
ENDMDL
MODEL       61
REMARK 921   NORMALIZED FREE ENERGY PREDICTED BY IDOCK:   -4.67 KCAL/MOL
REMARK 922        TOTAL FREE ENERGY PREDICTED BY IDOCK:   -6.75 KCAL/MOL
REMARK 923 INTER-LIGAND FREE ENERGY PREDICTED BY IDOCK:   -6.10 KCAL/MOL
REMARK 924 INTRA-LIGAND FREE ENERGY PREDICTED BY IDOCK:   -0.64 KCAL/MOL
REMARK 927      BINDING AFFINITY PREDICTED BY RF-SCORE:    0.00 PKD
ROOT
HETATM    1  C   UNL     1      -6.328  19.553  64.666  1.00  0.00    -0.200 C  
HETATM    2  C   UNL     1      -6.548  18.964  66.056  1.00  0.00    -0.264 C  
ENDROOT
BRANCH   2   3
HETATM    3  C   UNL     1      -7.293  19.884  67.001  1.00  0.00    -0.272 C  
HETATM    4  C   UNL     1      -6.816  21.103  67.308  1.00  0.00    -0.408 C  
BRANCH   3   5
HETATM    5  C   UNL     1      -8.528  19.301  67.636  1.00  0.00    -0.292 C  
HETATM    6  O   UNL     1      -9.164  19.965  68.447  1.00  0.00    -0.315 OA 
BRANCH   5   7
HETATM    7  C   UNL     1      -8.941  17.889  67.372  1.00  0.00    -0.245 A  
HETATM    8  C   UNL     1      -8.326  16.797  68.016  1.00  0.00    -0.200 A  
HETATM    9 CL   UNL     1      -7.152  17.061  69.278  1.00  0.00    -0.218 Cl 
HETATM   10  C   UNL     1      -8.693  15.469  67.673  1.00  0.00    -0.175 A  
HETATM   11 CL   UNL     1      -8.008  14.143  68.567  1.00  0.00    -0.142 Cl 
HETATM   12  C   UNL     1      -9.657  15.243  66.672  1.00  0.00    -0.257 A  
HETATM   13  C   UNL     1      -9.916  17.644  66.395  1.00  0.00    -0.337 A  
HETATM   14  C   UNL     1     -10.285  16.338  66.071  1.00  0.00    -0.376 A  
BRANCH  12  15
HETATM   15  O   UNL     1     -10.143  14.041  66.212  1.00  0.00    -0.282 OA 
BRANCH  15  16
HETATM   16  C   UNL     1     -11.289  14.082  65.353  1.00  0.00    -0.315 C  
HETATM   17  C   UNL     1     -12.142  12.837  65.537  1.00  0.00    -0.465 C  
HETATM   18  O   UNL     1     -13.162  12.604  64.903  1.00  0.00    -0.819 OA 
HETATM   19  O   UNL     1     -11.668  11.993  66.490  1.00  0.00    -0.523 OA 
ENDBRANCH  15  16
ENDBRANCH  12  15
ENDBRANCH   5   7
ENDBRANCH   3   5
ENDBRANCH   2   3
TORSDOF 5
ENDMDL
MODEL       62
REMARK 921   NORMALIZED FREE ENERGY PREDICTED BY IDOCK:   -4.66 KCAL/MOL
REMARK 922        TOTAL FREE ENERGY PREDICTED BY IDOCK:   -6.73 KCAL/MOL
REMARK 923 INTER-LIGAND FREE ENERGY PREDICTED BY IDOCK:   -6.04 KCAL/MOL
REMARK 924 INTRA-LIGAND FREE ENERGY PREDICTED BY IDOCK:   -0.69 KCAL/MOL
REMARK 927      BINDING AFFINITY PREDICTED BY RF-SCORE:    0.00 PKD
ROOT
HETATM    1  C   UNL     1      -8.889   7.958  73.893  1.00  0.00    -0.315 C  
HETATM    2  C   UNL     1      -9.341   8.100  72.443  1.00  0.00    -0.308 C  
ENDROOT
BRANCH   2   3
HETATM    3  C   UNL     1     -10.468   7.163  72.058  1.00  0.00    -0.232 C  
HETATM    4  C   UNL     1     -10.626   5.975  72.667  1.00  0.00    -0.251 C  
BRANCH   3   5
HETATM    5  C   UNL     1     -11.315   7.609  70.895  1.00  0.00    -0.276 C  
HETATM    6  O   UNL     1     -11.817   6.772  70.154  1.00  0.00    -0.349 OA 
BRANCH   5   7
HETATM    7  C   UNL     1     -11.478   9.059  70.568  1.00  0.00    -0.248 A  
HETATM    8  C   UNL     1     -12.296   9.911  71.336  1.00  0.00    -0.404 A  
HETATM    9 CL   UNL     1     -13.037   9.337  72.807  1.00  0.00    -0.303 Cl 
HETATM   10  C   UNL     1     -12.487  11.261  70.941  1.00  0.00    -0.394 A  
HETATM   11 CL   UNL     1     -13.403  12.324  71.969  1.00  0.00    -0.578 Cl 
HETATM   12  C   UNL     1     -11.876  11.742  69.767  1.00  0.00    -0.349 A  
HETATM   13  C   UNL     1     -10.859   9.563  69.416  1.00  0.00    -0.226 A  
HETATM   14  C   UNL     1     -11.036  10.894  69.039  1.00  0.00    -0.302 A  
BRANCH  12  15
HETATM   15  O   UNL     1     -11.937  13.008  69.232  1.00  0.00    -0.307 OA 
BRANCH  15  16
HETATM   16  C   UNL     1     -10.765  13.495  68.565  1.00  0.00    -0.255 C  
HETATM   17  C   UNL     1     -11.116  14.023  67.183  1.00  0.00    -0.303 C  
HETATM   18  O   UNL     1     -10.297  14.468  66.390  1.00  0.00    -0.280 OA 
HETATM   19  O   UNL     1     -12.444  13.964  66.902  1.00  0.00    -0.357 OA 
ENDBRANCH  15  16
ENDBRANCH  12  15
ENDBRANCH   5   7
ENDBRANCH   3   5
ENDBRANCH   2   3
TORSDOF 5
ENDMDL
MODEL       63
REMARK 921   NORMALIZED FREE ENERGY PREDICTED BY IDOCK:   -4.65 KCAL/MOL
REMARK 922        TOTAL FREE ENERGY PREDICTED BY IDOCK:   -6.71 KCAL/MOL
REMARK 923 INTER-LIGAND FREE ENERGY PREDICTED BY IDOCK:   -5.90 KCAL/MOL
REMARK 924 INTRA-LIGAND FREE ENERGY PREDICTED BY IDOCK:   -0.82 KCAL/MOL
REMARK 927      BINDING AFFINITY PREDICTED BY RF-SCORE:    0.00 PKD
ROOT
HETATM    1  C   UNL     1     -11.402   4.922  73.141  1.00  0.00    -0.395 C  
HETATM    2  C   UNL     1     -10.076   4.853  72.390  1.00  0.00    -0.240 C  
ENDROOT
BRANCH   2   3
HETATM    3  C   UNL     1     -10.044   5.686  71.125  1.00  0.00    -0.262 C  
HETATM    4  C   UNL     1     -10.377   5.158  69.933  1.00  0.00    -0.347 C  
BRANCH   3   5
HETATM    5  C   UNL     1      -9.525   7.090  71.285  1.00  0.00    -0.164 C  
HETATM    6  O   UNL     1      -8.390   7.272  71.713  1.00  0.00    -0.104 OA 
BRANCH   5   7
HETATM    7  C   UNL     1     -10.400   8.274  71.024  1.00  0.00    -0.230 A  
HETATM    8  C   UNL     1     -10.229   9.095  69.892  1.00  0.00    -0.205 A  
HETATM    9 CL   UNL     1      -9.077   8.668  68.655  1.00  0.00    -0.139 Cl 
HETATM   10  C   UNL     1     -11.030  10.256  69.727  1.00  0.00    -0.289 A  
HETATM   11 CL   UNL     1     -10.883  11.186  68.264  1.00  0.00    -0.235 Cl 
HETATM   12  C   UNL     1     -11.979  10.599  70.708  1.00  0.00    -0.374 A  
HETATM   13  C   UNL     1     -11.368   8.619  71.978  1.00  0.00    -0.432 A  
HETATM   14  C   UNL     1     -12.163   9.752  71.805  1.00  0.00    -0.449 A  
BRANCH  12  15
HETATM   15  O   UNL     1     -12.844  11.669  70.721  1.00  0.00    -0.229 OA 
BRANCH  15  16
HETATM   16  C   UNL     1     -13.277  12.148  72.000  1.00  0.00    -0.391 C  
HETATM   17  C   UNL     1     -13.406  13.663  71.990  1.00  0.00    -0.459 C  
HETATM   18  O   UNL     1     -13.730  14.331  72.962  1.00  0.00    -0.613 OA 
HETATM   19  O   UNL     1     -13.135  14.220  70.781  1.00  0.00    -0.343 OA 
ENDBRANCH  15  16
ENDBRANCH  12  15
ENDBRANCH   5   7
ENDBRANCH   3   5
ENDBRANCH   2   3
TORSDOF 5
ENDMDL
MODEL       64
REMARK 921   NORMALIZED FREE ENERGY PREDICTED BY IDOCK:   -4.64 KCAL/MOL
REMARK 922        TOTAL FREE ENERGY PREDICTED BY IDOCK:   -6.70 KCAL/MOL
REMARK 923 INTER-LIGAND FREE ENERGY PREDICTED BY IDOCK:   -6.74 KCAL/MOL
REMARK 924 INTRA-LIGAND FREE ENERGY PREDICTED BY IDOCK:    0.04 KCAL/MOL
REMARK 927      BINDING AFFINITY PREDICTED BY RF-SCORE:    0.00 PKD
ROOT
HETATM    1  C   UNL     1     -13.528  12.052  72.057  1.00  0.00    -0.364 C  
HETATM    2  C   UNL     1     -13.610  13.468  72.618  1.00  0.00    -0.572 C  
ENDROOT
BRANCH   2   3
HETATM    3  C   UNL     1     -13.407  14.552  71.580  1.00  0.00    -0.435 C  
HETATM    4  C   UNL     1     -14.409  15.379  71.229  1.00  0.00    -0.402 C  
BRANCH   3   5
HETATM    5  C   UNL     1     -12.058  14.566  70.910  1.00  0.00    -0.336 C  
HETATM    6  O   UNL     1     -11.079  14.970  71.527  1.00  0.00    -0.283 OA 
BRANCH   5   7
HETATM    7  C   UNL     1     -11.905  14.189  69.472  1.00  0.00    -0.373 A  
HETATM    8  C   UNL     1     -11.645  12.865  69.070  1.00  0.00    -0.322 A  
HETATM    9 CL   UNL     1     -11.647  11.569  70.238  1.00  0.00    -0.361 Cl 
HETATM   10  C   UNL     1     -11.424  12.566  67.700  1.00  0.00    -0.334 A  
HETATM   11 CL   UNL     1     -11.225  10.907  67.215  1.00  0.00    -0.356 Cl 
HETATM   12  C   UNL     1     -11.443  13.600  66.744  1.00  0.00    -0.346 A  
HETATM   13  C   UNL     1     -11.944  15.201  68.502  1.00  0.00    -0.243 A  
HETATM   14  C   UNL     1     -11.741  14.902  67.155  1.00  0.00    -0.292 A  
BRANCH  12  15
HETATM   15  O   UNL     1     -11.261  13.506  65.384  1.00  0.00    -0.288 OA 
BRANCH  15  16
HETATM   16  C   UNL     1     -12.428  13.300  64.578  1.00  0.00    -0.319 C  
HETATM   17  C   UNL     1     -12.181  12.211  63.545  1.00  0.00    -0.567 C  
HETATM   18  O   UNL     1     -13.002  11.858  62.710  1.00  0.00    -0.163 OA 
HETATM   19  O   UNL     1     -10.948  11.648  63.639  1.00  0.00    -0.383 OA 
ENDBRANCH  15  16
ENDBRANCH  12  15
ENDBRANCH   5   7
ENDBRANCH   3   5
ENDBRANCH   2   3
TORSDOF 5
ENDMDL
MODEL       65
REMARK 921   NORMALIZED FREE ENERGY PREDICTED BY IDOCK:   -4.64 KCAL/MOL
REMARK 922        TOTAL FREE ENERGY PREDICTED BY IDOCK:   -6.70 KCAL/MOL
REMARK 923 INTER-LIGAND FREE ENERGY PREDICTED BY IDOCK:   -6.48 KCAL/MOL
REMARK 924 INTRA-LIGAND FREE ENERGY PREDICTED BY IDOCK:   -0.22 KCAL/MOL
REMARK 927      BINDING AFFINITY PREDICTED BY RF-SCORE:    0.00 PKD
ROOT
HETATM    1  C   UNL     1     -10.454  16.965  69.253  1.00  0.00    -0.319 C  
HETATM    2  C   UNL     1     -10.183  15.666  70.006  1.00  0.00    -0.277 C  
ENDROOT
BRANCH   2   3
HETATM    3  C   UNL     1     -11.305  15.251  70.935  1.00  0.00    -0.380 C  
HETATM    4  C   UNL     1     -11.292  15.586  72.237  1.00  0.00    -0.397 C  
BRANCH   3   5
HETATM    5  C   UNL     1     -12.361  14.367  70.325  1.00  0.00    -0.348 C  
HETATM    6  O   UNL     1     -13.421  14.191  70.915  1.00  0.00    -0.259 OA 
BRANCH   5   7
HETATM    7  C   UNL     1     -12.104  13.619  69.056  1.00  0.00    -0.348 A  
HETATM    8  C   UNL     1     -11.739  12.258  69.052  1.00  0.00    -0.324 A  
HETATM    9 CL   UNL     1     -11.724  11.341  70.536  1.00  0.00    -0.405 Cl 
HETATM   10  C   UNL     1     -11.425  11.609  67.829  1.00  0.00    -0.302 A  
HETATM   11 CL   UNL     1     -11.095   9.900  67.837  1.00  0.00    -0.284 Cl 
HETATM   12  C   UNL     1     -11.456  12.332  66.622  1.00  0.00    -0.373 A  
HETATM   13  C   UNL     1     -12.153  14.316  67.841  1.00  0.00    -0.296 A  
HETATM   14  C   UNL     1     -11.858  13.671  66.640  1.00  0.00    -0.447 A  
BRANCH  12  15
HETATM   15  O   UNL     1     -11.193  11.879  65.350  1.00  0.00    -0.317 OA 
BRANCH  15  16
HETATM   16  C   UNL     1     -11.094  12.862  64.311  1.00  0.00    -0.378 C  
HETATM   17  C   UNL     1     -12.345  12.854  63.446  1.00  0.00    -0.410 C  
HETATM   18  O   UNL     1     -12.508  13.574  62.470  1.00  0.00     0.055 OA 
HETATM   19  O   UNL     1     -13.286  11.969  63.864  1.00  0.00    -0.669 OA 
ENDBRANCH  15  16
ENDBRANCH  12  15
ENDBRANCH   5   7
ENDBRANCH   3   5
ENDBRANCH   2   3
TORSDOF 5
ENDMDL
MODEL       66
REMARK 921   NORMALIZED FREE ENERGY PREDICTED BY IDOCK:   -4.62 KCAL/MOL
REMARK 922        TOTAL FREE ENERGY PREDICTED BY IDOCK:   -6.67 KCAL/MOL
REMARK 923 INTER-LIGAND FREE ENERGY PREDICTED BY IDOCK:   -5.92 KCAL/MOL
REMARK 924 INTRA-LIGAND FREE ENERGY PREDICTED BY IDOCK:   -0.75 KCAL/MOL
REMARK 927      BINDING AFFINITY PREDICTED BY RF-SCORE:    0.00 PKD
ROOT
HETATM    1  C   UNL     1      -9.432  15.406  65.730  1.00  0.00    -0.325 C  
HETATM    2  C   UNL     1     -10.858  14.894  65.559  1.00  0.00    -0.365 C  
ENDROOT
BRANCH   2   3
HETATM    3  C   UNL     1     -11.452  14.302  66.821  1.00  0.00    -0.380 C  
HETATM    4  C   UNL     1     -11.697  15.064  67.901  1.00  0.00    -0.310 C  
BRANCH   3   5
HETATM    5  C   UNL     1     -11.647  12.808  66.809  1.00  0.00    -0.370 C  
HETATM    6  O   UNL     1     -12.280  12.287  65.898  1.00  0.00    -0.634 OA 
BRANCH   5   7
HETATM    7  C   UNL     1     -11.167  11.956  67.939  1.00  0.00    -0.325 A  
HETATM    8  C   UNL     1      -9.907  11.326  67.917  1.00  0.00    -0.176 A  
HETATM    9 CL   UNL     1      -8.781  11.644  66.624  1.00  0.00    -0.185 Cl 
HETATM   10  C   UNL     1      -9.526  10.459  68.975  1.00  0.00    -0.197 A  
HETATM   11 CL   UNL     1      -7.920   9.789  68.985  1.00  0.00    -0.091 Cl 
HETATM   12  C   UNL     1     -10.417  10.212  70.036  1.00  0.00    -0.274 A  
HETATM   13  C   UNL     1     -12.031  11.716  69.017  1.00  0.00    -0.368 A  
HETATM   14  C   UNL     1     -11.647  10.876  70.062  1.00  0.00    -0.424 A  
BRANCH  12  15
HETATM   15  O   UNL     1     -10.226   9.417  71.143  1.00  0.00    -0.304 OA 
BRANCH  15  16
HETATM   16  C   UNL     1     -10.430   8.008  70.982  1.00  0.00    -0.203 C  
HETATM   17  C   UNL     1     -11.576   7.528  71.859  1.00  0.00    -0.275 C  
HETATM   18  O   UNL     1     -11.940   6.363  71.936  1.00  0.00    -0.329 OA 
HETATM   19  O   UNL     1     -12.178   8.527  72.555  1.00  0.00    -0.389 OA 
ENDBRANCH  15  16
ENDBRANCH  12  15
ENDBRANCH   5   7
ENDBRANCH   3   5
ENDBRANCH   2   3
TORSDOF 5
ENDMDL
MODEL       67
REMARK 921   NORMALIZED FREE ENERGY PREDICTED BY IDOCK:   -4.60 KCAL/MOL
REMARK 922        TOTAL FREE ENERGY PREDICTED BY IDOCK:   -6.65 KCAL/MOL
REMARK 923 INTER-LIGAND FREE ENERGY PREDICTED BY IDOCK:   -6.03 KCAL/MOL
REMARK 924 INTRA-LIGAND FREE ENERGY PREDICTED BY IDOCK:   -0.62 KCAL/MOL
REMARK 927      BINDING AFFINITY PREDICTED BY RF-SCORE:    0.00 PKD
ROOT
HETATM    1  C   UNL     1     -10.744  16.856  69.163  1.00  0.00    -0.298 C  
HETATM    2  C   UNL     1     -10.531  16.054  70.443  1.00  0.00    -0.019 C  
ENDROOT
BRANCH   2   3
HETATM    3  C   UNL     1     -11.799  15.826  71.240  1.00  0.00    -0.491 C  
HETATM    4  C   UNL     1     -11.920  16.275  72.502  1.00  0.00    -0.648 C  
BRANCH   3   5
HETATM    5  C   UNL     1     -12.850  14.986  70.563  1.00  0.00    -0.333 C  
HETATM    6  O   UNL     1     -14.014  15.371  70.542  1.00  0.00    -0.154 OA 
BRANCH   5   7
HETATM    7  C   UNL     1     -12.521  13.642  69.998  1.00  0.00    -0.267 A  
HETATM    8  C   UNL     1     -12.657  12.460  70.753  1.00  0.00    -0.211 A  
HETATM    9 CL   UNL     1     -13.372  12.503  72.343  1.00  0.00    -0.519 Cl 
HETATM   10  C   UNL     1     -12.254  11.214  70.204  1.00  0.00    -0.337 A  
HETATM   11 CL   UNL     1     -12.544   9.756  71.108  1.00  0.00    -0.417 Cl 
HETATM   12  C   UNL     1     -11.697  11.163  68.912  1.00  0.00    -0.337 A  
HETATM   13  C   UNL     1     -11.986  13.567  68.704  1.00  0.00    -0.378 A  
HETATM   14  C   UNL     1     -11.605  12.340  68.163  1.00  0.00    -0.396 A  
BRANCH  12  15
HETATM   15  O   UNL     1     -11.259  10.060  68.215  1.00  0.00    -0.229 OA 
BRANCH  15  16
HETATM   16  C   UNL     1     -10.487  10.296  67.032  1.00  0.00    -0.244 C  
HETATM   17  C   UNL     1     -10.147   8.984  66.343  1.00  0.00    -0.281 C  
HETATM   18  O   UNL     1      -9.470   8.897  65.327  1.00  0.00    -0.130 OA 
HETATM   19  O   UNL     1     -10.678   7.896  66.960  1.00  0.00    -0.339 OA 
ENDBRANCH  15  16
ENDBRANCH  12  15
ENDBRANCH   5   7
ENDBRANCH   3   5
ENDBRANCH   2   3
TORSDOF 5
ENDMDL
MODEL       68
REMARK 921   NORMALIZED FREE ENERGY PREDICTED BY IDOCK:   -4.57 KCAL/MOL
REMARK 922        TOTAL FREE ENERGY PREDICTED BY IDOCK:   -6.62 KCAL/MOL
REMARK 923 INTER-LIGAND FREE ENERGY PREDICTED BY IDOCK:   -5.92 KCAL/MOL
REMARK 924 INTRA-LIGAND FREE ENERGY PREDICTED BY IDOCK:   -0.70 KCAL/MOL
REMARK 927      BINDING AFFINITY PREDICTED BY RF-SCORE:    0.00 PKD
ROOT
HETATM    1  C   UNL     1     -11.065   5.796  72.991  1.00  0.00    -0.305 C  
HETATM    2  C   UNL     1     -11.931   6.648  72.068  1.00  0.00    -0.361 C  
ENDROOT
BRANCH   2   3
HETATM    3  C   UNL     1     -11.277   6.975  70.742  1.00  0.00    -0.323 C  
HETATM    4  C   UNL     1     -11.370   6.138  69.693  1.00  0.00    -0.442 C  
BRANCH   3   5
HETATM    5  C   UNL     1     -10.446   8.231  70.719  1.00  0.00    -0.196 C  
HETATM    6  O   UNL     1      -9.375   8.261  71.315  1.00  0.00    -0.153 OA 
BRANCH   5   7
HETATM    7  C   UNL     1     -10.947   9.478  70.065  1.00  0.00    -0.284 A  
HETATM    8  C   UNL     1     -10.699   9.762  68.708  1.00  0.00    -0.215 A  
HETATM    9 CL   UNL     1      -9.923   8.581  67.685  1.00  0.00    -0.233 Cl 
HETATM   10  C   UNL     1     -11.123  10.996  68.149  1.00  0.00    -0.270 A  
HETATM   11 CL   UNL     1     -10.913  11.272  66.444  1.00  0.00    -0.316 Cl 
HETATM   12  C   UNL     1     -11.771  11.948  68.959  1.00  0.00    -0.331 A  
HETATM   13  C   UNL     1     -11.616  10.428  70.850  1.00  0.00    -0.428 A  
HETATM   14  C   UNL     1     -12.044  11.634  70.294  1.00  0.00    -0.443 A  
BRANCH  12  15
HETATM   15  O   UNL     1     -12.257  13.184  68.600  1.00  0.00    -0.252 OA 
BRANCH  15  16
HETATM   16  C   UNL     1     -11.297  14.219  68.351  1.00  0.00    -0.283 C  
HETATM   17  C   UNL     1     -11.495  14.811  66.964  1.00  0.00    -0.353 C  
HETATM   18  O   UNL     1     -10.791  15.690  66.487  1.00  0.00    -0.311 OA 
HETATM   19  O   UNL     1     -12.547  14.275  66.293  1.00  0.00    -0.416 OA 
ENDBRANCH  15  16
ENDBRANCH  12  15
ENDBRANCH   5   7
ENDBRANCH   3   5
ENDBRANCH   2   3
TORSDOF 5
ENDMDL
MODEL       69
REMARK 921   NORMALIZED FREE ENERGY PREDICTED BY IDOCK:   -4.57 KCAL/MOL
REMARK 922        TOTAL FREE ENERGY PREDICTED BY IDOCK:   -6.61 KCAL/MOL
REMARK 923 INTER-LIGAND FREE ENERGY PREDICTED BY IDOCK:   -5.93 KCAL/MOL
REMARK 924 INTRA-LIGAND FREE ENERGY PREDICTED BY IDOCK:   -0.68 KCAL/MOL
REMARK 927      BINDING AFFINITY PREDICTED BY RF-SCORE:    0.00 PKD
ROOT
HETATM    1  C   UNL     1      -9.414   8.272  72.795  1.00  0.00    -0.343 C  
HETATM    2  C   UNL     1      -9.043   7.974  71.346  1.00  0.00    -0.175 C  
ENDROOT
BRANCH   2   3
HETATM    3  C   UNL     1      -9.302   9.126  70.397  1.00  0.00    -0.272 C  
HETATM    4  C   UNL     1      -8.306   9.932  69.989  1.00  0.00    -0.191 C  
BRANCH   3   5
HETATM    5  C   UNL     1     -10.746   9.356  70.034  1.00  0.00    -0.239 C  
HETATM    6  O   UNL     1     -11.590   8.522  70.344  1.00  0.00    -0.204 OA 
BRANCH   5   7
HETATM    7  C   UNL     1     -11.159  10.538  69.218  1.00  0.00    -0.298 A  
HETATM    8  C   UNL     1     -11.080  10.539  67.811  1.00  0.00    -0.317 A  
HETATM    9 CL   UNL     1     -10.638   9.089  66.949  1.00  0.00    -0.291 Cl 
HETATM   10  C   UNL     1     -11.405  11.712  67.080  1.00  0.00    -0.306 A  
HETATM   11 CL   UNL     1     -11.415  11.652  65.341  1.00  0.00    -0.238 Cl 
HETATM   12  C   UNL     1     -11.785  12.883  67.764  1.00  0.00    -0.362 A  
HETATM   13  C   UNL     1     -11.564  11.706  69.879  1.00  0.00    -0.366 A  
HETATM   14  C   UNL     1     -11.896  12.852  69.157  1.00  0.00    -0.353 A  
BRANCH  12  15
HETATM   15  O   UNL     1     -12.141  14.102  67.235  1.00  0.00    -0.417 OA 
BRANCH  15  16
HETATM   16  C   UNL     1     -11.087  15.041  66.984  1.00  0.00    -0.334 C  
HETATM   17  C   UNL     1     -11.062  15.439  65.517  1.00  0.00    -0.298 C  
HETATM   18  O   UNL     1     -10.243  16.204  65.027  1.00  0.00    -0.535 OA 
HETATM   19  O   UNL     1     -12.053  14.867  64.785  1.00  0.00    -0.393 OA 
ENDBRANCH  15  16
ENDBRANCH  12  15
ENDBRANCH   5   7
ENDBRANCH   3   5
ENDBRANCH   2   3
TORSDOF 5
ENDMDL
MODEL       70
REMARK 921   NORMALIZED FREE ENERGY PREDICTED BY IDOCK:   -4.56 KCAL/MOL
REMARK 922        TOTAL FREE ENERGY PREDICTED BY IDOCK:   -6.60 KCAL/MOL
REMARK 923 INTER-LIGAND FREE ENERGY PREDICTED BY IDOCK:   -5.80 KCAL/MOL
REMARK 924 INTRA-LIGAND FREE ENERGY PREDICTED BY IDOCK:   -0.80 KCAL/MOL
REMARK 927      BINDING AFFINITY PREDICTED BY RF-SCORE:    0.00 PKD
ROOT
HETATM    1  C   UNL     1      -6.378  20.494  64.113  1.00  0.00    -0.295 C  
HETATM    2  C   UNL     1      -6.273  19.606  65.349  1.00  0.00    -0.268 C  
ENDROOT
BRANCH   2   3
HETATM    3  C   UNL     1      -7.312  19.908  66.410  1.00  0.00    -0.291 C  
HETATM    4  C   UNL     1      -7.004  20.628  67.503  1.00  0.00    -0.395 C  
BRANCH   3   5
HETATM    5  C   UNL     1      -8.659  19.266  66.202  1.00  0.00    -0.257 C  
HETATM    6  O   UNL     1      -9.519  19.856  65.558  1.00  0.00    -0.260 OA 
BRANCH   5   7
HETATM    7  C   UNL     1      -9.003  17.963  66.849  1.00  0.00    -0.265 A  
HETATM    8  C   UNL     1      -9.663  17.897  68.092  1.00  0.00    -0.320 A  
HETATM    9 CL   UNL     1     -10.251  19.349  68.859  1.00  0.00    -0.442 Cl 
HETATM   10  C   UNL     1      -9.897  16.640  68.709  1.00  0.00    -0.252 A  
HETATM   11 CL   UNL     1     -10.820  16.577  70.182  1.00  0.00    -0.287 Cl 
HETATM   12  C   UNL     1      -9.447  15.459  68.088  1.00  0.00    -0.202 A  
HETATM   13  C   UNL     1      -8.584  16.775  66.235  1.00  0.00    -0.340 A  
HETATM   14  C   UNL     1      -8.828  15.540  66.837  1.00  0.00    -0.284 A  
BRANCH  12  15
HETATM   15  O   UNL     1      -9.585  14.162  68.523  1.00  0.00    -0.217 OA 
BRANCH  15  16
HETATM   16  C   UNL     1     -10.061  13.199  67.574  1.00  0.00    -0.222 C  
HETATM   17  C   UNL     1     -11.450  12.712  67.956  1.00  0.00    -0.318 C  
HETATM   18  O   UNL     1     -12.075  11.865  67.333  1.00  0.00    -0.577 OA 
HETATM   19  O   UNL     1     -11.950  13.317  69.064  1.00  0.00    -0.310 OA 
ENDBRANCH  15  16
ENDBRANCH  12  15
ENDBRANCH   5   7
ENDBRANCH   3   5
ENDBRANCH   2   3
TORSDOF 5
ENDMDL
MODEL       71
REMARK 921   NORMALIZED FREE ENERGY PREDICTED BY IDOCK:   -4.56 KCAL/MOL
REMARK 922        TOTAL FREE ENERGY PREDICTED BY IDOCK:   -6.60 KCAL/MOL
REMARK 923 INTER-LIGAND FREE ENERGY PREDICTED BY IDOCK:   -7.68 KCAL/MOL
REMARK 924 INTRA-LIGAND FREE ENERGY PREDICTED BY IDOCK:    1.08 KCAL/MOL
REMARK 927      BINDING AFFINITY PREDICTED BY RF-SCORE:    0.00 PKD
ROOT
HETATM    1  C   UNL     1     -12.650  15.948  74.185  1.00  0.00    -0.741 C  
HETATM    2  C   UNL     1     -12.078  15.516  72.838  1.00  0.00    -0.557 C  
ENDROOT
BRANCH   2   3
HETATM    3  C   UNL     1     -13.087  14.841  71.932  1.00  0.00    -0.419 C  
HETATM    4  C   UNL     1     -14.305  15.371  71.726  1.00  0.00    -0.639 C  
BRANCH   3   5
HETATM    5  C   UNL     1     -12.667  13.507  71.372  1.00  0.00    -0.336 C  
HETATM    6  O   UNL     1     -12.753  12.502  72.069  1.00  0.00    -0.165 OA 
BRANCH   5   7
HETATM    7  C   UNL     1     -12.054  13.396  70.013  1.00  0.00    -0.404 A  
HETATM    8  C   UNL     1     -11.365  14.469  69.414  1.00  0.00    -0.279 A  
HETATM    9 CL   UNL     1     -11.062  15.935  70.309  1.00  0.00    -0.350 Cl 
HETATM   10  C   UNL     1     -10.870  14.348  68.090  1.00  0.00    -0.244 A  
HETATM   11 CL   UNL     1      -9.919  15.640  67.417  1.00  0.00    -0.230 Cl 
HETATM   12  C   UNL     1     -11.089  13.161  67.365  1.00  0.00    -0.275 A  
HETATM   13  C   UNL     1     -12.240  12.214  69.284  1.00  0.00    -0.106 A  
HETATM   14  C   UNL     1     -11.740  12.092  67.988  1.00  0.00    -0.398 A  
BRANCH  12  15
HETATM   15  O   UNL     1     -10.684  12.855  66.086  1.00  0.00    -0.268 OA 
BRANCH  15  16
HETATM   16  C   UNL     1     -10.920  13.838  65.071  1.00  0.00    -0.357 C  
HETATM   17  C   UNL     1     -12.158  13.485  64.261  1.00  0.00    -0.431 C  
HETATM   18  O   UNL     1     -12.568  14.141  63.312  1.00  0.00    -0.766 OA 
HETATM   19  O   UNL     1     -12.787  12.363  64.697  1.00  0.00    -0.714 OA 
ENDBRANCH  15  16
ENDBRANCH  12  15
ENDBRANCH   5   7
ENDBRANCH   3   5
ENDBRANCH   2   3
TORSDOF 5
ENDMDL
MODEL       72
REMARK 921   NORMALIZED FREE ENERGY PREDICTED BY IDOCK:   -4.54 KCAL/MOL
REMARK 922        TOTAL FREE ENERGY PREDICTED BY IDOCK:   -6.58 KCAL/MOL
REMARK 923 INTER-LIGAND FREE ENERGY PREDICTED BY IDOCK:   -5.82 KCAL/MOL
REMARK 924 INTRA-LIGAND FREE ENERGY PREDICTED BY IDOCK:   -0.76 KCAL/MOL
REMARK 927      BINDING AFFINITY PREDICTED BY RF-SCORE:    0.00 PKD
ROOT
HETATM    1  C   UNL     1     -10.631  19.972  67.924  1.00  0.00    -0.379 C  
HETATM    2  C   UNL     1      -9.590  18.991  68.453  1.00  0.00    -0.429 C  
ENDROOT
BRANCH   2   3
HETATM    3  C   UNL     1      -8.324  18.932  67.623  1.00  0.00    -0.296 C  
HETATM    4  C   UNL     1      -7.476  19.975  67.569  1.00  0.00    -0.322 C  
BRANCH   3   5
HETATM    5  C   UNL     1      -8.143  17.684  66.800  1.00  0.00    -0.236 C  
HETATM    6  O   UNL     1      -7.496  17.732  65.760  1.00  0.00    -0.526 OA 
BRANCH   5   7
HETATM    7  C   UNL     1      -8.821  16.406  67.175  1.00  0.00    -0.214 A  
HETATM    8  C   UNL     1     -10.018  15.987  66.562  1.00  0.00    -0.279 A  
HETATM    9 CL   UNL     1     -10.682  16.876  65.216  1.00  0.00    -0.251 Cl 
HETATM   10  C   UNL     1     -10.671  14.807  67.006  1.00  0.00    -0.300 A  
HETATM   11 CL   UNL     1     -12.081  14.246  66.154  1.00  0.00    -0.430 Cl 
HETATM   12  C   UNL     1     -10.133  14.068  68.077  1.00  0.00    -0.239 A  
HETATM   13  C   UNL     1      -8.288  15.643  68.223  1.00  0.00    -0.154 A  
HETATM   14  C   UNL     1      -8.924  14.476  68.647  1.00  0.00    -0.181 A  
BRANCH  12  15
HETATM   15  O   UNL     1     -10.613  12.907  68.637  1.00  0.00    -0.248 OA 
BRANCH  15  16
HETATM   16  C   UNL     1      -9.971  11.682  68.260  1.00  0.00    -0.201 C  
HETATM   17  C   UNL     1     -11.003  10.600  67.983  1.00  0.00    -0.282 C  
HETATM   18  O   UNL     1     -10.725   9.449  67.672  1.00  0.00    -0.273 OA 
HETATM   19  O   UNL     1     -12.285  11.031  68.104  1.00  0.00    -0.578 OA 
ENDBRANCH  15  16
ENDBRANCH  12  15
ENDBRANCH   5   7
ENDBRANCH   3   5
ENDBRANCH   2   3
TORSDOF 5
ENDMDL
MODEL       73
REMARK 921   NORMALIZED FREE ENERGY PREDICTED BY IDOCK:   -4.54 KCAL/MOL
REMARK 922        TOTAL FREE ENERGY PREDICTED BY IDOCK:   -6.58 KCAL/MOL
REMARK 923 INTER-LIGAND FREE ENERGY PREDICTED BY IDOCK:   -5.86 KCAL/MOL
REMARK 924 INTRA-LIGAND FREE ENERGY PREDICTED BY IDOCK:   -0.71 KCAL/MOL
REMARK 927      BINDING AFFINITY PREDICTED BY RF-SCORE:    0.00 PKD
ROOT
HETATM    1  C   UNL     1     -13.460  13.694  71.901  1.00  0.00    -0.519 C  
HETATM    2  C   UNL     1     -12.411  13.522  70.808  1.00  0.00    -0.428 C  
ENDROOT
BRANCH   2   3
HETATM    3  C   UNL     1     -11.541  14.744  70.595  1.00  0.00    -0.324 C  
HETATM    4  C   UNL     1     -11.500  15.737  71.500  1.00  0.00    -0.504 C  
BRANCH   3   5
HETATM    5  C   UNL     1     -10.821  14.807  69.273  1.00  0.00    -0.264 C  
HETATM    6  O   UNL     1     -10.675  13.784  68.613  1.00  0.00    -0.246 OA 
BRANCH   5   7
HETATM    7  C   UNL     1     -10.194  16.076  68.793  1.00  0.00    -0.225 A  
HETATM    8  C   UNL     1      -8.844  16.385  69.048  1.00  0.00    -0.240 A  
HETATM    9 CL   UNL     1      -7.796  15.215  69.807  1.00  0.00    -0.138 Cl 
HETATM   10  C   UNL     1      -8.312  17.638  68.645  1.00  0.00    -0.267 A  
HETATM   11 CL   UNL     1      -6.614  17.948  68.862  1.00  0.00    -0.232 Cl 
HETATM   12  C   UNL     1      -9.142  18.582  68.011  1.00  0.00    -0.301 A  
HETATM   13  C   UNL     1     -10.999  17.019  68.139  1.00  0.00    -0.263 A  
HETATM   14  C   UNL     1     -10.469  18.244  67.732  1.00  0.00    -0.430 A  
BRANCH  12  15
HETATM   15  O   UNL     1      -8.810  19.834  67.546  1.00  0.00    -0.307 OA 
BRANCH  15  16
HETATM   16  C   UNL     1      -8.216  19.914  66.245  1.00  0.00    -0.329 C  
HETATM   17  C   UNL     1      -6.985  20.807  66.272  1.00  0.00    -0.138 C  
HETATM   18  O   UNL     1      -6.307  21.070  65.288  1.00  0.00    -0.238 OA 
HETATM   19  O   UNL     1      -6.693  21.288  67.508  1.00  0.00    -0.471 OA 
ENDBRANCH  15  16
ENDBRANCH  12  15
ENDBRANCH   5   7
ENDBRANCH   3   5
ENDBRANCH   2   3
TORSDOF 5
ENDMDL
MODEL       74
REMARK 921   NORMALIZED FREE ENERGY PREDICTED BY IDOCK:   -4.53 KCAL/MOL
REMARK 922        TOTAL FREE ENERGY PREDICTED BY IDOCK:   -6.56 KCAL/MOL
REMARK 923 INTER-LIGAND FREE ENERGY PREDICTED BY IDOCK:   -6.47 KCAL/MOL
REMARK 924 INTRA-LIGAND FREE ENERGY PREDICTED BY IDOCK:   -0.08 KCAL/MOL
REMARK 927      BINDING AFFINITY PREDICTED BY RF-SCORE:    0.00 PKD
ROOT
HETATM    1  C   UNL     1     -11.431  16.329  71.220  1.00  0.00    -0.369 C  
HETATM    2  C   UNL     1     -11.746  15.153  72.138  1.00  0.00    -0.502 C  
ENDROOT
BRANCH   2   3
HETATM    3  C   UNL     1     -13.072  14.483  71.842  1.00  0.00    -0.427 C  
HETATM    4  C   UNL     1     -14.237  15.133  72.018  1.00  0.00    -0.673 C  
BRANCH   3   5
HETATM    5  C   UNL     1     -12.993  13.032  71.444  1.00  0.00    -0.283 C  
HETATM    6  O   UNL     1     -13.469  12.175  72.180  1.00  0.00    -0.494 OA 
BRANCH   5   7
HETATM    7  C   UNL     1     -12.258  12.607  70.214  1.00  0.00    -0.347 A  
HETATM    8  C   UNL     1     -11.605  11.362  70.126  1.00  0.00    -0.280 A  
HETATM    9 CL   UNL     1     -11.760  10.190  71.408  1.00  0.00    -0.417 Cl 
HETATM   10  C   UNL     1     -10.850  11.034  68.970  1.00  0.00    -0.229 A  
HETATM   11 CL   UNL     1     -10.153   9.445  68.835  1.00  0.00    -0.191 Cl 
HETATM   12  C   UNL     1     -10.735  11.963  67.919  1.00  0.00    -0.204 A  
HETATM   13  C   UNL     1     -12.153  13.509  69.146  1.00  0.00    -0.331 A  
HETATM   14  C   UNL     1     -11.423  13.177  68.005  1.00  0.00    -0.346 A  
BRANCH  12  15
HETATM   15  O   UNL     1     -10.061  11.824  66.728  1.00  0.00    -0.205 OA 
BRANCH  15  16
HETATM   16  C   UNL     1     -10.646  12.431  65.568  1.00  0.00    -0.275 C  
HETATM   17  C   UNL     1     -10.167  11.738  64.302  1.00  0.00    -0.302 C  
HETATM   18  O   UNL     1     -10.489  12.077  63.171  1.00  0.00    -0.393 OA 
HETATM   19  O   UNL     1      -9.343  10.685  64.541  1.00  0.00    -0.206 OA 
ENDBRANCH  15  16
ENDBRANCH  12  15
ENDBRANCH   5   7
ENDBRANCH   3   5
ENDBRANCH   2   3
TORSDOF 5
ENDMDL
MODEL       75
REMARK 921   NORMALIZED FREE ENERGY PREDICTED BY IDOCK:   -4.52 KCAL/MOL
REMARK 922        TOTAL FREE ENERGY PREDICTED BY IDOCK:   -6.55 KCAL/MOL
REMARK 923 INTER-LIGAND FREE ENERGY PREDICTED BY IDOCK:   -5.82 KCAL/MOL
REMARK 924 INTRA-LIGAND FREE ENERGY PREDICTED BY IDOCK:   -0.73 KCAL/MOL
REMARK 927      BINDING AFFINITY PREDICTED BY RF-SCORE:    0.00 PKD
ROOT
HETATM    1  C   UNL     1      -9.489  15.729  65.830  1.00  0.00    -0.377 C  
HETATM    2  C   UNL     1     -10.867  15.283  65.353  1.00  0.00    -0.399 C  
ENDROOT
BRANCH   2   3
HETATM    3  C   UNL     1     -11.577  14.352  66.314  1.00  0.00    -0.377 C  
HETATM    4  C   UNL     1     -11.709  14.662  67.616  1.00  0.00    -0.389 C  
BRANCH   3   5
HETATM    5  C   UNL     1     -12.022  13.035  65.735  1.00  0.00    -0.429 C  
HETATM    6  O   UNL     1     -13.107  12.956  65.170  1.00  0.00    -0.753 OA 
BRANCH   5   7
HETATM    7  C   UNL     1     -11.209  11.794  65.919  1.00  0.00    -0.345 A  
HETATM    8  C   UNL     1     -10.464  11.225  64.867  1.00  0.00    -0.314 A  
HETATM    9 CL   UNL     1     -10.335  12.043  63.332  1.00  0.00    -0.476 Cl 
HETATM   10  C   UNL     1      -9.773  10.002  65.064  1.00  0.00    -0.317 A  
HETATM   11 CL   UNL     1      -8.763   9.383  63.789  1.00  0.00    -0.230 Cl 
HETATM   12  C   UNL     1      -9.850   9.343  66.306  1.00  0.00    -0.281 A  
HETATM   13  C   UNL     1     -11.254  11.136  67.156  1.00  0.00    -0.320 A  
HETATM   14  C   UNL     1     -10.562   9.941  67.351  1.00  0.00    -0.338 A  
BRANCH  12  15
HETATM   15  O   UNL     1      -9.250   8.165  66.686  1.00  0.00    -0.158 OA 
BRANCH  15  16
HETATM   16  C   UNL     1      -8.142   8.256  67.590  1.00  0.00    -0.126 C  
HETATM   17  C   UNL     1      -7.047   7.277  67.196  1.00  0.00    -0.087 C  
HETATM   18  O   UNL     1      -6.003   7.127  67.817  1.00  0.00    -0.030 OA 
HETATM   19  O   UNL     1      -7.330   6.576  66.067  1.00  0.00    -0.076 OA 
ENDBRANCH  15  16
ENDBRANCH  12  15
ENDBRANCH   5   7
ENDBRANCH   3   5
ENDBRANCH   2   3
TORSDOF 5
ENDMDL
MODEL       76
REMARK 921   NORMALIZED FREE ENERGY PREDICTED BY IDOCK:   -4.51 KCAL/MOL
REMARK 922        TOTAL FREE ENERGY PREDICTED BY IDOCK:   -6.54 KCAL/MOL
REMARK 923 INTER-LIGAND FREE ENERGY PREDICTED BY IDOCK:   -5.85 KCAL/MOL
REMARK 924 INTRA-LIGAND FREE ENERGY PREDICTED BY IDOCK:   -0.68 KCAL/MOL
REMARK 927      BINDING AFFINITY PREDICTED BY RF-SCORE:    0.00 PKD
ROOT
HETATM    1  C   UNL     1     -10.777   7.228  67.115  1.00  0.00    -0.413 C  
HETATM    2  C   UNL     1     -10.520   8.732  67.097  1.00  0.00    -0.354 C  
ENDROOT
BRANCH   2   3
HETATM    3  C   UNL     1      -9.402   9.152  66.166  1.00  0.00    -0.288 C  
HETATM    4  C   UNL     1      -8.808   8.268  65.345  1.00  0.00    -0.116 C  
BRANCH   3   5
HETATM    5  C   UNL     1      -8.947  10.582  66.300  1.00  0.00    -0.158 C  
HETATM    6  O   UNL     1      -7.783  10.874  66.049  1.00  0.00    -0.153 OA 
BRANCH   5   7
HETATM    7  C   UNL     1      -9.862  11.639  66.829  1.00  0.00    -0.222 A  
HETATM    8  C   UNL     1     -10.850  12.242  66.026  1.00  0.00    -0.275 A  
HETATM    9 CL   UNL     1     -11.152  11.661  64.409  1.00  0.00    -0.389 Cl 
HETATM   10  C   UNL     1     -11.642  13.299  66.545  1.00  0.00    -0.350 A  
HETATM   11 CL   UNL     1     -12.936  13.944  65.577  1.00  0.00    -0.486 Cl 
HETATM   12  C   UNL     1     -11.424  13.761  67.857  1.00  0.00    -0.314 A  
HETATM   13  C   UNL     1      -9.676  12.096  68.141  1.00  0.00    -0.208 A  
HETATM   14  C   UNL     1     -10.466  13.125  68.653  1.00  0.00    -0.242 A  
BRANCH  12  15
HETATM   15  O   UNL     1     -12.089  14.759  68.531  1.00  0.00    -0.272 OA 
BRANCH  15  16
HETATM   16  C   UNL     1     -11.344  15.502  69.505  1.00  0.00    -0.313 C  
HETATM   17  C   UNL     1     -12.163  15.699  70.770  1.00  0.00    -0.418 C  
HETATM   18  O   UNL     1     -11.777  16.326  71.747  1.00  0.00    -0.486 OA 
HETATM   19  O   UNL     1     -13.382  15.101  70.724  1.00  0.00    -0.396 OA 
ENDBRANCH  15  16
ENDBRANCH  12  15
ENDBRANCH   5   7
ENDBRANCH   3   5
ENDBRANCH   2   3
TORSDOF 5
ENDMDL
MODEL       77
REMARK 921   NORMALIZED FREE ENERGY PREDICTED BY IDOCK:   -4.46 KCAL/MOL
REMARK 922        TOTAL FREE ENERGY PREDICTED BY IDOCK:   -6.47 KCAL/MOL
REMARK 923 INTER-LIGAND FREE ENERGY PREDICTED BY IDOCK:   -5.77 KCAL/MOL
REMARK 924 INTRA-LIGAND FREE ENERGY PREDICTED BY IDOCK:   -0.70 KCAL/MOL
REMARK 927      BINDING AFFINITY PREDICTED BY RF-SCORE:    0.00 PKD
ROOT
HETATM    1  C   UNL     1      -9.656  16.027  66.134  1.00  0.00    -0.366 C  
HETATM    2  C   UNL     1     -10.458  15.089  65.237  1.00  0.00    -0.428 C  
ENDROOT
BRANCH   2   3
HETATM    3  C   UNL     1     -11.485  14.260  65.980  1.00  0.00    -0.347 C  
HETATM    4  C   UNL     1     -11.795  14.520  67.263  1.00  0.00    -0.419 C  
BRANCH   3   5
HETATM    5  C   UNL     1     -12.043  13.085  65.222  1.00  0.00    -0.441 C  
HETATM    6  O   UNL     1     -13.253  12.998  65.043  1.00  0.00    -0.739 OA 
BRANCH   5   7
HETATM    7  C   UNL     1     -11.160  11.969  64.764  1.00  0.00    -0.369 A  
HETATM    8  C   UNL     1     -10.703  10.969  65.645  1.00  0.00    -0.148 A  
HETATM    9 CL   UNL     1     -11.282  10.905  67.289  1.00  0.00    -0.356 Cl 
HETATM   10  C   UNL     1      -9.799   9.975  65.186  1.00  0.00    -0.318 A  
HETATM   11 CL   UNL     1      -9.344   8.682  66.259  1.00  0.00    -0.260 Cl 
HETATM   12  C   UNL     1      -9.342  10.002  63.855  1.00  0.00    -0.263 A  
HETATM   13  C   UNL     1     -10.712  11.965  63.436  1.00  0.00    -0.476 A  
HETATM   14  C   UNL     1      -9.836  10.979  62.985  1.00  0.00    -0.370 A  
BRANCH  12  15
HETATM   15  O   UNL     1      -8.480   9.130  63.231  1.00  0.00    -0.189 OA 
BRANCH  15  16
HETATM   16  C   UNL     1      -7.131   9.084  63.712  1.00  0.00    -0.092 C  
HETATM   17  C   UNL     1      -6.735   7.659  64.065  1.00  0.00    -0.053 C  
HETATM   18  O   UNL     1      -5.647   7.343  64.527  1.00  0.00    -0.032 OA 
HETATM   19  O   UNL     1      -7.710   6.748  63.808  1.00  0.00    -0.102 OA 
ENDBRANCH  15  16
ENDBRANCH  12  15
ENDBRANCH   5   7
ENDBRANCH   3   5
ENDBRANCH   2   3
TORSDOF 5
ENDMDL
MODEL       78
REMARK 921   NORMALIZED FREE ENERGY PREDICTED BY IDOCK:   -4.45 KCAL/MOL
REMARK 922        TOTAL FREE ENERGY PREDICTED BY IDOCK:   -6.46 KCAL/MOL
REMARK 923 INTER-LIGAND FREE ENERGY PREDICTED BY IDOCK:   -5.73 KCAL/MOL
REMARK 924 INTRA-LIGAND FREE ENERGY PREDICTED BY IDOCK:   -0.74 KCAL/MOL
REMARK 927      BINDING AFFINITY PREDICTED BY RF-SCORE:    0.00 PKD
ROOT
HETATM    1  C   UNL     1     -10.118  15.450  66.592  1.00  0.00    -0.273 C  
HETATM    2  C   UNL     1     -10.164  14.435  65.454  1.00  0.00    -0.408 C  
ENDROOT
BRANCH   2   3
HETATM    3  C   UNL     1     -11.548  14.229  64.872  1.00  0.00    -0.384 C  
HETATM    4  C   UNL     1     -12.245  15.254  64.351  1.00  0.00    -0.222 C  
BRANCH   3   5
HETATM    5  C   UNL     1     -12.111  12.839  65.013  1.00  0.00    -0.441 C  
HETATM    6  O   UNL     1     -13.242  12.599  64.605  1.00  0.00    -0.828 OA 
BRANCH   5   7
HETATM    7  C   UNL     1     -11.356  11.767  65.730  1.00  0.00    -0.309 A  
HETATM    8  C   UNL     1     -10.510  10.867  65.051  1.00  0.00    -0.261 A  
HETATM    9 CL   UNL     1     -10.186  11.070  63.350  1.00  0.00    -0.409 Cl 
HETATM   10  C   UNL     1      -9.876   9.813  65.760  1.00  0.00    -0.290 A  
HETATM   11 CL   UNL     1      -8.743   8.791  64.924  1.00  0.00    -0.192 Cl 
HETATM   12  C   UNL     1     -10.112   9.653  67.139  1.00  0.00    -0.218 A  
HETATM   13  C   UNL     1     -11.558  11.606  67.107  1.00  0.00    -0.291 A  
HETATM   14  C   UNL     1     -10.923  10.578  67.803  1.00  0.00    -0.372 A  
BRANCH  12  15
HETATM   15  O   UNL     1      -9.588   8.706  67.989  1.00  0.00    -0.145 OA 
BRANCH  15  16
HETATM   16  C   UNL     1      -9.593   9.009  69.390  1.00  0.00    -0.160 C  
HETATM   17  C   UNL     1      -8.189   9.341  69.871  1.00  0.00    -0.145 C  
HETATM   18  O   UNL     1      -7.906   9.606  71.031  1.00  0.00    -0.310 OA 
HETATM   19  O   UNL     1      -7.260   9.327  68.880  1.00  0.00    -0.070 OA 
ENDBRANCH  15  16
ENDBRANCH  12  15
ENDBRANCH   5   7
ENDBRANCH   3   5
ENDBRANCH   2   3
TORSDOF 5
ENDMDL
MODEL       79
REMARK 921   NORMALIZED FREE ENERGY PREDICTED BY IDOCK:   -4.43 KCAL/MOL
REMARK 922        TOTAL FREE ENERGY PREDICTED BY IDOCK:   -6.44 KCAL/MOL
REMARK 923 INTER-LIGAND FREE ENERGY PREDICTED BY IDOCK:   -5.65 KCAL/MOL
REMARK 924 INTRA-LIGAND FREE ENERGY PREDICTED BY IDOCK:   -0.78 KCAL/MOL
REMARK 927      BINDING AFFINITY PREDICTED BY RF-SCORE:    0.00 PKD
ROOT
HETATM    1  C   UNL     1     -12.368  14.065  64.005  1.00  0.00    -0.341 C  
HETATM    2  C   UNL     1     -12.265  12.835  64.901  1.00  0.00    -0.519 C  
ENDROOT
BRANCH   2   3
HETATM    3  C   UNL     1     -10.943  12.105  64.791  1.00  0.00    -0.356 C  
HETATM    4  C   UNL     1     -10.572  11.503  63.647  1.00  0.00    -0.491 C  
BRANCH   3   5
HETATM    5  C   UNL     1     -10.140  12.017  66.062  1.00  0.00    -0.230 C  
HETATM    6  O   UNL     1      -9.178  12.759  66.225  1.00  0.00    -0.194 OA 
BRANCH   5   7
HETATM    7  C   UNL     1     -10.434  10.974  67.092  1.00  0.00    -0.274 A  
HETATM    8  C   UNL     1     -11.162  11.264  68.263  1.00  0.00    -0.267 A  
HETATM    9 CL   UNL     1     -11.891  12.833  68.486  1.00  0.00    -0.356 Cl 
HETATM   10  C   UNL     1     -11.347  10.264  69.253  1.00  0.00    -0.196 A  
HETATM   11 CL   UNL     1     -12.350  10.610  70.632  1.00  0.00    -0.428 Cl 
HETATM   12  C   UNL     1     -10.782   8.986  69.075  1.00  0.00    -0.141 A  
HETATM   13  C   UNL     1      -9.900   9.689  66.921  1.00  0.00    -0.257 A  
HETATM   14  C   UNL     1     -10.096   8.704  67.889  1.00  0.00    -0.254 A  
BRANCH  12  15
HETATM   15  O   UNL     1     -10.858   7.896  69.910  1.00  0.00    -0.247 OA 
BRANCH  15  16
HETATM   16  C   UNL     1     -10.083   7.937  71.114  1.00  0.00    -0.184 C  
HETATM   17  C   UNL     1     -10.963   7.682  72.328  1.00  0.00    -0.279 C  
HETATM   18  O   UNL     1     -10.560   7.692  73.483  1.00  0.00    -0.343 OA 
HETATM   19  O   UNL     1     -12.260   7.430  72.011  1.00  0.00    -0.297 OA 
ENDBRANCH  15  16
ENDBRANCH  12  15
ENDBRANCH   5   7
ENDBRANCH   3   5
ENDBRANCH   2   3
TORSDOF 5
ENDMDL
MODEL       80
REMARK 921   NORMALIZED FREE ENERGY PREDICTED BY IDOCK:   -4.42 KCAL/MOL
REMARK 922        TOTAL FREE ENERGY PREDICTED BY IDOCK:   -6.41 KCAL/MOL
REMARK 923 INTER-LIGAND FREE ENERGY PREDICTED BY IDOCK:   -5.76 KCAL/MOL
REMARK 924 INTRA-LIGAND FREE ENERGY PREDICTED BY IDOCK:   -0.66 KCAL/MOL
REMARK 927      BINDING AFFINITY PREDICTED BY RF-SCORE:    0.00 PKD
ROOT
HETATM    1  C   UNL     1     -11.997   7.487  71.698  1.00  0.00    -0.333 C  
HETATM    2  C   UNL     1     -11.552   8.498  70.645  1.00  0.00    -0.214 C  
ENDROOT
BRANCH   2   3
HETATM    3  C   UNL     1     -10.224   8.165  69.998  1.00  0.00    -0.202 C  
HETATM    4  C   UNL     1      -9.696   6.931  70.083  1.00  0.00    -0.175 C  
BRANCH   3   5
HETATM    5  C   UNL     1      -9.506   9.322  69.355  1.00  0.00    -0.168 C  
HETATM    6  O   UNL     1      -8.751  10.016  70.026  1.00  0.00    -0.191 OA 
BRANCH   5   7
HETATM    7  C   UNL     1      -9.771   9.704  67.934  1.00  0.00    -0.169 A  
HETATM    8  C   UNL     1      -9.044   9.148  66.863  1.00  0.00    -0.135 A  
HETATM    9 CL   UNL     1      -7.899   7.863  67.144  1.00  0.00    -0.107 Cl 
HETATM   10  C   UNL     1      -9.272   9.600  65.537  1.00  0.00    -0.234 A  
HETATM   11 CL   UNL     1      -8.449   8.815  64.220  1.00  0.00    -0.159 Cl 
HETATM   12  C   UNL     1     -10.210  10.622  65.295  1.00  0.00    -0.282 A  
HETATM   13  C   UNL     1     -10.719  10.702  67.670  1.00  0.00    -0.315 A  
HETATM   14  C   UNL     1     -10.951  11.134  66.364  1.00  0.00    -0.248 A  
BRANCH  12  15
HETATM   15  O   UNL     1     -10.571  11.180  64.090  1.00  0.00    -0.346 OA 
BRANCH  15  16
HETATM   16  C   UNL     1     -10.742  12.603  64.052  1.00  0.00    -0.425 C  
HETATM   17  C   UNL     1     -12.121  12.962  63.520  1.00  0.00    -0.555 C  
HETATM   18  O   UNL     1     -12.515  14.109  63.356  1.00  0.00    -0.797 OA 
HETATM   19  O   UNL     1     -12.894  11.880  63.246  1.00  0.00    -0.702 OA 
ENDBRANCH  15  16
ENDBRANCH  12  15
ENDBRANCH   5   7
ENDBRANCH   3   5
ENDBRANCH   2   3
TORSDOF 5
ENDMDL
MODEL       81
REMARK 921   NORMALIZED FREE ENERGY PREDICTED BY IDOCK:   -4.41 KCAL/MOL
REMARK 922        TOTAL FREE ENERGY PREDICTED BY IDOCK:   -6.40 KCAL/MOL
REMARK 923 INTER-LIGAND FREE ENERGY PREDICTED BY IDOCK:   -5.61 KCAL/MOL
REMARK 924 INTRA-LIGAND FREE ENERGY PREDICTED BY IDOCK:   -0.79 KCAL/MOL
REMARK 927      BINDING AFFINITY PREDICTED BY RF-SCORE:    0.00 PKD
ROOT
HETATM    1  C   UNL     1     -11.211  11.994  67.286  1.00  0.00    -0.371 C  
HETATM    2  C   UNL     1     -12.026  13.239  66.949  1.00  0.00    -0.430 C  
ENDROOT
BRANCH   2   3
HETATM    3  C   UNL     1     -11.189  14.488  66.765  1.00  0.00    -0.336 C  
HETATM    4  C   UNL     1     -10.417  14.657  65.677  1.00  0.00    -0.358 C  
BRANCH   3   5
HETATM    5  C   UNL     1     -11.208  15.458  67.918  1.00  0.00    -0.329 C  
HETATM    6  O   UNL     1     -12.099  15.386  68.756  1.00  0.00    -0.281 OA 
BRANCH   5   7
HETATM    7  C   UNL     1     -10.215  16.572  68.008  1.00  0.00    -0.271 A  
HETATM    8  C   UNL     1      -8.928  16.384  68.549  1.00  0.00    -0.224 A  
HETATM    9 CL   UNL     1      -8.381  14.790  68.997  1.00  0.00    -0.165 Cl 
HETATM   10  C   UNL     1      -8.047  17.488  68.691  1.00  0.00    -0.263 A  
HETATM   11 CL   UNL     1      -6.423  17.210  69.249  1.00  0.00    -0.226 Cl 
HETATM   12  C   UNL     1      -8.469  18.776  68.312  1.00  0.00    -0.327 A  
HETATM   13  C   UNL     1     -10.608  17.858  67.613  1.00  0.00    -0.398 A  
HETATM   14  C   UNL     1      -9.735  18.938  67.740  1.00  0.00    -0.371 A  
BRANCH  12  15
HETATM   15  O   UNL     1      -7.763  19.956  68.366  1.00  0.00    -0.311 OA 
BRANCH  15  16
HETATM   16  C   UNL     1      -7.652  20.711  67.153  1.00  0.00    -0.314 C  
HETATM   17  C   UNL     1      -6.237  20.636  66.602  1.00  0.00    -0.222 C  
HETATM   18  O   UNL     1      -5.862  21.217  65.592  1.00  0.00    -0.243 OA 
HETATM   19  O   UNL     1      -5.412  19.847  67.338  1.00  0.00    -0.170 OA 
ENDBRANCH  15  16
ENDBRANCH  12  15
ENDBRANCH   5   7
ENDBRANCH   3   5
ENDBRANCH   2   3
TORSDOF 5
ENDMDL
MODEL       82
REMARK 921   NORMALIZED FREE ENERGY PREDICTED BY IDOCK:   -4.40 KCAL/MOL
REMARK 922        TOTAL FREE ENERGY PREDICTED BY IDOCK:   -6.40 KCAL/MOL
REMARK 923 INTER-LIGAND FREE ENERGY PREDICTED BY IDOCK:   -5.49 KCAL/MOL
REMARK 924 INTRA-LIGAND FREE ENERGY PREDICTED BY IDOCK:   -0.91 KCAL/MOL
REMARK 927      BINDING AFFINITY PREDICTED BY RF-SCORE:    0.00 PKD
ROOT
HETATM    1  C   UNL     1      -9.274   9.318  68.140  1.00  0.00    -0.136 C  
HETATM    2  C   UNL     1      -9.281  10.048  69.479  1.00  0.00    -0.238 C  
ENDROOT
BRANCH   2   3
HETATM    3  C   UNL     1     -10.668  10.385  69.987  1.00  0.00    -0.321 C  
HETATM    4  C   UNL     1     -11.131   9.873  71.141  1.00  0.00    -0.359 C  
BRANCH   3   5
HETATM    5  C   UNL     1     -11.506  11.236  69.070  1.00  0.00    -0.302 C  
HETATM    6  O   UNL     1     -12.451  10.733  68.472  1.00  0.00    -0.289 OA 
BRANCH   5   7
HETATM    7  C   UNL     1     -11.151  12.662  68.798  1.00  0.00    -0.307 A  
HETATM    8  C   UNL     1     -11.549  13.708  69.653  1.00  0.00    -0.278 A  
HETATM    9 CL   UNL     1     -12.347  13.360  71.165  1.00  0.00    -0.409 Cl 
HETATM   10  C   UNL     1     -11.260  15.056  69.313  1.00  0.00    -0.286 A  
HETATM   11 CL   UNL     1     -11.654  16.319  70.443  1.00  0.00    -0.280 Cl 
HETATM   12  C   UNL     1     -10.596  15.348  68.107  1.00  0.00    -0.263 A  
HETATM   13  C   UNL     1     -10.469  12.972  67.613  1.00  0.00    -0.228 A  
HETATM   14  C   UNL     1     -10.174  14.296  67.288  1.00  0.00    -0.252 A  
BRANCH  12  15
HETATM   15  O   UNL     1     -10.227  16.578  67.613  1.00  0.00    -0.264 OA 
BRANCH  15  16
HETATM   16  C   UNL     1      -8.954  17.094  68.023  1.00  0.00    -0.233 C  
HETATM   17  C   UNL     1      -9.093  18.517  68.539  1.00  0.00    -0.328 C  
HETATM   18  O   UNL     1      -8.155  19.203  68.924  1.00  0.00    -0.344 OA 
HETATM   19  O   UNL     1     -10.374  18.967  68.546  1.00  0.00    -0.370 OA 
ENDBRANCH  15  16
ENDBRANCH  12  15
ENDBRANCH   5   7
ENDBRANCH   3   5
ENDBRANCH   2   3
TORSDOF 5
ENDMDL
MODEL       83
REMARK 921   NORMALIZED FREE ENERGY PREDICTED BY IDOCK:   -4.36 KCAL/MOL
REMARK 922        TOTAL FREE ENERGY PREDICTED BY IDOCK:   -6.34 KCAL/MOL
REMARK 923 INTER-LIGAND FREE ENERGY PREDICTED BY IDOCK:   -6.23 KCAL/MOL
REMARK 924 INTRA-LIGAND FREE ENERGY PREDICTED BY IDOCK:   -0.11 KCAL/MOL
REMARK 927      BINDING AFFINITY PREDICTED BY RF-SCORE:    0.00 PKD
ROOT
HETATM    1  C   UNL     1      -7.819  19.275  67.864  1.00  0.00    -0.324 C  
HETATM    2  C   UNL     1      -8.486  18.736  66.602  1.00  0.00    -0.299 C  
ENDROOT
BRANCH   2   3
HETATM    3  C   UNL     1      -9.783  17.998  66.862  1.00  0.00    -0.314 C  
HETATM    4  C   UNL     1     -10.390  18.054  68.060  1.00  0.00    -0.397 C  
BRANCH   3   5
HETATM    5  C   UNL     1     -10.276  17.132  65.731  1.00  0.00    -0.219 C  
HETATM    6  O   UNL     1     -10.787  17.654  64.747  1.00  0.00    -0.762 OA 
BRANCH   5   7
HETATM    7  C   UNL     1     -10.243  15.641  65.828  1.00  0.00    -0.391 A  
HETATM    8  C   UNL     1     -11.257  14.834  65.276  1.00  0.00    -0.366 A  
HETATM    9 CL   UNL     1     -12.525  15.543  64.311  1.00  0.00    -0.116 Cl 
HETATM   10  C   UNL     1     -11.228  13.427  65.463  1.00  0.00    -0.288 A  
HETATM   11 CL   UNL     1     -12.423  12.442  64.670  1.00  0.00    -0.533 Cl 
HETATM   12  C   UNL     1     -10.197  12.840  66.221  1.00  0.00    -0.253 A  
HETATM   13  C   UNL     1      -9.211  15.036  66.559  1.00  0.00    -0.320 A  
HETATM   14  C   UNL     1      -9.178  13.652  66.728  1.00  0.00    -0.251 A  
BRANCH  12  15
HETATM   15  O   UNL     1      -9.997  11.509  66.503  1.00  0.00    -0.202 OA 
BRANCH  15  16
HETATM   16  C   UNL     1      -9.670  11.166  67.855  1.00  0.00    -0.174 C  
HETATM   17  C   UNL     1     -10.928  10.829  68.642  1.00  0.00    -0.239 C  
HETATM   18  O   UNL     1     -10.936  10.532  69.829  1.00  0.00    -0.257 OA 
HETATM   19  O   UNL     1     -12.061  10.878  67.895  1.00  0.00    -0.527 OA 
ENDBRANCH  15  16
ENDBRANCH  12  15
ENDBRANCH   5   7
ENDBRANCH   3   5
ENDBRANCH   2   3
TORSDOF 5
ENDMDL
MODEL       84
REMARK 921   NORMALIZED FREE ENERGY PREDICTED BY IDOCK:   -4.34 KCAL/MOL
REMARK 922        TOTAL FREE ENERGY PREDICTED BY IDOCK:   -6.32 KCAL/MOL
REMARK 923 INTER-LIGAND FREE ENERGY PREDICTED BY IDOCK:   -5.68 KCAL/MOL
REMARK 924 INTRA-LIGAND FREE ENERGY PREDICTED BY IDOCK:   -0.64 KCAL/MOL
REMARK 927      BINDING AFFINITY PREDICTED BY RF-SCORE:    0.00 PKD
ROOT
HETATM    1  C   UNL     1     -11.351  15.216  64.803  1.00  0.00    -0.399 C  
HETATM    2  C   UNL     1     -11.208  14.851  66.278  1.00  0.00    -0.331 C  
ENDROOT
BRANCH   2   3
HETATM    3  C   UNL     1     -11.172  13.359  66.539  1.00  0.00    -0.327 C  
HETATM    4  C   UNL     1     -11.862  12.499  65.770  1.00  0.00    -0.494 C  
BRANCH   3   5
HETATM    5  C   UNL     1     -10.403  12.933  67.762  1.00  0.00    -0.222 C  
HETATM    6  O   UNL     1      -9.340  13.480  68.032  1.00  0.00    -0.199 OA 
BRANCH   5   7
HETATM    7  C   UNL     1     -10.862  11.785  68.603  1.00  0.00    -0.259 A  
HETATM    8  C   UNL     1     -11.684  11.967  69.732  1.00  0.00    -0.319 A  
HETATM    9 CL   UNL     1     -12.335  13.541  70.108  1.00  0.00    -0.371 Cl 
HETATM   10  C   UNL     1     -12.027  10.859  70.549  1.00  0.00    -0.371 A  
HETATM   11 CL   UNL     1     -13.141  11.089  71.867  1.00  0.00    -0.589 Cl 
HETATM   12  C   UNL     1     -11.527   9.579  70.243  1.00  0.00    -0.206 A  
HETATM   13  C   UNL     1     -10.393  10.499  68.300  1.00  0.00    -0.193 A  
HETATM   14  C   UNL     1     -10.744   9.409  69.097  1.00  0.00    -0.216 A  
BRANCH  12  15
HETATM   15  O   UNL     1     -11.753   8.394  70.905  1.00  0.00    -0.284 OA 
BRANCH  15  16
HETATM   16  C   UNL     1     -11.472   7.182  70.195  1.00  0.00    -0.205 C  
HETATM   17  C   UNL     1     -10.671   6.224  71.064  1.00  0.00    -0.259 C  
HETATM   18  O   UNL     1     -10.273   5.129  70.692  1.00  0.00    -0.237 OA 
HETATM   19  O   UNL     1     -10.441   6.696  72.317  1.00  0.00    -0.200 OA 
ENDBRANCH  15  16
ENDBRANCH  12  15
ENDBRANCH   5   7
ENDBRANCH   3   5
ENDBRANCH   2   3
TORSDOF 5
ENDMDL
MODEL       85
REMARK 921   NORMALIZED FREE ENERGY PREDICTED BY IDOCK:   -4.33 KCAL/MOL
REMARK 922        TOTAL FREE ENERGY PREDICTED BY IDOCK:   -6.31 KCAL/MOL
REMARK 923 INTER-LIGAND FREE ENERGY PREDICTED BY IDOCK:   -5.69 KCAL/MOL
REMARK 924 INTRA-LIGAND FREE ENERGY PREDICTED BY IDOCK:   -0.62 KCAL/MOL
REMARK 927      BINDING AFFINITY PREDICTED BY RF-SCORE:    0.00 PKD
ROOT
HETATM    1  C   UNL     1      -9.750  20.586  67.804  1.00  0.00    -0.433 C  
HETATM    2  C   UNL     1     -10.225  19.218  68.284  1.00  0.00    -0.513 C  
ENDROOT
BRANCH   2   3
HETATM    3  C   UNL     1     -10.048  18.114  67.262  1.00  0.00    -0.354 C  
HETATM    4  C   UNL     1     -10.558  18.222  66.022  1.00  0.00    -0.318 C  
BRANCH   3   5
HETATM    5  C   UNL     1      -9.360  16.871  67.761  1.00  0.00    -0.235 C  
HETATM    6  O   UNL     1      -8.194  16.931  68.136  1.00  0.00    -0.194 OA 
BRANCH   5   7
HETATM    7  C   UNL     1     -10.040  15.540  67.717  1.00  0.00    -0.232 A  
HETATM    8  C   UNL     1     -10.783  15.044  68.806  1.00  0.00    -0.241 A  
HETATM    9 CL   UNL     1     -11.073  16.042  70.207  1.00  0.00    -0.357 Cl 
HETATM   10  C   UNL     1     -11.343  13.741  68.752  1.00  0.00    -0.283 A  
HETATM   11 CL   UNL     1     -12.356  13.198  70.058  1.00  0.00    -0.290 Cl 
HETATM   12  C   UNL     1     -11.135  12.934  67.617  1.00  0.00    -0.264 A  
HETATM   13  C   UNL     1      -9.864  14.731  66.586  1.00  0.00    -0.270 A  
HETATM   14  C   UNL     1     -10.428  13.456  66.530  1.00  0.00    -0.283 A  
BRANCH  12  15
HETATM   15  O   UNL     1     -11.598  11.661  67.380  1.00  0.00    -0.471 OA 
BRANCH  15  16
HETATM   16  C   UNL     1     -11.140  10.622  68.254  1.00  0.00    -0.279 C  
HETATM   17  C   UNL     1     -10.420   9.538  67.466  1.00  0.00    -0.275 C  
HETATM   18  O   UNL     1      -9.956   8.521  67.965  1.00  0.00    -0.167 OA 
HETATM   19  O   UNL     1     -10.327   9.806  66.138  1.00  0.00    -0.231 OA 
ENDBRANCH  15  16
ENDBRANCH  12  15
ENDBRANCH   5   7
ENDBRANCH   3   5
ENDBRANCH   2   3
TORSDOF 5
ENDMDL
MODEL       86
REMARK 921   NORMALIZED FREE ENERGY PREDICTED BY IDOCK:   -4.32 KCAL/MOL
REMARK 922        TOTAL FREE ENERGY PREDICTED BY IDOCK:   -6.29 KCAL/MOL
REMARK 923 INTER-LIGAND FREE ENERGY PREDICTED BY IDOCK:   -5.54 KCAL/MOL
REMARK 924 INTRA-LIGAND FREE ENERGY PREDICTED BY IDOCK:   -0.74 KCAL/MOL
REMARK 927      BINDING AFFINITY PREDICTED BY RF-SCORE:    0.00 PKD
ROOT
HETATM    1  C   UNL     1      -7.362  20.678  67.528  1.00  0.00    -0.364 C  
HETATM    2  C   UNL     1      -7.900  19.395  66.902  1.00  0.00    -0.278 C  
ENDROOT
BRANCH   2   3
HETATM    3  C   UNL     1      -9.188  18.901  67.527  1.00  0.00    -0.319 C  
HETATM    4  C   UNL     1      -9.615  19.372  68.712  1.00  0.00    -0.495 C  
BRANCH   3   5
HETATM    5  C   UNL     1      -9.886  17.792  66.785  1.00  0.00    -0.320 C  
HETATM    6  O   UNL     1     -10.337  18.002  65.664  1.00  0.00    -0.611 OA 
BRANCH   5   7
HETATM    7  C   UNL     1     -10.128  16.464  67.427  1.00  0.00    -0.262 A  
HETATM    8  C   UNL     1      -9.149  15.451  67.440  1.00  0.00    -0.197 A  
HETATM    9 CL   UNL     1      -7.543  15.765  66.838  1.00  0.00    -0.258 Cl 
HETATM   10  C   UNL     1      -9.450  14.177  67.989  1.00  0.00    -0.213 A  
HETATM   11 CL   UNL     1      -8.189  12.983  68.103  1.00  0.00    -0.150 Cl 
HETATM   12  C   UNL     1     -10.736  13.918  68.498  1.00  0.00    -0.257 A  
HETATM   13  C   UNL     1     -11.395  16.195  67.962  1.00  0.00    -0.234 A  
HETATM   14  C   UNL     1     -11.683  14.946  68.513  1.00  0.00    -0.338 A  
BRANCH  12  15
HETATM   15  O   UNL     1     -11.210  12.759  69.071  1.00  0.00    -0.254 OA 
BRANCH  15  16
HETATM   16  C   UNL     1     -11.606  11.705  68.185  1.00  0.00    -0.319 C  
HETATM   17  C   UNL     1     -10.799  10.445  68.457  1.00  0.00    -0.237 C  
HETATM   18  O   UNL     1     -10.916   9.405  67.823  1.00  0.00    -0.219 OA 
HETATM   19  O   UNL     1      -9.928  10.574  69.491  1.00  0.00    -0.217 OA 
ENDBRANCH  15  16
ENDBRANCH  12  15
ENDBRANCH   5   7
ENDBRANCH   3   5
ENDBRANCH   2   3
TORSDOF 5
ENDMDL
MODEL       87
REMARK 921   NORMALIZED FREE ENERGY PREDICTED BY IDOCK:   -4.30 KCAL/MOL
REMARK 922        TOTAL FREE ENERGY PREDICTED BY IDOCK:   -6.27 KCAL/MOL
REMARK 923 INTER-LIGAND FREE ENERGY PREDICTED BY IDOCK:   -5.77 KCAL/MOL
REMARK 924 INTRA-LIGAND FREE ENERGY PREDICTED BY IDOCK:   -0.49 KCAL/MOL
REMARK 927      BINDING AFFINITY PREDICTED BY RF-SCORE:    0.00 PKD
ROOT
HETATM    1  C   UNL     1      -8.665   8.166  73.033  1.00  0.00    -0.309 C  
HETATM    2  C   UNL     1      -8.969   8.695  71.635  1.00  0.00    -0.305 C  
ENDROOT
BRANCH   2   3
HETATM    3  C   UNL     1     -10.137   8.006  70.960  1.00  0.00    -0.213 C  
HETATM    4  C   UNL     1     -10.555   6.792  71.357  1.00  0.00    -0.247 C  
BRANCH   3   5
HETATM    5  C   UNL     1     -10.714   8.724  69.768  1.00  0.00    -0.218 C  
HETATM    6  O   UNL     1     -10.783   8.149  68.688  1.00  0.00    -0.148 OA 
BRANCH   5   7
HETATM    7  C   UNL     1     -11.118  10.161  69.852  1.00  0.00    -0.346 A  
HETATM    8  C   UNL     1     -12.020  10.629  70.828  1.00  0.00    -0.374 A  
HETATM    9 CL   UNL     1     -12.588   9.566  72.088  1.00  0.00    -0.433 Cl 
HETATM   10  C   UNL     1     -12.439  11.985  70.819  1.00  0.00    -0.279 A  
HETATM   11 CL   UNL     1     -13.458  12.566  72.104  1.00  0.00    -0.611 Cl 
HETATM   12  C   UNL     1     -11.970  12.859  69.820  1.00  0.00    -0.296 A  
HETATM   13  C   UNL     1     -10.642  11.052  68.880  1.00  0.00    -0.239 A  
HETATM   14  C   UNL     1     -11.044  12.388  68.883  1.00  0.00    -0.307 A  
BRANCH  12  15
HETATM   15  O   UNL     1     -12.253  14.194  69.653  1.00  0.00    -0.326 OA 
BRANCH  15  16
HETATM   16  C   UNL     1     -11.289  15.136  70.139  1.00  0.00    -0.271 C  
HETATM   17  C   UNL     1     -10.914  16.130  69.051  1.00  0.00    -0.312 C  
HETATM   18  O   UNL     1     -10.088  17.022  69.192  1.00  0.00    -0.283 OA 
HETATM   19  O   UNL     1     -11.596  15.944  67.891  1.00  0.00    -0.256 OA 
ENDBRANCH  15  16
ENDBRANCH  12  15
ENDBRANCH   5   7
ENDBRANCH   3   5
ENDBRANCH   2   3
TORSDOF 5
ENDMDL
MODEL       88
REMARK 921   NORMALIZED FREE ENERGY PREDICTED BY IDOCK:   -4.27 KCAL/MOL
REMARK 922        TOTAL FREE ENERGY PREDICTED BY IDOCK:   -6.22 KCAL/MOL
REMARK 923 INTER-LIGAND FREE ENERGY PREDICTED BY IDOCK:   -5.52 KCAL/MOL
REMARK 924 INTRA-LIGAND FREE ENERGY PREDICTED BY IDOCK:   -0.70 KCAL/MOL
REMARK 927      BINDING AFFINITY PREDICTED BY RF-SCORE:    0.00 PKD
ROOT
HETATM    1  C   UNL     1     -10.333   5.287  69.400  1.00  0.00    -0.313 C  
HETATM    2  C   UNL     1     -10.548   6.794  69.311  1.00  0.00    -0.262 C  
ENDROOT
BRANCH   2   3
HETATM    3  C   UNL     1     -10.460   7.344  67.903  1.00  0.00    -0.265 C  
HETATM    4  C   UNL     1     -10.988   6.679  66.860  1.00  0.00    -0.396 C  
BRANCH   3   5
HETATM    5  C   UNL     1      -9.663   8.613  67.749  1.00  0.00    -0.165 C  
HETATM    6  O   UNL     1      -8.445   8.584  67.887  1.00  0.00    -0.128 OA 
BRANCH   5   7
HETATM    7  C   UNL     1     -10.337   9.928  67.528  1.00  0.00    -0.289 A  
HETATM    8  C   UNL     1     -10.417  10.522  66.253  1.00  0.00    -0.183 A  
HETATM    9 CL   UNL     1      -9.863   9.663  64.840  1.00  0.00    -0.209 Cl 
HETATM   10  C   UNL     1     -10.994  11.810  66.102  1.00  0.00    -0.307 A  
HETATM   11 CL   UNL     1     -11.191  12.470  64.504  1.00  0.00    -0.347 Cl 
HETATM   12  C   UNL     1     -11.466  12.505  67.232  1.00  0.00    -0.353 A  
HETATM   13  C   UNL     1     -10.835  10.625  68.638  1.00  0.00    -0.266 A  
HETATM   14  C   UNL     1     -11.414  11.885  68.484  1.00  0.00    -0.349 A  
BRANCH  12  15
HETATM   15  O   UNL     1     -12.057  13.746  67.285  1.00  0.00    -0.389 OA 
BRANCH  15  16
HETATM   16  C   UNL     1     -11.217  14.884  67.054  1.00  0.00    -0.344 C  
HETATM   17  C   UNL     1     -11.141  15.756  68.297  1.00  0.00    -0.342 C  
HETATM   18  O   UNL     1     -10.516  16.806  68.362  1.00  0.00    -0.299 OA 
HETATM   19  O   UNL     1     -11.835  15.254  69.352  1.00  0.00    -0.315 OA 
ENDBRANCH  15  16
ENDBRANCH  12  15
ENDBRANCH   5   7
ENDBRANCH   3   5
ENDBRANCH   2   3
TORSDOF 5
ENDMDL
MODEL       89
REMARK 921   NORMALIZED FREE ENERGY PREDICTED BY IDOCK:   -4.27 KCAL/MOL
REMARK 922        TOTAL FREE ENERGY PREDICTED BY IDOCK:   -6.22 KCAL/MOL
REMARK 923 INTER-LIGAND FREE ENERGY PREDICTED BY IDOCK:   -5.79 KCAL/MOL
REMARK 924 INTRA-LIGAND FREE ENERGY PREDICTED BY IDOCK:   -0.43 KCAL/MOL
REMARK 927      BINDING AFFINITY PREDICTED BY RF-SCORE:    0.00 PKD
ROOT
HETATM    1  C   UNL     1     -10.057   8.999  68.266  1.00  0.00    -0.223 C  
HETATM    2  C   UNL     1     -10.600  10.017  67.267  1.00  0.00    -0.319 C  
ENDROOT
BRANCH   2   3
HETATM    3  C   UNL     1     -11.333  11.176  67.910  1.00  0.00    -0.378 C  
HETATM    4  C   UNL     1     -11.820  11.086  69.161  1.00  0.00    -0.407 C  
BRANCH   3   5
HETATM    5  C   UNL     1     -11.560  12.373  67.025  1.00  0.00    -0.365 C  
HETATM    6  O   UNL     1     -12.342  12.291  66.084  1.00  0.00    -0.588 OA 
BRANCH   5   7
HETATM    7  C   UNL     1     -10.776  13.632  67.210  1.00  0.00    -0.283 A  
HETATM    8  C   UNL     1     -11.084  14.562  68.222  1.00  0.00    -0.261 A  
HETATM    9 CL   UNL     1     -12.307  14.202  69.412  1.00  0.00    -0.321 Cl 
HETATM   10  C   UNL     1     -10.366  15.783  68.310  1.00  0.00    -0.239 A  
HETATM   11 CL   UNL     1     -10.682  16.859  69.640  1.00  0.00    -0.261 Cl 
HETATM   12  C   UNL     1      -9.360  16.076  67.369  1.00  0.00    -0.217 A  
HETATM   13  C   UNL     1      -9.755  13.930  66.297  1.00  0.00    -0.304 A  
HETATM   14  C   UNL     1      -9.042  15.125  66.395  1.00  0.00    -0.331 A  
BRANCH  12  15
HETATM   15  O   UNL     1      -8.559  17.192  67.296  1.00  0.00    -0.196 OA 
BRANCH  15  16
HETATM   16  C   UNL     1      -7.412  17.233  68.153  1.00  0.00    -0.208 C  
HETATM   17  C   UNL     1      -7.346  18.559  68.896  1.00  0.00    -0.266 C  
HETATM   18  O   UNL     1      -6.450  18.868  69.670  1.00  0.00    -0.270 OA 
HETATM   19  O   UNL     1      -8.393  19.381  68.628  1.00  0.00    -0.356 OA 
ENDBRANCH  15  16
ENDBRANCH  12  15
ENDBRANCH   5   7
ENDBRANCH   3   5
ENDBRANCH   2   3
TORSDOF 5
ENDMDL
MODEL       90
REMARK 921   NORMALIZED FREE ENERGY PREDICTED BY IDOCK:   -4.27 KCAL/MOL
REMARK 922        TOTAL FREE ENERGY PREDICTED BY IDOCK:   -6.22 KCAL/MOL
REMARK 923 INTER-LIGAND FREE ENERGY PREDICTED BY IDOCK:   -5.56 KCAL/MOL
REMARK 924 INTRA-LIGAND FREE ENERGY PREDICTED BY IDOCK:   -0.66 KCAL/MOL
REMARK 927      BINDING AFFINITY PREDICTED BY RF-SCORE:    0.00 PKD
ROOT
HETATM    1  C   UNL     1      -9.720   8.180  72.731  1.00  0.00    -0.351 C  
HETATM    2  C   UNL     1      -9.783   8.986  71.438  1.00  0.00    -0.369 C  
ENDROOT
BRANCH   2   3
HETATM    3  C   UNL     1     -10.168   8.167  70.223  1.00  0.00    -0.200 C  
HETATM    4  C   UNL     1     -10.923   7.061  70.338  1.00  0.00    -0.301 C  
BRANCH   3   5
HETATM    5  C   UNL     1      -9.567   8.619  68.917  1.00  0.00    -0.159 C  
HETATM    6  O   UNL     1      -8.783   7.887  68.325  1.00  0.00    -0.130 OA 
BRANCH   5   7
HETATM    7  C   UNL     1      -9.833   9.987  68.376  1.00  0.00    -0.169 A  
HETATM    8  C   UNL     1      -8.856  11.002  68.397  1.00  0.00    -0.151 A  
HETATM    9 CL   UNL     1      -7.228  10.653  68.918  1.00  0.00    -0.082 Cl 
HETATM   10  C   UNL     1      -9.177  12.310  67.948  1.00  0.00    -0.190 A  
HETATM   11 CL   UNL     1      -7.922  13.512  67.869  1.00  0.00    -0.146 Cl 
HETATM   12  C   UNL     1     -10.482  12.598  67.503  1.00  0.00    -0.221 A  
HETATM   13  C   UNL     1     -11.119  10.288  67.907  1.00  0.00    -0.341 A  
HETATM   14  C   UNL     1     -11.428  11.570  67.453  1.00  0.00    -0.349 A  
BRANCH  12  15
HETATM   15  O   UNL     1     -10.976  13.791  67.028  1.00  0.00    -0.285 OA 
BRANCH  15  16
HETATM   16  C   UNL     1     -12.127  13.732  66.176  1.00  0.00    -0.441 C  
HETATM   17  C   UNL     1     -11.828  14.366  64.827  1.00  0.00    -0.433 C  
HETATM   18  O   UNL     1     -12.646  14.475  63.923  1.00  0.00    -0.827 OA 
HETATM   19  O   UNL     1     -10.546  14.800  64.706  1.00  0.00    -0.413 OA 
ENDBRANCH  15  16
ENDBRANCH  12  15
ENDBRANCH   5   7
ENDBRANCH   3   5
ENDBRANCH   2   3
TORSDOF 5
ENDMDL
MODEL       91
REMARK 921   NORMALIZED FREE ENERGY PREDICTED BY IDOCK:   -4.27 KCAL/MOL
REMARK 922        TOTAL FREE ENERGY PREDICTED BY IDOCK:   -6.22 KCAL/MOL
REMARK 923 INTER-LIGAND FREE ENERGY PREDICTED BY IDOCK:   -5.52 KCAL/MOL
REMARK 924 INTRA-LIGAND FREE ENERGY PREDICTED BY IDOCK:   -0.70 KCAL/MOL
REMARK 927      BINDING AFFINITY PREDICTED BY RF-SCORE:    0.00 PKD
ROOT
HETATM    1  C   UNL     1     -10.310  16.652  69.144  1.00  0.00    -0.326 C  
HETATM    2  C   UNL     1     -10.285  15.447  70.080  1.00  0.00    -0.265 C  
ENDROOT
BRANCH   2   3
HETATM    3  C   UNL     1     -11.560  15.266  70.878  1.00  0.00    -0.382 C  
HETATM    4  C   UNL     1     -11.787  15.973  71.999  1.00  0.00    -0.623 C  
BRANCH   3   5
HETATM    5  C   UNL     1     -12.485  14.183  70.388  1.00  0.00    -0.357 C  
HETATM    6  O   UNL     1     -13.683  14.251  70.637  1.00  0.00    -0.013 OA 
BRANCH   5   7
HETATM    7  C   UNL     1     -11.957  12.973  69.687  1.00  0.00    -0.367 A  
HETATM    8  C   UNL     1     -11.851  12.909  68.284  1.00  0.00    -0.330 A  
HETATM    9 CL   UNL     1     -12.190  14.313  67.306  1.00  0.00    -0.381 Cl 
HETATM   10  C   UNL     1     -11.422  11.711  67.656  1.00  0.00    -0.303 A  
HETATM   11 CL   UNL     1     -11.184  11.695  65.932  1.00  0.00    -0.335 Cl 
HETATM   12  C   UNL     1     -11.124  10.577  68.435  1.00  0.00    -0.281 A  
HETATM   13  C   UNL     1     -11.632  11.841  70.448  1.00  0.00    -0.109 A  
HETATM   14  C   UNL     1     -11.196  10.670  69.829  1.00  0.00    -0.363 A  
BRANCH  12  15
HETATM   15  O   UNL     1     -10.690   9.341  68.013  1.00  0.00    -0.232 OA 
BRANCH  15  16
HETATM   16  C   UNL     1     -10.445   8.353  69.021  1.00  0.00    -0.201 C  
HETATM   17  C   UNL     1     -10.874   6.976  68.537  1.00  0.00    -0.138 C  
HETATM   18  O   UNL     1     -10.804   5.958  69.212  1.00  0.00    -0.306 OA 
HETATM   19  O   UNL     1     -11.344   6.974  67.262  1.00  0.00    -0.207 OA 
ENDBRANCH  15  16
ENDBRANCH  12  15
ENDBRANCH   5   7
ENDBRANCH   3   5
ENDBRANCH   2   3
TORSDOF 5
ENDMDL
MODEL       92
REMARK 921   NORMALIZED FREE ENERGY PREDICTED BY IDOCK:   -4.26 KCAL/MOL
REMARK 922        TOTAL FREE ENERGY PREDICTED BY IDOCK:   -6.22 KCAL/MOL
REMARK 923 INTER-LIGAND FREE ENERGY PREDICTED BY IDOCK:   -5.31 KCAL/MOL
REMARK 924 INTRA-LIGAND FREE ENERGY PREDICTED BY IDOCK:   -0.90 KCAL/MOL
REMARK 927      BINDING AFFINITY PREDICTED BY RF-SCORE:    0.00 PKD
ROOT
HETATM    1  C   UNL     1     -10.886   5.688  73.424  1.00  0.00    -0.315 C  
HETATM    2  C   UNL     1      -9.376   5.887  73.501  1.00  0.00    -0.134 C  
ENDROOT
BRANCH   2   3
HETATM    3  C   UNL     1      -8.794   6.621  72.310  1.00  0.00    -0.133 C  
HETATM    4  C   UNL     1      -8.226   5.954  71.289  1.00  0.00    -0.123 C  
BRANCH   3   5
HETATM    5  C   UNL     1      -8.806   8.124  72.403  1.00  0.00    -0.197 C  
HETATM    6  O   UNL     1      -8.193   8.681  73.307  1.00  0.00    -0.411 OA 
BRANCH   5   7
HETATM    7  C   UNL     1      -9.633   8.950  71.471  1.00  0.00    -0.362 A  
HETATM    8  C   UNL     1      -9.092   9.531  70.307  1.00  0.00    -0.253 A  
HETATM    9 CL   UNL     1      -7.456   9.176  69.820  1.00  0.00    -0.064 Cl 
HETATM   10  C   UNL     1      -9.893  10.375  69.495  1.00  0.00    -0.184 A  
HETATM   11 CL   UNL     1      -9.240  10.982  68.000  1.00  0.00    -0.154 Cl 
HETATM   12  C   UNL     1     -11.223  10.651  69.865  1.00  0.00    -0.308 A  
HETATM   13  C   UNL     1     -10.967   9.217  71.810  1.00  0.00    -0.429 A  
HETATM   14  C   UNL     1     -11.755  10.035  71.002  1.00  0.00    -0.479 A  
BRANCH  12  15
HETATM   15  O   UNL     1     -12.147  11.431  69.209  1.00  0.00    -0.325 OA 
BRANCH  15  16
HETATM   16  C   UNL     1     -12.005  12.852  69.323  1.00  0.00    -0.260 C  
HETATM   17  C   UNL     1     -11.998  13.503  67.948  1.00  0.00    -0.337 C  
HETATM   18  O   UNL     1     -11.858  14.703  67.758  1.00  0.00    -0.357 OA 
HETATM   19  O   UNL     1     -12.171  12.619  66.931  1.00  0.00    -0.489 OA 
ENDBRANCH  15  16
ENDBRANCH  12  15
ENDBRANCH   5   7
ENDBRANCH   3   5
ENDBRANCH   2   3
TORSDOF 5
ENDMDL
MODEL       93
REMARK 921   NORMALIZED FREE ENERGY PREDICTED BY IDOCK:   -4.23 KCAL/MOL
REMARK 922        TOTAL FREE ENERGY PREDICTED BY IDOCK:   -6.17 KCAL/MOL
REMARK 923 INTER-LIGAND FREE ENERGY PREDICTED BY IDOCK:   -5.60 KCAL/MOL
REMARK 924 INTRA-LIGAND FREE ENERGY PREDICTED BY IDOCK:   -0.57 KCAL/MOL
REMARK 927      BINDING AFFINITY PREDICTED BY RF-SCORE:    0.00 PKD
ROOT
HETATM    1  C   UNL     1     -10.493   8.353  67.135  1.00  0.00    -0.380 C  
HETATM    2  C   UNL     1      -9.599   9.496  67.606  1.00  0.00    -0.163 C  
ENDROOT
BRANCH   2   3
HETATM    3  C   UNL     1     -10.225  10.867  67.451  1.00  0.00    -0.236 C  
HETATM    4  C   UNL     1     -11.103  11.339  68.353  1.00  0.00    -0.296 C  
BRANCH   3   5
HETATM    5  C   UNL     1      -9.874  11.601  66.183  1.00  0.00    -0.223 C  
HETATM    6  O   UNL     1      -9.539  10.968  65.189  1.00  0.00    -0.214 OA 
BRANCH   5   7
HETATM    7  C   UNL     1      -9.832  13.095  66.141  1.00  0.00    -0.284 A  
HETATM    8  C   UNL     1     -10.707  13.845  65.330  1.00  0.00    -0.325 A  
HETATM    9 CL   UNL     1     -11.992  13.058  64.452  1.00  0.00    -0.428 Cl 
HETATM   10  C   UNL     1     -10.577  15.256  65.259  1.00  0.00    -0.417 A  
HETATM   11 CL   UNL     1     -11.743  16.170  64.346  1.00  0.00    -0.248 Cl 
HETATM   12  C   UNL     1      -9.557  15.906  65.981  1.00  0.00    -0.350 A  
HETATM   13  C   UNL     1      -8.839  13.762  66.872  1.00  0.00    -0.203 A  
HETATM   14  C   UNL     1      -8.723  15.150  66.811  1.00  0.00    -0.307 A  
BRANCH  12  15
HETATM   15  O   UNL     1      -9.281  17.252  66.043  1.00  0.00    -0.478 OA 
BRANCH  15  16
HETATM   16  C   UNL     1      -8.805  17.767  67.292  1.00  0.00    -0.238 C  
HETATM   17  C   UNL     1      -7.465  18.463  67.110  1.00  0.00    -0.218 C  
HETATM   18  O   UNL     1      -6.822  18.965  68.022  1.00  0.00    -0.227 OA 
HETATM   19  O   UNL     1      -7.040  18.487  65.820  1.00  0.00    -0.370 OA 
ENDBRANCH  15  16
ENDBRANCH  12  15
ENDBRANCH   5   7
ENDBRANCH   3   5
ENDBRANCH   2   3
TORSDOF 5
ENDMDL
MODEL       94
REMARK 921   NORMALIZED FREE ENERGY PREDICTED BY IDOCK:   -4.22 KCAL/MOL
REMARK 922        TOTAL FREE ENERGY PREDICTED BY IDOCK:   -6.17 KCAL/MOL
REMARK 923 INTER-LIGAND FREE ENERGY PREDICTED BY IDOCK:   -5.78 KCAL/MOL
REMARK 924 INTRA-LIGAND FREE ENERGY PREDICTED BY IDOCK:   -0.39 KCAL/MOL
REMARK 927      BINDING AFFINITY PREDICTED BY RF-SCORE:    0.00 PKD
ROOT
HETATM    1  C   UNL     1     -10.278  20.062  68.692  1.00  0.00    -0.443 C  
HETATM    2  C   UNL     1     -10.108  19.703  67.219  1.00  0.00    -0.534 C  
ENDROOT
BRANCH   2   3
HETATM    3  C   UNL     1     -10.005  18.214  66.959  1.00  0.00    -0.341 C  
HETATM    4  C   UNL     1     -10.513  17.665  65.841  1.00  0.00    -0.247 C  
BRANCH   3   5
HETATM    5  C   UNL     1      -9.396  17.401  68.070  1.00  0.00    -0.276 C  
HETATM    6  O   UNL     1      -8.387  17.807  68.636  1.00  0.00    -0.298 OA 
BRANCH   5   7
HETATM    7  C   UNL     1      -9.941  16.057  68.434  1.00  0.00    -0.220 A  
HETATM    8  C   UNL     1      -9.364  14.863  67.960  1.00  0.00    -0.193 A  
HETATM    9 CL   UNL     1      -7.878  14.901  67.047  1.00  0.00    -0.200 Cl 
HETATM   10  C   UNL     1      -9.963  13.613  68.263  1.00  0.00    -0.236 A  
HETATM   11 CL   UNL     1      -9.165  12.147  67.769  1.00  0.00    -0.182 Cl 
HETATM   12  C   UNL     1     -11.150  13.568  69.019  1.00  0.00    -0.250 A  
HETATM   13  C   UNL     1     -11.110  15.991  69.205  1.00  0.00    -0.331 A  
HETATM   14  C   UNL     1     -11.688  14.760  69.514  1.00  0.00    -0.358 A  
BRANCH  12  15
HETATM   15  O   UNL     1     -11.867  12.463  69.416  1.00  0.00    -0.301 OA 
BRANCH  15  16
HETATM   16  C   UNL     1     -12.483  12.510  70.709  1.00  0.00    -0.268 C  
HETATM   17  C   UNL     1     -12.721  11.105  71.241  1.00  0.00    -0.426 C  
HETATM   18  O   UNL     1     -13.262  10.859  72.311  1.00  0.00    -0.406 OA 
HETATM   19  O   UNL     1     -12.265  10.129  70.413  1.00  0.00    -0.266 OA 
ENDBRANCH  15  16
ENDBRANCH  12  15
ENDBRANCH   5   7
ENDBRANCH   3   5
ENDBRANCH   2   3
TORSDOF 5
ENDMDL
MODEL       95
REMARK 921   NORMALIZED FREE ENERGY PREDICTED BY IDOCK:   -4.22 KCAL/MOL
REMARK 922        TOTAL FREE ENERGY PREDICTED BY IDOCK:   -6.16 KCAL/MOL
REMARK 923 INTER-LIGAND FREE ENERGY PREDICTED BY IDOCK:   -5.38 KCAL/MOL
REMARK 924 INTRA-LIGAND FREE ENERGY PREDICTED BY IDOCK:   -0.78 KCAL/MOL
REMARK 927      BINDING AFFINITY PREDICTED BY RF-SCORE:    0.00 PKD
ROOT
HETATM    1  C   UNL     1     -11.639  13.081  69.065  1.00  0.00    -0.367 C  
HETATM    2  C   UNL     1     -11.994  13.625  67.685  1.00  0.00    -0.386 C  
ENDROOT
BRANCH   2   3
HETATM    3  C   UNL     1     -11.302  12.906  66.546  1.00  0.00    -0.361 C  
HETATM    4  C   UNL     1     -11.224  11.564  66.513  1.00  0.00    -0.324 C  
BRANCH   3   5
HETATM    5  C   UNL     1     -10.635  13.793  65.528  1.00  0.00    -0.307 C  
HETATM    6  O   UNL     1     -10.579  13.436  64.356  1.00  0.00    -0.411 OA 
BRANCH   5   7
HETATM    7  C   UNL     1      -9.952  15.059  65.934  1.00  0.00    -0.353 A  
HETATM    8  C   UNL     1      -8.788  15.059  66.728  1.00  0.00    -0.268 A  
HETATM    9 CL   UNL     1      -8.001  13.559  67.144  1.00  0.00    -0.113 Cl 
HETATM   10  C   UNL     1      -8.220  16.286  67.159  1.00  0.00    -0.189 A  
HETATM   11 CL   UNL     1      -6.717  16.263  68.037  1.00  0.00    -0.134 Cl 
HETATM   12  C   UNL     1      -8.833  17.504  66.811  1.00  0.00    -0.256 A  
HETATM   13  C   UNL     1     -10.534  16.283  65.577  1.00  0.00    -0.383 A  
HETATM   14  C   UNL     1      -9.964  17.487  65.990  1.00  0.00    -0.231 A  
BRANCH  12  15
HETATM   15  O   UNL     1      -8.431  18.782  67.125  1.00  0.00    -0.264 OA 
BRANCH  15  16
HETATM   16  C   UNL     1      -8.424  19.747  66.066  1.00  0.00    -0.281 C  
HETATM   17  C   UNL     1      -7.007  19.987  65.568  1.00  0.00    -0.310 C  
HETATM   18  O   UNL     1      -6.715  20.786  64.689  1.00  0.00    -0.273 OA 
HETATM   19  O   UNL     1      -6.078  19.216  66.190  1.00  0.00    -0.168 OA 
ENDBRANCH  15  16
ENDBRANCH  12  15
ENDBRANCH   5   7
ENDBRANCH   3   5
ENDBRANCH   2   3
TORSDOF 5
ENDMDL
MODEL       96
REMARK 921   NORMALIZED FREE ENERGY PREDICTED BY IDOCK:   -4.22 KCAL/MOL
REMARK 922        TOTAL FREE ENERGY PREDICTED BY IDOCK:   -6.16 KCAL/MOL
REMARK 923 INTER-LIGAND FREE ENERGY PREDICTED BY IDOCK:   -5.48 KCAL/MOL
REMARK 924 INTRA-LIGAND FREE ENERGY PREDICTED BY IDOCK:   -0.67 KCAL/MOL
REMARK 927      BINDING AFFINITY PREDICTED BY RF-SCORE:    0.00 PKD
ROOT
HETATM    1  C   UNL     1     -10.369  17.540  68.562  1.00  0.00    -0.380 C  
HETATM    2  C   UNL     1     -10.748  16.322  67.726  1.00  0.00    -0.325 C  
ENDROOT
BRANCH   2   3
HETATM    3  C   UNL     1     -11.551  15.284  68.485  1.00  0.00    -0.368 C  
HETATM    4  C   UNL     1     -11.988  15.517  69.735  1.00  0.00    -0.384 C  
BRANCH   3   5
HETATM    5  C   UNL     1     -11.728  13.962  67.785  1.00  0.00    -0.366 C  
HETATM    6  O   UNL     1     -12.388  13.905  66.754  1.00  0.00    -0.422 OA 
BRANCH   5   7
HETATM    7  C   UNL     1     -11.197  12.696  68.377  1.00  0.00    -0.316 A  
HETATM    8  C   UNL     1      -9.972  12.136  67.966  1.00  0.00    -0.203 A  
HETATM    9 CL   UNL     1      -8.940  12.989  66.848  1.00  0.00    -0.223 Cl 
HETATM   10  C   UNL     1      -9.545  10.890  68.495  1.00  0.00    -0.187 A  
HETATM   11 CL   UNL     1      -7.974  10.278  68.063  1.00  0.00    -0.101 Cl 
HETATM   12  C   UNL     1     -10.359  10.202  69.416  1.00  0.00    -0.232 A  
HETATM   13  C   UNL     1     -11.982  12.009  69.313  1.00  0.00    -0.329 A  
HETATM   14  C   UNL     1     -11.553  10.792  69.842  1.00  0.00    -0.410 A  
BRANCH  12  15
HETATM   15  O   UNL     1     -10.114   9.000  70.038  1.00  0.00    -0.181 OA 
BRANCH  15  16
HETATM   16  C   UNL     1      -9.299   9.025  71.216  1.00  0.00    -0.254 C  
HETATM   17  C   UNL     1      -9.992   8.305  72.363  1.00  0.00    -0.309 C  
HETATM   18  O   UNL     1      -9.529   8.206  73.491  1.00  0.00    -0.243 OA 
HETATM   19  O   UNL     1     -11.189   7.764  72.016  1.00  0.00    -0.252 OA 
ENDBRANCH  15  16
ENDBRANCH  12  15
ENDBRANCH   5   7
ENDBRANCH   3   5
ENDBRANCH   2   3
TORSDOF 5
ENDMDL
MODEL       97
REMARK 921   NORMALIZED FREE ENERGY PREDICTED BY IDOCK:   -4.22 KCAL/MOL
REMARK 922        TOTAL FREE ENERGY PREDICTED BY IDOCK:   -6.16 KCAL/MOL
REMARK 923 INTER-LIGAND FREE ENERGY PREDICTED BY IDOCK:   -5.47 KCAL/MOL
REMARK 924 INTRA-LIGAND FREE ENERGY PREDICTED BY IDOCK:   -0.68 KCAL/MOL
REMARK 927      BINDING AFFINITY PREDICTED BY RF-SCORE:    0.00 PKD
ROOT
HETATM    1  C   UNL     1      -7.798   6.138  71.675  1.00  0.00    -0.102 C  
HETATM    2  C   UNL     1      -8.740   7.223  71.162  1.00  0.00    -0.135 C  
ENDROOT
BRANCH   2   3
HETATM    3  C   UNL     1      -8.959   7.186  69.664  1.00  0.00    -0.141 C  
HETATM    4  C   UNL     1      -7.976   6.819  68.824  1.00  0.00    -0.119 C  
BRANCH   3   5
HETATM    5  C   UNL     1     -10.301   7.681  69.192  1.00  0.00    -0.213 C  
HETATM    6  O   UNL     1     -11.280   6.946  69.270  1.00  0.00    -0.211 OA 
BRANCH   5   7
HETATM    7  C   UNL     1     -10.447   9.017  68.537  1.00  0.00    -0.232 A  
HETATM    8  C   UNL     1     -10.964  10.133  69.224  1.00  0.00    -0.240 A  
HETATM    9 CL   UNL     1     -11.312  10.038  70.930  1.00  0.00    -0.421 Cl 
HETATM   10  C   UNL     1     -11.162  11.361  68.540  1.00  0.00    -0.250 A  
HETATM   11 CL   UNL     1     -11.687  12.756  69.437  1.00  0.00    -0.365 Cl 
HETATM   12  C   UNL     1     -10.863  11.456  67.167  1.00  0.00    -0.268 A  
HETATM   13  C   UNL     1     -10.132   9.138  67.177  1.00  0.00    -0.301 A  
HETATM   14  C   UNL     1     -10.314  10.350  66.511  1.00  0.00    -0.287 A  
BRANCH  12  15
HETATM   15  O   UNL     1     -10.980  12.552  66.344  1.00  0.00    -0.258 OA 
BRANCH  15  16
HETATM   16  C   UNL     1     -12.167  12.650  65.548  1.00  0.00    -0.440 C  
HETATM   17  C   UNL     1     -11.816  12.753  64.071  1.00  0.00    -0.435 C  
HETATM   18  O   UNL     1     -12.641  12.879  63.177  1.00  0.00    -0.636 OA 
HETATM   19  O   UNL     1     -10.482  12.683  63.827  1.00  0.00    -0.421 OA 
ENDBRANCH  15  16
ENDBRANCH  12  15
ENDBRANCH   5   7
ENDBRANCH   3   5
ENDBRANCH   2   3
TORSDOF 5
ENDMDL
MODEL       98
REMARK 921   NORMALIZED FREE ENERGY PREDICTED BY IDOCK:   -4.22 KCAL/MOL
REMARK 922        TOTAL FREE ENERGY PREDICTED BY IDOCK:   -6.16 KCAL/MOL
REMARK 923 INTER-LIGAND FREE ENERGY PREDICTED BY IDOCK:   -5.41 KCAL/MOL
REMARK 924 INTRA-LIGAND FREE ENERGY PREDICTED BY IDOCK:   -0.75 KCAL/MOL
REMARK 927      BINDING AFFINITY PREDICTED BY RF-SCORE:    0.00 PKD
ROOT
HETATM    1  C   UNL     1     -11.445  11.611  67.382  1.00  0.00    -0.357 C  
HETATM    2  C   UNL     1     -11.843  12.777  66.483  1.00  0.00    -0.471 C  
ENDROOT
BRANCH   2   3
HETATM    3  C   UNL     1     -11.244  14.104  66.899  1.00  0.00    -0.326 C  
HETATM    4  C   UNL     1     -11.628  14.719  68.032  1.00  0.00    -0.367 C  
BRANCH   3   5
HETATM    5  C   UNL     1     -10.281  14.719  65.917  1.00  0.00    -0.313 C  
HETATM    6  O   UNL     1     -10.272  14.332  64.754  1.00  0.00    -0.412 OA 
BRANCH   5   7
HETATM    7  C   UNL     1      -9.267  15.726  66.355  1.00  0.00    -0.347 A  
HETATM    8  C   UNL     1      -9.424  17.103  66.104  1.00  0.00    -0.201 A  
HETATM    9 CL   UNL     1     -10.901  17.712  65.403  1.00  0.00    -0.115 Cl 
HETATM   10  C   UNL     1      -8.398  18.015  66.465  1.00  0.00    -0.268 A  
HETATM   11 CL   UNL     1      -8.666  19.721  66.255  1.00  0.00    -0.394 Cl 
HETATM   12  C   UNL     1      -7.210  17.539  67.053  1.00  0.00    -0.181 A  
HETATM   13  C   UNL     1      -8.088  15.274  66.964  1.00  0.00    -0.253 A  
HETATM   14  C   UNL     1      -7.087  16.174  67.330  1.00  0.00    -0.231 A  
BRANCH  12  15
HETATM   15  O   UNL     1      -6.117  18.261  67.473  1.00  0.00    -0.166 OA 
BRANCH  15  16
HETATM   16  C   UNL     1      -5.523  17.884  68.721  1.00  0.00    -0.170 C  
HETATM   17  C   UNL     1      -5.869  18.893  69.806  1.00  0.00    -0.250 C  
HETATM   18  O   UNL     1      -5.464  18.827  70.958  1.00  0.00    -0.247 OA 
HETATM   19  O   UNL     1      -6.689  19.887  69.377  1.00  0.00    -0.337 OA 
ENDBRANCH  15  16
ENDBRANCH  12  15
ENDBRANCH   5   7
ENDBRANCH   3   5
ENDBRANCH   2   3
TORSDOF 5
ENDMDL
MODEL       99
REMARK 921   NORMALIZED FREE ENERGY PREDICTED BY IDOCK:   -4.20 KCAL/MOL
REMARK 922        TOTAL FREE ENERGY PREDICTED BY IDOCK:   -6.13 KCAL/MOL
REMARK 923 INTER-LIGAND FREE ENERGY PREDICTED BY IDOCK:   -5.27 KCAL/MOL
REMARK 924 INTRA-LIGAND FREE ENERGY PREDICTED BY IDOCK:   -0.86 KCAL/MOL
REMARK 927      BINDING AFFINITY PREDICTED BY RF-SCORE:    0.00 PKD
ROOT
HETATM    1  C   UNL     1      -8.322   6.476  65.118  1.00  0.00    -0.101 C  
HETATM    2  C   UNL     1      -8.544   6.634  66.619  1.00  0.00    -0.123 C  
ENDROOT
BRANCH   2   3
HETATM    3  C   UNL     1      -9.439   7.799  66.987  1.00  0.00    -0.210 C  
HETATM    4  C   UNL     1     -10.755   7.627  67.203  1.00  0.00    -0.361 C  
BRANCH   3   5
HETATM    5  C   UNL     1      -8.775   9.151  66.991  1.00  0.00    -0.123 C  
HETATM    6  O   UNL     1      -7.602   9.250  67.334  1.00  0.00    -0.087 OA 
BRANCH   5   7
HETATM    7  C   UNL     1      -9.547  10.393  66.679  1.00  0.00    -0.219 A  
HETATM    8  C   UNL     1      -9.811  10.796  65.356  1.00  0.00    -0.262 A  
HETATM    9 CL   UNL     1      -9.377   9.769  64.015  1.00  0.00    -0.281 Cl 
HETATM   10  C   UNL     1     -10.476  12.025  65.104  1.00  0.00    -0.289 A  
HETATM   11 CL   UNL     1     -10.898  12.442  63.468  1.00  0.00    -0.496 Cl 
HETATM   12  C   UNL     1     -10.852  12.852  66.180  1.00  0.00    -0.279 A  
HETATM   13  C   UNL     1      -9.951  11.219  67.737  1.00  0.00    -0.193 A  
HETATM   14  C   UNL     1     -10.618  12.418  67.488  1.00  0.00    -0.240 A  
BRANCH  12  15
HETATM   15  O   UNL     1     -11.505  14.062  66.136  1.00  0.00    -0.327 OA 
BRANCH  15  16
HETATM   16  C   UNL     1     -10.814  15.200  66.668  1.00  0.00    -0.318 C  
HETATM   17  C   UNL     1     -10.605  16.252  65.590  1.00  0.00    -0.346 C  
HETATM   18  O   UNL     1     -10.015  17.309  65.767  1.00  0.00    -0.532 OA 
HETATM   19  O   UNL     1     -11.149  15.914  64.392  1.00  0.00    -0.486 OA 
ENDBRANCH  15  16
ENDBRANCH  12  15
ENDBRANCH   5   7
ENDBRANCH   3   5
ENDBRANCH   2   3
TORSDOF 5
ENDMDL
MODEL      100
REMARK 921   NORMALIZED FREE ENERGY PREDICTED BY IDOCK:   -4.19 KCAL/MOL
REMARK 922        TOTAL FREE ENERGY PREDICTED BY IDOCK:   -6.12 KCAL/MOL
REMARK 923 INTER-LIGAND FREE ENERGY PREDICTED BY IDOCK:   -5.40 KCAL/MOL
REMARK 924 INTRA-LIGAND FREE ENERGY PREDICTED BY IDOCK:   -0.73 KCAL/MOL
REMARK 927      BINDING AFFINITY PREDICTED BY RF-SCORE:    0.00 PKD
ROOT
HETATM    1  C   UNL     1     -10.377  12.056  63.443  1.00  0.00    -0.468 C  
HETATM    2  C   UNL     1     -11.695  11.927  64.201  1.00  0.00    -0.428 C  
ENDROOT
BRANCH   2   3
HETATM    3  C   UNL     1     -11.910  13.004  65.245  1.00  0.00    -0.413 C  
HETATM    4  C   UNL     1     -12.525  14.160  64.938  1.00  0.00    -0.419 C  
BRANCH   3   5
HETATM    5  C   UNL     1     -11.304  12.729  66.596  1.00  0.00    -0.316 C  
HETATM    6  O   UNL     1     -11.589  11.696  67.190  1.00  0.00    -0.491 OA 
BRANCH   5   7
HETATM    7  C   UNL     1     -10.434  13.739  67.273  1.00  0.00    -0.264 A  
HETATM    8  C   UNL     1     -10.883  14.491  68.378  1.00  0.00    -0.243 A  
HETATM    9 CL   UNL     1     -12.433  14.157  69.104  1.00  0.00    -0.161 Cl 
HETATM   10  C   UNL     1     -10.053  15.497  68.938  1.00  0.00    -0.214 A  
HETATM   11 CL   UNL     1     -10.579  16.327  70.374  1.00  0.00    -0.096 Cl 
HETATM   12  C   UNL     1      -8.790  15.760  68.375  1.00  0.00    -0.185 A  
HETATM   13  C   UNL     1      -9.164  13.999  66.742  1.00  0.00    -0.280 A  
HETATM   14  C   UNL     1      -8.345  14.979  67.304  1.00  0.00    -0.228 A  
BRANCH  12  15
HETATM   15  O   UNL     1      -7.851  16.681  68.779  1.00  0.00    -0.215 OA 
BRANCH  15  16
HETATM   16  C   UNL     1      -7.908  17.982  68.181  1.00  0.00    -0.272 C  
HETATM   17  C   UNL     1      -7.066  18.972  68.971  1.00  0.00    -0.326 C  
HETATM   18  O   UNL     1      -6.964  20.160  68.695  1.00  0.00    -0.297 OA 
HETATM   19  O   UNL     1      -6.417  18.410  70.024  1.00  0.00    -0.083 OA 
ENDBRANCH  15  16
ENDBRANCH  12  15
ENDBRANCH   5   7
ENDBRANCH   3   5
ENDBRANCH   2   3
TORSDOF 5
ENDMDL
MODEL      101
REMARK 921   NORMALIZED FREE ENERGY PREDICTED BY IDOCK:   -4.19 KCAL/MOL
REMARK 922        TOTAL FREE ENERGY PREDICTED BY IDOCK:   -6.12 KCAL/MOL
REMARK 923 INTER-LIGAND FREE ENERGY PREDICTED BY IDOCK:   -5.64 KCAL/MOL
REMARK 924 INTRA-LIGAND FREE ENERGY PREDICTED BY IDOCK:   -0.48 KCAL/MOL
REMARK 927      BINDING AFFINITY PREDICTED BY RF-SCORE:    0.00 PKD
ROOT
HETATM    1  C   UNL     1     -13.418  13.851  72.436  1.00  0.00    -0.661 C  
HETATM    2  C   UNL     1     -13.279  12.527  71.691  1.00  0.00    -0.381 C  
ENDROOT
BRANCH   2   3
HETATM    3  C   UNL     1     -12.250  12.554  70.580  1.00  0.00    -0.382 C  
HETATM    4  C   UNL     1     -11.661  13.702  70.201  1.00  0.00    -0.288 C  
BRANCH   3   5
HETATM    5  C   UNL     1     -12.017  11.241  69.878  1.00  0.00    -0.365 C  
HETATM    6  O   UNL     1     -12.659  10.970  68.870  1.00  0.00    -0.366 OA 
BRANCH   5   7
HETATM    7  C   UNL     1     -11.086  10.217  70.443  1.00  0.00    -0.393 A  
HETATM    8  C   UNL     1     -11.456   9.381  71.515  1.00  0.00    -0.397 A  
HETATM    9 CL   UNL     1     -13.088   9.402  72.131  1.00  0.00    -0.499 Cl 
HETATM   10  C   UNL     1     -10.513   8.479  72.073  1.00  0.00    -0.336 A  
HETATM   11 CL   UNL     1     -11.028   7.374  73.315  1.00  0.00    -0.413 Cl 
HETATM   12  C   UNL     1      -9.199   8.437  71.570  1.00  0.00    -0.196 A  
HETATM   13  C   UNL     1      -9.780  10.143  69.939  1.00  0.00    -0.195 A  
HETATM   14  C   UNL     1      -8.860   9.245  70.480  1.00  0.00    -0.285 A  
BRANCH  12  15
HETATM   15  O   UNL     1      -8.157   7.633  71.972  1.00  0.00    -0.094 OA 
BRANCH  15  16
HETATM   16  C   UNL     1      -8.046   6.345  71.353  1.00  0.00    -0.113 C  
HETATM   17  C   UNL     1      -7.804   5.268  72.399  1.00  0.00    -0.102 C  
HETATM   18  O   UNL     1      -7.642   4.083  72.139  1.00  0.00    -0.066 OA 
HETATM   19  O   UNL     1      -7.792   5.742  73.672  1.00  0.00    -0.104 OA 
ENDBRANCH  15  16
ENDBRANCH  12  15
ENDBRANCH   5   7
ENDBRANCH   3   5
ENDBRANCH   2   3
TORSDOF 5
ENDMDL
MODEL      102
REMARK 921   NORMALIZED FREE ENERGY PREDICTED BY IDOCK:   -4.19 KCAL/MOL
REMARK 922        TOTAL FREE ENERGY PREDICTED BY IDOCK:   -6.12 KCAL/MOL
REMARK 923 INTER-LIGAND FREE ENERGY PREDICTED BY IDOCK:   -5.47 KCAL/MOL
REMARK 924 INTRA-LIGAND FREE ENERGY PREDICTED BY IDOCK:   -0.65 KCAL/MOL
REMARK 927      BINDING AFFINITY PREDICTED BY RF-SCORE:    0.00 PKD
ROOT
HETATM    1  C   UNL     1      -7.447   6.936  69.490  1.00  0.00    -0.096 C  
HETATM    2  C   UNL     1      -8.708   6.985  70.347  1.00  0.00    -0.147 C  
ENDROOT
BRANCH   2   3
HETATM    3  C   UNL     1      -9.800   7.868  69.779  1.00  0.00    -0.179 C  
HETATM    4  C   UNL     1     -10.961   7.348  69.342  1.00  0.00    -0.126 C  
BRANCH   3   5
HETATM    5  C   UNL     1      -9.454   9.328  69.649  1.00  0.00    -0.179 C  
HETATM    6  O   UNL     1      -8.585   9.811  70.366  1.00  0.00    -0.188 OA 
BRANCH   5   7
HETATM    7  C   UNL     1     -10.216  10.225  68.728  1.00  0.00    -0.205 A  
HETATM    8  C   UNL     1     -10.046  10.181  67.330  1.00  0.00    -0.205 A  
HETATM    9 CL   UNL     1      -9.042   8.956  66.600  1.00  0.00    -0.177 Cl 
HETATM   10  C   UNL     1     -10.730  11.107  66.500  1.00  0.00    -0.260 A  
HETATM   11 CL   UNL     1     -10.597  10.954  64.771  1.00  0.00    -0.362 Cl 
HETATM   12  C   UNL     1     -11.561  12.086  67.076  1.00  0.00    -0.317 A  
HETATM   13  C   UNL     1     -11.067  11.192  69.281  1.00  0.00    -0.318 A  
HETATM   14  C   UNL     1     -11.749  12.091  68.461  1.00  0.00    -0.387 A  
BRANCH  12  15
HETATM   15  O   UNL     1     -12.304  13.055  66.441  1.00  0.00    -0.417 OA 
BRANCH  15  16
HETATM   16  C   UNL     1     -11.693  14.339  66.265  1.00  0.00    -0.393 C  
HETATM   17  C   UNL     1     -11.806  14.792  64.817  1.00  0.00    -0.423 C  
HETATM   18  O   UNL     1     -11.341  15.838  64.387  1.00  0.00    -0.405 OA 
HETATM   19  O   UNL     1     -12.488  13.920  64.030  1.00  0.00    -0.679 OA 
ENDBRANCH  15  16
ENDBRANCH  12  15
ENDBRANCH   5   7
ENDBRANCH   3   5
ENDBRANCH   2   3
TORSDOF 5
ENDMDL
MODEL      103
REMARK 921   NORMALIZED FREE ENERGY PREDICTED BY IDOCK:   -4.16 KCAL/MOL
REMARK 922        TOTAL FREE ENERGY PREDICTED BY IDOCK:   -6.09 KCAL/MOL
REMARK 923 INTER-LIGAND FREE ENERGY PREDICTED BY IDOCK:   -5.51 KCAL/MOL
REMARK 924 INTRA-LIGAND FREE ENERGY PREDICTED BY IDOCK:   -0.58 KCAL/MOL
REMARK 927      BINDING AFFINITY PREDICTED BY RF-SCORE:    0.00 PKD
ROOT
HETATM    1  C   UNL     1      -8.888   6.933  70.761  1.00  0.00    -0.150 C  
HETATM    2  C   UNL     1      -9.731   8.168  70.459  1.00  0.00    -0.181 C  
ENDROOT
BRANCH   2   3
HETATM    3  C   UNL     1      -9.330   8.887  69.187  1.00  0.00    -0.148 C  
HETATM    4  C   UNL     1      -8.038   9.021  68.839  1.00  0.00    -0.104 C  
BRANCH   3   5
HETATM    5  C   UNL     1     -10.458   9.517  68.414  1.00  0.00    -0.224 C  
HETATM    6  O   UNL     1     -10.945   8.922  67.459  1.00  0.00    -0.134 OA 
BRANCH   5   7
HETATM    7  C   UNL     1     -10.934  10.900  68.726  1.00  0.00    -0.285 A  
HETATM    8  C   UNL     1     -10.633  11.998  67.897  1.00  0.00    -0.202 A  
HETATM    9 CL   UNL     1      -9.817  11.761  66.374  1.00  0.00    -0.228 Cl 
HETATM   10  C   UNL     1     -11.035  13.306  68.275  1.00  0.00    -0.256 A  
HETATM   11 CL   UNL     1     -10.758  14.629  67.178  1.00  0.00    -0.287 Cl 
HETATM   12  C   UNL     1     -11.714  13.508  69.492  1.00  0.00    -0.322 A  
HETATM   13  C   UNL     1     -11.632  11.118  69.922  1.00  0.00    -0.416 A  
HETATM   14  C   UNL     1     -12.038  12.402  70.283  1.00  0.00    -0.377 A  
BRANCH  12  15
HETATM   15  O   UNL     1     -12.185  14.688  70.020  1.00  0.00    -0.307 OA 
BRANCH  15  16
HETATM   16  C   UNL     1     -13.176  14.596  71.050  1.00  0.00    -0.374 C  
HETATM   17  C   UNL     1     -12.932  15.646  72.124  1.00  0.00    -0.449 C  
HETATM   18  O   UNL     1     -13.614  15.767  73.133  1.00  0.00    -0.567 OA 
HETATM   19  O   UNL     1     -11.877  16.458  71.855  1.00  0.00    -0.497 OA 
ENDBRANCH  15  16
ENDBRANCH  12  15
ENDBRANCH   5   7
ENDBRANCH   3   5
ENDBRANCH   2   3
TORSDOF 5
ENDMDL
MODEL      104
REMARK 921   NORMALIZED FREE ENERGY PREDICTED BY IDOCK:   -4.15 KCAL/MOL
REMARK 922        TOTAL FREE ENERGY PREDICTED BY IDOCK:   -6.07 KCAL/MOL
REMARK 923 INTER-LIGAND FREE ENERGY PREDICTED BY IDOCK:   -5.41 KCAL/MOL
REMARK 924 INTRA-LIGAND FREE ENERGY PREDICTED BY IDOCK:   -0.66 KCAL/MOL
REMARK 927      BINDING AFFINITY PREDICTED BY RF-SCORE:    0.00 PKD
ROOT
HETATM    1  C   UNL     1     -11.373   6.184  69.899  1.00  0.00    -0.454 C  
HETATM    2  C   UNL     1     -10.747   7.536  70.226  1.00  0.00    -0.247 C  
ENDROOT
BRANCH   2   3
HETATM    3  C   UNL     1      -9.764   8.025  69.182  1.00  0.00    -0.163 C  
HETATM    4  C   UNL     1      -8.437   7.889  69.355  1.00  0.00    -0.133 C  
BRANCH   3   5
HETATM    5  C   UNL     1     -10.369   8.751  68.009  1.00  0.00    -0.220 C  
HETATM    6  O   UNL     1     -10.953   8.116  67.139  1.00  0.00    -0.165 OA 
BRANCH   5   7
HETATM    7  C   UNL     1     -10.188  10.224  67.835  1.00  0.00    -0.217 A  
HETATM    8  C   UNL     1     -11.022  11.161  68.477  1.00  0.00    -0.220 A  
HETATM    9 CL   UNL     1     -12.214  10.636  69.636  1.00  0.00    -0.325 Cl 
HETATM   10  C   UNL     1     -10.866  12.548  68.218  1.00  0.00    -0.234 A  
HETATM   11 CL   UNL     1     -11.826  13.691  69.112  1.00  0.00    -0.370 Cl 
HETATM   12  C   UNL     1      -9.892  12.986  67.300  1.00  0.00    -0.227 A  
HETATM   13  C   UNL     1      -9.208  10.682  66.943  1.00  0.00    -0.172 A  
HETATM   14  C   UNL     1      -9.048  12.046  66.702  1.00  0.00    -0.205 A  
BRANCH  12  15
HETATM   15  O   UNL     1      -9.590  14.276  66.928  1.00  0.00    -0.242 OA 
BRANCH  15  16
HETATM   16  C   UNL     1      -9.954  14.678  65.602  1.00  0.00    -0.351 C  
HETATM   17  C   UNL     1     -10.482  16.104  65.600  1.00  0.00    -0.383 C  
HETATM   18  O   UNL     1     -10.891  16.684  64.603  1.00  0.00    -0.784 OA 
HETATM   19  O   UNL     1     -10.451  16.693  66.824  1.00  0.00    -0.298 OA 
ENDBRANCH  15  16
ENDBRANCH  12  15
ENDBRANCH   5   7
ENDBRANCH   3   5
ENDBRANCH   2   3
TORSDOF 5
ENDMDL
MODEL      105
REMARK 921   NORMALIZED FREE ENERGY PREDICTED BY IDOCK:   -4.14 KCAL/MOL
REMARK 922        TOTAL FREE ENERGY PREDICTED BY IDOCK:   -6.06 KCAL/MOL
REMARK 923 INTER-LIGAND FREE ENERGY PREDICTED BY IDOCK:   -5.37 KCAL/MOL
REMARK 924 INTRA-LIGAND FREE ENERGY PREDICTED BY IDOCK:   -0.69 KCAL/MOL
REMARK 927      BINDING AFFINITY PREDICTED BY RF-SCORE:    0.00 PKD
ROOT
HETATM    1  C   UNL     1      -8.297  16.435  66.328  1.00  0.00    -0.362 C  
HETATM    2  C   UNL     1      -9.299  15.292  66.203  1.00  0.00    -0.360 C  
ENDROOT
BRANCH   2   3
HETATM    3  C   UNL     1      -9.964  14.913  67.510  1.00  0.00    -0.219 C  
HETATM    4  C   UNL     1      -9.442  15.287  68.692  1.00  0.00    -0.204 C  
BRANCH   3   5
HETATM    5  C   UNL     1     -11.169  14.017  67.391  1.00  0.00    -0.311 C  
HETATM    6  O   UNL     1     -12.239  14.487  67.022  1.00  0.00    -0.362 OA 
BRANCH   5   7
HETATM    7  C   UNL     1     -11.111  12.583  67.808  1.00  0.00    -0.291 A  
HETATM    8  C   UNL     1     -11.469  12.166  69.105  1.00  0.00    -0.296 A  
HETATM    9 CL   UNL     1     -12.151  13.300  70.241  1.00  0.00    -0.425 Cl 
HETATM   10  C   UNL     1     -11.320  10.806  69.483  1.00  0.00    -0.289 A  
HETATM   11 CL   UNL     1     -11.882  10.294  71.048  1.00  0.00    -0.454 Cl 
HETATM   12  C   UNL     1     -10.792   9.876  68.567  1.00  0.00    -0.217 A  
HETATM   13  C   UNL     1     -10.610  11.638  66.902  1.00  0.00    -0.276 A  
HETATM   14  C   UNL     1     -10.479  10.299  67.271  1.00  0.00    -0.307 A  
BRANCH  12  15
HETATM   15  O   UNL     1     -10.582   8.528  68.745  1.00  0.00    -0.208 OA 
BRANCH  15  16
HETATM   16  C   UNL     1      -9.484   8.140  69.579  1.00  0.00    -0.156 C  
HETATM   17  C   UNL     1      -9.825   6.883  70.363  1.00  0.00    -0.179 C  
HETATM   18  O   UNL     1      -9.075   6.354  71.173  1.00  0.00    -0.149 OA 
HETATM   19  O   UNL     1     -11.054   6.382  70.075  1.00  0.00    -0.308 OA 
ENDBRANCH  15  16
ENDBRANCH  12  15
ENDBRANCH   5   7
ENDBRANCH   3   5
ENDBRANCH   2   3
TORSDOF 5
ENDMDL
MODEL      106
REMARK 921   NORMALIZED FREE ENERGY PREDICTED BY IDOCK:   -4.14 KCAL/MOL
REMARK 922        TOTAL FREE ENERGY PREDICTED BY IDOCK:   -6.05 KCAL/MOL
REMARK 923 INTER-LIGAND FREE ENERGY PREDICTED BY IDOCK:   -6.43 KCAL/MOL
REMARK 924 INTRA-LIGAND FREE ENERGY PREDICTED BY IDOCK:    0.38 KCAL/MOL
REMARK 927      BINDING AFFINITY PREDICTED BY RF-SCORE:    0.00 PKD
ROOT
HETATM    1  C   UNL     1     -12.240  15.691  74.414  1.00  0.00    -0.719 C  
HETATM    2  C   UNL     1     -12.016  15.465  72.922  1.00  0.00    -0.556 C  
ENDROOT
BRANCH   2   3
HETATM    3  C   UNL     1     -13.203  14.851  72.210  1.00  0.00    -0.468 C  
HETATM    4  C   UNL     1     -14.401  15.463  72.195  1.00  0.00    -0.642 C  
BRANCH   3   5
HETATM    5  C   UNL     1     -12.972  13.484  71.621  1.00  0.00    -0.359 C  
HETATM    6  O   UNL     1     -13.363  12.490  72.223  1.00  0.00    -0.525 OA 
BRANCH   5   7
HETATM    7  C   UNL     1     -12.187  13.307  70.361  1.00  0.00    -0.404 A  
HETATM    8  C   UNL     1     -12.089  12.061  69.711  1.00  0.00    -0.248 A  
HETATM    9 CL   UNL     1     -13.018  10.695  70.270  1.00  0.00    -0.240 Cl 
HETATM   10  C   UNL     1     -11.266  11.920  68.563  1.00  0.00    -0.256 A  
HETATM   11 CL   UNL     1     -11.256  10.405  67.707  1.00  0.00    -0.365 Cl 
HETATM   12  C   UNL     1     -10.528  13.021  68.088  1.00  0.00    -0.245 A  
HETATM   13  C   UNL     1     -11.464  14.398  69.859  1.00  0.00    -0.314 A  
HETATM   14  C   UNL     1     -10.668  14.259  68.722  1.00  0.00    -0.262 A  
BRANCH  12  15
HETATM   15  O   UNL     1      -9.691  13.081  66.998  1.00  0.00    -0.223 OA 
BRANCH  15  16
HETATM   16  C   UNL     1      -8.472  12.331  67.065  1.00  0.00    -0.181 C  
HETATM   17  C   UNL     1      -7.298  13.245  67.381  1.00  0.00    -0.114 C  
HETATM   18  O   UNL     1      -6.137  12.866  67.466  1.00  0.00    -0.148 OA 
HETATM   19  O   UNL     1      -7.658  14.540  67.574  1.00  0.00    -0.164 OA 
ENDBRANCH  15  16
ENDBRANCH  12  15
ENDBRANCH   5   7
ENDBRANCH   3   5
ENDBRANCH   2   3
TORSDOF 5
ENDMDL
MODEL      107
REMARK 921   NORMALIZED FREE ENERGY PREDICTED BY IDOCK:   -4.13 KCAL/MOL
REMARK 922        TOTAL FREE ENERGY PREDICTED BY IDOCK:   -6.04 KCAL/MOL
REMARK 923 INTER-LIGAND FREE ENERGY PREDICTED BY IDOCK:   -5.35 KCAL/MOL
REMARK 924 INTRA-LIGAND FREE ENERGY PREDICTED BY IDOCK:   -0.69 KCAL/MOL
REMARK 927      BINDING AFFINITY PREDICTED BY RF-SCORE:    0.00 PKD
ROOT
HETATM    1  C   UNL     1     -12.649  14.051  65.700  1.00  0.00    -0.542 C  
HETATM    2  C   UNL     1     -11.230  13.564  65.975  1.00  0.00    -0.305 C  
ENDROOT
BRANCH   2   3
HETATM    3  C   UNL     1     -11.159  12.386  66.925  1.00  0.00    -0.335 C  
HETATM    4  C   UNL     1     -11.263  11.122  66.478  1.00  0.00    -0.151 C  
BRANCH   3   5
HETATM    5  C   UNL     1     -11.070  12.736  68.388  1.00  0.00    -0.262 C  
HETATM    6  O   UNL     1     -10.805  13.885  68.721  1.00  0.00    -0.252 OA 
BRANCH   5   7
HETATM    7  C   UNL     1     -11.200  11.686  69.443  1.00  0.00    -0.311 A  
HETATM    8  C   UNL     1     -10.149  10.799  69.750  1.00  0.00     0.093 A  
HETATM    9 CL   UNL     1      -8.582  10.995  69.009  1.00  0.00    -0.120 Cl 
HETATM   10  C   UNL     1     -10.344   9.765  70.702  1.00  0.00    -0.261 A  
HETATM   11 CL   UNL     1      -8.997   8.760  71.151  1.00  0.00    -0.253 Cl 
HETATM   12  C   UNL     1     -11.598   9.610  71.323  1.00  0.00    -0.393 A  
HETATM   13  C   UNL     1     -12.434  11.531  70.091  1.00  0.00    -0.239 A  
HETATM   14  C   UNL     1     -12.618  10.522  71.037  1.00  0.00    -0.499 A  
BRANCH  12  15
HETATM   15  O   UNL     1     -11.973   8.682  72.267  1.00  0.00    -0.364 OA 
BRANCH  15  16
HETATM   16  C   UNL     1     -12.133   7.327  71.828  1.00  0.00    -0.319 C  
HETATM   17  C   UNL     1     -11.315   6.383  72.695  1.00  0.00    -0.231 C  
HETATM   18  O   UNL     1     -11.247   5.174  72.518  1.00  0.00    -0.226 OA 
HETATM   19  O   UNL     1     -10.661   7.009  73.707  1.00  0.00    -0.375 OA 
ENDBRANCH  15  16
ENDBRANCH  12  15
ENDBRANCH   5   7
ENDBRANCH   3   5
ENDBRANCH   2   3
TORSDOF 5
ENDMDL
MODEL      108
REMARK 921   NORMALIZED FREE ENERGY PREDICTED BY IDOCK:   -4.11 KCAL/MOL
REMARK 922        TOTAL FREE ENERGY PREDICTED BY IDOCK:   -6.02 KCAL/MOL
REMARK 923 INTER-LIGAND FREE ENERGY PREDICTED BY IDOCK:   -5.15 KCAL/MOL
REMARK 924 INTRA-LIGAND FREE ENERGY PREDICTED BY IDOCK:   -0.87 KCAL/MOL
REMARK 927      BINDING AFFINITY PREDICTED BY RF-SCORE:    0.00 PKD
ROOT
HETATM    1  C   UNL     1      -6.909  10.515  68.667  1.00  0.00    -0.054 C  
HETATM    2  C   UNL     1      -6.986   9.508  67.525  1.00  0.00    -0.084 C  
ENDROOT
BRANCH   2   3
HETATM    3  C   UNL     1      -7.666  10.042  66.281  1.00  0.00    -0.105 C  
HETATM    4  C   UNL     1      -6.951  10.528  65.250  1.00  0.00    -0.045 C  
BRANCH   3   5
HETATM    5  C   UNL     1      -9.170  10.083  66.328  1.00  0.00    -0.162 C  
HETATM    6  O   UNL     1      -9.805   9.034  66.358  1.00  0.00    -0.244 OA 
BRANCH   5   7
HETATM    7  C   UNL     1      -9.913  11.377  66.241  1.00  0.00    -0.259 A  
HETATM    8  C   UNL     1     -10.532  11.805  65.050  1.00  0.00    -0.285 A  
HETATM    9 CL   UNL     1     -10.592  10.756  63.658  1.00  0.00    -0.221 Cl 
HETATM   10  C   UNL     1     -11.156  13.079  64.990  1.00  0.00    -0.294 A  
HETATM   11 CL   UNL     1     -12.018  13.533  63.548  1.00  0.00    -0.463 Cl 
HETATM   12  C   UNL     1     -11.134  13.925  66.114  1.00  0.00    -0.299 A  
HETATM   13  C   UNL     1      -9.923  12.224  67.358  1.00  0.00    -0.205 A  
HETATM   14  C   UNL     1     -10.549  13.469  67.299  1.00  0.00    -0.263 A  
BRANCH  12  15
HETATM   15  O   UNL     1     -11.685  15.179  66.249  1.00  0.00    -0.180 OA 
BRANCH  15  16
HETATM   16  C   UNL     1     -10.857  16.202  66.816  1.00  0.00    -0.162 C  
HETATM   17  C   UNL     1     -10.493  17.240  65.765  1.00  0.00    -0.229 C  
HETATM   18  O   UNL     1      -9.770  18.204  65.976  1.00  0.00    -0.497 OA 
HETATM   19  O   UNL     1     -11.059  17.004  64.553  1.00  0.00    -1.098 OA 
ENDBRANCH  15  16
ENDBRANCH  12  15
ENDBRANCH   5   7
ENDBRANCH   3   5
ENDBRANCH   2   3
TORSDOF 5
ENDMDL
MODEL      109
REMARK 921   NORMALIZED FREE ENERGY PREDICTED BY IDOCK:   -4.09 KCAL/MOL
REMARK 922        TOTAL FREE ENERGY PREDICTED BY IDOCK:   -5.99 KCAL/MOL
REMARK 923 INTER-LIGAND FREE ENERGY PREDICTED BY IDOCK:   -5.52 KCAL/MOL
REMARK 924 INTRA-LIGAND FREE ENERGY PREDICTED BY IDOCK:   -0.47 KCAL/MOL
REMARK 927      BINDING AFFINITY PREDICTED BY RF-SCORE:    0.00 PKD
ROOT
HETATM    1  C   UNL     1     -13.099  15.750  72.140  1.00  0.00    -0.517 C  
HETATM    2  C   UNL     1     -13.080  14.581  71.160  1.00  0.00    -0.424 C  
ENDROOT
BRANCH   2   3
HETATM    3  C   UNL     1     -11.911  14.607  70.196  1.00  0.00    -0.365 C  
HETATM    4  C   UNL     1     -10.976  15.571  70.261  1.00  0.00    -0.352 C  
BRANCH   3   5
HETATM    5  C   UNL     1     -11.932  13.554  69.120  1.00  0.00    -0.333 C  
HETATM    6  O   UNL     1     -12.341  13.839  68.000  1.00  0.00    -0.241 OA 
BRANCH   5   7
HETATM    7  C   UNL     1     -11.555  12.138  69.415  1.00  0.00    -0.381 A  
HETATM    8  C   UNL     1     -10.448  11.516  68.804  1.00  0.00    -0.204 A  
HETATM    9 CL   UNL     1      -9.369  12.433  67.786  1.00  0.00    -0.189 Cl 
HETATM   10  C   UNL     1     -10.175  10.145  69.051  1.00  0.00    -0.206 A  
HETATM   11 CL   UNL     1      -8.736   9.433  68.382  1.00  0.00    -0.124 Cl 
HETATM   12  C   UNL     1     -11.026   9.400  69.890  1.00  0.00    -0.229 A  
HETATM   13  C   UNL     1     -12.376  11.386  70.267  1.00  0.00    -0.379 A  
HETATM   14  C   UNL     1     -12.097  10.043  70.519  1.00  0.00    -0.338 A  
BRANCH  12  15
HETATM   15  O   UNL     1     -10.922   8.077  70.251  1.00  0.00    -0.248 OA 
BRANCH  15  16
HETATM   16  C   UNL     1     -11.533   7.684  71.486  1.00  0.00    -0.264 C  
HETATM   17  C   UNL     1     -10.476   7.398  72.541  1.00  0.00    -0.236 C  
HETATM   18  O   UNL     1     -10.724   7.015  73.676  1.00  0.00    -0.362 OA 
HETATM   19  O   UNL     1      -9.207   7.619  72.108  1.00  0.00    -0.132 OA 
ENDBRANCH  15  16
ENDBRANCH  12  15
ENDBRANCH   5   7
ENDBRANCH   3   5
ENDBRANCH   2   3
TORSDOF 5
ENDMDL
MODEL      110
REMARK 921   NORMALIZED FREE ENERGY PREDICTED BY IDOCK:   -4.06 KCAL/MOL
REMARK 922        TOTAL FREE ENERGY PREDICTED BY IDOCK:   -5.96 KCAL/MOL
REMARK 923 INTER-LIGAND FREE ENERGY PREDICTED BY IDOCK:   -6.06 KCAL/MOL
REMARK 924 INTRA-LIGAND FREE ENERGY PREDICTED BY IDOCK:    0.10 KCAL/MOL
REMARK 927      BINDING AFFINITY PREDICTED BY RF-SCORE:    0.00 PKD
ROOT
HETATM    1  C   UNL     1     -12.672  15.627  73.757  1.00  0.00    -0.742 C  
HETATM    2  C   UNL     1     -13.103  14.407  72.950  1.00  0.00    -0.612 C  
ENDROOT
BRANCH   2   3
HETATM    3  C   UNL     1     -13.352  14.698  71.484  1.00  0.00    -0.438 C  
HETATM    4  C   UNL     1     -14.407  15.431  71.087  1.00  0.00    -0.284 C  
BRANCH   3   5
HETATM    5  C   UNL     1     -12.405  14.032  70.520  1.00  0.00    -0.367 C  
HETATM    6  O   UNL     1     -12.392  12.810  70.429  1.00  0.00    -0.318 OA 
BRANCH   5   7
HETATM    7  C   UNL     1     -11.409  14.829  69.739  1.00  0.00    -0.319 A  
HETATM    8  C   UNL     1     -10.387  14.216  68.987  1.00  0.00    -0.150 A  
HETATM    9 CL   UNL     1     -10.338  12.482  68.809  1.00  0.00    -0.183 Cl 
HETATM   10  C   UNL     1      -9.414  15.012  68.328  1.00  0.00    -0.196 A  
HETATM   11 CL   UNL     1      -8.235  14.238  67.308  1.00  0.00    -0.215 Cl 
HETATM   12  C   UNL     1      -9.456  16.414  68.446  1.00  0.00    -0.220 A  
HETATM   13  C   UNL     1     -11.449  16.227  69.825  1.00  0.00    -0.205 A  
HETATM   14  C   UNL     1     -10.500  17.006  69.164  1.00  0.00    -0.323 A  
BRANCH  12  15
HETATM   15  O   UNL     1      -8.614  17.343  67.881  1.00  0.00    -0.223 OA 
BRANCH  15  16
HETATM   16  C   UNL     1      -7.514  17.802  68.677  1.00  0.00    -0.274 C  
HETATM   17  C   UNL     1      -7.523  19.319  68.779  1.00  0.00    -0.352 C  
HETATM   18  O   UNL     1      -6.677  19.972  69.376  1.00  0.00    -0.326 OA 
HETATM   19  O   UNL     1      -8.577  19.898  68.147  1.00  0.00    -0.308 OA 
ENDBRANCH  15  16
ENDBRANCH  12  15
ENDBRANCH   5   7
ENDBRANCH   3   5
ENDBRANCH   2   3
TORSDOF 5
ENDMDL
MODEL      111
REMARK 921   NORMALIZED FREE ENERGY PREDICTED BY IDOCK:   -4.05 KCAL/MOL
REMARK 922        TOTAL FREE ENERGY PREDICTED BY IDOCK:   -5.95 KCAL/MOL
REMARK 923 INTER-LIGAND FREE ENERGY PREDICTED BY IDOCK:   -5.51 KCAL/MOL
REMARK 924 INTRA-LIGAND FREE ENERGY PREDICTED BY IDOCK:   -0.44 KCAL/MOL
REMARK 927      BINDING AFFINITY PREDICTED BY RF-SCORE:    0.00 PKD
ROOT
HETATM    1  C   UNL     1     -13.559  14.006  72.540  1.00  0.00    -0.670 C  
HETATM    2  C   UNL     1     -13.351  12.552  72.129  1.00  0.00    -0.540 C  
ENDROOT
BRANCH   2   3
HETATM    3  C   UNL     1     -12.471  12.380  70.908  1.00  0.00    -0.367 C  
HETATM    4  C   UNL     1     -11.914  13.439  70.294  1.00  0.00    -0.378 C  
BRANCH   3   5
HETATM    5  C   UNL     1     -12.355  10.973  70.384  1.00  0.00    -0.356 C  
HETATM    6  O   UNL     1     -13.051  10.086  70.867  1.00  0.00    -0.366 OA 
BRANCH   5   7
HETATM    7  C   UNL     1     -11.336  10.613  69.350  1.00  0.00    -0.348 A  
HETATM    8  C   UNL     1     -10.132   9.963  69.683  1.00  0.00    -0.230 A  
HETATM    9 CL   UNL     1      -9.848   9.404  71.311  1.00  0.00    -0.312 Cl 
HETATM   10  C   UNL     1      -9.157   9.715  68.682  1.00  0.00    -0.132 A  
HETATM   11 CL   UNL     1      -7.732   8.803  69.093  1.00  0.00    -0.091 Cl 
HETATM   12  C   UNL     1      -9.384  10.141  67.359  1.00  0.00    -0.148 A  
HETATM   13  C   UNL     1     -11.555  11.008  68.023  1.00  0.00    -0.326 A  
HETATM   14  C   UNL     1     -10.601  10.750  67.039  1.00  0.00    -0.312 A  
BRANCH  12  15
HETATM   15  O   UNL     1      -8.569   9.986  66.262  1.00  0.00    -0.127 OA 
BRANCH  15  16
HETATM   16  C   UNL     1      -9.053  10.487  65.009  1.00  0.00    -0.201 C  
HETATM   17  C   UNL     1      -8.708   9.528  63.880  1.00  0.00    -0.216 C  
HETATM   18  O   UNL     1      -8.978   9.729  62.703  1.00  0.00    -0.237 OA 
HETATM   19  O   UNL     1      -8.071   8.405  64.300  1.00  0.00    -0.150 OA 
ENDBRANCH  15  16
ENDBRANCH  12  15
ENDBRANCH   5   7
ENDBRANCH   3   5
ENDBRANCH   2   3
TORSDOF 5
ENDMDL
MODEL      112
REMARK 921   NORMALIZED FREE ENERGY PREDICTED BY IDOCK:   -4.04 KCAL/MOL
REMARK 922        TOTAL FREE ENERGY PREDICTED BY IDOCK:   -5.93 KCAL/MOL
REMARK 923 INTER-LIGAND FREE ENERGY PREDICTED BY IDOCK:   -5.22 KCAL/MOL
REMARK 924 INTRA-LIGAND FREE ENERGY PREDICTED BY IDOCK:   -0.72 KCAL/MOL
REMARK 927      BINDING AFFINITY PREDICTED BY RF-SCORE:    0.00 PKD
ROOT
HETATM    1  C   UNL     1      -8.886   9.386  68.297  1.00  0.00    -0.128 C  
HETATM    2  C   UNL     1      -9.290  10.048  69.610  1.00  0.00    -0.242 C  
ENDROOT
BRANCH   2   3
HETATM    3  C   UNL     1     -10.679  10.653  69.590  1.00  0.00    -0.290 C  
HETATM    4  C   UNL     1     -11.615  10.281  70.480  1.00  0.00    -0.424 C  
BRANCH   3   5
HETATM    5  C   UNL     1     -10.955  11.606  68.456  1.00  0.00    -0.220 C  
HETATM    6  O   UNL     1     -11.723  11.276  67.560  1.00  0.00    -0.574 OA 
BRANCH   5   7
HETATM    7  C   UNL     1     -10.236  12.912  68.351  1.00  0.00    -0.238 A  
HETATM    8  C   UNL     1     -10.789  14.112  68.839  1.00  0.00    -0.258 A  
HETATM    9 CL   UNL     1     -12.285  14.096  69.736  1.00  0.00    -0.391 Cl 
HETATM   10  C   UNL     1     -10.108  15.342  68.643  1.00  0.00    -0.222 A  
HETATM   11 CL   UNL     1     -10.751  16.791  69.360  1.00  0.00    -0.327 Cl 
HETATM   12  C   UNL     1      -8.888  15.365  67.940  1.00  0.00    -0.168 A  
HETATM   13  C   UNL     1      -9.008  12.952  67.675  1.00  0.00    -0.192 A  
HETATM   14  C   UNL     1      -8.334  14.160  67.498  1.00  0.00    -0.194 A  
BRANCH  12  15
HETATM   15  O   UNL     1      -8.085  16.447  67.661  1.00  0.00    -0.152 OA 
BRANCH  15  16
HETATM   16  C   UNL     1      -8.276  17.096  66.398  1.00  0.00    -0.292 C  
HETATM   17  C   UNL     1      -7.054  17.924  66.030  1.00  0.00    -0.305 C  
HETATM   18  O   UNL     1      -6.966  18.604  65.017  1.00  0.00    -0.467 OA 
HETATM   19  O   UNL     1      -6.047  17.832  66.937  1.00  0.00    -0.134 OA 
ENDBRANCH  15  16
ENDBRANCH  12  15
ENDBRANCH   5   7
ENDBRANCH   3   5
ENDBRANCH   2   3
TORSDOF 5
ENDMDL
MODEL      113
REMARK 921   NORMALIZED FREE ENERGY PREDICTED BY IDOCK:   -4.04 KCAL/MOL
REMARK 922        TOTAL FREE ENERGY PREDICTED BY IDOCK:   -5.93 KCAL/MOL
REMARK 923 INTER-LIGAND FREE ENERGY PREDICTED BY IDOCK:   -5.12 KCAL/MOL
REMARK 924 INTRA-LIGAND FREE ENERGY PREDICTED BY IDOCK:   -0.81 KCAL/MOL
REMARK 927      BINDING AFFINITY PREDICTED BY RF-SCORE:    0.00 PKD
ROOT
HETATM    1  C   UNL     1     -11.176  12.360  63.630  1.00  0.00    -0.544 C  
HETATM    2  C   UNL     1     -12.047  13.292  64.467  1.00  0.00    -0.461 C  
ENDROOT
BRANCH   2   3
HETATM    3  C   UNL     1     -11.266  14.155  65.437  1.00  0.00    -0.325 C  
HETATM    4  C   UNL     1     -10.392  15.079  65.000  1.00  0.00    -0.390 C  
BRANCH   3   5
HETATM    5  C   UNL     1     -11.463  13.834  66.895  1.00  0.00    -0.347 C  
HETATM    6  O   UNL     1     -12.046  14.634  67.618  1.00  0.00    -0.333 OA 
BRANCH   5   7
HETATM    7  C   UNL     1     -10.873  12.602  67.503  1.00  0.00    -0.267 A  
HETATM    8  C   UNL     1      -9.540  12.556  67.955  1.00  0.00    -0.212 A  
HETATM    9 CL   UNL     1      -8.560  13.999  67.969  1.00  0.00    -0.169 Cl 
HETATM   10  C   UNL     1      -8.997  11.341  68.450  1.00  0.00    -0.167 A  
HETATM   11 CL   UNL     1      -7.389  11.339  69.115  1.00  0.00    -0.120 Cl 
HETATM   12  C   UNL     1      -9.786  10.175  68.465  1.00  0.00    -0.154 A  
HETATM   13  C   UNL     1     -11.650  11.436  67.549  1.00  0.00    -0.298 A  
HETATM   14  C   UNL     1     -11.118  10.248  68.049  1.00  0.00    -0.336 A  
BRANCH  12  15
HETATM   15  O   UNL     1      -9.442   8.919  68.909  1.00  0.00    -0.150 OA 
BRANCH  15  16
HETATM   16  C   UNL     1     -10.511   8.018  69.222  1.00  0.00    -0.215 C  
HETATM   17  C   UNL     1     -10.561   7.744  70.718  1.00  0.00    -0.218 C  
HETATM   18  O   UNL     1     -11.359   6.986  71.250  1.00  0.00    -0.255 OA 
HETATM   19  O   UNL     1      -9.630   8.436  71.425  1.00  0.00    -0.163 OA 
ENDBRANCH  15  16
ENDBRANCH  12  15
ENDBRANCH   5   7
ENDBRANCH   3   5
ENDBRANCH   2   3
TORSDOF 5
ENDMDL
MODEL      114
REMARK 921   NORMALIZED FREE ENERGY PREDICTED BY IDOCK:   -4.03 KCAL/MOL
REMARK 922        TOTAL FREE ENERGY PREDICTED BY IDOCK:   -5.91 KCAL/MOL
REMARK 923 INTER-LIGAND FREE ENERGY PREDICTED BY IDOCK:   -5.16 KCAL/MOL
REMARK 924 INTRA-LIGAND FREE ENERGY PREDICTED BY IDOCK:   -0.75 KCAL/MOL
REMARK 927      BINDING AFFINITY PREDICTED BY RF-SCORE:    0.00 PKD
ROOT
HETATM    1  C   UNL     1     -10.505  19.787  67.976  1.00  0.00    -0.523 C  
HETATM    2  C   UNL     1      -9.199  19.061  68.284  1.00  0.00    -0.381 C  
ENDROOT
BRANCH   2   3
HETATM    3  C   UNL     1      -8.091  19.347  67.292  1.00  0.00    -0.298 C  
HETATM    4  C   UNL     1      -7.529  20.566  67.205  1.00  0.00    -0.384 C  
BRANCH   3   5
HETATM    5  C   UNL     1      -7.745  18.215  66.360  1.00  0.00    -0.261 C  
HETATM    6  O   UNL     1      -7.175  18.454  65.301  1.00  0.00    -0.504 OA 
BRANCH   5   7
HETATM    7  C   UNL     1      -8.170  16.813  66.655  1.00  0.00    -0.296 A  
HETATM    8  C   UNL     1      -7.382  15.941  67.432  1.00  0.00    -0.193 A  
HETATM    9 CL   UNL     1      -5.937  16.518  68.220  1.00  0.00    -0.117 Cl 
HETATM   10  C   UNL     1      -7.785  14.592  67.618  1.00  0.00    -0.177 A  
HETATM   11 CL   UNL     1      -6.860  13.570  68.679  1.00  0.00    -0.091 Cl 
HETATM   12  C   UNL     1      -8.962  14.120  67.006  1.00  0.00    -0.237 A  
HETATM   13  C   UNL     1      -9.351  16.331  66.074  1.00  0.00    -0.361 A  
HETATM   14  C   UNL     1      -9.751  15.009  66.271  1.00  0.00    -0.316 A  
BRANCH  12  15
HETATM   15  O   UNL     1      -9.513  12.862  67.075  1.00  0.00    -0.220 OA 
BRANCH  15  16
HETATM   16  C   UNL     1     -10.306  12.555  68.229  1.00  0.00    -0.236 C  
HETATM   17  C   UNL     1     -10.161  11.089  68.606  1.00  0.00    -0.197 C  
HETATM   18  O   UNL     1     -10.754  10.557  69.534  1.00  0.00    -0.225 OA 
HETATM   19  O   UNL     1      -9.291  10.411  67.812  1.00  0.00    -0.144 OA 
ENDBRANCH  15  16
ENDBRANCH  12  15
ENDBRANCH   5   7
ENDBRANCH   3   5
ENDBRANCH   2   3
TORSDOF 5
ENDMDL
MODEL      115
REMARK 921   NORMALIZED FREE ENERGY PREDICTED BY IDOCK:   -4.01 KCAL/MOL
REMARK 922        TOTAL FREE ENERGY PREDICTED BY IDOCK:   -5.89 KCAL/MOL
REMARK 923 INTER-LIGAND FREE ENERGY PREDICTED BY IDOCK:   -5.26 KCAL/MOL
REMARK 924 INTRA-LIGAND FREE ENERGY PREDICTED BY IDOCK:   -0.62 KCAL/MOL
REMARK 927      BINDING AFFINITY PREDICTED BY RF-SCORE:    0.00 PKD
ROOT
HETATM    1  C   UNL     1     -10.679   5.713  67.277  1.00  0.00    -0.299 C  
HETATM    2  C   UNL     1     -10.668   6.888  68.249  1.00  0.00    -0.265 C  
ENDROOT
BRANCH   2   3
HETATM    3  C   UNL     1      -9.289   7.246  68.764  1.00  0.00    -0.143 C  
HETATM    4  C   UNL     1      -8.421   6.294  69.152  1.00  0.00    -0.120 C  
BRANCH   3   5
HETATM    5  C   UNL     1      -9.008   8.719  68.901  1.00  0.00    -0.134 C  
HETATM    6  O   UNL     1      -7.854   9.126  68.828  1.00  0.00    -0.093 OA 
BRANCH   5   7
HETATM    7  C   UNL     1     -10.100   9.688  69.223  1.00  0.00    -0.201 A  
HETATM    8  C   UNL     1     -10.482  10.708  68.329  1.00  0.00    -0.187 A  
HETATM    9 CL   UNL     1      -9.793  10.785  66.728  1.00  0.00    -0.221 Cl 
HETATM   10  C   UNL     1     -11.467  11.656  68.709  1.00  0.00    -0.285 A  
HETATM   11 CL   UNL     1     -12.007  12.831  67.545  1.00  0.00    -0.398 Cl 
HETATM   12  C   UNL     1     -12.047  11.591  69.991  1.00  0.00    -0.331 A  
HETATM   13  C   UNL     1     -10.707   9.625  70.485  1.00  0.00    -0.374 A  
HETATM   14  C   UNL     1     -11.685  10.550  70.850  1.00  0.00    -0.431 A  
BRANCH  12  15
HETATM   15  O   UNL     1     -13.013  12.408  70.532  1.00  0.00     0.092 OA 
BRANCH  15  16
HETATM   16  C   UNL     1     -12.595  13.697  70.999  1.00  0.00    -0.363 C  
HETATM   17  C   UNL     1     -13.327  14.066  72.280  1.00  0.00    -0.478 C  
HETATM   18  O   UNL     1     -13.181  15.126  72.873  1.00  0.00    -0.422 OA 
HETATM   19  O   UNL     1     -14.166  13.093  72.722  1.00  0.00    -0.608 OA 
ENDBRANCH  15  16
ENDBRANCH  12  15
ENDBRANCH   5   7
ENDBRANCH   3   5
ENDBRANCH   2   3
TORSDOF 5
ENDMDL
MODEL      116
REMARK 921   NORMALIZED FREE ENERGY PREDICTED BY IDOCK:   -4.01 KCAL/MOL
REMARK 922        TOTAL FREE ENERGY PREDICTED BY IDOCK:   -5.88 KCAL/MOL
REMARK 923 INTER-LIGAND FREE ENERGY PREDICTED BY IDOCK:   -5.02 KCAL/MOL
REMARK 924 INTRA-LIGAND FREE ENERGY PREDICTED BY IDOCK:   -0.86 KCAL/MOL
REMARK 927      BINDING AFFINITY PREDICTED BY RF-SCORE:    0.00 PKD
ROOT
HETATM    1  C   UNL     1      -7.209   8.181  68.434  1.00  0.00    -0.093 C  
HETATM    2  C   UNL     1      -8.601   8.121  67.813  1.00  0.00    -0.131 C  
ENDROOT
BRANCH   2   3
HETATM    3  C   UNL     1      -8.594   7.943  66.309  1.00  0.00    -0.160 C  
HETATM    4  C   UNL     1      -8.813   6.741  65.747  1.00  0.00    -0.088 C  
BRANCH   3   5
HETATM    5  C   UNL     1      -8.229   9.168  65.511  1.00  0.00    -0.123 C  
HETATM    6  O   UNL     1      -7.262   9.135  64.759  1.00  0.00    -0.094 OA 
BRANCH   5   7
HETATM    7  C   UNL     1      -8.964  10.456  65.692  1.00  0.00    -0.198 A  
HETATM    8  C   UNL     1      -8.424  11.528  66.431  1.00  0.00    -0.138 A  
HETATM    9 CL   UNL     1      -6.791  11.449  67.039  1.00  0.00    -0.126 Cl 
HETATM   10  C   UNL     1      -9.191  12.702  66.646  1.00  0.00    -0.218 A  
HETATM   11 CL   UNL     1      -8.459  14.057  67.457  1.00  0.00    -0.185 Cl 
HETATM   12  C   UNL     1     -10.503  12.787  66.141  1.00  0.00    -0.267 A  
HETATM   13  C   UNL     1     -10.262  10.570  65.176  1.00  0.00    -0.358 A  
HETATM   14  C   UNL     1     -11.008  11.731  65.377  1.00  0.00    -0.352 A  
BRANCH  12  15
HETATM   15  O   UNL     1     -11.388  13.835  66.240  1.00  0.00    -0.310 OA 
BRANCH  15  16
HETATM   16  C   UNL     1     -11.960  14.328  65.022  1.00  0.00    -0.410 C  
HETATM   17  C   UNL     1     -11.407  15.706  64.690  1.00  0.00    -0.349 C  
HETATM   18  O   UNL     1     -11.750  16.367  63.719  1.00  0.00    -1.049 OA 
HETATM   19  O   UNL     1     -10.475  16.142  65.576  1.00  0.00    -0.371 OA 
ENDBRANCH  15  16
ENDBRANCH  12  15
ENDBRANCH   5   7
ENDBRANCH   3   5
ENDBRANCH   2   3
TORSDOF 5
ENDMDL
MODEL      117
REMARK 921   NORMALIZED FREE ENERGY PREDICTED BY IDOCK:   -3.98 KCAL/MOL
REMARK 922        TOTAL FREE ENERGY PREDICTED BY IDOCK:   -5.85 KCAL/MOL
REMARK 923 INTER-LIGAND FREE ENERGY PREDICTED BY IDOCK:   -5.22 KCAL/MOL
REMARK 924 INTRA-LIGAND FREE ENERGY PREDICTED BY IDOCK:   -0.63 KCAL/MOL
REMARK 927      BINDING AFFINITY PREDICTED BY RF-SCORE:    0.00 PKD
ROOT
HETATM    1  C   UNL     1     -10.555   6.585  73.875  1.00  0.00    -0.250 C  
HETATM    2  C   UNL     1      -9.496   6.248  72.829  1.00  0.00    -0.147 C  
ENDROOT
BRANCH   2   3
HETATM    3  C   UNL     1      -9.649   7.016  71.533  1.00  0.00    -0.159 C  
HETATM    4  C   UNL     1     -10.169   6.437  70.436  1.00  0.00    -0.233 C  
BRANCH   3   5
HETATM    5  C   UNL     1      -9.092   8.415  71.536  1.00  0.00    -0.195 C  
HETATM    6  O   UNL     1      -8.294   8.748  72.406  1.00  0.00    -0.387 OA 
BRANCH   5   7
HETATM    7  C   UNL     1      -9.566   9.440  70.556  1.00  0.00    -0.330 A  
HETATM    8  C   UNL     1      -8.728   9.953  69.547  1.00  0.00    -0.190 A  
HETATM    9 CL   UNL     1      -7.134   9.291  69.299  1.00  0.00    -0.057 Cl 
HETATM   10  C   UNL     1      -9.195  10.984  68.690  1.00  0.00    -0.185 A  
HETATM   11 CL   UNL     1      -8.186  11.515  67.375  1.00  0.00    -0.142 Cl 
HETATM   12  C   UNL     1     -10.488  11.511  68.865  1.00  0.00    -0.187 A  
HETATM   13  C   UNL     1     -10.860   9.960  70.699  1.00  0.00    -0.400 A  
HETATM   14  C   UNL     1     -11.320  10.963  69.846  1.00  0.00    -0.381 A  
BRANCH  12  15
HETATM   15  O   UNL     1     -11.113  12.497  68.137  1.00  0.00    -0.217 OA 
BRANCH  15  16
HETATM   16  C   UNL     1     -11.705  12.115  66.889  1.00  0.00    -0.301 C  
HETATM   17  C   UNL     1     -12.326  13.320  66.200  1.00  0.00    -0.358 C  
HETATM   18  O   UNL     1     -12.925  13.268  65.133  1.00  0.00    -0.705 OA 
HETATM   19  O   UNL     1     -12.148  14.483  66.879  1.00  0.00    -0.399 OA 
ENDBRANCH  15  16
ENDBRANCH  12  15
ENDBRANCH   5   7
ENDBRANCH   3   5
ENDBRANCH   2   3
TORSDOF 5
ENDMDL
MODEL      118
REMARK 921   NORMALIZED FREE ENERGY PREDICTED BY IDOCK:   -3.97 KCAL/MOL
REMARK 922        TOTAL FREE ENERGY PREDICTED BY IDOCK:   -5.83 KCAL/MOL
REMARK 923 INTER-LIGAND FREE ENERGY PREDICTED BY IDOCK:   -5.13 KCAL/MOL
REMARK 924 INTRA-LIGAND FREE ENERGY PREDICTED BY IDOCK:   -0.70 KCAL/MOL
REMARK 927      BINDING AFFINITY PREDICTED BY RF-SCORE:    0.00 PKD
ROOT
HETATM    1  C   UNL     1     -11.773  11.781  67.235  1.00  0.00    -0.293 C  
HETATM    2  C   UNL     1     -11.767  13.207  67.777  1.00  0.00    -0.401 C  
ENDROOT
BRANCH   2   3
HETATM    3  C   UNL     1     -10.923  14.167  66.966  1.00  0.00    -0.303 C  
HETATM    4  C   UNL     1     -11.303  14.566  65.739  1.00  0.00    -0.336 C  
BRANCH   3   5
HETATM    5  C   UNL     1      -9.603  14.552  67.582  1.00  0.00    -0.214 C  
HETATM    6  O   UNL     1      -8.981  13.731  68.246  1.00  0.00    -0.181 OA 
BRANCH   5   7
HETATM    7  C   UNL     1      -9.081  15.949  67.482  1.00  0.00    -0.204 A  
HETATM    8  C   UNL     1      -9.716  17.032  68.122  1.00  0.00    -0.268 A  
HETATM    9 CL   UNL     1     -11.062  16.759  69.196  1.00  0.00    -0.219 Cl 
HETATM   10  C   UNL     1      -9.233  18.354  67.933  1.00  0.00    -0.283 A  
HETATM   11 CL   UNL     1      -9.958  19.658  68.828  1.00  0.00    -0.538 Cl 
HETATM   12  C   UNL     1      -8.132  18.585  67.086  1.00  0.00    -0.243 A  
HETATM   13  C   UNL     1      -7.971  16.197  66.662  1.00  0.00    -0.305 A  
HETATM   14  C   UNL     1      -7.491  17.495  66.490  1.00  0.00    -0.309 A  
BRANCH  12  15
HETATM   15  O   UNL     1      -7.523  19.781  66.787  1.00  0.00    -0.233 OA 
BRANCH  15  16
HETATM   16  C   UNL     1      -7.411  20.132  65.402  1.00  0.00    -0.157 C  
HETATM   17  C   UNL     1      -6.024  20.680  65.099  1.00  0.00    -0.243 C  
HETATM   18  O   UNL     1      -5.671  21.083  63.999  1.00  0.00    -0.240 OA 
HETATM   19  O   UNL     1      -5.194  20.674  66.174  1.00  0.00    -0.165 OA 
ENDBRANCH  15  16
ENDBRANCH  12  15
ENDBRANCH   5   7
ENDBRANCH   3   5
ENDBRANCH   2   3
TORSDOF 5
ENDMDL
MODEL      119
REMARK 921   NORMALIZED FREE ENERGY PREDICTED BY IDOCK:   -3.95 KCAL/MOL
REMARK 922        TOTAL FREE ENERGY PREDICTED BY IDOCK:   -5.81 KCAL/MOL
REMARK 923 INTER-LIGAND FREE ENERGY PREDICTED BY IDOCK:   -5.08 KCAL/MOL
REMARK 924 INTRA-LIGAND FREE ENERGY PREDICTED BY IDOCK:   -0.73 KCAL/MOL
REMARK 927      BINDING AFFINITY PREDICTED BY RF-SCORE:    0.00 PKD
ROOT
HETATM    1  C   UNL     1     -10.967  13.770  64.483  1.00  0.00    -0.399 C  
HETATM    2  C   UNL     1     -10.835  12.846  65.689  1.00  0.00    -0.296 C  
ENDROOT
BRANCH   2   3
HETATM    3  C   UNL     1     -10.088  11.560  65.397  1.00  0.00    -0.304 C  
HETATM    4  C   UNL     1     -10.297  10.875  64.259  1.00  0.00    -0.436 C  
BRANCH   3   5
HETATM    5  C   UNL     1      -9.191  11.065  66.501  1.00  0.00    -0.171 C  
HETATM    6  O   UNL     1      -7.978  11.208  66.407  1.00  0.00    -0.159 OA 
BRANCH   5   7
HETATM    7  C   UNL     1      -9.745  10.312  67.669  1.00  0.00    -0.189 A  
HETATM    8  C   UNL     1      -9.947   8.919  67.631  1.00  0.00    -0.196 A  
HETATM    9 CL   UNL     1      -9.409   7.983  66.262  1.00  0.00    -0.253 Cl 
HETATM   10  C   UNL     1     -10.551   8.257  68.732  1.00  0.00    -0.123 A  
HETATM   11 CL   UNL     1     -10.680   6.522  68.713  1.00  0.00    -0.280 Cl 
HETATM   12  C   UNL     1     -10.970   8.999  69.854  1.00  0.00    -0.193 A  
HETATM   13  C   UNL     1     -10.145  11.030  68.804  1.00  0.00    -0.214 A  
HETATM   14  C   UNL     1     -10.725  10.375  69.890  1.00  0.00    -0.331 A  
BRANCH  12  15
HETATM   15  O   UNL     1     -11.561   8.539  71.008  1.00  0.00    -0.275 OA 
BRANCH  15  16
HETATM   16  C   UNL     1     -10.836   8.714  72.231  1.00  0.00    -0.322 C  
HETATM   17  C   UNL     1     -10.736   7.398  72.987  1.00  0.00    -0.364 C  
HETATM   18  O   UNL     1     -10.194   7.272  74.077  1.00  0.00    -0.311 OA 
HETATM   19  O   UNL     1     -11.303   6.353  72.330  1.00  0.00    -0.265 OA 
ENDBRANCH  15  16
ENDBRANCH  12  15
ENDBRANCH   5   7
ENDBRANCH   3   5
ENDBRANCH   2   3
TORSDOF 5
ENDMDL
MODEL      120
REMARK 921   NORMALIZED FREE ENERGY PREDICTED BY IDOCK:   -3.95 KCAL/MOL
REMARK 922        TOTAL FREE ENERGY PREDICTED BY IDOCK:   -5.81 KCAL/MOL
REMARK 923 INTER-LIGAND FREE ENERGY PREDICTED BY IDOCK:   -5.10 KCAL/MOL
REMARK 924 INTRA-LIGAND FREE ENERGY PREDICTED BY IDOCK:   -0.71 KCAL/MOL
REMARK 927      BINDING AFFINITY PREDICTED BY RF-SCORE:    0.00 PKD
ROOT
HETATM    1  C   UNL     1      -9.174   3.284  72.333  1.00  0.00    -0.150 C  
HETATM    2  C   UNL     1      -9.389   4.630  73.017  1.00  0.00    -0.137 C  
ENDROOT
BRANCH   2   3
HETATM    3  C   UNL     1     -10.179   5.621  72.186  1.00  0.00    -0.247 C  
HETATM    4  C   UNL     1     -10.702   5.273  70.997  1.00  0.00    -0.194 C  
BRANCH   3   5
HETATM    5  C   UNL     1     -10.243   7.023  72.733  1.00  0.00    -0.201 C  
HETATM    6  O   UNL     1     -10.330   7.198  73.943  1.00  0.00    -0.358 OA 
BRANCH   5   7
HETATM    7  C   UNL     1     -10.301   8.207  71.822  1.00  0.00    -0.293 A  
HETATM    8  C   UNL     1     -11.512   8.859  71.520  1.00  0.00    -0.321 A  
HETATM    9 CL   UNL     1     -12.988   8.402  72.329  1.00  0.00    -0.355 Cl 
HETATM   10  C   UNL     1     -11.532   9.928  70.586  1.00  0.00    -0.334 A  
HETATM   11 CL   UNL     1     -13.018  10.795  70.321  1.00  0.00    -0.237 Cl 
HETATM   12  C   UNL     1     -10.343  10.321  69.943  1.00  0.00    -0.233 A  
HETATM   13  C   UNL     1      -9.123   8.629  71.190  1.00  0.00    -0.263 A  
HETATM   14  C   UNL     1      -9.143   9.689  70.284  1.00  0.00    -0.272 A  
BRANCH  12  15
HETATM   15  O   UNL     1     -10.164  11.329  69.024  1.00  0.00    -0.205 OA 
BRANCH  15  16
HETATM   16  C   UNL     1      -9.648  10.960  67.739  1.00  0.00    -0.164 C  
HETATM   17  C   UNL     1     -10.666  11.256  66.649  1.00  0.00    -0.272 C  
HETATM   18  O   UNL     1     -10.493  11.009  65.463  1.00  0.00    -0.262 OA 
HETATM   19  O   UNL     1     -11.802  11.838  67.113  1.00  0.00    -0.599 OA 
ENDBRANCH  15  16
ENDBRANCH  12  15
ENDBRANCH   5   7
ENDBRANCH   3   5
ENDBRANCH   2   3
TORSDOF 5
ENDMDL
MODEL      121
REMARK 921   NORMALIZED FREE ENERGY PREDICTED BY IDOCK:   -3.95 KCAL/MOL
REMARK 922        TOTAL FREE ENERGY PREDICTED BY IDOCK:   -5.81 KCAL/MOL
REMARK 923 INTER-LIGAND FREE ENERGY PREDICTED BY IDOCK:   -5.06 KCAL/MOL
REMARK 924 INTRA-LIGAND FREE ENERGY PREDICTED BY IDOCK:   -0.74 KCAL/MOL
REMARK 927      BINDING AFFINITY PREDICTED BY RF-SCORE:    0.00 PKD
ROOT
HETATM    1  C   UNL     1     -11.567  14.386  69.723  1.00  0.00    -0.352 C  
HETATM    2  C   UNL     1     -11.929  12.929  69.455  1.00  0.00    -0.346 C  
ENDROOT
BRANCH   2   3
HETATM    3  C   UNL     1     -11.251  12.343  68.233  1.00  0.00    -0.309 C  
HETATM    4  C   UNL     1     -11.729  12.568  66.996  1.00  0.00    -0.437 C  
BRANCH   3   5
HETATM    5  C   UNL     1     -10.090  11.426  68.511  1.00  0.00    -0.206 C  
HETATM    6  O   UNL     1      -8.944  11.831  68.347  1.00  0.00    -0.178 OA 
BRANCH   5   7
HETATM    7  C   UNL     1     -10.306   9.996  68.891  1.00  0.00    -0.217 A  
HETATM    8  C   UNL     1     -10.365   8.968  67.930  1.00  0.00    -0.235 A  
HETATM    9 CL   UNL     1     -10.027   9.305  66.252  1.00  0.00    -0.357 Cl 
HETATM   10  C   UNL     1     -10.654   7.637  68.328  1.00  0.00    -0.124 A  
HETATM   11 CL   UNL     1     -10.602   6.366  67.140  1.00  0.00    -0.341 Cl 
HETATM   12  C   UNL     1     -10.906   7.348  69.683  1.00  0.00    -0.210 A  
HETATM   13  C   UNL     1     -10.535   9.685  70.238  1.00  0.00    -0.338 A  
HETATM   14  C   UNL     1     -10.805   8.373  70.628  1.00  0.00    -0.256 A  
BRANCH  12  15
HETATM   15  O   UNL     1     -11.193   6.131  70.256  1.00  0.00    -0.343 OA 
BRANCH  15  16
HETATM   16  C   UNL     1     -10.161   5.512  71.033  1.00  0.00    -0.209 C  
HETATM   17  C   UNL     1     -10.671   5.165  72.423  1.00  0.00    -0.216 C  
HETATM   18  O   UNL     1      -9.985   4.656  73.299  1.00  0.00    -0.144 OA 
HETATM   19  O   UNL     1     -11.982   5.468  72.609  1.00  0.00    -0.245 OA 
ENDBRANCH  15  16
ENDBRANCH  12  15
ENDBRANCH   5   7
ENDBRANCH   3   5
ENDBRANCH   2   3
TORSDOF 5
ENDMDL
MODEL      122
REMARK 921   NORMALIZED FREE ENERGY PREDICTED BY IDOCK:   -3.93 KCAL/MOL
REMARK 922        TOTAL FREE ENERGY PREDICTED BY IDOCK:   -5.79 KCAL/MOL
REMARK 923 INTER-LIGAND FREE ENERGY PREDICTED BY IDOCK:   -5.14 KCAL/MOL
REMARK 924 INTRA-LIGAND FREE ENERGY PREDICTED BY IDOCK:   -0.65 KCAL/MOL
REMARK 927      BINDING AFFINITY PREDICTED BY RF-SCORE:    0.00 PKD
ROOT
HETATM    1  C   UNL     1     -11.298  11.096  69.628  1.00  0.00    -0.366 C  
HETATM    2  C   UNL     1     -11.164   9.932  70.605  1.00  0.00    -0.416 C  
ENDROOT
BRANCH   2   3
HETATM    3  C   UNL     1     -12.464   9.543  71.278  1.00  0.00    -0.432 C  
HETATM    4  C   UNL     1     -13.266  10.468  71.833  1.00  0.00    -0.526 C  
BRANCH   3   5
HETATM    5  C   UNL     1     -12.732   8.063  71.367  1.00  0.00    -0.280 C  
HETATM    6  O   UNL     1     -13.796   7.667  71.828  1.00  0.00    -0.353 OA 
BRANCH   5   7
HETATM    7  C   UNL     1     -11.685   7.063  70.994  1.00  0.00    -0.375 A  
HETATM    8  C   UNL     1     -10.685   6.656  71.899  1.00  0.00    -0.223 A  
HETATM    9 CL   UNL     1     -10.721   7.191  73.558  1.00  0.00    -0.411 Cl 
HETATM   10  C   UNL     1      -9.662   5.767  71.476  1.00  0.00    -0.159 A  
HETATM   11 CL   UNL     1      -8.510   5.184  72.642  1.00  0.00    -0.117 Cl 
HETATM   12  C   UNL     1      -9.635   5.310  70.145  1.00  0.00    -0.178 A  
HETATM   13  C   UNL     1     -11.655   6.578  69.679  1.00  0.00    -0.348 A  
HETATM   14  C   UNL     1     -10.657   5.693  69.272  1.00  0.00    -0.359 A  
BRANCH  12  15
HETATM   15  O   UNL     1      -8.738   4.448  69.557  1.00  0.00    -0.078 OA 
BRANCH  15  16
HETATM   16  C   UNL     1      -8.848   4.250  68.142  1.00  0.00    -0.107 C  
HETATM   17  C   UNL     1      -9.124   2.788  67.826  1.00  0.00    -0.182 C  
HETATM   18  O   UNL     1      -9.232   2.340  66.693  1.00  0.00    -0.105 OA 
HETATM   19  O   UNL     1      -9.250   2.010  68.932  1.00  0.00    -0.124 OA 
ENDBRANCH  15  16
ENDBRANCH  12  15
ENDBRANCH   5   7
ENDBRANCH   3   5
ENDBRANCH   2   3
TORSDOF 5
ENDMDL
MODEL      123
REMARK 921   NORMALIZED FREE ENERGY PREDICTED BY IDOCK:   -3.88 KCAL/MOL
REMARK 922        TOTAL FREE ENERGY PREDICTED BY IDOCK:   -5.72 KCAL/MOL
REMARK 923 INTER-LIGAND FREE ENERGY PREDICTED BY IDOCK:   -5.15 KCAL/MOL
REMARK 924 INTRA-LIGAND FREE ENERGY PREDICTED BY IDOCK:   -0.57 KCAL/MOL
REMARK 927      BINDING AFFINITY PREDICTED BY RF-SCORE:    0.00 PKD
ROOT
HETATM    1  C   UNL     1     -13.130  15.583  71.478  1.00  0.00    -0.573 C  
HETATM    2  C   UNL     1     -12.757  14.407  70.581  1.00  0.00    -0.421 C  
ENDROOT
BRANCH   2   3
HETATM    3  C   UNL     1     -11.655  14.717  69.589  1.00  0.00    -0.349 C  
HETATM    4  C   UNL     1     -10.752  15.684  69.830  1.00  0.00    -0.328 C  
BRANCH   3   5
HETATM    5  C   UNL     1     -11.708  13.946  68.296  1.00  0.00    -0.361 C  
HETATM    6  O   UNL     1     -12.347  14.393  67.350  1.00  0.00    -0.300 OA 
BRANCH   5   7
HETATM    7  C   UNL     1     -11.077  12.597  68.173  1.00  0.00    -0.285 A  
HETATM    8  C   UNL     1      -9.883  12.393  67.455  1.00  0.00    -0.199 A  
HETATM    9 CL   UNL     1      -9.000  13.749  66.804  1.00  0.00    -0.234 Cl 
HETATM   10  C   UNL     1      -9.363  11.082  67.294  1.00  0.00    -0.156 A  
HETATM   11 CL   UNL     1      -7.826  10.869  66.507  1.00  0.00    -0.147 Cl 
HETATM   12  C   UNL     1     -10.055   9.981  67.835  1.00  0.00    -0.169 A  
HETATM   13  C   UNL     1     -11.739  11.491  68.725  1.00  0.00    -0.397 A  
HETATM   14  C   UNL     1     -11.218  10.206  68.578  1.00  0.00    -0.226 A  
BRANCH  12  15
HETATM   15  O   UNL     1      -9.708   8.650  67.790  1.00  0.00    -0.154 OA 
BRANCH  15  16
HETATM   16  C   UNL     1     -10.757   7.693  67.980  1.00  0.00    -0.087 C  
HETATM   17  C   UNL     1     -10.528   6.894  69.254  1.00  0.00    -0.214 C  
HETATM   18  O   UNL     1     -11.258   5.989  69.637  1.00  0.00    -0.394 OA 
HETATM   19  O   UNL     1      -9.427   7.285  69.947  1.00  0.00    -0.158 OA 
ENDBRANCH  15  16
ENDBRANCH  12  15
ENDBRANCH   5   7
ENDBRANCH   3   5
ENDBRANCH   2   3
TORSDOF 5
ENDMDL
MODEL      124
REMARK 921   NORMALIZED FREE ENERGY PREDICTED BY IDOCK:   -3.86 KCAL/MOL
REMARK 922        TOTAL FREE ENERGY PREDICTED BY IDOCK:   -5.70 KCAL/MOL
REMARK 923 INTER-LIGAND FREE ENERGY PREDICTED BY IDOCK:   -4.90 KCAL/MOL
REMARK 924 INTRA-LIGAND FREE ENERGY PREDICTED BY IDOCK:   -0.80 KCAL/MOL
REMARK 927      BINDING AFFINITY PREDICTED BY RF-SCORE:    0.00 PKD
ROOT
HETATM    1  C   UNL     1      -9.297   9.268  70.722  1.00  0.00    -0.322 C  
HETATM    2  C   UNL     1     -10.160   8.747  71.867  1.00  0.00    -0.409 C  
ENDROOT
BRANCH   2   3
HETATM    3  C   UNL     1     -11.633   8.646  71.527  1.00  0.00    -0.368 C  
HETATM    4  C   UNL     1     -12.438   9.722  71.585  1.00  0.00    -0.500 C  
BRANCH   3   5
HETATM    5  C   UNL     1     -12.137   7.259  71.225  1.00  0.00    -0.338 C  
HETATM    6  O   UNL     1     -13.144   6.844  71.788  1.00  0.00    -0.356 OA 
BRANCH   5   7
HETATM    7  C   UNL     1     -11.377   6.338  70.325  1.00  0.00    -0.457 A  
HETATM    8  C   UNL     1     -10.609   5.269  70.826  1.00  0.00    -0.186 A  
HETATM    9 CL   UNL     1     -10.640   4.877  72.525  1.00  0.00    -0.267 Cl 
HETATM   10  C   UNL     1      -9.838   4.471  69.941  1.00  0.00    -0.227 A  
HETATM   11 CL   UNL     1      -8.994   3.083  70.568  1.00  0.00    -0.155 Cl 
HETATM   12  C   UNL     1      -9.823   4.763  68.564  1.00  0.00    -0.130 A  
HETATM   13  C   UNL     1     -11.369   6.599  68.948  1.00  0.00    -0.209 A  
HETATM   14  C   UNL     1     -10.621   5.803  68.080  1.00  0.00    -0.295 A  
BRANCH  12  15
HETATM   15  O   UNL     1      -9.150   4.105  67.560  1.00  0.00    -0.121 OA 
BRANCH  15  16
HETATM   16  C   UNL     1      -9.742   4.118  66.256  1.00  0.00    -0.206 C  
HETATM   17  C   UNL     1      -8.734   4.575  65.213  1.00  0.00    -0.132 C  
HETATM   18  O   UNL     1      -8.988   4.705  64.023  1.00  0.00    -0.144 OA 
HETATM   19  O   UNL     1      -7.500   4.821  65.726  1.00  0.00    -0.079 OA 
ENDBRANCH  15  16
ENDBRANCH  12  15
ENDBRANCH   5   7
ENDBRANCH   3   5
ENDBRANCH   2   3
TORSDOF 5
ENDMDL
MODEL      125
REMARK 921   NORMALIZED FREE ENERGY PREDICTED BY IDOCK:   -3.85 KCAL/MOL
REMARK 922        TOTAL FREE ENERGY PREDICTED BY IDOCK:   -5.68 KCAL/MOL
REMARK 923 INTER-LIGAND FREE ENERGY PREDICTED BY IDOCK:   -4.90 KCAL/MOL
REMARK 924 INTRA-LIGAND FREE ENERGY PREDICTED BY IDOCK:   -0.77 KCAL/MOL
REMARK 927      BINDING AFFINITY PREDICTED BY RF-SCORE:    0.00 PKD
ROOT
HETATM    1  C   UNL     1     -10.607   7.121  73.328  1.00  0.00    -0.405 C  
HETATM    2  C   UNL     1     -10.091   6.080  72.339  1.00  0.00    -0.199 C  
ENDROOT
BRANCH   2   3
HETATM    3  C   UNL     1     -10.268   6.474  70.886  1.00  0.00    -0.220 C  
HETATM    4  C   UNL     1     -11.196   5.884  70.112  1.00  0.00    -0.338 C  
BRANCH   3   5
HETATM    5  C   UNL     1      -9.279   7.480  70.360  1.00  0.00    -0.157 C  
HETATM    6  O   UNL     1      -8.200   7.622  70.924  1.00  0.00    -0.105 OA 
BRANCH   5   7
HETATM    7  C   UNL     1      -9.625   8.383  69.220  1.00  0.00    -0.164 A  
HETATM    8  C   UNL     1     -10.546   9.440  69.356  1.00  0.00    -0.221 A  
HETATM    9 CL   UNL     1     -11.209   9.840  70.919  1.00  0.00    -0.402 Cl 
HETATM   10  C   UNL     1     -10.907  10.220  68.227  1.00  0.00    -0.255 A  
HETATM   11 CL   UNL     1     -11.953  11.594  68.444  1.00  0.00    -0.342 Cl 
HETATM   12  C   UNL     1     -10.362   9.921  66.964  1.00  0.00    -0.239 A  
HETATM   13  C   UNL     1      -9.074   8.116  67.959  1.00  0.00    -0.134 A  
HETATM   14  C   UNL     1      -9.420   8.894  66.854  1.00  0.00    -0.230 A  
BRANCH  12  15
HETATM   15  O   UNL     1     -10.583  10.561  65.766  1.00  0.00    -0.176 OA 
BRANCH  15  16
HETATM   16  C   UNL     1      -9.872  11.784  65.535  1.00  0.00    -0.234 C  
HETATM   17  C   UNL     1     -10.735  12.768  64.761  1.00  0.00    -0.316 C  
HETATM   18  O   UNL     1     -10.360  13.877  64.404  1.00  0.00    -0.384 OA 
HETATM   19  O   UNL     1     -11.985  12.303  64.502  1.00  0.00    -0.380 OA 
ENDBRANCH  15  16
ENDBRANCH  12  15
ENDBRANCH   5   7
ENDBRANCH   3   5
ENDBRANCH   2   3
TORSDOF 5
ENDMDL
MODEL      126
REMARK 921   NORMALIZED FREE ENERGY PREDICTED BY IDOCK:   -3.84 KCAL/MOL
REMARK 922        TOTAL FREE ENERGY PREDICTED BY IDOCK:   -5.67 KCAL/MOL
REMARK 923 INTER-LIGAND FREE ENERGY PREDICTED BY IDOCK:   -4.97 KCAL/MOL
REMARK 924 INTRA-LIGAND FREE ENERGY PREDICTED BY IDOCK:   -0.70 KCAL/MOL
REMARK 927      BINDING AFFINITY PREDICTED BY RF-SCORE:    0.00 PKD
ROOT
HETATM    1  C   UNL     1     -11.906   8.200  72.273  1.00  0.00    -0.441 C  
HETATM    2  C   UNL     1     -11.995   9.692  71.967  1.00  0.00    -0.202 C  
ENDROOT
BRANCH   2   3
HETATM    3  C   UNL     1     -11.352  10.088  70.653  1.00  0.00    -0.425 C  
HETATM    4  C   UNL     1     -10.063   9.802  70.393  1.00  0.00    -0.313 C  
BRANCH   3   5
HETATM    5  C   UNL     1     -12.217  10.899  69.725  1.00  0.00    -0.311 C  
HETATM    6  O   UNL     1     -13.355  10.521  69.472  1.00  0.00     0.278 OA 
BRANCH   5   7
HETATM    7  C   UNL     1     -11.681  12.106  69.025  1.00  0.00    -0.377 A  
HETATM    8  C   UNL     1     -11.123  12.036  67.733  1.00  0.00    -0.249 A  
HETATM    9 CL   UNL     1     -11.179  10.547  66.826  1.00  0.00    -0.066 Cl 
HETATM   10  C   UNL     1     -10.552  13.192  67.140  1.00  0.00    -0.257 A  
HETATM   11 CL   UNL     1      -9.979  13.108  65.499  1.00  0.00    -0.256 Cl 
HETATM   12  C   UNL     1     -10.521  14.405  67.854  1.00  0.00    -0.239 A  
HETATM   13  C   UNL     1     -11.663  13.329  69.710  1.00  0.00    -0.354 A  
HETATM   14  C   UNL     1     -11.114  14.466  69.119  1.00  0.00    -0.290 A  
BRANCH  12  15
HETATM   15  O   UNL     1     -10.022  15.621  67.448  1.00  0.00    -0.229 OA 
BRANCH  15  16
HETATM   16  C   UNL     1     -10.921  16.505  66.767  1.00  0.00     0.046 C  
HETATM   17  C   UNL     1     -10.179  17.327  65.725  1.00  0.00    -0.198 C  
HETATM   18  O   UNL     1     -10.703  18.181  65.023  1.00  0.00    -0.610 OA 
HETATM   19  O   UNL     1      -8.859  17.017  65.633  1.00  0.00    -0.480 OA 
ENDBRANCH  15  16
ENDBRANCH  12  15
ENDBRANCH   5   7
ENDBRANCH   3   5
ENDBRANCH   2   3
TORSDOF 5
ENDMDL
MODEL      127
REMARK 921   NORMALIZED FREE ENERGY PREDICTED BY IDOCK:   -3.82 KCAL/MOL
REMARK 922        TOTAL FREE ENERGY PREDICTED BY IDOCK:   -5.64 KCAL/MOL
REMARK 923 INTER-LIGAND FREE ENERGY PREDICTED BY IDOCK:   -4.96 KCAL/MOL
REMARK 924 INTRA-LIGAND FREE ENERGY PREDICTED BY IDOCK:   -0.68 KCAL/MOL
REMARK 927      BINDING AFFINITY PREDICTED BY RF-SCORE:    0.00 PKD
ROOT
HETATM    1  C   UNL     1     -10.481   4.511  74.090  1.00  0.00    -0.321 C  
HETATM    2  C   UNL     1     -11.452   5.045  73.042  1.00  0.00    -0.344 C  
ENDROOT
BRANCH   2   3
HETATM    3  C   UNL     1     -11.304   6.528  72.769  1.00  0.00    -0.221 C  
HETATM    4  C   UNL     1     -10.633   7.330  73.616  1.00  0.00    -0.353 C  
BRANCH   3   5
HETATM    5  C   UNL     1     -12.037   7.043  71.558  1.00  0.00    -0.353 C  
HETATM    6  O   UNL     1     -13.250   6.884  71.471  1.00  0.00    -0.345 OA 
BRANCH   5   7
HETATM    7  C   UNL     1     -11.301   7.658  70.412  1.00  0.00    -0.235 A  
HETATM    8  C   UNL     1     -11.233   9.053  70.230  1.00  0.00    -0.205 A  
HETATM    9 CL   UNL     1     -11.879  10.135  71.436  1.00  0.00    -0.442 Cl 
HETATM   10  C   UNL     1     -10.593   9.592  69.083  1.00  0.00    -0.222 A  
HETATM   11 CL   UNL     1     -10.416  11.317  68.942  1.00  0.00    -0.222 Cl 
HETATM   12  C   UNL     1     -10.047   8.729  68.113  1.00  0.00    -0.190 A  
HETATM   13  C   UNL     1     -10.730   6.816  69.448  1.00  0.00    -0.291 A  
HETATM   14  C   UNL     1     -10.090   7.348  68.329  1.00  0.00    -0.201 A  
BRANCH  12  15
HETATM   15  O   UNL     1      -9.389   9.059  66.951  1.00  0.00    -0.145 OA 
BRANCH  15  16
HETATM   16  C   UNL     1     -10.152   9.710  65.928  1.00  0.00    -0.234 C  
HETATM   17  C   UNL     1      -9.515  11.036  65.545  1.00  0.00    -0.216 C  
HETATM   18  O   UNL     1      -9.980  11.808  64.717  1.00  0.00    -0.246 OA 
HETATM   19  O   UNL     1      -8.357  11.291  66.209  1.00  0.00    -0.170 OA 
ENDBRANCH  15  16
ENDBRANCH  12  15
ENDBRANCH   5   7
ENDBRANCH   3   5
ENDBRANCH   2   3
TORSDOF 5
ENDMDL
MODEL      128
REMARK 921   NORMALIZED FREE ENERGY PREDICTED BY IDOCK:   -3.82 KCAL/MOL
REMARK 922        TOTAL FREE ENERGY PREDICTED BY IDOCK:   -5.64 KCAL/MOL
REMARK 923 INTER-LIGAND FREE ENERGY PREDICTED BY IDOCK:   -5.05 KCAL/MOL
REMARK 924 INTRA-LIGAND FREE ENERGY PREDICTED BY IDOCK:   -0.59 KCAL/MOL
REMARK 927      BINDING AFFINITY PREDICTED BY RF-SCORE:    0.00 PKD
ROOT
HETATM    1  C   UNL     1      -8.513   9.036  68.429  1.00  0.00    -0.129 C  
HETATM    2  C   UNL     1      -8.945  10.249  69.246  1.00  0.00    -0.190 C  
ENDROOT
BRANCH   2   3
HETATM    3  C   UNL     1     -10.339  10.744  68.918  1.00  0.00    -0.220 C  
HETATM    4  C   UNL     1     -11.365  10.551  69.766  1.00  0.00    -0.367 C  
BRANCH   3   5
HETATM    5  C   UNL     1     -10.505  11.363  67.555  1.00  0.00    -0.201 C  
HETATM    6  O   UNL     1     -10.527  10.645  66.561  1.00  0.00    -0.239 OA 
BRANCH   5   7
HETATM    7  C   UNL     1     -10.547  12.847  67.379  1.00  0.00    -0.242 A  
HETATM    8  C   UNL     1      -9.379  13.608  67.177  1.00  0.00    -0.240 A  
HETATM    9 CL   UNL     1      -7.836  12.823  66.968  1.00  0.00    -0.083 Cl 
HETATM   10  C   UNL     1      -9.456  15.024  67.097  1.00  0.00    -0.216 A  
HETATM   11 CL   UNL     1      -8.019  15.932  66.728  1.00  0.00    -0.283 Cl 
HETATM   12  C   UNL     1     -10.700  15.668  67.242  1.00  0.00    -0.305 A  
HETATM   13  C   UNL     1     -11.779  13.505  67.496  1.00  0.00    -0.403 A  
HETATM   14  C   UNL     1     -11.853  14.894  67.402  1.00  0.00    -0.245 A  
BRANCH  12  15
HETATM   15  O   UNL     1     -10.974  17.015  67.188  1.00  0.00    -0.147 OA 
BRANCH  15  16
HETATM   16  C   UNL     1     -10.529  17.820  68.287  1.00  0.00    -0.364 C  
HETATM   17  C   UNL     1     -10.307  19.258  67.843  1.00  0.00    -0.417 C  
HETATM   18  O   UNL     1      -9.898  20.147  68.577  1.00  0.00    -0.315 OA 
HETATM   19  O   UNL     1     -10.618  19.475  66.539  1.00  0.00    -0.443 OA 
ENDBRANCH  15  16
ENDBRANCH  12  15
ENDBRANCH   5   7
ENDBRANCH   3   5
ENDBRANCH   2   3
TORSDOF 5
ENDMDL
MODEL      129
REMARK 921   NORMALIZED FREE ENERGY PREDICTED BY IDOCK:   -3.79 KCAL/MOL
REMARK 922        TOTAL FREE ENERGY PREDICTED BY IDOCK:   -5.61 KCAL/MOL
REMARK 923 INTER-LIGAND FREE ENERGY PREDICTED BY IDOCK:   -4.95 KCAL/MOL
REMARK 924 INTRA-LIGAND FREE ENERGY PREDICTED BY IDOCK:   -0.66 KCAL/MOL
REMARK 927      BINDING AFFINITY PREDICTED BY RF-SCORE:    0.00 PKD
ROOT
HETATM    1  C   UNL     1      -7.031   5.857  71.032  1.00  0.00    -0.067 C  
HETATM    2  C   UNL     1      -8.428   6.145  71.571  1.00  0.00    -0.127 C  
ENDROOT
BRANCH   2   3
HETATM    3  C   UNL     1      -8.879   7.577  71.372  1.00  0.00    -0.138 C  
HETATM    4  C   UNL     1      -8.199   8.605  71.911  1.00  0.00    -0.167 C  
BRANCH   3   5
HETATM    5  C   UNL     1     -10.176   7.752  70.626  1.00  0.00    -0.199 C  
HETATM    6  O   UNL     1     -10.723   6.777  70.122  1.00  0.00    -0.211 OA 
BRANCH   5   7
HETATM    7  C   UNL     1     -10.764   9.109  70.403  1.00  0.00    -0.282 A  
HETATM    8  C   UNL     1     -10.374   9.923  69.322  1.00  0.00    -0.219 A  
HETATM    9 CL   UNL     1      -9.293   9.311  68.097  1.00  0.00    -0.140 Cl 
HETATM   10  C   UNL     1     -10.897  11.237  69.195  1.00  0.00    -0.222 A  
HETATM   11 CL   UNL     1     -10.495  12.178  67.787  1.00  0.00    -0.212 Cl 
HETATM   12  C   UNL     1     -11.788  11.734  70.165  1.00  0.00    -0.324 A  
HETATM   13  C   UNL     1     -11.671   9.613  71.345  1.00  0.00    -0.478 A  
HETATM   14  C   UNL     1     -12.194  10.899  71.210  1.00  0.00    -0.395 A  
BRANCH  12  15
HETATM   15  O   UNL     1     -12.400  12.966  70.208  1.00  0.00    -0.299 OA 
BRANCH  15  16
HETATM   16  C   UNL     1     -13.282  13.222  71.309  1.00  0.00    -0.148 C  
HETATM   17  C   UNL     1     -13.493  14.717  71.490  1.00  0.00    -0.388 C  
HETATM   18  O   UNL     1     -14.178  15.211  72.376  1.00  0.00    -0.492 OA 
HETATM   19  O   UNL     1     -12.852  15.470  70.559  1.00  0.00    -0.443 OA 
ENDBRANCH  15  16
ENDBRANCH  12  15
ENDBRANCH   5   7
ENDBRANCH   3   5
ENDBRANCH   2   3
TORSDOF 5
ENDMDL
MODEL      130
REMARK 921   NORMALIZED FREE ENERGY PREDICTED BY IDOCK:   -3.79 KCAL/MOL
REMARK 922        TOTAL FREE ENERGY PREDICTED BY IDOCK:   -5.61 KCAL/MOL
REMARK 923 INTER-LIGAND FREE ENERGY PREDICTED BY IDOCK:   -4.77 KCAL/MOL
REMARK 924 INTRA-LIGAND FREE ENERGY PREDICTED BY IDOCK:   -0.84 KCAL/MOL
REMARK 927      BINDING AFFINITY PREDICTED BY RF-SCORE:    0.00 PKD
ROOT
HETATM    1  C   UNL     1     -10.820   9.862  70.017  1.00  0.00    -0.339 C  
HETATM    2  C   UNL     1     -11.098  10.427  68.627  1.00  0.00    -0.313 C  
ENDROOT
BRANCH   2   3
HETATM    3  C   UNL     1     -10.321   9.742  67.521  1.00  0.00    -0.291 C  
HETATM    4  C   UNL     1     -10.621   8.491  67.130  1.00  0.00    -0.314 C  
BRANCH   3   5
HETATM    5  C   UNL     1      -9.149  10.514  66.976  1.00  0.00    -0.143 C  
HETATM    6  O   UNL     1      -8.244   9.918  66.402  1.00  0.00    -0.116 OA 
BRANCH   5   7
HETATM    7  C   UNL     1      -9.017  11.985  67.206  1.00  0.00    -0.180 A  
HETATM    8  C   UNL     1      -9.679  12.931  66.398  1.00  0.00    -0.263 A  
HETATM    9 CL   UNL     1     -10.816  12.412  65.181  1.00  0.00    -0.322 Cl 
HETATM   10  C   UNL     1      -9.460  14.318  66.601  1.00  0.00    -0.286 A  
HETATM   11 CL   UNL     1     -10.381  15.466  65.672  1.00  0.00    -0.361 Cl 
HETATM   12  C   UNL     1      -8.562  14.750  67.595  1.00  0.00    -0.174 A  
HETATM   13  C   UNL     1      -8.145  12.435  68.207  1.00  0.00    -0.166 A  
HETATM   14  C   UNL     1      -7.943  13.800  68.413  1.00  0.00    -0.144 A  
BRANCH  12  15
HETATM   15  O   UNL     1      -8.228  16.039  67.941  1.00  0.00    -0.146 OA 
BRANCH  15  16
HETATM   16  C   UNL     1      -9.081  16.708  68.878  1.00  0.00    -0.238 C  
HETATM   17  C   UNL     1      -9.454  18.092  68.370  1.00  0.00    -0.318 C  
HETATM   18  O   UNL     1     -10.148  18.887  68.990  1.00  0.00    -0.395 OA 
HETATM   19  O   UNL     1      -8.947  18.371  67.142  1.00  0.00    -0.259 OA 
ENDBRANCH  15  16
ENDBRANCH  12  15
ENDBRANCH   5   7
ENDBRANCH   3   5
ENDBRANCH   2   3
TORSDOF 5
ENDMDL
MODEL      131
REMARK 921   NORMALIZED FREE ENERGY PREDICTED BY IDOCK:   -3.78 KCAL/MOL
REMARK 922        TOTAL FREE ENERGY PREDICTED BY IDOCK:   -5.59 KCAL/MOL
REMARK 923 INTER-LIGAND FREE ENERGY PREDICTED BY IDOCK:   -5.08 KCAL/MOL
REMARK 924 INTRA-LIGAND FREE ENERGY PREDICTED BY IDOCK:   -0.52 KCAL/MOL
REMARK 927      BINDING AFFINITY PREDICTED BY RF-SCORE:    0.00 PKD
ROOT
HETATM    1  C   UNL     1      -9.008  11.530  67.842  1.00  0.00    -0.159 C  
HETATM    2  C   UNL     1     -10.217  11.328  66.934  1.00  0.00    -0.254 C  
ENDROOT
BRANCH   2   3
HETATM    3  C   UNL     1     -10.967  12.606  66.618  1.00  0.00    -0.292 C  
HETATM    4  C   UNL     1     -12.266  12.749  66.936  1.00  0.00    -0.109 C  
BRANCH   3   5
HETATM    5  C   UNL     1     -10.191  13.641  65.846  1.00  0.00    -0.311 C  
HETATM    6  O   UNL     1      -9.707  13.348  64.759  1.00  0.00    -0.054 OA 
BRANCH   5   7
HETATM    7  C   UNL     1      -9.916  14.991  66.424  1.00  0.00    -0.295 A  
HETATM    8  C   UNL     1     -10.365  16.175  65.806  1.00  0.00    -0.378 A  
HETATM    9 CL   UNL     1     -11.407  16.102  64.409  1.00  0.00    -0.375 Cl 
HETATM   10  C   UNL     1     -10.010  17.439  66.345  1.00  0.00    -0.316 A  
HETATM   11 CL   UNL     1     -10.677  18.881  65.635  1.00  0.00    -0.390 Cl 
HETATM   12  C   UNL     1      -9.188  17.510  67.486  1.00  0.00    -0.242 A  
HETATM   13  C   UNL     1      -9.119  15.082  67.574  1.00  0.00    -0.189 A  
HETATM   14  C   UNL     1      -8.784  16.326  68.109  1.00  0.00    -0.182 A  
BRANCH  12  15
HETATM   15  O   UNL     1      -8.749  18.631  68.151  1.00  0.00    -0.294 OA 
BRANCH  15  16
HETATM   16  C   UNL     1      -8.073  19.630  67.378  1.00  0.00    -0.288 C  
HETATM   17  C   UNL     1      -6.991  20.308  68.205  1.00  0.00    -0.260 C  
HETATM   18  O   UNL     1      -6.285  21.219  67.796  1.00  0.00    -0.347 OA 
HETATM   19  O   UNL     1      -6.870  19.798  69.458  1.00  0.00    -0.344 OA 
ENDBRANCH  15  16
ENDBRANCH  12  15
ENDBRANCH   5   7
ENDBRANCH   3   5
ENDBRANCH   2   3
TORSDOF 5
ENDMDL
MODEL      132
REMARK 921   NORMALIZED FREE ENERGY PREDICTED BY IDOCK:   -3.75 KCAL/MOL
REMARK 922        TOTAL FREE ENERGY PREDICTED BY IDOCK:   -5.55 KCAL/MOL
REMARK 923 INTER-LIGAND FREE ENERGY PREDICTED BY IDOCK:   -5.06 KCAL/MOL
REMARK 924 INTRA-LIGAND FREE ENERGY PREDICTED BY IDOCK:   -0.49 KCAL/MOL
REMARK 927      BINDING AFFINITY PREDICTED BY RF-SCORE:    0.00 PKD
ROOT
HETATM    1  C   UNL     1      -9.805   7.816  66.516  1.00  0.00    -0.255 C  
HETATM    2  C   UNL     1      -9.540   8.834  67.621  1.00  0.00    -0.179 C  
ENDROOT
BRANCH   2   3
HETATM    3  C   UNL     1      -9.845  10.263  67.222  1.00  0.00    -0.222 C  
HETATM    4  C   UNL     1     -10.486  10.546  66.075  1.00  0.00    -0.226 C  
BRANCH   3   5
HETATM    5  C   UNL     1      -9.296  11.324  68.140  1.00  0.00    -0.181 C  
HETATM    6  O   UNL     1      -8.709  10.996  69.165  1.00  0.00    -0.108 OA 
BRANCH   5   7
HETATM    7  C   UNL     1      -9.537  12.776  67.875  1.00  0.00    -0.211 A  
HETATM    8  C   UNL     1     -10.631  13.466  68.433  1.00  0.00    -0.248 A  
HETATM    9 CL   UNL     1     -11.672  12.683  69.592  1.00  0.00    -0.379 Cl 
HETATM   10  C   UNL     1     -10.868  14.822  68.089  1.00  0.00    -0.254 A  
HETATM   11 CL   UNL     1     -12.153  15.686  68.883  1.00  0.00    -0.283 Cl 
HETATM   12  C   UNL     1     -10.021  15.472  67.171  1.00  0.00    -0.242 A  
HETATM   13  C   UNL     1      -8.690  13.447  66.982  1.00  0.00    -0.195 A  
HETATM   14  C   UNL     1      -8.917  14.785  66.658  1.00  0.00    -0.286 A  
BRANCH  12  15
HETATM   15  O   UNL     1     -10.084  16.772  66.725  1.00  0.00    -0.275 OA 
BRANCH  15  16
HETATM   16  C   UNL     1      -9.782  17.806  67.671  1.00  0.00    -0.282 C  
HETATM   17  C   UNL     1      -9.955  19.178  67.038  1.00  0.00    -0.347 C  
HETATM   18  O   UNL     1      -9.733  20.233  67.616  1.00  0.00    -0.391 OA 
HETATM   19  O   UNL     1     -10.396  19.129  65.754  1.00  0.00    -0.498 OA 
ENDBRANCH  15  16
ENDBRANCH  12  15
ENDBRANCH   5   7
ENDBRANCH   3   5
ENDBRANCH   2   3
TORSDOF 5
ENDMDL
MODEL      133
REMARK 921   NORMALIZED FREE ENERGY PREDICTED BY IDOCK:   -3.74 KCAL/MOL
REMARK 922        TOTAL FREE ENERGY PREDICTED BY IDOCK:   -5.54 KCAL/MOL
REMARK 923 INTER-LIGAND FREE ENERGY PREDICTED BY IDOCK:   -4.68 KCAL/MOL
REMARK 924 INTRA-LIGAND FREE ENERGY PREDICTED BY IDOCK:   -0.86 KCAL/MOL
REMARK 927      BINDING AFFINITY PREDICTED BY RF-SCORE:    0.00 PKD
ROOT
HETATM    1  C   UNL     1     -10.269  16.356  68.561  1.00  0.00    -0.257 C  
HETATM    2  C   UNL     1     -10.338  15.417  69.762  1.00  0.00    -0.296 C  
ENDROOT
BRANCH   2   3
HETATM    3  C   UNL     1     -11.656  14.683  69.891  1.00  0.00    -0.333 C  
HETATM    4  C   UNL     1     -12.734  15.274  70.437  1.00  0.00    -0.400 C  
BRANCH   3   5
HETATM    5  C   UNL     1     -11.640  13.238  69.465  1.00  0.00    -0.286 C  
HETATM    6  O   UNL     1     -12.309  12.416  70.082  1.00  0.00    -0.236 OA 
BRANCH   5   7
HETATM    7  C   UNL     1     -10.746  12.766  68.363  1.00  0.00    -0.269 A  
HETATM    8  C   UNL     1     -11.047  12.997  67.007  1.00  0.00    -0.281 A  
HETATM    9 CL   UNL     1     -12.408  13.991  66.559  1.00  0.00    -0.480 Cl 
HETATM   10  C   UNL     1     -10.213  12.460  65.991  1.00  0.00    -0.245 A  
HETATM   11 CL   UNL     1     -10.536  12.860  64.329  1.00  0.00    -0.418 Cl 
HETATM   12  C   UNL     1      -9.097  11.675  66.341  1.00  0.00    -0.206 A  
HETATM   13  C   UNL     1      -9.618  12.003  68.692  1.00  0.00    -0.087 A  
HETATM   14  C   UNL     1      -8.792  11.489  67.692  1.00  0.00    -0.152 A  
BRANCH  12  15
HETATM   15  O   UNL     1      -8.178  11.082  65.507  1.00  0.00    -0.105 OA 
BRANCH  15  16
HETATM   16  C   UNL     1      -7.820   9.722  65.787  1.00  0.00    -0.110 C  
HETATM   17  C   UNL     1      -8.301   8.802  64.676  1.00  0.00    -0.166 C  
HETATM   18  O   UNL     1      -8.154   7.588  64.679  1.00  0.00    -0.138 OA 
HETATM   19  O   UNL     1      -8.911   9.460  63.656  1.00  0.00    -0.218 OA 
ENDBRANCH  15  16
ENDBRANCH  12  15
ENDBRANCH   5   7
ENDBRANCH   3   5
ENDBRANCH   2   3
TORSDOF 5
ENDMDL
MODEL      134
REMARK 921   NORMALIZED FREE ENERGY PREDICTED BY IDOCK:   -3.70 KCAL/MOL
REMARK 922        TOTAL FREE ENERGY PREDICTED BY IDOCK:   -5.49 KCAL/MOL
REMARK 923 INTER-LIGAND FREE ENERGY PREDICTED BY IDOCK:   -4.76 KCAL/MOL
REMARK 924 INTRA-LIGAND FREE ENERGY PREDICTED BY IDOCK:   -0.73 KCAL/MOL
REMARK 927      BINDING AFFINITY PREDICTED BY RF-SCORE:    0.00 PKD
ROOT
HETATM    1  C   UNL     1     -10.846  13.580  64.494  1.00  0.00    -0.422 C  
HETATM    2  C   UNL     1     -10.519  12.510  65.531  1.00  0.00    -0.305 C  
ENDROOT
BRANCH   2   3
HETATM    3  C   UNL     1      -9.787  11.311  64.965  1.00  0.00    -0.307 C  
HETATM    4  C   UNL     1      -9.954  10.932  63.685  1.00  0.00    -0.415 C  
BRANCH   3   5
HETATM    5  C   UNL     1      -8.957  10.531  65.951  1.00  0.00    -0.166 C  
HETATM    6  O   UNL     1      -7.734  10.575  65.882  1.00  0.00    -0.141 OA 
BRANCH   5   7
HETATM    7  C   UNL     1      -9.595   9.625  66.954  1.00  0.00    -0.217 A  
HETATM    8  C   UNL     1      -9.814  10.023  68.288  1.00  0.00    -0.146 A  
HETATM    9 CL   UNL     1      -9.486  11.661  68.788  1.00  0.00    -0.124 Cl 
HETATM   10  C   UNL     1     -10.347   9.102  69.227  1.00  0.00    -0.216 A  
HETATM   11 CL   UNL     1     -10.720   9.651  70.836  1.00  0.00    -0.394 Cl 
HETATM   12  C   UNL     1     -10.637   7.783  68.830  1.00  0.00    -0.150 A  
HETATM   13  C   UNL     1      -9.913   8.315  66.572  1.00  0.00    -0.320 A  
HETATM   14  C   UNL     1     -10.451   7.417  67.494  1.00  0.00    -0.338 A  
BRANCH  12  15
HETATM   15  O   UNL     1     -11.161   6.760  69.587  1.00  0.00    -0.270 OA 
BRANCH  15  16
HETATM   16  C   UNL     1     -10.370   5.573  69.722  1.00  0.00    -0.296 C  
HETATM   17  C   UNL     1     -10.017   5.327  71.181  1.00  0.00    -0.201 C  
HETATM   18  O   UNL     1      -9.324   4.398  71.573  1.00  0.00    -0.129 OA 
HETATM   19  O   UNL     1     -10.557   6.240  72.029  1.00  0.00    -0.207 OA 
ENDBRANCH  15  16
ENDBRANCH  12  15
ENDBRANCH   5   7
ENDBRANCH   3   5
ENDBRANCH   2   3
TORSDOF 5
ENDMDL
MODEL      135
REMARK 921   NORMALIZED FREE ENERGY PREDICTED BY IDOCK:   -3.70 KCAL/MOL
REMARK 922        TOTAL FREE ENERGY PREDICTED BY IDOCK:   -5.49 KCAL/MOL
REMARK 923 INTER-LIGAND FREE ENERGY PREDICTED BY IDOCK:   -5.10 KCAL/MOL
REMARK 924 INTRA-LIGAND FREE ENERGY PREDICTED BY IDOCK:   -0.39 KCAL/MOL
REMARK 927      BINDING AFFINITY PREDICTED BY RF-SCORE:    0.00 PKD
ROOT
HETATM    1  C   UNL     1      -8.468  11.218  62.578  1.00  0.00    -0.161 C  
HETATM    2  C   UNL     1      -9.887  10.705  62.800  1.00  0.00    -0.220 C  
ENDROOT
BRANCH   2   3
HETATM    3  C   UNL     1     -10.560  11.277  64.031  1.00  0.00    -0.450 C  
HETATM    4  C   UNL     1     -11.782  11.835  63.962  1.00  0.00    -0.421 C  
BRANCH   3   5
HETATM    5  C   UNL     1      -9.732  11.266  65.289  1.00  0.00    -0.239 C  
HETATM    6  O   UNL     1      -8.939  10.352  65.484  1.00  0.00    -0.160 OA 
BRANCH   5   7
HETATM    7  C   UNL     1      -9.928  12.297  66.353  1.00  0.00    -0.243 A  
HETATM    8  C   UNL     1     -10.616  12.014  67.550  1.00  0.00    -0.221 A  
HETATM    9 CL   UNL     1     -11.137  10.388  67.908  1.00  0.00    -0.358 Cl 
HETATM   10  C   UNL     1     -10.851  13.045  68.497  1.00  0.00    -0.258 A  
HETATM   11 CL   UNL     1     -11.595  12.645  70.018  1.00  0.00    -0.263 Cl 
HETATM   12  C   UNL     1     -10.416  14.357  68.229  1.00  0.00    -0.245 A  
HETATM   13  C   UNL     1      -9.481  13.604  66.116  1.00  0.00    -0.166 A  
HETATM   14  C   UNL     1      -9.701  14.611  67.055  1.00  0.00    -0.247 A  
BRANCH  12  15
HETATM   15  O   UNL     1     -10.543  15.475  69.020  1.00  0.00    -0.226 OA 
BRANCH  15  16
HETATM   16  C   UNL     1     -11.331  16.556  68.506  1.00  0.00    -0.231 C  
HETATM   17  C   UNL     1     -10.477  17.801  68.322  1.00  0.00    -0.364 C  
HETATM   18  O   UNL     1     -10.907  18.876  67.926  1.00  0.00    -0.342 OA 
HETATM   19  O   UNL     1      -9.169  17.610  68.634  1.00  0.00    -0.282 OA 
ENDBRANCH  15  16
ENDBRANCH  12  15
ENDBRANCH   5   7
ENDBRANCH   3   5
ENDBRANCH   2   3
TORSDOF 5
ENDMDL
MODEL      136
REMARK 921   NORMALIZED FREE ENERGY PREDICTED BY IDOCK:   -3.69 KCAL/MOL
REMARK 922        TOTAL FREE ENERGY PREDICTED BY IDOCK:   -5.48 KCAL/MOL
REMARK 923 INTER-LIGAND FREE ENERGY PREDICTED BY IDOCK:   -4.88 KCAL/MOL
REMARK 924 INTRA-LIGAND FREE ENERGY PREDICTED BY IDOCK:   -0.60 KCAL/MOL
REMARK 927      BINDING AFFINITY PREDICTED BY RF-SCORE:    0.00 PKD
ROOT
HETATM    1  C   UNL     1      -9.397   6.086  71.609  1.00  0.00    -0.160 C  
HETATM    2  C   UNL     1      -9.729   7.572  71.694  1.00  0.00    -0.184 C  
ENDROOT
BRANCH   2   3
HETATM    3  C   UNL     1     -10.615   8.067  70.568  1.00  0.00    -0.222 C  
HETATM    4  C   UNL     1     -10.889   7.292  69.504  1.00  0.00    -0.224 C  
BRANCH   3   5
HETATM    5  C   UNL     1     -11.069   9.499  70.681  1.00  0.00    -0.300 C  
HETATM    6  O   UNL     1     -11.667   9.868  71.685  1.00  0.00    -0.372 OA 
BRANCH   5   7
HETATM    7  C   UNL     1     -10.891  10.458  69.548  1.00  0.00    -0.295 A  
HETATM    8  C   UNL     1      -9.617  10.829  69.076  1.00  0.00    -0.180 A  
HETATM    9 CL   UNL     1      -8.183  10.056  69.699  1.00  0.00    -0.171 Cl 
HETATM   10  C   UNL     1      -9.493  11.806  68.053  1.00  0.00    -0.188 A  
HETATM   11 CL   UNL     1      -7.918  12.159  67.404  1.00  0.00    -0.159 Cl 
HETATM   12  C   UNL     1     -10.645  12.421  67.526  1.00  0.00    -0.219 A  
HETATM   13  C   UNL     1     -12.027  11.064  68.994  1.00  0.00    -0.364 A  
HETATM   14  C   UNL     1     -11.903  12.012  67.979  1.00  0.00    -0.338 A  
BRANCH  12  15
HETATM   15  O   UNL     1     -10.726  13.373  66.537  1.00  0.00    -0.283 OA 
BRANCH  15  16
HETATM   16  C   UNL     1     -11.333  14.625  66.879  1.00  0.00    -0.356 C  
HETATM   17  C   UNL     1     -10.319  15.755  66.787  1.00  0.00    -0.293 C  
HETATM   18  O   UNL     1     -10.567  16.923  67.056  1.00  0.00    -0.305 OA 
HETATM   19  O   UNL     1      -9.095  15.349  66.362  1.00  0.00    -0.270 OA 
ENDBRANCH  15  16
ENDBRANCH  12  15
ENDBRANCH   5   7
ENDBRANCH   3   5
ENDBRANCH   2   3
TORSDOF 5
ENDMDL
MODEL      137
REMARK 921   NORMALIZED FREE ENERGY PREDICTED BY IDOCK:   -3.68 KCAL/MOL
REMARK 922        TOTAL FREE ENERGY PREDICTED BY IDOCK:   -5.46 KCAL/MOL
REMARK 923 INTER-LIGAND FREE ENERGY PREDICTED BY IDOCK:   -4.77 KCAL/MOL
REMARK 924 INTRA-LIGAND FREE ENERGY PREDICTED BY IDOCK:   -0.69 KCAL/MOL
REMARK 927      BINDING AFFINITY PREDICTED BY RF-SCORE:    0.00 PKD
ROOT
HETATM    1  C   UNL     1      -5.698   4.153  73.247  1.00  0.00    -0.007 C  
HETATM    2  C   UNL     1      -6.903   4.790  73.932  1.00  0.00    -0.074 C  
ENDROOT
BRANCH   2   3
HETATM    3  C   UNL     1      -7.835   5.515  72.982  1.00  0.00    -0.098 C  
HETATM    4  C   UNL     1      -8.200   4.967  71.810  1.00  0.00    -0.116 C  
BRANCH   3   5
HETATM    5  C   UNL     1      -8.230   6.908  73.397  1.00  0.00    -0.108 C  
HETATM    6  O   UNL     1      -7.778   7.383  74.433  1.00  0.00    -0.124 OA 
BRANCH   5   7
HETATM    7  C   UNL     1      -9.240   7.689  72.620  1.00  0.00    -0.217 A  
HETATM    8  C   UNL     1      -8.878   8.491  71.519  1.00  0.00    -0.199 A  
HETATM    9 CL   UNL     1      -7.242   8.481  70.916  1.00  0.00    -0.058 Cl 
HETATM   10  C   UNL     1      -9.858   9.281  70.861  1.00  0.00    -0.293 A  
HETATM   11 CL   UNL     1      -9.412  10.168  69.432  1.00  0.00    -0.230 Cl 
HETATM   12  C   UNL     1     -11.187   9.280  71.324  1.00  0.00    -0.355 A  
HETATM   13  C   UNL     1     -10.573   7.683  73.051  1.00  0.00    -0.433 A  
HETATM   14  C   UNL     1     -11.536   8.448  72.393  1.00  0.00    -0.450 A  
BRANCH  12  15
HETATM   15  O   UNL     1     -12.267   9.966  70.818  1.00  0.00    -0.293 OA 
BRANCH  15  16
HETATM   16  C   UNL     1     -13.158  10.575  71.761  1.00  0.00    -0.464 C  
HETATM   17  C   UNL     1     -13.079  12.091  71.672  1.00  0.00    -0.318 C  
HETATM   18  O   UNL     1     -13.713  12.854  72.388  1.00  0.00    -0.565 OA 
HETATM   19  O   UNL     1     -12.232  12.532  70.706  1.00  0.00    -0.369 OA 
ENDBRANCH  15  16
ENDBRANCH  12  15
ENDBRANCH   5   7
ENDBRANCH   3   5
ENDBRANCH   2   3
TORSDOF 5
ENDMDL
MODEL      138
REMARK 921   NORMALIZED FREE ENERGY PREDICTED BY IDOCK:   -3.65 KCAL/MOL
REMARK 922        TOTAL FREE ENERGY PREDICTED BY IDOCK:   -5.43 KCAL/MOL
REMARK 923 INTER-LIGAND FREE ENERGY PREDICTED BY IDOCK:   -4.85 KCAL/MOL
REMARK 924 INTRA-LIGAND FREE ENERGY PREDICTED BY IDOCK:   -0.58 KCAL/MOL
REMARK 927      BINDING AFFINITY PREDICTED BY RF-SCORE:    0.00 PKD
ROOT
HETATM    1  C   UNL     1     -10.201   6.314  73.984  1.00  0.00    -0.327 C  
HETATM    2  C   UNL     1      -9.049   5.946  73.056  1.00  0.00    -0.127 C  
ENDROOT
BRANCH   2   3
HETATM    3  C   UNL     1      -9.016   6.750  71.771  1.00  0.00    -0.139 C  
HETATM    4  C   UNL     1      -9.050   6.146  70.570  1.00  0.00    -0.159 C  
BRANCH   3   5
HETATM    5  C   UNL     1      -8.840   8.236  71.939  1.00  0.00    -0.177 C  
HETATM    6  O   UNL     1      -8.323   8.674  72.961  1.00  0.00    -0.404 OA 
BRANCH   5   7
HETATM    7  C   UNL     1      -9.374   9.197  70.927  1.00  0.00    -0.335 A  
HETATM    8  C   UNL     1     -10.717   9.624  70.937  1.00  0.00    -0.332 A  
HETATM    9 CL   UNL     1     -11.782   9.165  72.239  1.00  0.00    -0.305 Cl 
HETATM   10  C   UNL     1     -11.202  10.473  69.908  1.00  0.00    -0.307 A  
HETATM   11 CL   UNL     1     -12.828  11.084  70.008  1.00  0.00    -0.152 Cl 
HETATM   12  C   UNL     1     -10.346  10.870  68.863  1.00  0.00    -0.204 A  
HETATM   13  C   UNL     1      -8.531   9.623  69.891  1.00  0.00    -0.211 A  
HETATM   14  C   UNL     1      -9.007  10.469  68.890  1.00  0.00    -0.175 A  
BRANCH  12  15
HETATM   15  O   UNL     1     -10.628  11.687  67.792  1.00  0.00    -0.184 OA 
BRANCH  15  16
HETATM   16  C   UNL     1     -10.822  13.080  68.064  1.00  0.00    -0.242 C  
HETATM   17  C   UNL     1     -11.860  13.671  67.122  1.00  0.00    -0.396 C  
HETATM   18  O   UNL     1     -12.192  14.848  67.118  1.00  0.00    -0.153 OA 
HETATM   19  O   UNL     1     -12.403  12.758  66.276  1.00  0.00    -0.521 OA 
ENDBRANCH  15  16
ENDBRANCH  12  15
ENDBRANCH   5   7
ENDBRANCH   3   5
ENDBRANCH   2   3
TORSDOF 5
ENDMDL
MODEL      139
REMARK 921   NORMALIZED FREE ENERGY PREDICTED BY IDOCK:   -3.64 KCAL/MOL
REMARK 922        TOTAL FREE ENERGY PREDICTED BY IDOCK:   -5.41 KCAL/MOL
REMARK 923 INTER-LIGAND FREE ENERGY PREDICTED BY IDOCK:   -4.58 KCAL/MOL
REMARK 924 INTRA-LIGAND FREE ENERGY PREDICTED BY IDOCK:   -0.83 KCAL/MOL
REMARK 927      BINDING AFFINITY PREDICTED BY RF-SCORE:    0.00 PKD
ROOT
HETATM    1  C   UNL     1     -11.770  15.144  68.636  1.00  0.00    -0.364 C  
HETATM    2  C   UNL     1     -12.219  13.877  67.913  1.00  0.00    -0.194 C  
ENDROOT
BRANCH   2   3
HETATM    3  C   UNL     1     -11.827  13.835  66.450  1.00  0.00    -0.434 C  
HETATM    4  C   UNL     1     -12.757  13.837  65.479  1.00  0.00    -0.530 C  
BRANCH   3   5
HETATM    5  C   UNL     1     -10.353  13.691  66.176  1.00  0.00    -0.297 C  
HETATM    6  O   UNL     1      -9.792  14.493  65.438  1.00  0.00    -0.334 OA 
BRANCH   5   7
HETATM    7  C   UNL     1      -9.577  12.529  66.709  1.00  0.00    -0.231 A  
HETATM    8  C   UNL     1      -9.634  11.255  66.111  1.00  0.00    -0.214 A  
HETATM    9 CL   UNL     1     -10.500  11.017  64.616  1.00  0.00    -0.401 Cl 
HETATM   10  C   UNL     1      -8.946  10.161  66.699  1.00  0.00    -0.140 A  
HETATM   11 CL   UNL     1      -8.933   8.628  65.877  1.00  0.00    -0.227 Cl 
HETATM   12  C   UNL     1      -8.225  10.346  67.894  1.00  0.00    -0.106 A  
HETATM   13  C   UNL     1      -8.834  12.699  67.885  1.00  0.00    -0.182 A  
HETATM   14  C   UNL     1      -8.147  11.625  68.452  1.00  0.00    -0.153 A  
BRANCH  12  15
HETATM   15  O   UNL     1      -7.496   9.418  68.602  1.00  0.00    -0.078 OA 
BRANCH  15  16
HETATM   16  C   UNL     1      -7.055   9.792  69.913  1.00  0.00    -0.108 C  
HETATM   17  C   UNL     1      -7.840   9.041  70.977  1.00  0.00    -0.142 C  
HETATM   18  O   UNL     1      -7.685   9.196  72.181  1.00  0.00    -0.318 OA 
HETATM   19  O   UNL     1      -8.738   8.161  70.465  1.00  0.00    -0.130 OA 
ENDBRANCH  15  16
ENDBRANCH  12  15
ENDBRANCH   5   7
ENDBRANCH   3   5
ENDBRANCH   2   3
TORSDOF 5
ENDMDL
MODEL      140
REMARK 921   NORMALIZED FREE ENERGY PREDICTED BY IDOCK:   -3.64 KCAL/MOL
REMARK 922        TOTAL FREE ENERGY PREDICTED BY IDOCK:   -5.41 KCAL/MOL
REMARK 923 INTER-LIGAND FREE ENERGY PREDICTED BY IDOCK:   -4.75 KCAL/MOL
REMARK 924 INTRA-LIGAND FREE ENERGY PREDICTED BY IDOCK:   -0.66 KCAL/MOL
REMARK 927      BINDING AFFINITY PREDICTED BY RF-SCORE:    0.00 PKD
ROOT
HETATM    1  C   UNL     1     -12.675  11.984  63.439  1.00  0.00    -0.527 C  
HETATM    2  C   UNL     1     -11.525  12.631  64.204  1.00  0.00    -0.447 C  
ENDROOT
BRANCH   2   3
HETATM    3  C   UNL     1     -11.830  12.893  65.664  1.00  0.00    -0.464 C  
HETATM    4  C   UNL     1     -12.399  14.045  66.062  1.00  0.00    -0.504 C  
BRANCH   3   5
HETATM    5  C   UNL     1     -11.366  11.832  66.626  1.00  0.00    -0.316 C  
HETATM    6  O   UNL     1     -12.044  11.569  67.613  1.00  0.00    -0.623 OA 
BRANCH   5   7
HETATM    7  C   UNL     1     -10.042  11.158  66.455  1.00  0.00    -0.269 A  
HETATM    8  C   UNL     1      -8.828  11.811  66.742  1.00  0.00    -0.191 A  
HETATM    9 CL   UNL     1      -8.827  13.398  67.467  1.00  0.00    -0.197 Cl 
HETATM   10  C   UNL     1      -7.592  11.162  66.487  1.00  0.00    -0.135 A  
HETATM   11 CL   UNL     1      -6.110  11.941  66.963  1.00  0.00    -0.151 Cl 
HETATM   12  C   UNL     1      -7.579   9.872  65.923  1.00  0.00    -0.108 A  
HETATM   13  C   UNL     1     -10.010   9.864  65.917  1.00  0.00    -0.347 A  
HETATM   14  C   UNL     1      -8.794   9.223  65.680  1.00  0.00    -0.216 A  
BRANCH  12  15
HETATM   15  O   UNL     1      -6.493   9.087  65.613  1.00  0.00    -0.065 OA 
BRANCH  15  16
HETATM   16  C   UNL     1      -6.626   7.675  65.813  1.00  0.00    -0.045 C  
HETATM   17  C   UNL     1      -6.627   6.943  64.480  1.00  0.00    -0.042 C  
HETATM   18  O   UNL     1      -6.758   5.732  64.361  1.00  0.00    -0.043 OA 
HETATM   19  O   UNL     1      -6.457   7.765  63.412  1.00  0.00    -0.061 OA 
ENDBRANCH  15  16
ENDBRANCH  12  15
ENDBRANCH   5   7
ENDBRANCH   3   5
ENDBRANCH   2   3
TORSDOF 5
ENDMDL
MODEL      141
REMARK 921   NORMALIZED FREE ENERGY PREDICTED BY IDOCK:   -3.61 KCAL/MOL
REMARK 922        TOTAL FREE ENERGY PREDICTED BY IDOCK:   -5.38 KCAL/MOL
REMARK 923 INTER-LIGAND FREE ENERGY PREDICTED BY IDOCK:   -4.61 KCAL/MOL
REMARK 924 INTRA-LIGAND FREE ENERGY PREDICTED BY IDOCK:   -0.77 KCAL/MOL
REMARK 927      BINDING AFFINITY PREDICTED BY RF-SCORE:    0.00 PKD
ROOT
HETATM    1  C   UNL     1      -9.062   5.272  71.695  1.00  0.00    -0.156 C  
HETATM    2  C   UNL     1      -9.139   6.637  71.019  1.00  0.00    -0.156 C  
ENDROOT
BRANCH   2   3
HETATM    3  C   UNL     1      -8.710   6.626  69.566  1.00  0.00    -0.135 C  
HETATM    4  C   UNL     1      -7.412   6.547  69.222  1.00  0.00    -0.095 C  
BRANCH   3   5
HETATM    5  C   UNL     1      -9.816   6.811  68.560  1.00  0.00    -0.141 C  
HETATM    6  O   UNL     1     -10.641   5.920  68.396  1.00  0.00    -0.216 OA 
BRANCH   5   7
HETATM    7  C   UNL     1      -9.872   8.022  67.686  1.00  0.00    -0.214 A  
HETATM    8  C   UNL     1      -9.326   8.032  66.387  1.00  0.00    -0.200 A  
HETATM    9 CL   UNL     1      -8.693   6.568  65.682  1.00  0.00    -0.136 Cl 
HETATM   10  C   UNL     1      -9.328   9.229  65.623  1.00  0.00    -0.244 A  
HETATM   11 CL   UNL     1      -8.758   9.186  63.980  1.00  0.00    -0.199 Cl 
HETATM   12  C   UNL     1      -9.857  10.412  66.173  1.00  0.00    -0.222 A  
HETATM   13  C   UNL     1     -10.416   9.204  68.206  1.00  0.00    -0.254 A  
HETATM   14  C   UNL     1     -10.431  10.374  67.447  1.00  0.00    -0.299 A  
BRANCH  12  15
HETATM   15  O   UNL     1      -9.953  11.654  65.590  1.00  0.00    -0.223 OA 
BRANCH  15  16
HETATM   16  C   UNL     1     -11.085  11.896  64.745  1.00  0.00    -0.311 C  
HETATM   17  C   UNL     1     -11.914  13.055  65.277  1.00  0.00    -0.407 C  
HETATM   18  O   UNL     1     -12.951  13.450  64.763  1.00  0.00    -0.696 OA 
HETATM   19  O   UNL     1     -11.387  13.629  66.390  1.00  0.00    -0.304 OA 
ENDBRANCH  15  16
ENDBRANCH  12  15
ENDBRANCH   5   7
ENDBRANCH   3   5
ENDBRANCH   2   3
TORSDOF 5
ENDMDL
MODEL      142
REMARK 921   NORMALIZED FREE ENERGY PREDICTED BY IDOCK:   -3.61 KCAL/MOL
REMARK 922        TOTAL FREE ENERGY PREDICTED BY IDOCK:   -5.37 KCAL/MOL
REMARK 923 INTER-LIGAND FREE ENERGY PREDICTED BY IDOCK:   -4.69 KCAL/MOL
REMARK 924 INTRA-LIGAND FREE ENERGY PREDICTED BY IDOCK:   -0.68 KCAL/MOL
REMARK 927      BINDING AFFINITY PREDICTED BY RF-SCORE:    0.00 PKD
ROOT
HETATM    1  C   UNL     1      -7.170  10.365  69.388  1.00  0.00    -0.109 C  
HETATM    2  C   UNL     1      -7.119   9.050  68.617  1.00  0.00    -0.071 C  
ENDROOT
BRANCH   2   3
HETATM    3  C   UNL     1      -7.882   9.076  67.308  1.00  0.00    -0.099 C  
HETATM    4  C   UNL     1      -7.252   9.283  66.138  1.00  0.00    -0.091 C  
BRANCH   3   5
HETATM    5  C   UNL     1      -9.378   8.957  67.426  1.00  0.00    -0.136 C  
HETATM    6  O   UNL     1      -9.909   7.856  67.337  1.00  0.00    -0.155 OA 
BRANCH   5   7
HETATM    7  C   UNL     1     -10.243  10.170  67.553  1.00  0.00    -0.257 A  
HETATM    8  C   UNL     1     -10.566  10.977  66.444  1.00  0.00    -0.251 A  
HETATM    9 CL   UNL     1     -10.093  10.500  64.835  1.00  0.00    -0.396 Cl 
HETATM   10  C   UNL     1     -11.321  12.165  66.624  1.00  0.00    -0.350 A  
HETATM   11 CL   UNL     1     -11.809  13.080  65.227  1.00  0.00    -0.387 Cl 
HETATM   12  C   UNL     1     -11.728  12.550  67.916  1.00  0.00    -0.359 A  
HETATM   13  C   UNL     1     -10.678  10.557  68.828  1.00  0.00    -0.249 A  
HETATM   14  C   UNL     1     -11.433  11.717  69.000  1.00  0.00    -0.356 A  
BRANCH  12  15
HETATM   15  O   UNL     1     -12.465  13.651  68.285  1.00  0.00    -0.080 OA 
BRANCH  15  16
HETATM   16  C   UNL     1     -12.075  14.329  69.486  1.00  0.00    -0.330 C  
HETATM   17  C   UNL     1     -11.452  15.678  69.161  1.00  0.00    -0.359 C  
HETATM   18  O   UNL     1     -11.004  16.448  70.000  1.00  0.00    -0.354 OA 
HETATM   19  O   UNL     1     -11.444  15.964  67.833  1.00  0.00    -0.299 OA 
ENDBRANCH  15  16
ENDBRANCH  12  15
ENDBRANCH   5   7
ENDBRANCH   3   5
ENDBRANCH   2   3
TORSDOF 5
ENDMDL
MODEL      143
REMARK 921   NORMALIZED FREE ENERGY PREDICTED BY IDOCK:   -3.61 KCAL/MOL
REMARK 922        TOTAL FREE ENERGY PREDICTED BY IDOCK:   -5.37 KCAL/MOL
REMARK 923 INTER-LIGAND FREE ENERGY PREDICTED BY IDOCK:   -4.82 KCAL/MOL
REMARK 924 INTRA-LIGAND FREE ENERGY PREDICTED BY IDOCK:   -0.55 KCAL/MOL
REMARK 927      BINDING AFFINITY PREDICTED BY RF-SCORE:    0.00 PKD
ROOT
HETATM    1  C   UNL     1     -10.070   5.046  71.945  1.00  0.00    -0.257 C  
HETATM    2  C   UNL     1     -11.249   6.011  71.866  1.00  0.00    -0.338 C  
ENDROOT
BRANCH   2   3
HETATM    3  C   UNL     1     -11.104   7.070  70.793  1.00  0.00    -0.307 C  
HETATM    4  C   UNL     1     -11.183   6.755  69.487  1.00  0.00    -0.319 C  
BRANCH   3   5
HETATM    5  C   UNL     1     -10.769   8.453  71.285  1.00  0.00    -0.230 C  
HETATM    6  O   UNL     1     -10.889   8.718  72.476  1.00  0.00    -0.257 OA 
BRANCH   5   7
HETATM    7  C   UNL     1     -10.386   9.541  70.335  1.00  0.00    -0.334 A  
HETATM    8  C   UNL     1     -11.288  10.554  69.955  1.00  0.00    -0.309 A  
HETATM    9 CL   UNL     1     -12.857  10.670  70.708  1.00  0.00    -0.448 Cl 
HETATM   10  C   UNL     1     -10.908  11.520  68.987  1.00  0.00    -0.212 A  
HETATM   11 CL   UNL     1     -11.994  12.830  68.624  1.00  0.00    -0.323 Cl 
HETATM   12  C   UNL     1      -9.635  11.451  68.388  1.00  0.00    -0.197 A  
HETATM   13  C   UNL     1      -9.114   9.503  69.745  1.00  0.00    -0.219 A  
HETATM   14  C   UNL     1      -8.739  10.463  68.805  1.00  0.00    -0.146 A  
BRANCH  12  15
HETATM   15  O   UNL     1      -9.090  12.292  67.445  1.00  0.00    -0.172 OA 
BRANCH  15  16
HETATM   16  C   UNL     1      -7.780  12.810  67.708  1.00  0.00    -0.152 C  
HETATM   17  C   UNL     1      -7.690  14.272  67.301  1.00  0.00    -0.120 C  
HETATM   18  O   UNL     1      -6.673  14.948  67.389  1.00  0.00    -0.236 OA 
HETATM   19  O   UNL     1      -8.860  14.775  66.829  1.00  0.00    -0.246 OA 
ENDBRANCH  15  16
ENDBRANCH  12  15
ENDBRANCH   5   7
ENDBRANCH   3   5
ENDBRANCH   2   3
TORSDOF 5
ENDMDL
MODEL      144
REMARK 921   NORMALIZED FREE ENERGY PREDICTED BY IDOCK:   -3.59 KCAL/MOL
REMARK 922        TOTAL FREE ENERGY PREDICTED BY IDOCK:   -5.34 KCAL/MOL
REMARK 923 INTER-LIGAND FREE ENERGY PREDICTED BY IDOCK:   -4.63 KCAL/MOL
REMARK 924 INTRA-LIGAND FREE ENERGY PREDICTED BY IDOCK:   -0.71 KCAL/MOL
REMARK 927      BINDING AFFINITY PREDICTED BY RF-SCORE:    0.00 PKD
ROOT
HETATM    1  C   UNL     1     -13.643   9.090  71.599  1.00  0.00    -0.446 C  
HETATM    2  C   UNL     1     -12.125   9.244  71.620  1.00  0.00    -0.451 C  
ENDROOT
BRANCH   2   3
HETATM    3  C   UNL     1     -11.552   9.845  70.353  1.00  0.00    -0.356 C  
HETATM    4  C   UNL     1     -12.192  10.829  69.697  1.00  0.00    -0.325 C  
BRANCH   3   5
HETATM    5  C   UNL     1     -10.292   9.200  69.840  1.00  0.00    -0.212 C  
HETATM    6  O   UNL     1      -9.229   9.807  69.907  1.00  0.00    -0.212 OA 
BRANCH   5   7
HETATM    7  C   UNL     1     -10.325   7.869  69.160  1.00  0.00    -0.225 A  
HETATM    8  C   UNL     1      -9.992   6.677  69.834  1.00  0.00    -0.171 A  
HETATM    9 CL   UNL     1      -9.675   6.689  71.549  1.00  0.00    -0.170 Cl 
HETATM   10  C   UNL     1      -9.958   5.446  69.128  1.00  0.00    -0.197 A  
HETATM   11 CL   UNL     1      -9.662   3.973  70.006  1.00  0.00    -0.277 Cl 
HETATM   12  C   UNL     1     -10.234   5.420  67.747  1.00  0.00    -0.178 A  
HETATM   13  C   UNL     1     -10.621   7.819  67.791  1.00  0.00    -0.254 A  
HETATM   14  C   UNL     1     -10.601   6.606  67.104  1.00  0.00    -0.401 A  
BRANCH  12  15
HETATM   15  O   UNL     1     -10.257   4.335  66.903  1.00  0.00    -0.145 OA 
BRANCH  15  16
HETATM   16  C   UNL     1     -10.492   4.590  65.512  1.00  0.00    -0.211 C  
HETATM   17  C   UNL     1      -9.237   4.319  64.698  1.00  0.00    -0.156 C  
HETATM   18  O   UNL     1      -9.153   4.487  63.489  1.00  0.00    -0.145 OA 
HETATM   19  O   UNL     1      -8.199   3.857  65.443  1.00  0.00    -0.100 OA 
ENDBRANCH  15  16
ENDBRANCH  12  15
ENDBRANCH   5   7
ENDBRANCH   3   5
ENDBRANCH   2   3
TORSDOF 5
ENDMDL
MODEL      145
REMARK 921   NORMALIZED FREE ENERGY PREDICTED BY IDOCK:   -3.58 KCAL/MOL
REMARK 922        TOTAL FREE ENERGY PREDICTED BY IDOCK:   -5.34 KCAL/MOL
REMARK 923 INTER-LIGAND FREE ENERGY PREDICTED BY IDOCK:   -4.67 KCAL/MOL
REMARK 924 INTRA-LIGAND FREE ENERGY PREDICTED BY IDOCK:   -0.67 KCAL/MOL
REMARK 927      BINDING AFFINITY PREDICTED BY RF-SCORE:    0.00 PKD
ROOT
HETATM    1  C   UNL     1      -6.863   5.430  69.187  1.00  0.00    -0.054 C  
HETATM    2  C   UNL     1      -7.736   5.785  67.988  1.00  0.00    -0.096 C  
ENDROOT
BRANCH   2   3
HETATM    3  C   UNL     1      -9.093   5.113  67.998  1.00  0.00    -0.123 C  
HETATM    4  C   UNL     1      -9.232   3.825  68.361  1.00  0.00    -0.213 C  
BRANCH   3   5
HETATM    5  C   UNL     1     -10.236   5.949  67.482  1.00  0.00    -0.190 C  
HETATM    6  O   UNL     1     -11.019   5.470  66.671  1.00  0.00    -0.244 OA 
BRANCH   5   7
HETATM    7  C   UNL     1     -10.378   7.386  67.867  1.00  0.00    -0.258 A  
HETATM    8  C   UNL     1     -10.703   7.780  69.181  1.00  0.00    -0.126 A  
HETATM    9 CL   UNL     1     -10.800   6.598  70.460  1.00  0.00    -0.289 Cl 
HETATM   10  C   UNL     1     -10.908   9.151  69.483  1.00  0.00    -0.180 A  
HETATM   11 CL   UNL     1     -11.189   9.623  71.134  1.00  0.00    -0.430 Cl 
HETATM   12  C   UNL     1     -10.811  10.117  68.463  1.00  0.00    -0.237 A  
HETATM   13  C   UNL     1     -10.260   8.365  66.871  1.00  0.00    -0.383 A  
HETATM   14  C   UNL     1     -10.449   9.713  67.174  1.00  0.00    -0.317 A  
BRANCH  12  15
HETATM   15  O   UNL     1     -10.967  11.480  68.562  1.00  0.00    -0.194 OA 
BRANCH  15  16
HETATM   16  C   UNL     1     -11.702  12.134  67.520  1.00  0.00    -0.315 C  
HETATM   17  C   UNL     1     -11.551  13.644  67.624  1.00  0.00    -0.346 C  
HETATM   18  O   UNL     1     -12.100  14.441  66.876  1.00  0.00    -0.425 OA 
HETATM   19  O   UNL     1     -10.731  14.037  68.632  1.00  0.00    -0.246 OA 
ENDBRANCH  15  16
ENDBRANCH  12  15
ENDBRANCH   5   7
ENDBRANCH   3   5
ENDBRANCH   2   3
TORSDOF 5
ENDMDL
MODEL      146
REMARK 921   NORMALIZED FREE ENERGY PREDICTED BY IDOCK:   -3.57 KCAL/MOL
REMARK 922        TOTAL FREE ENERGY PREDICTED BY IDOCK:   -5.32 KCAL/MOL
REMARK 923 INTER-LIGAND FREE ENERGY PREDICTED BY IDOCK:   -5.22 KCAL/MOL
REMARK 924 INTRA-LIGAND FREE ENERGY PREDICTED BY IDOCK:   -0.10 KCAL/MOL
REMARK 927      BINDING AFFINITY PREDICTED BY RF-SCORE:    0.00 PKD
ROOT
HETATM    1  C   UNL     1     -12.778   9.170  71.359  1.00  0.00    -0.383 C  
HETATM    2  C   UNL     1     -11.970  10.458  71.232  1.00  0.00    -0.425 C  
ENDROOT
BRANCH   2   3
HETATM    3  C   UNL     1     -10.998  10.459  70.070  1.00  0.00    -0.370 C  
HETATM    4  C   UNL     1      -9.809   9.837  70.154  1.00  0.00    -0.306 C  
BRANCH   3   5
HETATM    5  C   UNL     1     -11.413  11.281  68.878  1.00  0.00    -0.297 C  
HETATM    6  O   UNL     1     -12.284  10.860  68.125  1.00  0.00    -0.503 OA 
BRANCH   5   7
HETATM    7  C   UNL     1     -10.714  12.558  68.537  1.00  0.00    -0.263 A  
HETATM    8  C   UNL     1     -11.081  13.788  69.116  1.00  0.00    -0.240 A  
HETATM    9 CL   UNL     1     -12.276  13.847  70.385  1.00  0.00    -0.417 Cl 
HETATM   10  C   UNL     1     -10.446  14.988  68.702  1.00  0.00    -0.238 A  
HETATM   11 CL   UNL     1     -10.831  16.476  69.518  1.00  0.00    -0.323 Cl 
HETATM   12  C   UNL     1      -9.463  14.951  67.695  1.00  0.00    -0.199 A  
HETATM   13  C   UNL     1      -9.716  12.538  67.553  1.00  0.00    -0.196 A  
HETATM   14  C   UNL     1      -9.083  13.717  67.159  1.00  0.00    -0.241 A  
BRANCH  12  15
HETATM   15  O   UNL     1      -8.738  15.997  67.172  1.00  0.00    -0.174 OA 
BRANCH  15  16
HETATM   16  C   UNL     1      -7.320  15.824  67.067  1.00  0.00    -0.191 C  
HETATM   17  C   UNL     1      -6.665  15.925  68.436  1.00  0.00    -0.116 C  
HETATM   18  O   UNL     1      -5.459  15.846  68.628  1.00  0.00    -0.098 OA 
HETATM   19  O   UNL     1      -7.553  16.107  69.447  1.00  0.00    -0.234 OA 
ENDBRANCH  15  16
ENDBRANCH  12  15
ENDBRANCH   5   7
ENDBRANCH   3   5
ENDBRANCH   2   3
TORSDOF 5
ENDMDL
MODEL      147
REMARK 921   NORMALIZED FREE ENERGY PREDICTED BY IDOCK:   -3.54 KCAL/MOL
REMARK 922        TOTAL FREE ENERGY PREDICTED BY IDOCK:   -5.29 KCAL/MOL
REMARK 923 INTER-LIGAND FREE ENERGY PREDICTED BY IDOCK:   -4.96 KCAL/MOL
REMARK 924 INTRA-LIGAND FREE ENERGY PREDICTED BY IDOCK:   -0.33 KCAL/MOL
REMARK 927      BINDING AFFINITY PREDICTED BY RF-SCORE:    0.00 PKD
ROOT
HETATM    1  C   UNL     1      -7.650  12.733  68.177  1.00  0.00    -0.134 C  
HETATM    2  C   UNL     1      -8.713  12.946  67.104  1.00  0.00    -0.205 C  
ENDROOT
BRANCH   2   3
HETATM    3  C   UNL     1      -9.267  11.659  66.526  1.00  0.00    -0.205 C  
HETATM    4  C   UNL     1      -8.562  10.932  65.642  1.00  0.00    -0.163 C  
BRANCH   3   5
HETATM    5  C   UNL     1     -10.677  11.320  66.931  1.00  0.00    -0.273 C  
HETATM    6  O   UNL     1     -11.619  11.840  66.342  1.00  0.00    -0.462 OA 
BRANCH   5   7
HETATM    7  C   UNL     1     -10.954  10.434  68.102  1.00  0.00    -0.334 A  
HETATM    8  C   UNL     1     -11.547  10.921  69.284  1.00  0.00    -0.318 A  
HETATM    9 CL   UNL     1     -12.130  12.562  69.370  1.00  0.00    -0.284 Cl 
HETATM   10  C   UNL     1     -11.716  10.062  70.402  1.00  0.00    -0.286 A  
HETATM   11 CL   UNL     1     -12.559  10.653  71.805  1.00  0.00    -0.466 Cl 
HETATM   12  C   UNL     1     -11.270   8.729  70.337  1.00  0.00    -0.223 A  
HETATM   13  C   UNL     1     -10.539   9.096  68.048  1.00  0.00    -0.253 A  
HETATM   14  C   UNL     1     -10.720   8.252  69.143  1.00  0.00    -0.117 A  
BRANCH  12  15
HETATM   15  O   UNL     1     -11.352   7.754  71.304  1.00  0.00    -0.255 OA 
BRANCH  15  16
HETATM   16  C   UNL     1     -10.969   8.117  72.636  1.00  0.00    -0.370 C  
HETATM   17  C   UNL     1      -9.596   7.555  72.971  1.00  0.00    -0.215 C  
HETATM   18  O   UNL     1      -9.044   7.691  74.055  1.00  0.00    -0.259 OA 
HETATM   19  O   UNL     1      -9.021   6.883  71.940  1.00  0.00    -0.137 OA 
ENDBRANCH  15  16
ENDBRANCH  12  15
ENDBRANCH   5   7
ENDBRANCH   3   5
ENDBRANCH   2   3
TORSDOF 5
ENDMDL
MODEL      148
REMARK 921   NORMALIZED FREE ENERGY PREDICTED BY IDOCK:   -3.54 KCAL/MOL
REMARK 922        TOTAL FREE ENERGY PREDICTED BY IDOCK:   -5.28 KCAL/MOL
REMARK 923 INTER-LIGAND FREE ENERGY PREDICTED BY IDOCK:   -4.50 KCAL/MOL
REMARK 924 INTRA-LIGAND FREE ENERGY PREDICTED BY IDOCK:   -0.78 KCAL/MOL
REMARK 927      BINDING AFFINITY PREDICTED BY RF-SCORE:    0.00 PKD
ROOT
HETATM    1  C   UNL     1      -8.634   8.883  62.858  1.00  0.00    -0.149 C  
HETATM    2  C   UNL     1      -7.539   8.411  63.810  1.00  0.00    -0.135 C  
ENDROOT
BRANCH   2   3
HETATM    3  C   UNL     1      -8.018   8.177  65.228  1.00  0.00    -0.126 C  
HETATM    4  C   UNL     1      -8.610   7.023  65.583  1.00  0.00    -0.121 C  
BRANCH   3   5
HETATM    5  C   UNL     1      -7.876   9.349  66.163  1.00  0.00    -0.100 C  
HETATM    6  O   UNL     1      -6.820   9.524  66.761  1.00  0.00    -0.078 OA 
BRANCH   5   7
HETATM    7  C   UNL     1      -9.032  10.251  66.454  1.00  0.00    -0.166 A  
HETATM    8  C   UNL     1      -9.905  10.022  67.536  1.00  0.00    -0.175 A  
HETATM    9 CL   UNL     1      -9.576   8.752  68.685  1.00  0.00    -0.154 Cl 
HETATM   10  C   UNL     1     -11.037  10.856  67.727  1.00  0.00    -0.309 A  
HETATM   11 CL   UNL     1     -12.031  10.629  69.137  1.00  0.00    -0.292 Cl 
HETATM   12  C   UNL     1     -11.301  11.900  66.819  1.00  0.00    -0.330 A  
HETATM   13  C   UNL     1      -9.298  11.310  65.576  1.00  0.00    -0.243 A  
HETATM   14  C   UNL     1     -10.404  12.137  65.774  1.00  0.00    -0.289 A  
BRANCH  12  15
HETATM   15  O   UNL     1     -12.334  12.809  66.841  1.00  0.00    -0.412 OA 
BRANCH  15  16
HETATM   16  C   UNL     1     -11.991  14.195  66.721  1.00  0.00    -0.447 C  
HETATM   17  C   UNL     1     -11.878  14.840  68.094  1.00  0.00    -0.287 C  
HETATM   18  O   UNL     1     -11.626  16.023  68.278  1.00  0.00    -0.338 OA 
HETATM   19  O   UNL     1     -12.076  13.969  69.118  1.00  0.00    -0.346 OA 
ENDBRANCH  15  16
ENDBRANCH  12  15
ENDBRANCH   5   7
ENDBRANCH   3   5
ENDBRANCH   2   3
TORSDOF 5
ENDMDL
MODEL      149
REMARK 921   NORMALIZED FREE ENERGY PREDICTED BY IDOCK:   -3.53 KCAL/MOL
REMARK 922        TOTAL FREE ENERGY PREDICTED BY IDOCK:   -5.26 KCAL/MOL
REMARK 923 INTER-LIGAND FREE ENERGY PREDICTED BY IDOCK:   -4.46 KCAL/MOL
REMARK 924 INTRA-LIGAND FREE ENERGY PREDICTED BY IDOCK:   -0.80 KCAL/MOL
REMARK 927      BINDING AFFINITY PREDICTED BY RF-SCORE:    0.00 PKD
ROOT
HETATM    1  C   UNL     1     -10.758   7.999  70.372  1.00  0.00    -0.233 C  
HETATM    2  C   UNL     1      -9.577   8.724  69.736  1.00  0.00    -0.173 C  
ENDROOT
BRANCH   2   3
HETATM    3  C   UNL     1      -9.318   8.330  68.297  1.00  0.00    -0.138 C  
HETATM    4  C   UNL     1      -8.525   7.288  67.990  1.00  0.00    -0.123 C  
BRANCH   3   5
HETATM    5  C   UNL     1      -9.920   9.238  67.256  1.00  0.00    -0.207 C  
HETATM    6  O   UNL     1     -10.206   8.789  66.152  1.00  0.00    -0.233 OA 
BRANCH   5   7
HETATM    7  C   UNL     1     -10.087  10.702  67.510  1.00  0.00    -0.217 A  
HETATM    8  C   UNL     1      -9.031  11.616  67.333  1.00  0.00    -0.166 A  
HETATM    9 CL   UNL     1      -7.512  11.093  66.653  1.00  0.00    -0.144 Cl 
HETATM   10  C   UNL     1      -9.210  12.985  67.665  1.00  0.00    -0.200 A  
HETATM   11 CL   UNL     1      -7.932  14.115  67.324  1.00  0.00    -0.195 Cl 
HETATM   12  C   UNL     1     -10.439  13.424  68.194  1.00  0.00    -0.245 A  
HETATM   13  C   UNL     1     -11.311  11.162  68.015  1.00  0.00    -0.380 A  
HETATM   14  C   UNL     1     -11.489  12.510  68.326  1.00  0.00    -0.355 A  
BRANCH  12  15
HETATM   15  O   UNL     1     -10.801  14.698  68.564  1.00  0.00    -0.237 OA 
BRANCH  15  16
HETATM   16  C   UNL     1     -11.160  15.609  67.517  1.00  0.00    -0.289 C  
HETATM   17  C   UNL     1     -10.419  16.927  67.676  1.00  0.00    -0.332 C  
HETATM   18  O   UNL     1     -10.564  17.890  66.935  1.00  0.00    -0.338 OA 
HETATM   19  O   UNL     1      -9.559  16.940  68.727  1.00  0.00    -0.253 OA 
ENDBRANCH  15  16
ENDBRANCH  12  15
ENDBRANCH   5   7
ENDBRANCH   3   5
ENDBRANCH   2   3
TORSDOF 5
ENDMDL
MODEL      150
REMARK 921   NORMALIZED FREE ENERGY PREDICTED BY IDOCK:   -3.50 KCAL/MOL
REMARK 922        TOTAL FREE ENERGY PREDICTED BY IDOCK:   -5.22 KCAL/MOL
REMARK 923 INTER-LIGAND FREE ENERGY PREDICTED BY IDOCK:   -4.89 KCAL/MOL
REMARK 924 INTRA-LIGAND FREE ENERGY PREDICTED BY IDOCK:   -0.33 KCAL/MOL
REMARK 927      BINDING AFFINITY PREDICTED BY RF-SCORE:    0.00 PKD
ROOT
HETATM    1  C   UNL     1      -9.083   7.213  70.333  1.00  0.00    -0.156 C  
HETATM    2  C   UNL     1      -9.538   8.212  69.274  1.00  0.00    -0.164 C  
ENDROOT
BRANCH   2   3
HETATM    3  C   UNL     1      -8.482   8.528  68.235  1.00  0.00    -0.135 C  
HETATM    4  C   UNL     1      -7.352   9.178  68.564  1.00  0.00    -0.077 C  
BRANCH   3   5
HETATM    5  C   UNL     1      -8.833   8.157  66.818  1.00  0.00    -0.138 C  
HETATM    6  O   UNL     1      -8.705   6.996  66.445  1.00  0.00    -0.130 OA 
BRANCH   5   7
HETATM    7  C   UNL     1      -9.243   9.197  65.825  1.00  0.00    -0.294 A  
HETATM    8  C   UNL     1      -8.467   9.489  64.686  1.00  0.00    -0.166 A  
HETATM    9 CL   UNL     1      -7.062   8.531  64.302  1.00  0.00    -0.081 Cl 
HETATM   10  C   UNL     1      -8.852  10.541  63.814  1.00  0.00    -0.200 A  
HETATM   11 CL   UNL     1      -7.946  10.804  62.351  1.00  0.00    -0.213 Cl 
HETATM   12  C   UNL     1      -9.997  11.308  64.100  1.00  0.00    -0.300 A  
HETATM   13  C   UNL     1     -10.393   9.955  66.080  1.00  0.00    -0.223 A  
HETATM   14  C   UNL     1     -10.777  10.978  65.213  1.00  0.00    -0.234 A  
BRANCH  12  15
HETATM   15  O   UNL     1     -10.528  12.351  63.378  1.00  0.00    -0.426 OA 
BRANCH  15  16
HETATM   16  C   UNL     1     -11.903  12.680  63.613  1.00  0.00    -0.530 C  
HETATM   17  C   UNL     1     -12.016  13.929  64.473  1.00  0.00    -0.437 C  
HETATM   18  O   UNL     1     -13.076  14.410  64.849  1.00  0.00    -0.593 OA 
HETATM   19  O   UNL     1     -10.814  14.479  64.788  1.00  0.00    -0.399 OA 
ENDBRANCH  15  16
ENDBRANCH  12  15
ENDBRANCH   5   7
ENDBRANCH   3   5
ENDBRANCH   2   3
TORSDOF 5
ENDMDL
MODEL      151
REMARK 921   NORMALIZED FREE ENERGY PREDICTED BY IDOCK:   -3.49 KCAL/MOL
REMARK 922        TOTAL FREE ENERGY PREDICTED BY IDOCK:   -5.21 KCAL/MOL
REMARK 923 INTER-LIGAND FREE ENERGY PREDICTED BY IDOCK:   -4.47 KCAL/MOL
REMARK 924 INTRA-LIGAND FREE ENERGY PREDICTED BY IDOCK:   -0.74 KCAL/MOL
REMARK 927      BINDING AFFINITY PREDICTED BY RF-SCORE:    0.00 PKD
ROOT
HETATM    1  C   UNL     1      -8.907  16.771  66.359  1.00  0.00    -0.331 C  
HETATM    2  C   UNL     1     -10.400  16.471  66.273  1.00  0.00    -0.327 C  
ENDROOT
BRANCH   2   3
HETATM    3  C   UNL     1     -10.808  15.185  66.962  1.00  0.00    -0.314 C  
HETATM    4  C   UNL     1     -11.465  15.201  68.135  1.00  0.00    -0.356 C  
BRANCH   3   5
HETATM    5  C   UNL     1     -10.342  13.916  66.299  1.00  0.00    -0.293 C  
HETATM    6  O   UNL     1     -10.105  13.912  65.096  1.00  0.00    -0.346 OA 
BRANCH   5   7
HETATM    7  C   UNL     1     -10.254  12.633  67.060  1.00  0.00    -0.233 A  
HETATM    8  C   UNL     1      -9.104  12.274  67.790  1.00  0.00    -0.191 A  
HETATM    9 CL   UNL     1      -7.781  13.397  67.965  1.00  0.00    -0.131 Cl 
HETATM   10  C   UNL     1      -9.033  11.009  68.430  1.00  0.00    -0.158 A  
HETATM   11 CL   UNL     1      -7.654  10.638  69.425  1.00  0.00    -0.139 Cl 
HETATM   12  C   UNL     1     -10.104  10.102  68.315  1.00  0.00    -0.156 A  
HETATM   13  C   UNL     1     -11.320  11.726  66.977  1.00  0.00    -0.387 A  
HETATM   14  C   UNL     1     -11.253  10.490  67.620  1.00  0.00    -0.338 A  
BRANCH  12  15
HETATM   15  O   UNL     1     -10.221   8.847  68.865  1.00  0.00    -0.196 OA 
BRANCH  15  16
HETATM   16  C   UNL     1     -10.329   7.741  67.959  1.00  0.00    -0.209 C  
HETATM   17  C   UNL     1      -9.392   6.617  68.372  1.00  0.00    -0.123 C  
HETATM   18  O   UNL     1      -9.263   5.569  67.754  1.00  0.00    -0.108 OA 
HETATM   19  O   UNL     1      -8.705   6.878  69.514  1.00  0.00    -0.133 OA 
ENDBRANCH  15  16
ENDBRANCH  12  15
ENDBRANCH   5   7
ENDBRANCH   3   5
ENDBRANCH   2   3
TORSDOF 5
ENDMDL
MODEL      152
REMARK 921   NORMALIZED FREE ENERGY PREDICTED BY IDOCK:   -3.49 KCAL/MOL
REMARK 922        TOTAL FREE ENERGY PREDICTED BY IDOCK:   -5.21 KCAL/MOL
REMARK 923 INTER-LIGAND FREE ENERGY PREDICTED BY IDOCK:   -4.60 KCAL/MOL
REMARK 924 INTRA-LIGAND FREE ENERGY PREDICTED BY IDOCK:   -0.61 KCAL/MOL
REMARK 927      BINDING AFFINITY PREDICTED BY RF-SCORE:    0.00 PKD
ROOT
HETATM    1  C   UNL     1     -11.354  13.817  67.153  1.00  0.00    -0.344 C  
HETATM    2  C   UNL     1     -10.783  13.383  68.500  1.00  0.00    -0.278 C  
ENDROOT
BRANCH   2   3
HETATM    3  C   UNL     1     -11.100  11.948  68.866  1.00  0.00    -0.299 C  
HETATM    4  C   UNL     1     -12.281  11.613  69.415  1.00  0.00    -0.246 C  
BRANCH   3   5
HETATM    5  C   UNL     1      -9.977  10.963  68.669  1.00  0.00    -0.189 C  
HETATM    6  O   UNL     1      -8.821  11.366  68.609  1.00  0.00    -0.164 OA 
BRANCH   5   7
HETATM    7  C   UNL     1     -10.252   9.511  68.448  1.00  0.00    -0.221 A  
HETATM    8  C   UNL     1     -10.366   8.600  69.517  1.00  0.00    -0.214 A  
HETATM    9 CL   UNL     1     -10.346   9.166  71.166  1.00  0.00    -0.360 Cl 
HETATM   10  C   UNL     1     -10.545   7.216  69.257  1.00  0.00    -0.221 A  
HETATM   11 CL   UNL     1     -10.804   6.130  70.592  1.00  0.00    -0.332 Cl 
HETATM   12  C   UNL     1     -10.585   6.750  67.929  1.00  0.00    -0.242 A  
HETATM   13  C   UNL     1     -10.319   9.031  67.133  1.00  0.00    -0.342 A  
HETATM   14  C   UNL     1     -10.509   7.672  66.881  1.00  0.00    -0.388 A  
BRANCH  12  15
HETATM   15  O   UNL     1     -10.757   5.460  67.483  1.00  0.00    -0.185 OA 
BRANCH  15  16
HETATM   16  C   UNL     1     -10.398   5.183  66.124  1.00  0.00    -0.236 C  
HETATM   17  C   UNL     1      -9.046   4.490  66.058  1.00  0.00    -0.130 C  
HETATM   18  O   UNL     1      -8.489   4.169  65.016  1.00  0.00    -0.111 OA 
HETATM   19  O   UNL     1      -8.503   4.246  67.279  1.00  0.00    -0.100 OA 
ENDBRANCH  15  16
ENDBRANCH  12  15
ENDBRANCH   5   7
ENDBRANCH   3   5
ENDBRANCH   2   3
TORSDOF 5
ENDMDL
MODEL      153
REMARK 921   NORMALIZED FREE ENERGY PREDICTED BY IDOCK:   -3.48 KCAL/MOL
REMARK 922        TOTAL FREE ENERGY PREDICTED BY IDOCK:   -5.21 KCAL/MOL
REMARK 923 INTER-LIGAND FREE ENERGY PREDICTED BY IDOCK:   -4.54 KCAL/MOL
REMARK 924 INTRA-LIGAND FREE ENERGY PREDICTED BY IDOCK:   -0.67 KCAL/MOL
REMARK 927      BINDING AFFINITY PREDICTED BY RF-SCORE:    0.00 PKD
ROOT
HETATM    1  C   UNL     1      -7.852   6.386  72.424  1.00  0.00    -0.102 C  
HETATM    2  C   UNL     1      -9.024   5.700  71.730  1.00  0.00    -0.142 C  
ENDROOT
BRANCH   2   3
HETATM    3  C   UNL     1     -10.332   5.805  72.489  1.00  0.00    -0.233 C  
HETATM    4  C   UNL     1     -10.538   5.110  73.622  1.00  0.00    -0.322 C  
BRANCH   3   5
HETATM    5  C   UNL     1     -11.396   6.647  71.836  1.00  0.00    -0.279 C  
HETATM    6  O   UNL     1     -12.578   6.389  72.032  1.00  0.00    -0.310 OA 
BRANCH   5   7
HETATM    7  C   UNL     1     -11.040   7.733  70.873  1.00  0.00    -0.270 A  
HETATM    8  C   UNL     1     -10.824   7.478  69.504  1.00  0.00    -0.175 A  
HETATM    9 CL   UNL     1     -11.119   5.891  68.844  1.00  0.00    -0.346 Cl 
HETATM   10  C   UNL     1     -10.407   8.525  68.642  1.00  0.00    -0.198 A  
HETATM   11 CL   UNL     1     -10.264   8.212  66.936  1.00  0.00    -0.364 Cl 
HETATM   12  C   UNL     1     -10.188   9.816  69.159  1.00  0.00    -0.199 A  
HETATM   13  C   UNL     1     -10.840   9.031  71.365  1.00  0.00    -0.400 A  
HETATM   14  C   UNL     1     -10.445  10.061  70.511  1.00  0.00    -0.265 A  
BRANCH  12  15
HETATM   15  O   UNL     1      -9.794  10.949  68.485  1.00  0.00    -0.170 OA 
BRANCH  15  16
HETATM   16  C   UNL     1     -10.488  12.166  68.787  1.00  0.00    -0.176 C  
HETATM   17  C   UNL     1      -9.668  13.372  68.354  1.00  0.00    -0.201 C  
HETATM   18  O   UNL     1     -10.014  14.533  68.523  1.00  0.00    -0.226 OA 
HETATM   19  O   UNL     1      -8.501  13.040  67.744  1.00  0.00    -0.162 OA 
ENDBRANCH  15  16
ENDBRANCH  12  15
ENDBRANCH   5   7
ENDBRANCH   3   5
ENDBRANCH   2   3
TORSDOF 5
ENDMDL
MODEL      154
REMARK 921   NORMALIZED FREE ENERGY PREDICTED BY IDOCK:   -3.47 KCAL/MOL
REMARK 922        TOTAL FREE ENERGY PREDICTED BY IDOCK:   -5.20 KCAL/MOL
REMARK 923 INTER-LIGAND FREE ENERGY PREDICTED BY IDOCK:   -4.31 KCAL/MOL
REMARK 924 INTRA-LIGAND FREE ENERGY PREDICTED BY IDOCK:   -0.89 KCAL/MOL
REMARK 927      BINDING AFFINITY PREDICTED BY RF-SCORE:    0.00 PKD
ROOT
HETATM    1  C   UNL     1     -11.910  13.337  68.778  1.00  0.00    -0.371 C  
HETATM    2  C   UNL     1     -11.948  14.498  67.790  1.00  0.00    -0.345 C  
ENDROOT
BRANCH   2   3
HETATM    3  C   UNL     1     -11.841  14.072  66.340  1.00  0.00    -0.437 C  
HETATM    4  C   UNL     1     -12.939  13.854  65.594  1.00  0.00    -0.361 C  
BRANCH   3   5
HETATM    5  C   UNL     1     -10.444  13.817  65.838  1.00  0.00    -0.297 C  
HETATM    6  O   UNL     1      -9.881  14.665  65.154  1.00  0.00    -0.303 OA 
BRANCH   5   7
HETATM    7  C   UNL     1      -9.763  12.508  66.077  1.00  0.00    -0.247 A  
HETATM    8  C   UNL     1      -8.724  12.366  67.018  1.00  0.00    -0.207 A  
HETATM    9 CL   UNL     1      -8.292  13.692  68.065  1.00  0.00    -0.158 Cl 
HETATM   10  C   UNL     1      -8.050  11.124  67.153  1.00  0.00    -0.138 A  
HETATM   11 CL   UNL     1      -6.854  10.940  68.403  1.00  0.00    -0.066 Cl 
HETATM   12  C   UNL     1      -8.405  10.039  66.329  1.00  0.00    -0.127 A  
HETATM   13  C   UNL     1     -10.119  11.409  65.283  1.00  0.00    -0.315 A  
HETATM   14  C   UNL     1      -9.464  10.186  65.428  1.00  0.00    -0.296 A  
BRANCH  12  15
HETATM   15  O   UNL     1      -7.878   8.769  66.317  1.00  0.00    -0.099 OA 
BRANCH  15  16
HETATM   16  C   UNL     1      -8.549   7.773  67.099  1.00  0.00    -0.128 C  
HETATM   17  C   UNL     1      -8.820   6.530  66.266  1.00  0.00    -0.146 C  
HETATM   18  O   UNL     1      -9.408   5.540  66.680  1.00  0.00    -0.132 OA 
HETATM   19  O   UNL     1      -8.334   6.612  65.000  1.00  0.00    -0.133 OA 
ENDBRANCH  15  16
ENDBRANCH  12  15
ENDBRANCH   5   7
ENDBRANCH   3   5
ENDBRANCH   2   3
TORSDOF 5
ENDMDL
MODEL      155
REMARK 921   NORMALIZED FREE ENERGY PREDICTED BY IDOCK:   -3.46 KCAL/MOL
REMARK 922        TOTAL FREE ENERGY PREDICTED BY IDOCK:   -5.18 KCAL/MOL
REMARK 923 INTER-LIGAND FREE ENERGY PREDICTED BY IDOCK:   -4.95 KCAL/MOL
REMARK 924 INTRA-LIGAND FREE ENERGY PREDICTED BY IDOCK:   -0.23 KCAL/MOL
REMARK 927      BINDING AFFINITY PREDICTED BY RF-SCORE:    0.00 PKD
ROOT
HETATM    1  C   UNL     1     -10.157  11.078  64.333  1.00  0.00    -0.393 C  
HETATM    2  C   UNL     1     -11.597  10.992  64.830  1.00  0.00     0.551 C  
ENDROOT
BRANCH   2   3
HETATM    3  C   UNL     1     -12.114  12.281  65.436  1.00  0.00    -0.343 C  
HETATM    4  C   UNL     1     -12.890  13.121  64.729  1.00  0.00    -0.298 C  
BRANCH   3   5
HETATM    5  C   UNL     1     -11.619  12.591  66.824  1.00  0.00    -0.382 C  
HETATM    6  O   UNL     1     -11.532  11.691  67.652  1.00  0.00    -0.321 OA 
BRANCH   5   7
HETATM    7  C   UNL     1     -11.324  13.994  67.244  1.00  0.00    -0.350 A  
HETATM    8  C   UNL     1     -10.374  14.791  66.575  1.00  0.00    -0.286 A  
HETATM    9 CL   UNL     1      -9.609  14.217  65.116  1.00  0.00     0.035 Cl 
HETATM   10  C   UNL     1     -10.065  16.089  67.059  1.00  0.00    -0.271 A  
HETATM   11 CL   UNL     1      -8.979  17.098  66.147  1.00  0.00    -0.257 Cl 
HETATM   12  C   UNL     1     -10.693  16.572  68.223  1.00  0.00    -0.345 A  
HETATM   13  C   UNL     1     -11.956  14.503  68.388  1.00  0.00    -0.309 A  
HETATM   14  C   UNL     1     -11.661  15.784  68.852  1.00  0.00    -0.404 A  
BRANCH  12  15
HETATM   15  O   UNL     1     -10.531  17.794  68.834  1.00  0.00    -0.342 OA 
BRANCH  15  16
HETATM   16  C   UNL     1     -10.886  18.958  68.077  1.00  0.00    -0.099 C  
HETATM   17  C   UNL     1      -9.724  19.938  68.024  1.00  0.00    -0.393 C  
HETATM   18  O   UNL     1      -9.769  21.027  67.468  1.00  0.00    -0.385 OA 
HETATM   19  O   UNL     1      -8.607  19.486  68.652  1.00  0.00    -0.356 OA 
ENDBRANCH  15  16
ENDBRANCH  12  15
ENDBRANCH   5   7
ENDBRANCH   3   5
ENDBRANCH   2   3
TORSDOF 5
ENDMDL
MODEL      156
REMARK 921   NORMALIZED FREE ENERGY PREDICTED BY IDOCK:   -3.45 KCAL/MOL
REMARK 922        TOTAL FREE ENERGY PREDICTED BY IDOCK:   -5.17 KCAL/MOL
REMARK 923 INTER-LIGAND FREE ENERGY PREDICTED BY IDOCK:   -4.42 KCAL/MOL
REMARK 924 INTRA-LIGAND FREE ENERGY PREDICTED BY IDOCK:   -0.74 KCAL/MOL
REMARK 927      BINDING AFFINITY PREDICTED BY RF-SCORE:    0.00 PKD
ROOT
HETATM    1  C   UNL     1      -6.414  12.371  69.518  1.00  0.00    -0.090 C  
HETATM    2  C   UNL     1      -7.374  13.057  68.551  1.00  0.00    -0.115 C  
ENDROOT
BRANCH   2   3
HETATM    3  C   UNL     1      -7.872  12.157  67.439  1.00  0.00    -0.168 C  
HETATM    4  C   UNL     1      -7.015  11.511  66.628  1.00  0.00    -0.069 C  
BRANCH   3   5
HETATM    5  C   UNL     1      -9.366  12.123  67.250  1.00  0.00    -0.183 C  
HETATM    6  O   UNL     1      -9.863  12.646  66.259  1.00  0.00    -0.252 OA 
BRANCH   5   7
HETATM    7  C   UNL     1     -10.265  11.547  68.296  1.00  0.00    -0.205 A  
HETATM    8  C   UNL     1     -11.022  12.362  69.161  1.00  0.00    -0.152 A  
HETATM    9 CL   UNL     1     -11.060  14.092  68.939  1.00  0.00    -0.279 Cl 
HETATM   10  C   UNL     1     -11.799  11.775  70.193  1.00  0.00    -0.324 A  
HETATM   11 CL   UNL     1     -12.819  12.793  71.170  1.00  0.00    -0.374 Cl 
HETATM   12  C   UNL     1     -11.795  10.378  70.368  1.00  0.00    -0.328 A  
HETATM   13  C   UNL     1     -10.293  10.157  68.470  1.00  0.00    -0.203 A  
HETATM   14  C   UNL     1     -11.069   9.583  69.477  1.00  0.00    -0.168 A  
BRANCH  12  15
HETATM   15  O   UNL     1     -12.482   9.633  71.298  1.00  0.00    -0.316 OA 
BRANCH  15  16
HETATM   16  C   UNL     1     -11.854   8.437  71.775  1.00  0.00    -0.316 C  
HETATM   17  C   UNL     1     -12.815   7.261  71.704  1.00  0.00    -0.375 C  
HETATM   18  O   UNL     1     -12.543   6.128  72.078  1.00  0.00    -0.199 OA 
HETATM   19  O   UNL     1     -14.022   7.582  71.170  1.00  0.00    -0.307 OA 
ENDBRANCH  15  16
ENDBRANCH  12  15
ENDBRANCH   5   7
ENDBRANCH   3   5
ENDBRANCH   2   3
TORSDOF 5
ENDMDL
MODEL      157
REMARK 921   NORMALIZED FREE ENERGY PREDICTED BY IDOCK:   -3.45 KCAL/MOL
REMARK 922        TOTAL FREE ENERGY PREDICTED BY IDOCK:   -5.16 KCAL/MOL
REMARK 923 INTER-LIGAND FREE ENERGY PREDICTED BY IDOCK:   -4.46 KCAL/MOL
REMARK 924 INTRA-LIGAND FREE ENERGY PREDICTED BY IDOCK:   -0.70 KCAL/MOL
REMARK 927      BINDING AFFINITY PREDICTED BY RF-SCORE:    0.00 PKD
ROOT
HETATM    1  C   UNL     1     -10.879  13.406  64.504  1.00  0.00    -0.419 C  
HETATM    2  C   UNL     1     -10.439  12.169  65.280  1.00  0.00    -0.311 C  
ENDROOT
BRANCH   2   3
HETATM    3  C   UNL     1      -9.728  11.134  64.432  1.00  0.00    -0.312 C  
HETATM    4  C   UNL     1     -10.068  10.932  63.147  1.00  0.00    -0.317 C  
BRANCH   3   5
HETATM    5  C   UNL     1      -8.705  10.295  65.153  1.00  0.00    -0.175 C  
HETATM    6  O   UNL     1      -7.642  10.031  64.603  1.00  0.00    -0.136 OA 
BRANCH   5   7
HETATM    7  C   UNL     1      -8.999   9.695  66.490  1.00  0.00    -0.171 A  
HETATM    8  C   UNL     1      -8.284  10.061  67.647  1.00  0.00    -0.114 A  
HETATM    9 CL   UNL     1      -7.119  11.357  67.594  1.00  0.00    -0.087 Cl 
HETATM   10  C   UNL     1      -8.541   9.406  68.880  1.00  0.00    -0.131 A  
HETATM   11 CL   UNL     1      -7.732   9.958  70.318  1.00  0.00    -0.186 Cl 
HETATM   12  C   UNL     1      -9.495   8.373  68.941  1.00  0.00    -0.147 A  
HETATM   13  C   UNL     1      -9.963   8.681  66.576  1.00  0.00    -0.353 A  
HETATM   14  C   UNL     1     -10.224   8.050  67.792  1.00  0.00    -0.282 A  
BRANCH  12  15
HETATM   15  O   UNL     1      -9.884   7.634  70.034  1.00  0.00    -0.179 OA 
BRANCH  15  16
HETATM   16  C   UNL     1     -11.267   7.270  70.123  1.00  0.00    -0.239 C  
HETATM   17  C   UNL     1     -11.987   8.144  71.138  1.00  0.00    -0.273 C  
HETATM   18  O   UNL     1     -13.169   8.025  71.430  1.00  0.00    -0.300 OA 
HETATM   19  O   UNL     1     -11.190   9.093  71.695  1.00  0.00    -0.333 OA 
ENDBRANCH  15  16
ENDBRANCH  12  15
ENDBRANCH   5   7
ENDBRANCH   3   5
ENDBRANCH   2   3
TORSDOF 5
ENDMDL
MODEL      158
REMARK 921   NORMALIZED FREE ENERGY PREDICTED BY IDOCK:   -3.44 KCAL/MOL
REMARK 922        TOTAL FREE ENERGY PREDICTED BY IDOCK:   -5.16 KCAL/MOL
REMARK 923 INTER-LIGAND FREE ENERGY PREDICTED BY IDOCK:   -4.36 KCAL/MOL
REMARK 924 INTRA-LIGAND FREE ENERGY PREDICTED BY IDOCK:   -0.80 KCAL/MOL
REMARK 927      BINDING AFFINITY PREDICTED BY RF-SCORE:    0.00 PKD
ROOT
HETATM    1  C   UNL     1     -10.001   2.742  71.961  1.00  0.00    -0.226 C  
HETATM    2  C   UNL     1      -9.560   3.839  72.925  1.00  0.00    -0.170 C  
ENDROOT
BRANCH   2   3
HETATM    3  C   UNL     1     -10.171   5.194  72.632  1.00  0.00    -0.232 C  
HETATM    4  C   UNL     1     -11.461   5.452  72.910  1.00  0.00    -0.340 C  
BRANCH   3   5
HETATM    5  C   UNL     1      -9.270   6.174  71.927  1.00  0.00    -0.147 C  
HETATM    6  O   UNL     1      -8.088   6.248  72.244  1.00  0.00    -0.108 OA 
BRANCH   5   7
HETATM    7  C   UNL     1      -9.811   7.129  70.912  1.00  0.00    -0.182 A  
HETATM    8  C   UNL     1     -10.075   6.739  69.584  1.00  0.00    -0.183 A  
HETATM    9 CL   UNL     1      -9.927   5.068  69.107  1.00  0.00    -0.265 Cl 
HETATM   10  C   UNL     1     -10.509   7.699  68.633  1.00  0.00    -0.177 A  
HETATM   11 CL   UNL     1     -10.944   7.170  67.033  1.00  0.00    -0.410 Cl 
HETATM   12  C   UNL     1     -10.654   9.047  69.011  1.00  0.00    -0.190 A  
HETATM   13  C   UNL     1      -9.985   8.471  71.276  1.00  0.00    -0.284 A  
HETATM   14  C   UNL     1     -10.426   9.409  70.342  1.00  0.00    -0.311 A  
BRANCH  12  15
HETATM   15  O   UNL     1     -11.067  10.109  68.241  1.00  0.00    -0.260 OA 
BRANCH  15  16
HETATM   16  C   UNL     1     -10.123  10.648  67.307  1.00  0.00    -0.199 C  
HETATM   17  C   UNL     1     -10.193  12.168  67.292  1.00  0.00    -0.202 C  
HETATM   18  O   UNL     1      -9.516  12.878  66.561  1.00  0.00    -0.252 OA 
HETATM   19  O   UNL     1     -11.083  12.677  68.182  1.00  0.00    -0.223 OA 
ENDBRANCH  15  16
ENDBRANCH  12  15
ENDBRANCH   5   7
ENDBRANCH   3   5
ENDBRANCH   2   3
TORSDOF 5
ENDMDL
MODEL      159
REMARK 921   NORMALIZED FREE ENERGY PREDICTED BY IDOCK:   -3.43 KCAL/MOL
REMARK 922        TOTAL FREE ENERGY PREDICTED BY IDOCK:   -5.14 KCAL/MOL
REMARK 923 INTER-LIGAND FREE ENERGY PREDICTED BY IDOCK:   -4.36 KCAL/MOL
REMARK 924 INTRA-LIGAND FREE ENERGY PREDICTED BY IDOCK:   -0.77 KCAL/MOL
REMARK 927      BINDING AFFINITY PREDICTED BY RF-SCORE:    0.00 PKD
ROOT
HETATM    1  C   UNL     1      -7.627   6.014  70.767  1.00  0.00    -0.093 C  
HETATM    2  C   UNL     1      -8.897   5.185  70.597  1.00  0.00    -0.150 C  
ENDROOT
BRANCH   2   3
HETATM    3  C   UNL     1     -10.115   5.785  71.269  1.00  0.00    -0.253 C  
HETATM    4  C   UNL     1     -10.394   5.532  72.560  1.00  0.00    -0.246 C  
BRANCH   3   5
HETATM    5  C   UNL     1     -11.024   6.584  70.372  1.00  0.00    -0.298 C  
HETATM    6  O   UNL     1     -12.236   6.409  70.428  1.00  0.00    -0.224 OA 
BRANCH   5   7
HETATM    7  C   UNL     1     -10.472   7.518  69.345  1.00  0.00    -0.222 A  
HETATM    8  C   UNL     1      -9.855   8.735  69.696  1.00  0.00    -0.183 A  
HETATM    9 CL   UNL     1      -9.567   9.130  71.370  1.00  0.00    -0.350 Cl 
HETATM   10  C   UNL     1      -9.418   9.630  68.684  1.00  0.00    -0.146 A  
HETATM   11 CL   UNL     1      -8.551  11.068  69.141  1.00  0.00    -0.071 Cl 
HETATM   12  C   UNL     1      -9.624   9.311  67.328  1.00  0.00    -0.155 A  
HETATM   13  C   UNL     1     -10.646   7.208  67.989  1.00  0.00    -0.251 A  
HETATM   14  C   UNL     1     -10.203   8.083  66.997  1.00  0.00    -0.374 A  
BRANCH  12  15
HETATM   15  O   UNL     1      -9.268  10.041  66.218  1.00  0.00    -0.153 OA 
BRANCH  15  16
HETATM   16  C   UNL     1     -10.079  11.176  65.890  1.00  0.00    -0.247 C  
HETATM   17  C   UNL     1     -10.329  11.241  64.391  1.00  0.00    -0.329 C  
HETATM   18  O   UNL     1     -10.967  12.128  63.840  1.00  0.00    -0.329 OA 
HETATM   19  O   UNL     1      -9.781  10.204  63.706  1.00  0.00    -0.291 OA 
ENDBRANCH  15  16
ENDBRANCH  12  15
ENDBRANCH   5   7
ENDBRANCH   3   5
ENDBRANCH   2   3
TORSDOF 5
ENDMDL
MODEL      160
REMARK 921   NORMALIZED FREE ENERGY PREDICTED BY IDOCK:   -3.43 KCAL/MOL
REMARK 922        TOTAL FREE ENERGY PREDICTED BY IDOCK:   -5.14 KCAL/MOL
REMARK 923 INTER-LIGAND FREE ENERGY PREDICTED BY IDOCK:   -4.90 KCAL/MOL
REMARK 924 INTRA-LIGAND FREE ENERGY PREDICTED BY IDOCK:   -0.24 KCAL/MOL
REMARK 927      BINDING AFFINITY PREDICTED BY RF-SCORE:    0.00 PKD
ROOT
HETATM    1  C   UNL     1     -11.027  15.026  68.900  1.00  0.00    -0.256 C  
HETATM    2  C   UNL     1     -12.124  14.109  68.370  1.00  0.00    -0.308 C  
ENDROOT
BRANCH   2   3
HETATM    3  C   UNL     1     -11.824  13.515  67.010  1.00  0.00    -0.447 C  
HETATM    4  C   UNL     1     -12.657  13.696  65.970  1.00  0.00    -0.441 C  
BRANCH   3   5
HETATM    5  C   UNL     1     -10.600  12.640  66.938  1.00  0.00    -0.240 C  
HETATM    6  O   UNL     1      -9.677  12.948  66.191  1.00  0.00    -0.266 OA 
BRANCH   5   7
HETATM    7  C   UNL     1     -10.527  11.350  67.689  1.00  0.00    -0.225 A  
HETATM    8  C   UNL     1     -10.335  10.116  67.036  1.00  0.00    -0.244 A  
HETATM    9 CL   UNL     1     -10.014  10.061  65.323  1.00  0.00    -0.394 Cl 
HETATM   10  C   UNL     1     -10.354   8.907  67.780  1.00  0.00    -0.242 A  
HETATM   11 CL   UNL     1      -9.994   7.408  66.972  1.00  0.00    -0.273 Cl 
HETATM   12  C   UNL     1     -10.589   8.939  69.168  1.00  0.00    -0.195 A  
HETATM   13  C   UNL     1     -10.735  11.364  69.075  1.00  0.00    -0.245 A  
HETATM   14  C   UNL     1     -10.739  10.175  69.804  1.00  0.00    -0.317 A  
BRANCH  12  15
HETATM   15  O   UNL     1     -10.636   7.884  70.049  1.00  0.00    -0.233 OA 
BRANCH  15  16
HETATM   16  C   UNL     1      -9.730   7.915  71.159  1.00  0.00    -0.158 C  
HETATM   17  C   UNL     1      -9.124   6.540  71.395  1.00  0.00    -0.148 C  
HETATM   18  O   UNL     1      -8.342   6.281  72.299  1.00  0.00    -0.109 OA 
HETATM   19  O   UNL     1      -9.529   5.610  70.492  1.00  0.00    -0.157 OA 
ENDBRANCH  15  16
ENDBRANCH  12  15
ENDBRANCH   5   7
ENDBRANCH   3   5
ENDBRANCH   2   3
TORSDOF 5
ENDMDL
MODEL      161
REMARK 921   NORMALIZED FREE ENERGY PREDICTED BY IDOCK:   -3.42 KCAL/MOL
REMARK 922        TOTAL FREE ENERGY PREDICTED BY IDOCK:   -5.12 KCAL/MOL
REMARK 923 INTER-LIGAND FREE ENERGY PREDICTED BY IDOCK:   -4.43 KCAL/MOL
REMARK 924 INTRA-LIGAND FREE ENERGY PREDICTED BY IDOCK:   -0.70 KCAL/MOL
REMARK 927      BINDING AFFINITY PREDICTED BY RF-SCORE:    0.00 PKD
ROOT
HETATM    1  C   UNL     1      -6.466  20.189  65.434  1.00  0.00    -0.299 C  
HETATM    2  C   UNL     1      -6.772  18.960  66.285  1.00  0.00    -0.241 C  
ENDROOT
BRANCH   2   3
HETATM    3  C   UNL     1      -7.242  19.287  67.687  1.00  0.00    -0.254 C  
HETATM    4  C   UNL     1      -6.583  20.174  68.454  1.00  0.00    -0.337 C  
BRANCH   3   5
HETATM    5  C   UNL     1      -8.416  18.484  68.183  1.00  0.00    -0.296 C  
HETATM    6  O   UNL     1      -9.187  18.978  68.997  1.00  0.00    -0.312 OA 
BRANCH   5   7
HETATM    7  C   UNL     1      -8.606  17.059  67.774  1.00  0.00    -0.213 A  
HETATM    8  C   UNL     1      -9.482  16.690  66.735  1.00  0.00    -0.244 A  
HETATM    9 CL   UNL     1     -10.271  17.908  65.768  1.00  0.00    -0.216 Cl 
HETATM   10  C   UNL     1      -9.694  15.319  66.436  1.00  0.00    -0.285 A  
HETATM   11 CL   UNL     1     -10.686  14.892  65.071  1.00  0.00    -0.425 Cl 
HETATM   12  C   UNL     1      -9.046  14.326  67.195  1.00  0.00    -0.228 A  
HETATM   13  C   UNL     1      -7.951  16.057  68.503  1.00  0.00    -0.159 A  
HETATM   14  C   UNL     1      -8.150  14.711  68.197  1.00  0.00    -0.137 A  
BRANCH  12  15
HETATM   15  O   UNL     1      -9.119  12.959  67.051  1.00  0.00    -0.214 OA 
BRANCH  15  16
HETATM   16  C   UNL     1      -7.906  12.216  67.221  1.00  0.00    -0.176 C  
HETATM   17  C   UNL     1      -8.073  11.157  68.300  1.00  0.00    -0.131 C  
HETATM   18  O   UNL     1      -7.181  10.403  68.666  1.00  0.00    -0.076 OA 
HETATM   19  O   UNL     1      -9.325  11.113  68.825  1.00  0.00    -0.181 OA 
ENDBRANCH  15  16
ENDBRANCH  12  15
ENDBRANCH   5   7
ENDBRANCH   3   5
ENDBRANCH   2   3
TORSDOF 5
ENDMDL
MODEL      162
REMARK 921   NORMALIZED FREE ENERGY PREDICTED BY IDOCK:   -3.42 KCAL/MOL
REMARK 922        TOTAL FREE ENERGY PREDICTED BY IDOCK:   -5.12 KCAL/MOL
REMARK 923 INTER-LIGAND FREE ENERGY PREDICTED BY IDOCK:   -4.97 KCAL/MOL
REMARK 924 INTRA-LIGAND FREE ENERGY PREDICTED BY IDOCK:   -0.15 KCAL/MOL
REMARK 927      BINDING AFFINITY PREDICTED BY RF-SCORE:    0.00 PKD
ROOT
HETATM    1  C   UNL     1      -8.824  13.865  67.865  1.00  0.00    -0.184 C  
HETATM    2  C   UNL     1     -10.169  14.244  67.252  1.00  0.00    -0.252 C  
ENDROOT
BRANCH   2   3
HETATM    3  C   UNL     1     -11.234  13.178  67.404  1.00  0.00    -0.319 C  
HETATM    4  C   UNL     1     -11.940  12.742  66.346  1.00  0.00    -0.443 C  
BRANCH   3   5
HETATM    5  C   UNL     1     -11.507  12.728  68.815  1.00  0.00    -0.304 C  
HETATM    6  O   UNL     1     -11.968  13.523  69.627  1.00  0.00    -0.310 OA 
BRANCH   5   7
HETATM    7  C   UNL     1     -11.135  11.355  69.275  1.00  0.00    -0.313 A  
HETATM    8  C   UNL     1     -11.717  10.766  70.415  1.00  0.00    -0.351 A  
HETATM    9 CL   UNL     1     -13.021  11.563  71.255  1.00  0.00    -0.454 Cl 
HETATM   10  C   UNL     1     -11.274   9.494  70.863  1.00  0.00    -0.341 A  
HETATM   11 CL   UNL     1     -12.090   8.735  72.200  1.00  0.00    -0.436 Cl 
HETATM   12  C   UNL     1     -10.237   8.830  70.180  1.00  0.00    -0.190 A  
HETATM   13  C   UNL     1     -10.121  10.668  68.594  1.00  0.00    -0.194 A  
HETATM   14  C   UNL     1      -9.699   9.412  69.028  1.00  0.00    -0.166 A  
BRANCH  12  15
HETATM   15  O   UNL     1      -9.684   7.601  70.456  1.00  0.00    -0.181 OA 
BRANCH  15  16
HETATM   16  C   UNL     1      -9.802   6.588  69.449  1.00  0.00    -0.146 C  
HETATM   17  C   UNL     1      -9.247   5.265  69.953  1.00  0.00    -0.137 C  
HETATM   18  O   UNL     1      -9.197   4.242  69.283  1.00  0.00    -0.118 OA 
HETATM   19  O   UNL     1      -8.812   5.315  71.239  1.00  0.00    -0.133 OA 
ENDBRANCH  15  16
ENDBRANCH  12  15
ENDBRANCH   5   7
ENDBRANCH   3   5
ENDBRANCH   2   3
TORSDOF 5
ENDMDL
MODEL      163
REMARK 921   NORMALIZED FREE ENERGY PREDICTED BY IDOCK:   -3.41 KCAL/MOL
REMARK 922        TOTAL FREE ENERGY PREDICTED BY IDOCK:   -5.11 KCAL/MOL
REMARK 923 INTER-LIGAND FREE ENERGY PREDICTED BY IDOCK:   -4.78 KCAL/MOL
REMARK 924 INTRA-LIGAND FREE ENERGY PREDICTED BY IDOCK:   -0.33 KCAL/MOL
REMARK 927      BINDING AFFINITY PREDICTED BY RF-SCORE:    0.00 PKD
ROOT
HETATM    1  C   UNL     1     -10.241  10.762  64.203  1.00  0.00    -0.412 C  
HETATM    2  C   UNL     1      -8.924  10.269  64.793  1.00  0.00    -0.232 C  
ENDROOT
BRANCH   2   3
HETATM    3  C   UNL     1      -9.085   9.473  66.072  1.00  0.00    -0.220 C  
HETATM    4  C   UNL     1      -9.733   8.294  66.083  1.00  0.00    -0.189 C  
BRANCH   3   5
HETATM    5  C   UNL     1      -8.567  10.137  67.321  1.00  0.00    -0.125 C  
HETATM    6  O   UNL     1      -7.594   9.666  67.899  1.00  0.00    -0.083 OA 
BRANCH   5   7
HETATM    7  C   UNL     1      -9.275  11.306  67.926  1.00  0.00    -0.157 A  
HETATM    8  C   UNL     1     -10.339  11.146  68.836  1.00  0.00    -0.201 A  
HETATM    9 CL   UNL     1     -10.775   9.561  69.418  1.00  0.00    -0.237 Cl 
HETATM   10  C   UNL     1     -11.037  12.282  69.323  1.00  0.00    -0.158 A  
HETATM   11 CL   UNL     1     -12.266  12.068  70.536  1.00  0.00    -0.446 Cl 
HETATM   12  C   UNL     1     -10.680  13.570  68.877  1.00  0.00    -0.201 A  
HETATM   13  C   UNL     1      -8.919  12.597  67.514  1.00  0.00    -0.187 A  
HETATM   14  C   UNL     1      -9.597  13.713  68.005  1.00  0.00    -0.216 A  
BRANCH  12  15
HETATM   15  O   UNL     1     -11.228  14.779  69.237  1.00  0.00    -0.256 OA 
BRANCH  15  16
HETATM   16  C   UNL     1     -12.636  14.807  69.505  1.00  0.00     0.001 C  
HETATM   17  C   UNL     1     -12.916  15.497  70.831  1.00  0.00    -0.467 C  
HETATM   18  O   UNL     1     -14.033  15.630  71.313  1.00  0.00    -0.570 OA 
HETATM   19  O   UNL     1     -11.798  15.969  71.441  1.00  0.00    -0.425 OA 
ENDBRANCH  15  16
ENDBRANCH  12  15
ENDBRANCH   5   7
ENDBRANCH   3   5
ENDBRANCH   2   3
TORSDOF 5
ENDMDL
MODEL      164
REMARK 921   NORMALIZED FREE ENERGY PREDICTED BY IDOCK:   -3.39 KCAL/MOL
REMARK 922        TOTAL FREE ENERGY PREDICTED BY IDOCK:   -5.09 KCAL/MOL
REMARK 923 INTER-LIGAND FREE ENERGY PREDICTED BY IDOCK:   -4.43 KCAL/MOL
REMARK 924 INTRA-LIGAND FREE ENERGY PREDICTED BY IDOCK:   -0.66 KCAL/MOL
REMARK 927      BINDING AFFINITY PREDICTED BY RF-SCORE:    0.00 PKD
ROOT
HETATM    1  C   UNL     1     -10.047   5.169  74.522  1.00  0.00    -0.283 C  
HETATM    2  C   UNL     1     -11.104   5.529  73.483  1.00  0.00    -0.220 C  
ENDROOT
BRANCH   2   3
HETATM    3  C   UNL     1     -10.782   6.778  72.688  1.00  0.00    -0.271 C  
HETATM    4  C   UNL     1      -9.928   7.703  73.159  1.00  0.00    -0.363 C  
BRANCH   3   5
HETATM    5  C   UNL     1     -11.554   6.949  71.406  1.00  0.00    -0.299 C  
HETATM    6  O   UNL     1     -12.747   7.231  71.449  1.00  0.00    -0.362 OA 
BRANCH   5   7
HETATM    7  C   UNL     1     -10.918   6.687  70.079  1.00  0.00    -0.363 A  
HETATM    8  C   UNL     1     -10.658   7.721  69.158  1.00  0.00    -0.183 A  
HETATM    9 CL   UNL     1     -10.927   9.387  69.598  1.00  0.00    -0.239 Cl 
HETATM   10  C   UNL     1     -10.128   7.416  67.877  1.00  0.00    -0.178 A  
HETATM   11 CL   UNL     1      -9.702   8.718  66.803  1.00  0.00    -0.260 Cl 
HETATM   12  C   UNL     1      -9.884   6.077  67.518  1.00  0.00    -0.125 A  
HETATM   13  C   UNL     1     -10.646   5.362  69.712  1.00  0.00    -0.347 A  
HETATM   14  C   UNL     1     -10.112   5.068  68.458  1.00  0.00    -0.184 A  
BRANCH  12  15
HETATM   15  O   UNL     1      -9.372   5.590  66.337  1.00  0.00    -0.143 OA 
BRANCH  15  16
HETATM   16  C   UNL     1     -10.185   4.671  65.599  1.00  0.00    -0.231 C  
HETATM   17  C   UNL     1      -9.354   3.935  64.559  1.00  0.00    -0.155 C  
HETATM   18  O   UNL     1      -9.808   3.116  63.772  1.00  0.00    -0.132 OA 
HETATM   19  O   UNL     1      -8.037   4.267  64.586  1.00  0.00    -0.088 OA 
ENDBRANCH  15  16
ENDBRANCH  12  15
ENDBRANCH   5   7
ENDBRANCH   3   5
ENDBRANCH   2   3
TORSDOF 5
ENDMDL
MODEL      165
REMARK 921   NORMALIZED FREE ENERGY PREDICTED BY IDOCK:   -3.39 KCAL/MOL
REMARK 922        TOTAL FREE ENERGY PREDICTED BY IDOCK:   -5.08 KCAL/MOL
REMARK 923 INTER-LIGAND FREE ENERGY PREDICTED BY IDOCK:   -4.30 KCAL/MOL
REMARK 924 INTRA-LIGAND FREE ENERGY PREDICTED BY IDOCK:   -0.79 KCAL/MOL
REMARK 927      BINDING AFFINITY PREDICTED BY RF-SCORE:    0.00 PKD
ROOT
HETATM    1  C   UNL     1      -9.278   9.737  65.364  1.00  0.00    -0.282 C  
HETATM    2  C   UNL     1      -9.367  11.068  66.103  1.00  0.00    -0.214 C  
ENDROOT
BRANCH   2   3
HETATM    3  C   UNL     1      -9.462  10.928  67.609  1.00  0.00    -0.170 C  
HETATM    4  C   UNL     1      -8.534  11.465  68.420  1.00  0.00    -0.155 C  
BRANCH   3   5
HETATM    5  C   UNL     1     -10.595  10.072  68.111  1.00  0.00    -0.227 C  
HETATM    6  O   UNL     1     -11.749  10.354  67.807  1.00  0.00    -0.353 OA 
BRANCH   5   7
HETATM    7  C   UNL     1     -10.350   8.940  69.055  1.00  0.00    -0.226 A  
HETATM    8  C   UNL     1     -10.783   8.976  70.395  1.00  0.00    -0.227 A  
HETATM    9 CL   UNL     1     -11.772  10.293  70.969  1.00  0.00    -0.457 Cl 
HETATM   10  C   UNL     1     -10.457   7.915  71.279  1.00  0.00    -0.203 A  
HETATM   11 CL   UNL     1     -11.105   7.925  72.893  1.00  0.00    -0.462 Cl 
HETATM   12  C   UNL     1      -9.678   6.834  70.821  1.00  0.00    -0.179 A  
HETATM   13  C   UNL     1      -9.596   7.844  68.612  1.00  0.00    -0.155 A  
HETATM   14  C   UNL     1      -9.290   6.795  69.478  1.00  0.00    -0.146 A  
BRANCH  12  15
HETATM   15  O   UNL     1      -9.270   5.721  71.519  1.00  0.00    -0.146 OA 
BRANCH  15  16
HETATM   16  C   UNL     1     -10.238   4.684  71.723  1.00  0.00    -0.172 C  
HETATM   17  C   UNL     1     -10.381   4.369  73.204  1.00  0.00    -0.170 C  
HETATM   18  O   UNL     1     -11.118   3.502  73.653  1.00  0.00    -0.226 OA 
HETATM   19  O   UNL     1      -9.611   5.155  74.001  1.00  0.00    -0.128 OA 
ENDBRANCH  15  16
ENDBRANCH  12  15
ENDBRANCH   5   7
ENDBRANCH   3   5
ENDBRANCH   2   3
TORSDOF 5
ENDMDL
MODEL      166
REMARK 921   NORMALIZED FREE ENERGY PREDICTED BY IDOCK:   -3.38 KCAL/MOL
REMARK 922        TOTAL FREE ENERGY PREDICTED BY IDOCK:   -5.08 KCAL/MOL
REMARK 923 INTER-LIGAND FREE ENERGY PREDICTED BY IDOCK:   -4.28 KCAL/MOL
REMARK 924 INTRA-LIGAND FREE ENERGY PREDICTED BY IDOCK:   -0.79 KCAL/MOL
REMARK 927      BINDING AFFINITY PREDICTED BY RF-SCORE:    0.00 PKD
ROOT
HETATM    1  C   UNL     1      -7.136  10.496  69.739  1.00  0.00    -0.150 C  
HETATM    2  C   UNL     1      -7.685  10.703  68.331  1.00  0.00    -0.106 C  
ENDROOT
BRANCH   2   3
HETATM    3  C   UNL     1      -8.861  11.656  68.265  1.00  0.00    -0.167 C  
HETATM    4  C   UNL     1      -8.679  12.977  68.094  1.00  0.00    -0.190 C  
BRANCH   3   5
HETATM    5  C   UNL     1     -10.213  11.038  68.505  1.00  0.00    -0.192 C  
HETATM    6  O   UNL     1     -11.146  11.743  68.873  1.00  0.00    -0.215 OA 
BRANCH   5   7
HETATM    7  C   UNL     1     -10.419   9.561  68.398  1.00  0.00    -0.261 A  
HETATM    8  C   UNL     1     -10.445   8.725  69.531  1.00  0.00    -0.220 A  
HETATM    9 CL   UNL     1     -10.395   9.409  71.135  1.00  0.00    -0.385 Cl 
HETATM   10  C   UNL     1     -10.561   7.319  69.377  1.00  0.00    -0.229 A  
HETATM   11 CL   UNL     1     -10.713   6.320  70.794  1.00  0.00    -0.294 Cl 
HETATM   12  C   UNL     1     -10.625   6.757  68.088  1.00  0.00    -0.230 A  
HETATM   13  C   UNL     1     -10.509   8.985  67.123  1.00  0.00    -0.333 A  
HETATM   14  C   UNL     1     -10.637   7.604  66.975  1.00  0.00    -0.406 A  
BRANCH  12  15
HETATM   15  O   UNL     1     -10.745   5.431  67.741  1.00  0.00    -0.157 OA 
BRANCH  15  16
HETATM   16  C   UNL     1      -9.548   4.742  67.360  1.00  0.00    -0.159 C  
HETATM   17  C   UNL     1      -9.678   4.180  65.952  1.00  0.00    -0.204 C  
HETATM   18  O   UNL     1      -8.811   3.521  65.394  1.00  0.00    -0.116 OA 
HETATM   19  O   UNL     1     -10.858   4.488  65.354  1.00  0.00    -0.271 OA 
ENDBRANCH  15  16
ENDBRANCH  12  15
ENDBRANCH   5   7
ENDBRANCH   3   5
ENDBRANCH   2   3
TORSDOF 5
ENDMDL
MODEL      167
REMARK 921   NORMALIZED FREE ENERGY PREDICTED BY IDOCK:   -3.38 KCAL/MOL
REMARK 922        TOTAL FREE ENERGY PREDICTED BY IDOCK:   -5.07 KCAL/MOL
REMARK 923 INTER-LIGAND FREE ENERGY PREDICTED BY IDOCK:   -4.36 KCAL/MOL
REMARK 924 INTRA-LIGAND FREE ENERGY PREDICTED BY IDOCK:   -0.71 KCAL/MOL
REMARK 927      BINDING AFFINITY PREDICTED BY RF-SCORE:    0.00 PKD
ROOT
HETATM    1  C   UNL     1     -13.818   9.357  72.326  1.00  0.00    -0.441 C  
HETATM    2  C   UNL     1     -12.505   8.581  72.320  1.00  0.00    -0.448 C  
ENDROOT
BRANCH   2   3
HETATM    3  C   UNL     1     -11.406   9.242  71.514  1.00  0.00    -0.455 C  
HETATM    4  C   UNL     1     -11.633  10.371  70.819  1.00  0.00    -0.450 C  
BRANCH   3   5
HETATM    5  C   UNL     1     -10.096   8.499  71.468  1.00  0.00    -0.245 C  
HETATM    6  O   UNL     1      -9.048   9.106  71.656  1.00  0.00    -0.334 OA 
BRANCH   5   7
HETATM    7  C   UNL     1     -10.041   7.051  71.101  1.00  0.00    -0.197 A  
HETATM    8  C   UNL     1      -9.600   6.067  72.007  1.00  0.00    -0.152 A  
HETATM    9 CL   UNL     1      -9.246   6.483  73.663  1.00  0.00    -0.142 Cl 
HETATM   10  C   UNL     1      -9.486   4.715  71.589  1.00  0.00    -0.153 A  
HETATM   11 CL   UNL     1      -9.056   3.500  72.758  1.00  0.00    -0.112 Cl 
HETATM   12  C   UNL     1      -9.790   4.362  70.260  1.00  0.00    -0.214 A  
HETATM   13  C   UNL     1     -10.363   6.677  69.789  1.00  0.00    -0.226 A  
HETATM   14  C   UNL     1     -10.263   5.345  69.386  1.00  0.00    -0.334 A  
BRANCH  12  15
HETATM   15  O   UNL     1      -9.748   3.117  69.678  1.00  0.00    -0.108 OA 
BRANCH  15  16
HETATM   16  C   UNL     1      -9.292   3.042  68.321  1.00  0.00    -0.195 C  
HETATM   17  C   UNL     1      -7.967   2.300  68.241  1.00  0.00    -0.057 C  
HETATM   18  O   UNL     1      -7.341   2.121  67.205  1.00  0.00    -0.054 OA 
HETATM   19  O   UNL     1      -7.534   1.836  69.442  1.00  0.00    -0.042 OA 
ENDBRANCH  15  16
ENDBRANCH  12  15
ENDBRANCH   5   7
ENDBRANCH   3   5
ENDBRANCH   2   3
TORSDOF 5
ENDMDL
MODEL      168
REMARK 921   NORMALIZED FREE ENERGY PREDICTED BY IDOCK:   -3.36 KCAL/MOL
REMARK 922        TOTAL FREE ENERGY PREDICTED BY IDOCK:   -5.05 KCAL/MOL
REMARK 923 INTER-LIGAND FREE ENERGY PREDICTED BY IDOCK:   -4.78 KCAL/MOL
REMARK 924 INTRA-LIGAND FREE ENERGY PREDICTED BY IDOCK:   -0.26 KCAL/MOL
REMARK 927      BINDING AFFINITY PREDICTED BY RF-SCORE:    0.00 PKD
ROOT
HETATM    1  C   UNL     1     -12.776  14.382  65.552  1.00  0.00    -0.308 C  
HETATM    2  C   UNL     1     -11.359  14.252  65.001  1.00  0.00    -0.365 C  
ENDROOT
BRANCH   2   3
HETATM    3  C   UNL     1     -10.498  13.258  65.753  1.00  0.00    -0.289 C  
HETATM    4  C   UNL     1      -9.479  13.665  66.530  1.00  0.00    -0.270 C  
BRANCH   3   5
HETATM    5  C   UNL     1     -10.800  11.806  65.489  1.00  0.00    -0.297 C  
HETATM    6  O   UNL     1     -11.315  11.477  64.426  1.00  0.00    -0.299 OA 
BRANCH   5   7
HETATM    7  C   UNL     1     -10.574  10.765  66.538  1.00  0.00    -0.279 A  
HETATM    8  C   UNL     1     -11.016  10.933  67.865  1.00  0.00    -0.271 A  
HETATM    9 CL   UNL     1     -11.993  12.309  68.305  1.00  0.00    -0.349 Cl 
HETATM   10  C   UNL     1     -10.707   9.956  68.847  1.00  0.00    -0.221 A  
HETATM   11 CL   UNL     1     -11.366  10.126  70.449  1.00  0.00    -0.371 Cl 
HETATM   12  C   UNL     1      -9.938   8.829  68.500  1.00  0.00    -0.182 A  
HETATM   13  C   UNL     1      -9.831   9.624  66.205  1.00  0.00    -0.323 A  
HETATM   14  C   UNL     1      -9.542   8.659  67.170  1.00  0.00    -0.227 A  
BRANCH  12  15
HETATM   15  O   UNL     1      -9.548   7.782  69.303  1.00  0.00    -0.159 OA 
BRANCH  15  16
HETATM   16  C   UNL     1     -10.317   6.575  69.227  1.00  0.00    -0.202 C  
HETATM   17  C   UNL     1      -9.414   5.381  68.956  1.00  0.00    -0.133 C  
HETATM   18  O   UNL     1      -9.817   4.235  68.814  1.00  0.00    -0.140 OA 
HETATM   19  O   UNL     1      -8.096   5.703  68.893  1.00  0.00    -0.098 OA 
ENDBRANCH  15  16
ENDBRANCH  12  15
ENDBRANCH   5   7
ENDBRANCH   3   5
ENDBRANCH   2   3
TORSDOF 5
ENDMDL
MODEL      169
REMARK 921   NORMALIZED FREE ENERGY PREDICTED BY IDOCK:   -3.35 KCAL/MOL
REMARK 922        TOTAL FREE ENERGY PREDICTED BY IDOCK:   -5.04 KCAL/MOL
REMARK 923 INTER-LIGAND FREE ENERGY PREDICTED BY IDOCK:   -4.51 KCAL/MOL
REMARK 924 INTRA-LIGAND FREE ENERGY PREDICTED BY IDOCK:   -0.53 KCAL/MOL
REMARK 927      BINDING AFFINITY PREDICTED BY RF-SCORE:    0.00 PKD
ROOT
HETATM    1  C   UNL     1      -8.209   6.145  72.423  1.00  0.00    -0.108 C  
HETATM    2  C   UNL     1      -9.328   5.337  71.774  1.00  0.00    -0.175 C  
ENDROOT
BRANCH   2   3
HETATM    3  C   UNL     1     -10.705   5.643  72.328  1.00  0.00    -0.281 C  
HETATM    4  C   UNL     1     -11.102   5.158  73.518  1.00  0.00    -0.361 C  
BRANCH   3   5
HETATM    5  C   UNL     1     -11.612   6.428  71.417  1.00  0.00    -0.311 C  
HETATM    6  O   UNL     1     -12.809   6.504  71.671  1.00  0.00    -0.263 OA 
BRANCH   5   7
HETATM    7  C   UNL     1     -11.099   7.037  70.152  1.00  0.00    -0.323 A  
HETATM    8  C   UNL     1     -10.591   8.350  70.107  1.00  0.00    -0.233 A  
HETATM    9 CL   UNL     1     -10.394   9.273  71.574  1.00  0.00    -0.407 Cl 
HETATM   10  C   UNL     1     -10.191   8.917  68.869  1.00  0.00    -0.206 A  
HETATM   11 CL   UNL     1      -9.455  10.494  68.857  1.00  0.00    -0.187 Cl 
HETATM   12  C   UNL     1     -10.324   8.174  67.681  1.00  0.00    -0.247 A  
HETATM   13  C   UNL     1     -11.201   6.304  68.962  1.00  0.00    -0.415 A  
HETATM   14  C   UNL     1     -10.793   6.859  67.749  1.00  0.00    -0.312 A  
BRANCH  12  15
HETATM   15  O   UNL     1      -9.987   8.546  66.400  1.00  0.00    -0.269 OA 
BRANCH  15  16
HETATM   16  C   UNL     1      -8.657   9.035  66.187  1.00  0.00    -0.135 C  
HETATM   17  C   UNL     1      -7.804   7.983  65.494  1.00  0.00    -0.106 C  
HETATM   18  O   UNL     1      -6.621   8.130  65.221  1.00  0.00    -0.051 OA 
HETATM   19  O   UNL     1      -8.487   6.849  65.189  1.00  0.00    -0.116 OA 
ENDBRANCH  15  16
ENDBRANCH  12  15
ENDBRANCH   5   7
ENDBRANCH   3   5
ENDBRANCH   2   3
TORSDOF 5
ENDMDL
MODEL      170
REMARK 921   NORMALIZED FREE ENERGY PREDICTED BY IDOCK:   -3.34 KCAL/MOL
REMARK 922        TOTAL FREE ENERGY PREDICTED BY IDOCK:   -5.03 KCAL/MOL
REMARK 923 INTER-LIGAND FREE ENERGY PREDICTED BY IDOCK:   -4.26 KCAL/MOL
REMARK 924 INTRA-LIGAND FREE ENERGY PREDICTED BY IDOCK:   -0.77 KCAL/MOL
REMARK 927      BINDING AFFINITY PREDICTED BY RF-SCORE:    0.00 PKD
ROOT
HETATM    1  C   UNL     1     -11.862  11.836  68.383  1.00  0.00    -0.347 C  
HETATM    2  C   UNL     1     -11.315  12.869  67.404  1.00  0.00    -0.355 C  
ENDROOT
BRANCH   2   3
HETATM    3  C   UNL     1     -11.413  12.450  65.952  1.00  0.00    -0.422 C  
HETATM    4  C   UNL     1     -12.501  12.736  65.215  1.00  0.00    -0.528 C  
BRANCH   3   5
HETATM    5  C   UNL     1     -10.269  11.616  65.437  1.00  0.00    -0.263 C  
HETATM    6  O   UNL     1      -9.813  11.835  64.321  1.00  0.00    -0.247 OA 
BRANCH   5   7
HETATM    7  C   UNL     1      -9.740  10.459  66.223  1.00  0.00    -0.256 A  
HETATM    8  C   UNL     1      -8.556  10.549  66.981  1.00  0.00    -0.127 A  
HETATM    9 CL   UNL     1      -7.735  12.077  67.161  1.00  0.00    -0.165 Cl 
HETATM   10  C   UNL     1      -8.047   9.403  67.645  1.00  0.00    -0.106 A  
HETATM   11 CL   UNL     1      -6.652   9.568  68.672  1.00  0.00    -0.052 Cl 
HETATM   12  C   UNL     1      -8.713   8.168  67.526  1.00  0.00    -0.129 A  
HETATM   13  C   UNL     1     -10.403   9.227  66.136  1.00  0.00    -0.118 A  
HETATM   14  C   UNL     1      -9.908   8.106  66.802  1.00  0.00    -0.329 A  
BRANCH  12  15
HETATM   15  O   UNL     1      -8.380   6.961  68.096  1.00  0.00    -0.117 OA 
BRANCH  15  16
HETATM   16  C   UNL     1      -8.849   6.713  69.427  1.00  0.00    -0.134 C  
HETATM   17  C   UNL     1      -9.669   5.433  69.476  1.00  0.00    -0.176 C  
HETATM   18  O   UNL     1     -10.213   5.005  70.485  1.00  0.00    -0.246 OA 
HETATM   19  O   UNL     1      -9.740   4.790  68.282  1.00  0.00    -0.143 OA 
ENDBRANCH  15  16
ENDBRANCH  12  15
ENDBRANCH   5   7
ENDBRANCH   3   5
ENDBRANCH   2   3
TORSDOF 5
ENDMDL
MODEL      171
REMARK 921   NORMALIZED FREE ENERGY PREDICTED BY IDOCK:   -3.33 KCAL/MOL
REMARK 922        TOTAL FREE ENERGY PREDICTED BY IDOCK:   -5.01 KCAL/MOL
REMARK 923 INTER-LIGAND FREE ENERGY PREDICTED BY IDOCK:   -4.29 KCAL/MOL
REMARK 924 INTRA-LIGAND FREE ENERGY PREDICTED BY IDOCK:   -0.72 KCAL/MOL
REMARK 927      BINDING AFFINITY PREDICTED BY RF-SCORE:    0.00 PKD
ROOT
HETATM    1  C   UNL     1     -13.563   9.333  72.265  1.00  0.00    -0.544 C  
HETATM    2  C   UNL     1     -12.186   9.670  71.700  1.00  0.00    -0.484 C  
ENDROOT
BRANCH   2   3
HETATM    3  C   UNL     1     -11.116   8.655  72.045  1.00  0.00    -0.437 C  
HETATM    4  C   UNL     1     -11.311   7.736  73.007  1.00  0.00    -0.331 C  
BRANCH   3   5
HETATM    5  C   UNL     1      -9.809   8.815  71.315  1.00  0.00    -0.266 C  
HETATM    6  O   UNL     1      -8.851   9.321  71.889  1.00  0.00    -0.274 OA 
BRANCH   5   7
HETATM    7  C   UNL     1      -9.681   8.458  69.868  1.00  0.00    -0.179 A  
HETATM    8  C   UNL     1      -9.228   7.193  69.448  1.00  0.00    -0.148 A  
HETATM    9 CL   UNL     1      -8.942   5.924  70.611  1.00  0.00    -0.147 Cl 
HETATM   10  C   UNL     1      -9.044   6.925  68.066  1.00  0.00    -0.120 A  
HETATM   11 CL   UNL     1      -8.599   5.319  67.565  1.00  0.00    -0.105 Cl 
HETATM   12  C   UNL     1      -9.293   7.934  67.116  1.00  0.00    -0.153 A  
HETATM   13  C   UNL     1      -9.948   9.442  68.906  1.00  0.00    -0.188 A  
HETATM   14  C   UNL     1      -9.780   9.171  67.548  1.00  0.00    -0.204 A  
BRANCH  12  15
HETATM   15  O   UNL     1      -9.180   7.862  65.747  1.00  0.00    -0.102 OA 
BRANCH  15  16
HETATM   16  C   UNL     1      -7.894   8.141  65.179  1.00  0.00    -0.118 C  
HETATM   17  C   UNL     1      -8.004   9.210  64.103  1.00  0.00    -0.140 C  
HETATM   18  O   UNL     1      -7.060   9.614  63.437  1.00  0.00    -0.100 OA 
HETATM   19  O   UNL     1      -9.264   9.694  63.949  1.00  0.00    -0.249 OA 
ENDBRANCH  15  16
ENDBRANCH  12  15
ENDBRANCH   5   7
ENDBRANCH   3   5
ENDBRANCH   2   3
TORSDOF 5
ENDMDL
MODEL      172
REMARK 921   NORMALIZED FREE ENERGY PREDICTED BY IDOCK:   -3.33 KCAL/MOL
REMARK 922        TOTAL FREE ENERGY PREDICTED BY IDOCK:   -5.01 KCAL/MOL
REMARK 923 INTER-LIGAND FREE ENERGY PREDICTED BY IDOCK:   -4.26 KCAL/MOL
REMARK 924 INTRA-LIGAND FREE ENERGY PREDICTED BY IDOCK:   -0.75 KCAL/MOL
REMARK 927      BINDING AFFINITY PREDICTED BY RF-SCORE:    0.00 PKD
ROOT
HETATM    1  C   UNL     1      -7.319   2.164  73.421  1.00  0.00    -0.033 C  
HETATM    2  C   UNL     1      -8.379   3.059  74.055  1.00  0.00    -0.073 C  
ENDROOT
BRANCH   2   3
HETATM    3  C   UNL     1      -9.199   3.843  73.051  1.00  0.00    -0.127 C  
HETATM    4  C   UNL     1     -10.053   3.226  72.214  1.00  0.00    -0.215 C  
BRANCH   3   5
HETATM    5  C   UNL     1      -8.916   5.321  72.993  1.00  0.00    -0.119 C  
HETATM    6  O   UNL     1      -7.932   5.773  73.567  1.00  0.00    -0.108 OA 
BRANCH   5   7
HETATM    7  C   UNL     1      -9.867   6.266  72.331  1.00  0.00    -0.176 A  
HETATM    8  C   UNL     1      -9.686   6.698  71.002  1.00  0.00    -0.175 A  
HETATM    9 CL   UNL     1      -8.418   6.019  70.015  1.00  0.00    -0.129 Cl 
HETATM   10  C   UNL     1     -10.567   7.659  70.440  1.00  0.00    -0.230 A  
HETATM   11 CL   UNL     1     -10.396   8.086  68.762  1.00  0.00    -0.223 Cl 
HETATM   12  C   UNL     1     -11.608   8.198  71.219  1.00  0.00    -0.273 A  
HETATM   13  C   UNL     1     -10.924   6.796  73.083  1.00  0.00    -0.279 A  
HETATM   14  C   UNL     1     -11.796   7.729  72.523  1.00  0.00    -0.354 A  
BRANCH  12  15
HETATM   15  O   UNL     1     -12.557   9.124  70.851  1.00  0.00    -0.207 OA 
BRANCH  15  16
HETATM   16  C   UNL     1     -12.582  10.360  71.575  1.00  0.00    -0.439 C  
HETATM   17  C   UNL     1     -12.394  11.537  70.630  1.00  0.00    -0.364 C  
HETATM   18  O   UNL     1     -12.345  12.706  70.990  1.00  0.00    -0.351 OA 
HETATM   19  O   UNL     1     -12.294  11.173  69.325  1.00  0.00    -0.381 OA 
ENDBRANCH  15  16
ENDBRANCH  12  15
ENDBRANCH   5   7
ENDBRANCH   3   5
ENDBRANCH   2   3
TORSDOF 5
ENDMDL
MODEL      173
REMARK 921   NORMALIZED FREE ENERGY PREDICTED BY IDOCK:   -3.31 KCAL/MOL
REMARK 922        TOTAL FREE ENERGY PREDICTED BY IDOCK:   -4.98 KCAL/MOL
REMARK 923 INTER-LIGAND FREE ENERGY PREDICTED BY IDOCK:   -4.18 KCAL/MOL
REMARK 924 INTRA-LIGAND FREE ENERGY PREDICTED BY IDOCK:   -0.80 KCAL/MOL
REMARK 927      BINDING AFFINITY PREDICTED BY RF-SCORE:    0.00 PKD
ROOT
HETATM    1  C   UNL     1      -7.298   4.507  72.611  1.00  0.00    -0.082 C  
HETATM    2  C   UNL     1      -8.520   4.954  73.407  1.00  0.00    -0.106 C  
ENDROOT
BRANCH   2   3
HETATM    3  C   UNL     1      -9.647   5.492  72.549  1.00  0.00    -0.167 C  
HETATM    4  C   UNL     1     -10.179   4.758  71.556  1.00  0.00    -0.246 C  
BRANCH   3   5
HETATM    5  C   UNL     1     -10.046   6.919  72.820  1.00  0.00    -0.177 C  
HETATM    6  O   UNL     1     -10.528   7.218  73.907  1.00  0.00    -0.353 OA 
BRANCH   5   7
HETATM    7  C   UNL     1      -9.957   7.963  71.754  1.00  0.00    -0.228 A  
HETATM    8  C   UNL     1      -8.751   8.630  71.459  1.00  0.00    -0.202 A  
HETATM    9 CL   UNL     1      -7.262   8.147  72.229  1.00  0.00    -0.098 Cl 
HETATM   10  C   UNL     1      -8.730   9.672  70.496  1.00  0.00    -0.104 A  
HETATM   11 CL   UNL     1      -7.209  10.397  70.063  1.00  0.00    -0.162 Cl 
HETATM   12  C   UNL     1      -9.922  10.056  69.851  1.00  0.00    -0.237 A  
HETATM   13  C   UNL     1     -11.128   8.343  71.083  1.00  0.00    -0.301 A  
HETATM   14  C   UNL     1     -11.101   9.358  70.126  1.00  0.00    -0.277 A  
BRANCH  12  15
HETATM   15  O   UNL     1     -10.098  11.028  68.894  1.00  0.00    -0.197 OA 
BRANCH  15  16
HETATM   16  C   UNL     1      -9.745  10.693  67.546  1.00  0.00    -0.166 C  
HETATM   17  C   UNL     1     -10.822  11.160  66.578  1.00  0.00    -0.245 C  
HETATM   18  O   UNL     1     -10.786  10.974  65.369  1.00  0.00    -0.236 OA 
HETATM   19  O   UNL     1     -11.842  11.823  67.183  1.00  0.00    -0.599 OA 
ENDBRANCH  15  16
ENDBRANCH  12  15
ENDBRANCH   5   7
ENDBRANCH   3   5
ENDBRANCH   2   3
TORSDOF 5
ENDMDL
MODEL      174
REMARK 921   NORMALIZED FREE ENERGY PREDICTED BY IDOCK:   -3.30 KCAL/MOL
REMARK 922        TOTAL FREE ENERGY PREDICTED BY IDOCK:   -4.97 KCAL/MOL
REMARK 923 INTER-LIGAND FREE ENERGY PREDICTED BY IDOCK:   -4.11 KCAL/MOL
REMARK 924 INTRA-LIGAND FREE ENERGY PREDICTED BY IDOCK:   -0.86 KCAL/MOL
REMARK 927      BINDING AFFINITY PREDICTED BY RF-SCORE:    0.00 PKD
ROOT
HETATM    1  C   UNL     1     -11.551   6.438  70.201  1.00  0.00    -0.449 C  
HETATM    2  C   UNL     1     -10.099   6.182  69.809  1.00  0.00    -0.229 C  
ENDROOT
BRANCH   2   3
HETATM    3  C   UNL     1      -9.939   5.253  68.623  1.00  0.00    -0.234 C  
HETATM    4  C   UNL     1      -9.511   3.988  68.780  1.00  0.00    -0.226 C  
BRANCH   3   5
HETATM    5  C   UNL     1     -10.192   5.873  67.274  1.00  0.00    -0.200 C  
HETATM    6  O   UNL     1     -10.783   5.231  66.412  1.00  0.00    -0.307 OA 
BRANCH   5   7
HETATM    7  C   UNL     1      -9.650   7.223  66.929  1.00  0.00    -0.225 A  
HETATM    8  C   UNL     1      -8.274   7.449  66.732  1.00  0.00    -0.121 A  
HETATM    9 CL   UNL     1      -7.151   6.114  66.729  1.00  0.00    -0.071 Cl 
HETATM   10  C   UNL     1      -7.795   8.762  66.488  1.00  0.00    -0.103 A  
HETATM   11 CL   UNL     1      -6.109   8.997  66.128  1.00  0.00    -0.058 Cl 
HETATM   12  C   UNL     1      -8.695   9.845  66.465  1.00  0.00    -0.128 A  
HETATM   13  C   UNL     1     -10.534   8.311  66.879  1.00  0.00    -0.365 A  
HETATM   14  C   UNL     1     -10.062   9.598  66.624  1.00  0.00    -0.307 A  
BRANCH  12  15
HETATM   15  O   UNL     1      -8.423  11.175  66.239  1.00  0.00    -0.166 OA 
BRANCH  15  16
HETATM   16  C   UNL     1      -8.613  12.078  67.335  1.00  0.00    -0.171 C  
HETATM   17  C   UNL     1      -9.526  13.226  66.932  1.00  0.00    -0.249 C  
HETATM   18  O   UNL     1      -9.827  14.155  67.669  1.00  0.00    -0.223 OA 
HETATM   19  O   UNL     1      -9.994  13.123  65.661  1.00  0.00    -0.276 OA 
ENDBRANCH  15  16
ENDBRANCH  12  15
ENDBRANCH   5   7
ENDBRANCH   3   5
ENDBRANCH   2   3
TORSDOF 5
ENDMDL
MODEL      175
REMARK 921   NORMALIZED FREE ENERGY PREDICTED BY IDOCK:   -3.29 KCAL/MOL
REMARK 922        TOTAL FREE ENERGY PREDICTED BY IDOCK:   -4.96 KCAL/MOL
REMARK 923 INTER-LIGAND FREE ENERGY PREDICTED BY IDOCK:   -4.43 KCAL/MOL
REMARK 924 INTRA-LIGAND FREE ENERGY PREDICTED BY IDOCK:   -0.53 KCAL/MOL
REMARK 927      BINDING AFFINITY PREDICTED BY RF-SCORE:    0.00 PKD
ROOT
HETATM    1  C   UNL     1     -11.284  15.196  69.819  1.00  0.00    -0.298 C  
HETATM    2  C   UNL     1     -11.176  13.716  69.467  1.00  0.00    -0.205 C  
ENDROOT
BRANCH   2   3
HETATM    3  C   UNL     1     -11.386  13.418  67.997  1.00  0.00    -0.320 C  
HETATM    4  C   UNL     1     -11.658  14.400  67.118  1.00  0.00    -0.406 C  
BRANCH   3   5
HETATM    5  C   UNL     1     -11.369  11.960  67.619  1.00  0.00    -0.304 C  
HETATM    6  O   UNL     1     -11.967  11.586  66.617  1.00  0.00    -0.428 OA 
BRANCH   5   7
HETATM    7  C   UNL     1     -10.718  10.941  68.498  1.00  0.00    -0.239 A  
HETATM    8  C   UNL     1     -11.360  10.417  69.637  1.00  0.00    -0.272 A  
HETATM    9 CL   UNL     1     -13.020  10.824  69.982  1.00  0.00    -0.109 Cl 
HETATM   10  C   UNL     1     -10.673   9.513  70.489  1.00  0.00    -0.298 A  
HETATM   11 CL   UNL     1     -11.527   8.786  71.820  1.00  0.00    -0.388 Cl 
HETATM   12  C   UNL     1      -9.339   9.159  70.208  1.00  0.00    -0.220 A  
HETATM   13  C   UNL     1      -9.398  10.558  68.222  1.00  0.00    -0.156 A  
HETATM   14  C   UNL     1      -8.731   9.658  69.053  1.00  0.00    -0.142 A  
BRANCH  12  15
HETATM   15  O   UNL     1      -8.520   8.301  70.905  1.00  0.00    -0.118 OA 
BRANCH  15  16
HETATM   16  C   UNL     1      -7.858   8.823  72.064  1.00  0.00     0.023 C  
HETATM   17  C   UNL     1      -8.262   8.045  73.307  1.00  0.00    -0.198 C  
HETATM   18  O   UNL     1      -7.867   8.303  74.436  1.00  0.00    -0.229 OA 
HETATM   19  O   UNL     1      -9.108   7.015  73.049  1.00  0.00    -0.128 OA 
ENDBRANCH  15  16
ENDBRANCH  12  15
ENDBRANCH   5   7
ENDBRANCH   3   5
ENDBRANCH   2   3
TORSDOF 5
ENDMDL
MODEL      176
REMARK 921   NORMALIZED FREE ENERGY PREDICTED BY IDOCK:   -3.29 KCAL/MOL
REMARK 922        TOTAL FREE ENERGY PREDICTED BY IDOCK:   -4.96 KCAL/MOL
REMARK 923 INTER-LIGAND FREE ENERGY PREDICTED BY IDOCK:   -4.32 KCAL/MOL
REMARK 924 INTRA-LIGAND FREE ENERGY PREDICTED BY IDOCK:   -0.64 KCAL/MOL
REMARK 927      BINDING AFFINITY PREDICTED BY RF-SCORE:    0.00 PKD
ROOT
HETATM    1  C   UNL     1      -9.688  10.735  64.756  1.00  0.00    -0.338 C  
HETATM    2  C   UNL     1      -8.851  10.171  65.900  1.00  0.00    -0.167 C  
ENDROOT
BRANCH   2   3
HETATM    3  C   UNL     1      -9.593  10.087  67.219  1.00  0.00    -0.188 C  
HETATM    4  C   UNL     1     -10.599   9.213  67.398  1.00  0.00    -0.315 C  
BRANCH   3   5
HETATM    5  C   UNL     1      -9.194  11.104  68.255  1.00  0.00    -0.169 C  
HETATM    6  O   UNL     1      -9.089  10.766  69.428  1.00  0.00    -0.102 OA 
BRANCH   5   7
HETATM    7  C   UNL     1      -9.017  12.545  67.896  1.00  0.00    -0.188 A  
HETATM    8  C   UNL     1     -10.046  13.298  67.298  1.00  0.00    -0.234 A  
HETATM    9 CL   UNL     1     -11.637  12.615  67.091  1.00  0.00    -0.407 Cl 
HETATM   10  C   UNL     1      -9.807  14.639  66.899  1.00  0.00    -0.249 A  
HETATM   11 CL   UNL     1     -11.126  15.586  66.274  1.00  0.00    -0.240 Cl 
HETATM   12  C   UNL     1      -8.533  15.210  67.081  1.00  0.00    -0.212 A  
HETATM   13  C   UNL     1      -7.762  13.138  68.092  1.00  0.00    -0.143 A  
HETATM   14  C   UNL     1      -7.535  14.461  67.713  1.00  0.00    -0.182 A  
BRANCH  12  15
HETATM   15  O   UNL     1      -8.116  16.483  66.769  1.00  0.00    -0.196 OA 
BRANCH  15  16
HETATM   16  C   UNL     1      -8.631  17.556  67.567  1.00  0.00    -0.221 C  
HETATM   17  C   UNL     1      -7.495  18.351  68.192  1.00  0.00    -0.267 C  
HETATM   18  O   UNL     1      -7.656  19.303  68.945  1.00  0.00    -0.345 OA 
HETATM   19  O   UNL     1      -6.263  17.911  67.828  1.00  0.00    -0.161 OA 
ENDBRANCH  15  16
ENDBRANCH  12  15
ENDBRANCH   5   7
ENDBRANCH   3   5
ENDBRANCH   2   3
TORSDOF 5
ENDMDL
MODEL      177
REMARK 921   NORMALIZED FREE ENERGY PREDICTED BY IDOCK:   -3.27 KCAL/MOL
REMARK 922        TOTAL FREE ENERGY PREDICTED BY IDOCK:   -4.94 KCAL/MOL
REMARK 923 INTER-LIGAND FREE ENERGY PREDICTED BY IDOCK:   -4.34 KCAL/MOL
REMARK 924 INTRA-LIGAND FREE ENERGY PREDICTED BY IDOCK:   -0.60 KCAL/MOL
REMARK 927      BINDING AFFINITY PREDICTED BY RF-SCORE:    0.00 PKD
ROOT
HETATM    1  C   UNL     1      -9.004  10.933  66.059  1.00  0.00    -0.200 C  
HETATM    2  C   UNL     1      -9.527   9.501  66.117  1.00  0.00    -0.281 C  
ENDROOT
BRANCH   2   3
HETATM    3  C   UNL     1     -10.465   9.237  67.277  1.00  0.00    -0.334 C  
HETATM    4  C   UNL     1     -11.155  10.235  67.857  1.00  0.00    -0.341 C  
BRANCH   3   5
HETATM    5  C   UNL     1     -10.485   7.820  67.787  1.00  0.00    -0.211 C  
HETATM    6  O   UNL     1     -10.510   6.889  66.989  1.00  0.00    -0.244 OA 
BRANCH   5   7
HETATM    7  C   UNL     1     -10.573   7.525  69.249  1.00  0.00    -0.215 A  
HETATM    8  C   UNL     1      -9.564   7.912  70.152  1.00  0.00    -0.175 A  
HETATM    9 CL   UNL     1      -8.229   8.899  69.617  1.00  0.00    -0.109 Cl 
HETATM   10  C   UNL     1      -9.649   7.539  71.519  1.00  0.00    -0.154 A  
HETATM   11 CL   UNL     1      -8.454   8.131  72.637  1.00  0.00    -0.231 Cl 
HETATM   12  C   UNL     1     -10.734   6.761  71.968  1.00  0.00    -0.218 A  
HETATM   13  C   UNL     1     -11.657   6.771  69.720  1.00  0.00    -0.284 A  
HETATM   14  C   UNL     1     -11.746   6.419  71.067  1.00  0.00    -0.358 A  
BRANCH  12  15
HETATM   15  O   UNL     1     -10.991   6.312  73.243  1.00  0.00    -0.254 OA 
BRANCH  15  16
HETATM   16  C   UNL     1     -11.322   4.927  73.397  1.00  0.00    -0.298 C  
HETATM   17  C   UNL     1     -10.220   4.192  74.143  1.00  0.00    -0.189 C  
HETATM   18  O   UNL     1     -10.235   2.992  74.382  1.00  0.00    -0.130 OA 
HETATM   19  O   UNL     1      -9.202   5.000  74.537  1.00  0.00    -0.113 OA 
ENDBRANCH  15  16
ENDBRANCH  12  15
ENDBRANCH   5   7
ENDBRANCH   3   5
ENDBRANCH   2   3
TORSDOF 5
ENDMDL
MODEL      178
REMARK 921   NORMALIZED FREE ENERGY PREDICTED BY IDOCK:   -3.22 KCAL/MOL
REMARK 922        TOTAL FREE ENERGY PREDICTED BY IDOCK:   -4.87 KCAL/MOL
REMARK 923 INTER-LIGAND FREE ENERGY PREDICTED BY IDOCK:   -4.63 KCAL/MOL
REMARK 924 INTRA-LIGAND FREE ENERGY PREDICTED BY IDOCK:   -0.24 KCAL/MOL
REMARK 927      BINDING AFFINITY PREDICTED BY RF-SCORE:    0.00 PKD
ROOT
HETATM    1  C   UNL     1     -14.065  15.332  71.966  1.00  0.00    -0.662 C  
HETATM    2  C   UNL     1     -13.587  14.124  71.168  1.00  0.00    -0.254 C  
ENDROOT
BRANCH   2   3
HETATM    3  C   UNL     1     -12.210  14.297  70.559  1.00  0.00    -0.427 C  
HETATM    4  C   UNL     1     -11.297  15.108  71.121  1.00  0.00    -0.363 C  
BRANCH   3   5
HETATM    5  C   UNL     1     -11.985  13.588  69.250  1.00  0.00    -0.330 C  
HETATM    6  O   UNL     1     -12.532  14.002  68.234  1.00  0.00    -0.119 OA 
BRANCH   5   7
HETATM    7  C   UNL     1     -11.182  12.329  69.180  1.00  0.00    -0.300 A  
HETATM    8  C   UNL     1     -11.558  11.164  69.878  1.00  0.00    -0.337 A  
HETATM    9 CL   UNL     1     -13.075  11.097  70.735  1.00  0.00    -0.193 Cl 
HETATM   10  C   UNL     1     -10.723  10.016  69.849  1.00  0.00    -0.286 A  
HETATM   11 CL   UNL     1     -11.266   8.553  70.618  1.00  0.00    -0.273 Cl 
HETATM   12  C   UNL     1      -9.506  10.051  69.142  1.00  0.00    -0.207 A  
HETATM   13  C   UNL     1      -9.979  12.335  68.461  1.00  0.00    -0.175 A  
HETATM   14  C   UNL     1      -9.168  11.201  68.423  1.00  0.00    -0.175 A  
BRANCH  12  15
HETATM   15  O   UNL     1      -8.577   9.047  68.994  1.00  0.00    -0.130 OA 
BRANCH  15  16
HETATM   16  C   UNL     1      -7.703   9.124  67.861  1.00  0.00    -0.093 C  
HETATM   17  C   UNL     1      -8.068   8.067  66.830  1.00  0.00    -0.107 C  
HETATM   18  O   UNL     1      -7.462   7.894  65.781  1.00  0.00    -0.074 OA 
HETATM   19  O   UNL     1      -9.151   7.325  67.176  1.00  0.00    -0.125 OA 
ENDBRANCH  15  16
ENDBRANCH  12  15
ENDBRANCH   5   7
ENDBRANCH   3   5
ENDBRANCH   2   3
TORSDOF 5
ENDMDL
MODEL      179
REMARK 921   NORMALIZED FREE ENERGY PREDICTED BY IDOCK:   -3.21 KCAL/MOL
REMARK 922        TOTAL FREE ENERGY PREDICTED BY IDOCK:   -4.86 KCAL/MOL
REMARK 923 INTER-LIGAND FREE ENERGY PREDICTED BY IDOCK:   -4.40 KCAL/MOL
REMARK 924 INTRA-LIGAND FREE ENERGY PREDICTED BY IDOCK:   -0.46 KCAL/MOL
REMARK 927      BINDING AFFINITY PREDICTED BY RF-SCORE:    0.00 PKD
ROOT
HETATM    1  C   UNL     1      -9.566   7.216  73.131  1.00  0.00    -0.213 C  
HETATM    2  C   UNL     1     -10.739   7.824  72.369  1.00  0.00    -0.347 C  
ENDROOT
BRANCH   2   3
HETATM    3  C   UNL     1     -10.348   8.960  71.445  1.00  0.00    -0.377 C  
HETATM    4  C   UNL     1      -9.097   9.454  71.439  1.00  0.00     0.145 C  
BRANCH   3   5
HETATM    5  C   UNL     1     -11.468   9.548  70.628  1.00  0.00    -0.297 C  
HETATM    6  O   UNL     1     -12.626   9.426  71.010  1.00  0.00    -0.294 OA 
BRANCH   5   7
HETATM    7  C   UNL     1     -11.204  10.196  69.307  1.00  0.00    -0.247 A  
HETATM    8  C   UNL     1     -11.628  11.508  69.020  1.00  0.00    -0.318 A  
HETATM    9 CL   UNL     1     -12.350  12.496  70.263  1.00  0.00    -0.313 Cl 
HETATM   10  C   UNL     1     -11.429  12.054  67.725  1.00  0.00    -0.325 A  
HETATM   11 CL   UNL     1     -11.852  13.717  67.431  1.00  0.00    -0.416 Cl 
HETATM   12  C   UNL     1     -10.827  11.275  66.719  1.00  0.00    -0.282 A  
HETATM   13  C   UNL     1     -10.584   9.444  68.300  1.00  0.00    -0.256 A  
HETATM   14  C   UNL     1     -10.376   9.989  67.033  1.00  0.00    -0.305 A  
BRANCH  12  15
HETATM   15  O   UNL     1     -10.545  11.628  65.420  1.00  0.00    -0.264 OA 
BRANCH  15  16
HETATM   16  C   UNL     1      -9.166  11.658  65.032  1.00  0.00     0.045 C  
HETATM   17  C   UNL     1      -8.946  10.839  63.770  1.00  0.00    -0.162 C  
HETATM   18  O   UNL     1      -7.855  10.673  63.241  1.00  0.00    -0.091 OA 
HETATM   19  O   UNL     1     -10.089  10.306  63.266  1.00  0.00    -0.083 OA 
ENDBRANCH  15  16
ENDBRANCH  12  15
ENDBRANCH   5   7
ENDBRANCH   3   5
ENDBRANCH   2   3
TORSDOF 5
ENDMDL
MODEL      180
REMARK 921   NORMALIZED FREE ENERGY PREDICTED BY IDOCK:   -3.21 KCAL/MOL
REMARK 922        TOTAL FREE ENERGY PREDICTED BY IDOCK:   -4.86 KCAL/MOL
REMARK 923 INTER-LIGAND FREE ENERGY PREDICTED BY IDOCK:   -5.58 KCAL/MOL
REMARK 924 INTRA-LIGAND FREE ENERGY PREDICTED BY IDOCK:    0.73 KCAL/MOL
REMARK 927      BINDING AFFINITY PREDICTED BY RF-SCORE:    0.00 PKD
ROOT
HETATM    1  C   UNL     1      -5.850  18.184  66.589  1.00  0.00    -0.183 C  
HETATM    2  C   UNL     1      -6.168  16.861  67.279  1.00  0.00    -0.198 C  
ENDROOT
BRANCH   2   3
HETATM    3  C   UNL     1      -6.819  17.019  68.638  1.00  0.00    -0.187 C  
HETATM    4  C   UNL     1      -6.097  16.948  69.770  1.00  0.00    -0.229 C  
BRANCH   3   5
HETATM    5  C   UNL     1      -8.319  17.154  68.628  1.00  0.00    -0.257 C  
HETATM    6  O   UNL     1      -8.835  18.210  68.977  1.00  0.00    -0.167 OA 
BRANCH   5   7
HETATM    7  C   UNL     1      -9.199  15.993  68.292  1.00  0.00    -0.191 A  
HETATM    8  C   UNL     1      -8.790  14.661  68.501  1.00  0.00    -0.182 A  
HETATM    9 CL   UNL     1      -7.286  14.314  69.314  1.00  0.00    -0.094 Cl 
HETATM   10  C   UNL     1      -9.624  13.587  68.092  1.00  0.00    -0.215 A  
HETATM   11 CL   UNL     1      -9.152  11.956  68.469  1.00  0.00    -0.162 Cl 
HETATM   12  C   UNL     1     -10.851  13.855  67.455  1.00  0.00    -0.285 A  
HETATM   13  C   UNL     1     -10.435  16.239  67.679  1.00  0.00    -0.295 A  
HETATM   14  C   UNL     1     -11.258  15.182  67.291  1.00  0.00    -0.324 A  
BRANCH  12  15
HETATM   15  O   UNL     1     -11.788  12.957  66.998  1.00  0.00    -0.371 OA 
BRANCH  15  16
HETATM   16  C   UNL     1     -11.607  12.436  65.676  1.00  0.00    -0.392 C  
HETATM   17  C   UNL     1     -12.605  13.061  64.713  1.00  0.00    -0.397 C  
HETATM   18  O   UNL     1     -12.688  12.770  63.527  1.00  0.00    -0.713 OA 
HETATM   19  O   UNL     1     -13.404  13.994  65.292  1.00  0.00    -0.741 OA 
ENDBRANCH  15  16
ENDBRANCH  12  15
ENDBRANCH   5   7
ENDBRANCH   3   5
ENDBRANCH   2   3
TORSDOF 5
ENDMDL
MODEL      181
REMARK 921   NORMALIZED FREE ENERGY PREDICTED BY IDOCK:   -3.20 KCAL/MOL
REMARK 922        TOTAL FREE ENERGY PREDICTED BY IDOCK:   -4.84 KCAL/MOL
REMARK 923 INTER-LIGAND FREE ENERGY PREDICTED BY IDOCK:   -5.21 KCAL/MOL
REMARK 924 INTRA-LIGAND FREE ENERGY PREDICTED BY IDOCK:    0.37 KCAL/MOL
REMARK 927      BINDING AFFINITY PREDICTED BY RF-SCORE:    0.00 PKD
ROOT
HETATM    1  C   UNL     1     -10.595  16.661  69.254  1.00  0.00    -0.343 C  
HETATM    2  C   UNL     1     -10.439  15.782  70.491  1.00  0.00    -0.071 C  
ENDROOT
BRANCH   2   3
HETATM    3  C   UNL     1     -11.712  15.628  71.298  1.00  0.00    -0.478 C  
HETATM    4  C   UNL     1     -11.888  16.290  72.455  1.00  0.00    -0.608 C  
BRANCH   3   5
HETATM    5  C   UNL     1     -12.699  14.620  70.769  1.00  0.00    -0.359 C  
HETATM    6  O   UNL     1     -13.884  14.920  70.684  1.00  0.00    -0.126 OA 
BRANCH   5   7
HETATM    7  C   UNL     1     -12.277  13.225  70.438  1.00  0.00    -0.404 A  
HETATM    8  C   UNL     1     -12.639  12.125  71.239  1.00  0.00    -0.238 A  
HETATM    9 CL   UNL     1     -13.737  12.329  72.579  1.00  0.00    -0.182 Cl 
HETATM   10  C   UNL     1     -12.148  10.828  70.932  1.00  0.00    -0.370 A  
HETATM   11 CL   UNL     1     -12.706   9.468  71.863  1.00  0.00    -0.473 Cl 
HETATM   12  C   UNL     1     -11.280  10.647  69.839  1.00  0.00    -0.308 A  
HETATM   13  C   UNL     1     -11.431  13.020  69.339  1.00  0.00    -0.323 A  
HETATM   14  C   UNL     1     -10.962  11.743  69.032  1.00  0.00    -0.276 A  
BRANCH  12  15
HETATM   15  O   UNL     1     -10.713   9.478  69.386  1.00  0.00    -0.221 OA 
BRANCH  15  16
HETATM   16  C   UNL     1     -11.337   8.250  69.779  1.00  0.00     0.142 C  
HETATM   17  C   UNL     1     -10.334   7.333  70.461  1.00  0.00    -0.206 C  
HETATM   18  O   UNL     1     -10.597   6.210  70.868  1.00  0.00    -0.220 OA 
HETATM   19  O   UNL     1      -9.099   7.884  70.591  1.00  0.00    -0.150 OA 
ENDBRANCH  15  16
ENDBRANCH  12  15
ENDBRANCH   5   7
ENDBRANCH   3   5
ENDBRANCH   2   3
TORSDOF 5
ENDMDL
MODEL      182
REMARK 921   NORMALIZED FREE ENERGY PREDICTED BY IDOCK:   -3.17 KCAL/MOL
REMARK 922        TOTAL FREE ENERGY PREDICTED BY IDOCK:   -4.80 KCAL/MOL
REMARK 923 INTER-LIGAND FREE ENERGY PREDICTED BY IDOCK:   -4.32 KCAL/MOL
REMARK 924 INTRA-LIGAND FREE ENERGY PREDICTED BY IDOCK:   -0.48 KCAL/MOL
REMARK 927      BINDING AFFINITY PREDICTED BY RF-SCORE:    0.00 PKD
ROOT
HETATM    1  C   UNL     1      -9.237   7.141  66.366  1.00  0.00    -0.196 C  
HETATM    2  C   UNL     1      -8.557   7.525  67.677  1.00  0.00    -0.119 C  
ENDROOT
BRANCH   2   3
HETATM    3  C   UNL     1      -9.524   7.860  68.794  1.00  0.00    -0.147 C  
HETATM    4  C   UNL     1     -10.527   7.026  69.122  1.00  0.00    -0.218 C  
BRANCH   3   5
HETATM    5  C   UNL     1      -9.343   9.215  69.425  1.00  0.00    -0.160 C  
HETATM    6  O   UNL     1      -8.707   9.319  70.468  1.00  0.00    -0.201 OA 
BRANCH   5   7
HETATM    7  C   UNL     1     -10.007  10.428  68.858  1.00  0.00    -0.208 A  
HETATM    8  C   UNL     1      -9.429  11.178  67.815  1.00  0.00    -0.168 A  
HETATM    9 CL   UNL     1      -7.973  10.625  67.030  1.00  0.00    -0.118 Cl 
HETATM   10  C   UNL     1     -10.054  12.370  67.363  1.00  0.00    -0.201 A  
HETATM   11 CL   UNL     1      -9.386  13.212  65.994  1.00  0.00    -0.101 Cl 
HETATM   12  C   UNL     1     -11.242  12.815  67.973  1.00  0.00    -0.270 A  
HETATM   13  C   UNL     1     -11.204  10.874  69.437  1.00  0.00    -0.335 A  
HETATM   14  C   UNL     1     -11.823  12.037  68.980  1.00  0.00    -0.372 A  
BRANCH  12  15
HETATM   15  O   UNL     1     -11.991  13.929  67.672  1.00  0.00    -0.366 OA 
BRANCH  15  16
HETATM   16  C   UNL     1     -11.692  15.133  68.387  1.00  0.00    -0.316 C  
HETATM   17  C   UNL     1     -11.090  16.175  67.456  1.00  0.00    -0.175 C  
HETATM   18  O   UNL     1     -10.715  17.282  67.816  1.00  0.00    -0.368 OA 
HETATM   19  O   UNL     1     -11.011  15.763  66.164  1.00  0.00    -0.280 OA 
ENDBRANCH  15  16
ENDBRANCH  12  15
ENDBRANCH   5   7
ENDBRANCH   3   5
ENDBRANCH   2   3
TORSDOF 5
ENDMDL
MODEL      183
REMARK 921   NORMALIZED FREE ENERGY PREDICTED BY IDOCK:   -3.13 KCAL/MOL
REMARK 922        TOTAL FREE ENERGY PREDICTED BY IDOCK:   -4.75 KCAL/MOL
REMARK 923 INTER-LIGAND FREE ENERGY PREDICTED BY IDOCK:   -4.02 KCAL/MOL
REMARK 924 INTRA-LIGAND FREE ENERGY PREDICTED BY IDOCK:   -0.73 KCAL/MOL
REMARK 927      BINDING AFFINITY PREDICTED BY RF-SCORE:    0.00 PKD
ROOT
HETATM    1  C   UNL     1      -8.187   5.363  71.746  1.00  0.00    -0.119 C  
HETATM    2  C   UNL     1      -8.822   6.400  72.668  1.00  0.00    -0.125 C  
ENDROOT
BRANCH   2   3
HETATM    3  C   UNL     1     -10.336   6.348  72.698  1.00  0.00    -0.216 C  
HETATM    4  C   UNL     1     -10.987   5.278  73.188  1.00  0.00    -0.362 C  
BRANCH   3   5
HETATM    5  C   UNL     1     -11.039   7.515  72.057  1.00  0.00    -0.247 C  
HETATM    6  O   UNL     1     -12.118   7.892  72.502  1.00  0.00    -0.315 OA 
BRANCH   5   7
HETATM    7  C   UNL     1     -10.495   8.165  70.825  1.00  0.00    -0.223 A  
HETATM    8  C   UNL     1     -10.649   7.592  69.548  1.00  0.00    -0.236 A  
HETATM    9 CL   UNL     1     -11.628   6.165  69.331  1.00  0.00    -0.290 Cl 
HETATM   10  C   UNL     1     -10.046   8.201  68.417  1.00  0.00    -0.200 A  
HETATM   11 CL   UNL     1     -10.351   7.542  66.835  1.00  0.00    -0.377 Cl 
HETATM   12  C   UNL     1      -9.272   9.366  68.576  1.00  0.00    -0.131 A  
HETATM   13  C   UNL     1      -9.741   9.339  70.960  1.00  0.00    -0.341 A  
HETATM   14  C   UNL     1      -9.162   9.943  69.844  1.00  0.00    -0.245 A  
BRANCH  12  15
HETATM   15  O   UNL     1      -8.622  10.097  67.608  1.00  0.00    -0.118 OA 
BRANCH  15  16
HETATM   16  C   UNL     1      -7.611   9.424  66.847  1.00  0.00    -0.091 C  
HETATM   17  C   UNL     1      -7.929   9.486  65.361  1.00  0.00    -0.113 C  
HETATM   18  O   UNL     1      -7.245   8.964  64.491  1.00  0.00    -0.094 OA 
HETATM   19  O   UNL     1      -9.055  10.191  65.078  1.00  0.00    -0.172 OA 
ENDBRANCH  15  16
ENDBRANCH  12  15
ENDBRANCH   5   7
ENDBRANCH   3   5
ENDBRANCH   2   3
TORSDOF 5
ENDMDL
MODEL      184
REMARK 921   NORMALIZED FREE ENERGY PREDICTED BY IDOCK:   -3.09 KCAL/MOL
REMARK 922        TOTAL FREE ENERGY PREDICTED BY IDOCK:   -4.70 KCAL/MOL
REMARK 923 INTER-LIGAND FREE ENERGY PREDICTED BY IDOCK:   -4.06 KCAL/MOL
REMARK 924 INTRA-LIGAND FREE ENERGY PREDICTED BY IDOCK:   -0.64 KCAL/MOL
REMARK 927      BINDING AFFINITY PREDICTED BY RF-SCORE:    0.00 PKD
ROOT
HETATM    1  C   UNL     1      -5.503  15.585  70.926  1.00  0.00    -0.059 C  
HETATM    2  C   UNL     1      -6.113  15.016  69.648  1.00  0.00    -0.126 C  
ENDROOT
BRANCH   2   3
HETATM    3  C   UNL     1      -6.308  16.043  68.552  1.00  0.00    -0.115 C  
HETATM    4  C   UNL     1      -5.675  17.229  68.586  1.00  0.00    -0.152 C  
BRANCH   3   5
HETATM    5  C   UNL     1      -7.321  15.683  67.497  1.00  0.00    -0.185 C  
HETATM    6  O   UNL     1      -7.364  16.324  66.453  1.00  0.00    -0.165 OA 
BRANCH   5   7
HETATM    7  C   UNL     1      -8.344  14.620  67.738  1.00  0.00    -0.168 A  
HETATM    8  C   UNL     1      -9.608  14.909  68.289  1.00  0.00    -0.214 A  
HETATM    9 CL   UNL     1     -10.093  16.561  68.571  1.00  0.00    -0.243 Cl 
HETATM   10  C   UNL     1     -10.517  13.858  68.577  1.00  0.00    -0.250 A  
HETATM   11 CL   UNL     1     -12.115  14.250  69.144  1.00  0.00    -0.361 Cl 
HETATM   12  C   UNL     1     -10.146  12.522  68.333  1.00  0.00    -0.216 A  
HETATM   13  C   UNL     1      -8.002  13.286  67.479  1.00  0.00    -0.186 A  
HETATM   14  C   UNL     1      -8.903  12.256  67.749  1.00  0.00    -0.174 A  
BRANCH  12  15
HETATM   15  O   UNL     1     -10.885  11.380  68.538  1.00  0.00    -0.187 OA 
BRANCH  15  16
HETATM   16  C   UNL     1     -10.349  10.404  69.440  1.00  0.00    -0.237 C  
HETATM   17  C   UNL     1     -11.307  10.159  70.596  1.00  0.00    -0.352 C  
HETATM   18  O   UNL     1     -11.080   9.395  71.524  1.00  0.00    -0.355 OA 
HETATM   19  O   UNL     1     -12.461  10.868  70.501  1.00  0.00    -0.320 OA 
ENDBRANCH  15  16
ENDBRANCH  12  15
ENDBRANCH   5   7
ENDBRANCH   3   5
ENDBRANCH   2   3
TORSDOF 5
ENDMDL
MODEL      185
REMARK 921   NORMALIZED FREE ENERGY PREDICTED BY IDOCK:   -3.08 KCAL/MOL
REMARK 922        TOTAL FREE ENERGY PREDICTED BY IDOCK:   -4.69 KCAL/MOL
REMARK 923 INTER-LIGAND FREE ENERGY PREDICTED BY IDOCK:   -4.13 KCAL/MOL
REMARK 924 INTRA-LIGAND FREE ENERGY PREDICTED BY IDOCK:   -0.56 KCAL/MOL
REMARK 927      BINDING AFFINITY PREDICTED BY RF-SCORE:    0.00 PKD
ROOT
HETATM    1  C   UNL     1     -12.931  14.084  65.616  1.00  0.00    -0.337 C  
HETATM    2  C   UNL     1     -11.415  14.248  65.599  1.00  0.00    -0.329 C  
ENDROOT
BRANCH   2   3
HETATM    3  C   UNL     1     -10.691  13.353  66.584  1.00  0.00    -0.282 C  
HETATM    4  C   UNL     1      -9.773  13.848  67.433  1.00  0.00    -0.234 C  
BRANCH   3   5
HETATM    5  C   UNL     1     -10.997  11.882  66.472  1.00  0.00    -0.292 C  
HETATM    6  O   UNL     1     -12.056  11.448  66.911  1.00  0.00    -0.243 OA 
BRANCH   5   7
HETATM    7  C   UNL     1      -9.991  10.922  65.923  1.00  0.00    -0.294 A  
HETATM    8  C   UNL     1      -9.907  10.634  64.547  1.00  0.00    -0.327 A  
HETATM    9 CL   UNL     1     -10.880  11.512  63.398  1.00  0.00    -0.453 Cl 
HETATM   10  C   UNL     1      -8.991   9.654  64.079  1.00  0.00    -0.223 A  
HETATM   11 CL   UNL     1      -8.821   9.403  62.366  1.00  0.00    -0.244 Cl 
HETATM   12  C   UNL     1      -8.183   8.954  64.995  1.00  0.00    -0.153 A  
HETATM   13  C   UNL     1      -9.161  10.232  66.817  1.00  0.00    -0.161 A  
HETATM   14  C   UNL     1      -8.252   9.281  66.353  1.00  0.00    -0.111 A  
BRANCH  12  15
HETATM   15  O   UNL     1      -7.242   7.986  64.735  1.00  0.00    -0.073 OA 
BRANCH  15  16
HETATM   16  C   UNL     1      -7.226   6.838  65.594  1.00  0.00    -0.073 C  
HETATM   17  C   UNL     1      -7.713   5.605  64.849  1.00  0.00    -0.099 C  
HETATM   18  O   UNL     1      -7.828   4.498  65.357  1.00  0.00    -0.088 OA 
HETATM   19  O   UNL     1      -8.007   5.842  63.544  1.00  0.00    -0.109 OA 
ENDBRANCH  15  16
ENDBRANCH  12  15
ENDBRANCH   5   7
ENDBRANCH   3   5
ENDBRANCH   2   3
TORSDOF 5
ENDMDL
MODEL      186
REMARK 921   NORMALIZED FREE ENERGY PREDICTED BY IDOCK:   -3.08 KCAL/MOL
REMARK 922        TOTAL FREE ENERGY PREDICTED BY IDOCK:   -4.69 KCAL/MOL
REMARK 923 INTER-LIGAND FREE ENERGY PREDICTED BY IDOCK:   -4.04 KCAL/MOL
REMARK 924 INTRA-LIGAND FREE ENERGY PREDICTED BY IDOCK:   -0.65 KCAL/MOL
REMARK 927      BINDING AFFINITY PREDICTED BY RF-SCORE:    0.00 PKD
ROOT
HETATM    1  C   UNL     1     -13.285   9.467  71.607  1.00  0.00    -0.470 C  
HETATM    2  C   UNL     1     -12.070  10.265  71.146  1.00  0.00    -0.494 C  
ENDROOT
BRANCH   2   3
HETATM    3  C   UNL     1     -10.890   9.405  70.741  1.00  0.00    -0.372 C  
HETATM    4  C   UNL     1     -10.039   8.912  71.658  1.00  0.00    -0.411 C  
BRANCH   3   5
HETATM    5  C   UNL     1     -10.688   9.236  69.258  1.00  0.00    -0.196 C  
HETATM    6  O   UNL     1     -10.954  10.162  68.500  1.00  0.00    -0.232 OA 
BRANCH   5   7
HETATM    7  C   UNL     1     -10.262   7.925  68.680  1.00  0.00    -0.223 A  
HETATM    8  C   UNL     1      -9.058   7.780  67.964  1.00  0.00    -0.128 A  
HETATM    9 CL   UNL     1      -7.927   9.104  67.857  1.00  0.00    -0.100 Cl 
HETATM   10  C   UNL     1      -8.732   6.536  67.362  1.00  0.00    -0.117 A  
HETATM   11 CL   UNL     1      -7.185   6.347  66.588  1.00  0.00    -0.075 Cl 
HETATM   12  C   UNL     1      -9.626   5.453  67.461  1.00  0.00    -0.126 A  
HETATM   13  C   UNL     1     -11.128   6.827  68.788  1.00  0.00    -0.234 A  
HETATM   14  C   UNL     1     -10.798   5.603  68.208  1.00  0.00    -0.159 A  
BRANCH  12  15
HETATM   15  O   UNL     1      -9.484   4.181  66.956  1.00  0.00    -0.166 OA 
BRANCH  15  16
HETATM   16  C   UNL     1      -9.701   4.005  65.551  1.00  0.00    -0.194 C  
HETATM   17  C   UNL     1      -9.191   2.646  65.096  1.00  0.00    -0.131 C  
HETATM   18  O   UNL     1      -9.226   2.253  63.937  1.00  0.00    -0.100 OA 
HETATM   19  O   UNL     1      -8.693   1.889  66.107  1.00  0.00    -0.109 OA 
ENDBRANCH  15  16
ENDBRANCH  12  15
ENDBRANCH   5   7
ENDBRANCH   3   5
ENDBRANCH   2   3
TORSDOF 5
ENDMDL
MODEL      187
REMARK 921   NORMALIZED FREE ENERGY PREDICTED BY IDOCK:   -3.07 KCAL/MOL
REMARK 922        TOTAL FREE ENERGY PREDICTED BY IDOCK:   -4.67 KCAL/MOL
REMARK 923 INTER-LIGAND FREE ENERGY PREDICTED BY IDOCK:   -4.02 KCAL/MOL
REMARK 924 INTRA-LIGAND FREE ENERGY PREDICTED BY IDOCK:   -0.65 KCAL/MOL
REMARK 927      BINDING AFFINITY PREDICTED BY RF-SCORE:    0.00 PKD
ROOT
HETATM    1  C   UNL     1      -9.586  12.855  67.185  1.00  0.00    -0.225 C  
HETATM    2  C   UNL     1      -8.414  12.165  66.495  1.00  0.00    -0.026 C  
ENDROOT
BRANCH   2   3
HETATM    3  C   UNL     1      -8.651  10.696  66.208  1.00  0.00    -0.156 C  
HETATM    4  C   UNL     1      -9.538  10.302  65.277  1.00  0.00    -0.324 C  
BRANCH   3   5
HETATM    5  C   UNL     1      -7.909   9.732  67.095  1.00  0.00    -0.099 C  
HETATM    6  O   UNL     1      -6.727   9.493  66.876  1.00  0.00    -0.071 OA 
BRANCH   5   7
HETATM    7  C   UNL     1      -8.611   8.985  68.183  1.00  0.00    -0.130 A  
HETATM    8  C   UNL     1      -9.008   7.642  68.031  1.00  0.00    -0.126 A  
HETATM    9 CL   UNL     1      -8.553   6.740  66.609  1.00  0.00    -0.119 Cl 
HETATM   10  C   UNL     1      -9.745   6.997  69.058  1.00  0.00    -0.145 A  
HETATM   11 CL   UNL     1     -10.119   5.305  68.899  1.00  0.00    -0.254 Cl 
HETATM   12  C   UNL     1     -10.099   7.707  70.221  1.00  0.00    -0.198 A  
HETATM   13  C   UNL     1      -8.951   9.668  69.359  1.00  0.00    -0.186 A  
HETATM   14  C   UNL     1      -9.663   9.027  70.372  1.00  0.00    -0.245 A  
BRANCH  12  15
HETATM   15  O   UNL     1     -10.797   7.255  71.317  1.00  0.00    -0.233 OA 
BRANCH  15  16
HETATM   16  C   UNL     1     -12.091   6.686  71.082  1.00  0.00    -0.335 C  
HETATM   17  C   UNL     1     -13.184   7.602  71.610  1.00  0.00    -0.352 C  
HETATM   18  O   UNL     1     -14.378   7.342  71.566  1.00  0.00    -0.448 OA 
HETATM   19  O   UNL     1     -12.709   8.761  72.137  1.00  0.00    -0.351 OA 
ENDBRANCH  15  16
ENDBRANCH  12  15
ENDBRANCH   5   7
ENDBRANCH   3   5
ENDBRANCH   2   3
TORSDOF 5
ENDMDL
MODEL      188
REMARK 921   NORMALIZED FREE ENERGY PREDICTED BY IDOCK:   -3.06 KCAL/MOL
REMARK 922        TOTAL FREE ENERGY PREDICTED BY IDOCK:   -4.66 KCAL/MOL
REMARK 923 INTER-LIGAND FREE ENERGY PREDICTED BY IDOCK:   -4.05 KCAL/MOL
REMARK 924 INTRA-LIGAND FREE ENERGY PREDICTED BY IDOCK:   -0.61 KCAL/MOL
REMARK 927      BINDING AFFINITY PREDICTED BY RF-SCORE:    0.00 PKD
ROOT
HETATM    1  C   UNL     1     -10.751   8.300  70.514  1.00  0.00    -0.238 C  
HETATM    2  C   UNL     1      -9.762   9.446  70.706  1.00  0.00    -0.332 C  
ENDROOT
BRANCH   2   3
HETATM    3  C   UNL     1      -8.410   9.202  70.068  1.00  0.00    -0.156 C  
HETATM    4  C   UNL     1      -7.400   8.650  70.764  1.00  0.00    -0.070 C  
BRANCH   3   5
HETATM    5  C   UNL     1      -8.255   9.709  68.659  1.00  0.00    -0.105 C  
HETATM    6  O   UNL     1      -7.913   8.936  67.770  1.00  0.00    -0.101 OA 
BRANCH   5   7
HETATM    7  C   UNL     1      -8.415  11.160  68.336  1.00  0.00    -0.151 A  
HETATM    8  C   UNL     1      -7.316  12.038  68.278  1.00  0.00    -0.095 A  
HETATM    9 CL   UNL     1      -5.688  11.430  68.429  1.00  0.00    -0.045 Cl 
HETATM   10  C   UNL     1      -7.523  13.424  68.049  1.00  0.00    -0.139 A  
HETATM   11 CL   UNL     1      -6.143  14.468  67.862  1.00  0.00    -0.160 Cl 
HETATM   12  C   UNL     1      -8.831  13.924  67.903  1.00  0.00    -0.184 A  
HETATM   13  C   UNL     1      -9.709  11.673  68.164  1.00  0.00    -0.189 A  
HETATM   14  C   UNL     1      -9.907  13.032  67.924  1.00  0.00    -0.224 A  
BRANCH  12  15
HETATM   15  O   UNL     1      -9.227  15.221  67.670  1.00  0.00    -0.185 OA 
BRANCH  15  16
HETATM   16  C   UNL     1      -9.360  15.631  66.304  1.00  0.00    -0.323 C  
HETATM   17  C   UNL     1     -10.247  16.862  66.197  1.00  0.00    -0.341 C  
HETATM   18  O   UNL     1     -10.549  17.400  65.141  1.00  0.00    -0.681 OA 
HETATM   19  O   UNL     1     -10.674  17.326  67.400  1.00  0.00    -0.329 OA 
ENDBRANCH  15  16
ENDBRANCH  12  15
ENDBRANCH   5   7
ENDBRANCH   3   5
ENDBRANCH   2   3
TORSDOF 5
ENDMDL
MODEL      189
REMARK 921   NORMALIZED FREE ENERGY PREDICTED BY IDOCK:   -3.04 KCAL/MOL
REMARK 922        TOTAL FREE ENERGY PREDICTED BY IDOCK:   -4.64 KCAL/MOL
REMARK 923 INTER-LIGAND FREE ENERGY PREDICTED BY IDOCK:   -4.10 KCAL/MOL
REMARK 924 INTRA-LIGAND FREE ENERGY PREDICTED BY IDOCK:   -0.54 KCAL/MOL
REMARK 927      BINDING AFFINITY PREDICTED BY RF-SCORE:    0.00 PKD
ROOT
HETATM    1  C   UNL     1     -13.062   9.718  71.091  1.00  0.00    -0.424 C  
HETATM    2  C   UNL     1     -11.795  10.555  70.950  1.00  0.00    -0.455 C  
ENDROOT
BRANCH   2   3
HETATM    3  C   UNL     1     -10.733   9.917  70.077  1.00  0.00    -0.338 C  
HETATM    4  C   UNL     1      -9.570   9.486  70.596  1.00  0.00    -0.292 C  
BRANCH   3   5
HETATM    5  C   UNL     1     -11.031   9.898  68.601  1.00  0.00    -0.179 C  
HETATM    6  O   UNL     1     -11.877  10.658  68.143  1.00  0.00    -0.482 OA 
BRANCH   5   7
HETATM    7  C   UNL     1     -10.385   8.900  67.694  1.00  0.00    -0.313 A  
HETATM    8  C   UNL     1     -10.497   7.512  67.910  1.00  0.00    -0.204 A  
HETATM    9 CL   UNL     1     -11.535   6.893  69.167  1.00  0.00    -0.090 Cl 
HETATM   10  C   UNL     1      -9.799   6.603  67.072  1.00  0.00    -0.160 A  
HETATM   11 CL   UNL     1     -10.049   4.893  67.283  1.00  0.00    -0.218 Cl 
HETATM   12  C   UNL     1      -8.976   7.090  66.039  1.00  0.00    -0.107 A  
HETATM   13  C   UNL     1      -9.580   9.365  66.645  1.00  0.00    -0.250 A  
HETATM   14  C   UNL     1      -8.908   8.468  65.815  1.00  0.00    -0.229 A  
BRANCH  12  15
HETATM   15  O   UNL     1      -8.235   6.372  65.129  1.00  0.00    -0.136 OA 
BRANCH  15  16
HETATM   16  C   UNL     1      -6.979   5.846  65.576  1.00  0.00    -0.064 C  
HETATM   17  C   UNL     1      -6.904   4.348  65.320  1.00  0.00    -0.057 C  
HETATM   18  O   UNL     1      -5.952   3.646  65.634  1.00  0.00    -0.022 OA 
HETATM   19  O   UNL     1      -8.002   3.851  64.694  1.00  0.00    -0.085 OA 
ENDBRANCH  15  16
ENDBRANCH  12  15
ENDBRANCH   5   7
ENDBRANCH   3   5
ENDBRANCH   2   3
TORSDOF 5
ENDMDL
MODEL      190
REMARK 921   NORMALIZED FREE ENERGY PREDICTED BY IDOCK:   -3.03 KCAL/MOL
REMARK 922        TOTAL FREE ENERGY PREDICTED BY IDOCK:   -4.63 KCAL/MOL
REMARK 923 INTER-LIGAND FREE ENERGY PREDICTED BY IDOCK:   -4.04 KCAL/MOL
REMARK 924 INTRA-LIGAND FREE ENERGY PREDICTED BY IDOCK:   -0.59 KCAL/MOL
REMARK 927      BINDING AFFINITY PREDICTED BY RF-SCORE:    0.00 PKD
ROOT
HETATM    1  C   UNL     1     -12.512  13.725  65.658  1.00  0.00    -0.541 C  
HETATM    2  C   UNL     1     -11.147  13.052  65.764  1.00  0.00    -0.302 C  
ENDROOT
BRANCH   2   3
HETATM    3  C   UNL     1     -11.061  12.008  66.859  1.00  0.00    -0.352 C  
HETATM    4  C   UNL     1     -11.763  12.134  67.999  1.00  0.00    -0.409 C  
BRANCH   3   5
HETATM    5  C   UNL     1     -10.073  10.897  66.621  1.00  0.00    -0.219 C  
HETATM    6  O   UNL     1      -9.809  10.555  65.473  1.00  0.00    -0.230 OA 
BRANCH   5   7
HETATM    7  C   UNL     1      -9.478  10.133  67.760  1.00  0.00    -0.160 A  
HETATM    8  C   UNL     1      -9.837   8.799  68.034  1.00  0.00    -0.169 A  
HETATM    9 CL   UNL     1     -10.886   7.924  66.949  1.00  0.00    -0.243 Cl 
HETATM   10  C   UNL     1      -9.310   8.140  69.175  1.00  0.00    -0.151 A  
HETATM   11 CL   UNL     1      -9.673   6.456  69.425  1.00  0.00    -0.153 Cl 
HETATM   12  C   UNL     1      -8.444   8.828  70.047  1.00  0.00    -0.133 A  
HETATM   13  C   UNL     1      -8.596  10.794  68.626  1.00  0.00    -0.151 A  
HETATM   14  C   UNL     1      -8.068  10.139  69.738  1.00  0.00    -0.167 A  
BRANCH  12  15
HETATM   15  O   UNL     1      -7.833   8.360  71.187  1.00  0.00    -0.086 OA 
BRANCH  15  16
HETATM   16  C   UNL     1      -8.622   8.311  72.382  1.00  0.00    -0.206 C  
HETATM   17  C   UNL     1      -8.577   6.920  72.997  1.00  0.00    -0.118 C  
HETATM   18  O   UNL     1      -9.188   6.596  74.006  1.00  0.00    -0.151 OA 
HETATM   19  O   UNL     1      -7.777   6.056  72.320  1.00  0.00    -0.099 OA 
ENDBRANCH  15  16
ENDBRANCH  12  15
ENDBRANCH   5   7
ENDBRANCH   3   5
ENDBRANCH   2   3
TORSDOF 5
ENDMDL
MODEL      191
REMARK 921   NORMALIZED FREE ENERGY PREDICTED BY IDOCK:   -3.02 KCAL/MOL
REMARK 922        TOTAL FREE ENERGY PREDICTED BY IDOCK:   -4.62 KCAL/MOL
REMARK 923 INTER-LIGAND FREE ENERGY PREDICTED BY IDOCK:   -3.91 KCAL/MOL
REMARK 924 INTRA-LIGAND FREE ENERGY PREDICTED BY IDOCK:   -0.71 KCAL/MOL
REMARK 927      BINDING AFFINITY PREDICTED BY RF-SCORE:    0.00 PKD
ROOT
HETATM    1  C   UNL     1      -9.283   6.412  70.273  1.00  0.00    -0.158 C  
HETATM    2  C   UNL     1      -7.997   6.831  69.567  1.00  0.00    -0.125 C  
ENDROOT
BRANCH   2   3
HETATM    3  C   UNL     1      -8.118   8.126  68.790  1.00  0.00    -0.120 C  
HETATM    4  C   UNL     1      -8.251   8.126  67.452  1.00  0.00    -0.122 C  
BRANCH   3   5
HETATM    5  C   UNL     1      -7.977   9.386  69.602  1.00  0.00    -0.109 C  
HETATM    6  O   UNL     1      -7.476   9.335  70.720  1.00  0.00    -0.116 OA 
BRANCH   5   7
HETATM    7  C   UNL     1      -8.525  10.688  69.112  1.00  0.00    -0.134 A  
HETATM    8  C   UNL     1      -9.872  11.052  69.307  1.00  0.00    -0.035 A  
HETATM    9 CL   UNL     1     -10.927  10.056  70.276  1.00  0.00    -0.348 Cl 
HETATM   10  C   UNL     1     -10.370  12.260  68.753  1.00  0.00    -0.135 A  
HETATM   11 CL   UNL     1     -12.003  12.747  69.109  1.00  0.00    -0.323 Cl 
HETATM   12  C   UNL     1      -9.523  13.084  67.988  1.00  0.00    -0.217 A  
HETATM   13  C   UNL     1      -7.691  11.533  68.368  1.00  0.00    -0.129 A  
HETATM   14  C   UNL     1      -8.179  12.727  67.837  1.00  0.00    -0.168 A  
BRANCH  12  15
HETATM   15  O   UNL     1      -9.818  14.284  67.383  1.00  0.00    -0.230 OA 
BRANCH  15  16
HETATM   16  C   UNL     1     -10.526  14.233  66.137  1.00  0.00    -0.292 C  
HETATM   17  C   UNL     1     -10.638  15.623  65.529  1.00  0.00    -0.404 C  
HETATM   18  O   UNL     1     -11.221  15.868  64.481  1.00  0.00    -0.454 OA 
HETATM   19  O   UNL     1     -10.015  16.584  66.258  1.00  0.00    -0.292 OA 
ENDBRANCH  15  16
ENDBRANCH  12  15
ENDBRANCH   5   7
ENDBRANCH   3   5
ENDBRANCH   2   3
TORSDOF 5
ENDMDL
MODEL      192
REMARK 921   NORMALIZED FREE ENERGY PREDICTED BY IDOCK:   -3.01 KCAL/MOL
REMARK 922        TOTAL FREE ENERGY PREDICTED BY IDOCK:   -4.60 KCAL/MOL
REMARK 923 INTER-LIGAND FREE ENERGY PREDICTED BY IDOCK:   -3.94 KCAL/MOL
REMARK 924 INTRA-LIGAND FREE ENERGY PREDICTED BY IDOCK:   -0.66 KCAL/MOL
REMARK 927      BINDING AFFINITY PREDICTED BY RF-SCORE:    0.00 PKD
ROOT
HETATM    1  C   UNL     1     -11.448  10.214  70.451  1.00  0.00    -0.400 C  
HETATM    2  C   UNL     1     -12.251  11.503  70.596  1.00  0.00    -0.473 C  
ENDROOT
BRANCH   2   3
HETATM    3  C   UNL     1     -11.858  12.584  69.609  1.00  0.00    -0.382 C  
HETATM    4  C   UNL     1     -11.851  12.351  68.285  1.00  0.00    -0.364 C  
BRANCH   3   5
HETATM    5  C   UNL     1     -11.387  13.879  70.217  1.00  0.00     0.055 C  
HETATM    6  O   UNL     1     -11.598  14.104  71.404  1.00  0.00    -0.021 OA 
BRANCH   5   7
HETATM    7  C   UNL     1     -10.753  14.942  69.379  1.00  0.00    -0.264 A  
HETATM    8  C   UNL     1      -9.416  14.854  68.946  1.00  0.00    -0.209 A  
HETATM    9 CL   UNL     1      -8.484  13.410  69.241  1.00  0.00     0.574 Cl 
HETATM   10  C   UNL     1      -8.830  15.924  68.221  1.00  0.00    -0.179 A  
HETATM   11 CL   UNL     1      -7.218  15.741  67.593  1.00  0.00    -0.169 Cl 
HETATM   12  C   UNL     1      -9.579  17.086  67.956  1.00  0.00    -0.260 A  
HETATM   13  C   UNL     1     -11.491  16.097  69.085  1.00  0.00    -0.311 A  
HETATM   14  C   UNL     1     -10.917  17.141  68.360  1.00  0.00    -0.221 A  
BRANCH  12  15
HETATM   15  O   UNL     1      -9.191  18.214  67.270  1.00  0.00    -0.249 OA 
BRANCH  15  16
HETATM   16  C   UNL     1      -9.746  18.410  65.964  1.00  0.00    -0.101 C  
HETATM   17  C   UNL     1     -10.480  19.741  65.888  1.00  0.00    -0.486 C  
HETATM   18  O   UNL     1     -11.072  20.142  64.895  1.00  0.00    -0.112 OA 
HETATM   19  O   UNL     1     -10.411  20.462  67.037  1.00  0.00    -0.365 OA 
ENDBRANCH  15  16
ENDBRANCH  12  15
ENDBRANCH   5   7
ENDBRANCH   3   5
ENDBRANCH   2   3
TORSDOF 5
ENDMDL
MODEL      193
REMARK 921   NORMALIZED FREE ENERGY PREDICTED BY IDOCK:   -2.98 KCAL/MOL
REMARK 922        TOTAL FREE ENERGY PREDICTED BY IDOCK:   -4.56 KCAL/MOL
REMARK 923 INTER-LIGAND FREE ENERGY PREDICTED BY IDOCK:   -3.89 KCAL/MOL
REMARK 924 INTRA-LIGAND FREE ENERGY PREDICTED BY IDOCK:   -0.67 KCAL/MOL
REMARK 927      BINDING AFFINITY PREDICTED BY RF-SCORE:    0.00 PKD
ROOT
HETATM    1  C   UNL     1     -11.858  14.168  68.337  1.00  0.00    -0.388 C  
HETATM    2  C   UNL     1     -11.969  12.649  68.238  1.00  0.00    -0.271 C  
ENDROOT
BRANCH   2   3
HETATM    3  C   UNL     1     -11.086  12.038  67.170  1.00  0.00    -0.344 C  
HETATM    4  C   UNL     1     -11.390  12.153  65.865  1.00  0.00    -0.407 C  
BRANCH   3   5
HETATM    5  C   UNL     1      -9.925  11.223  67.675  1.00  0.00    -0.178 C  
HETATM    6  O   UNL     1      -9.055  11.760  68.351  1.00  0.00    -0.185 OA 
BRANCH   5   7
HETATM    7  C   UNL     1      -9.758   9.789  67.285  1.00  0.00    -0.213 A  
HETATM    8  C   UNL     1      -8.910   9.394  66.232  1.00  0.00    -0.147 A  
HETATM    9 CL   UNL     1      -7.888  10.561  65.434  1.00  0.00    -0.145 Cl 
HETATM   10  C   UNL     1      -8.845   8.031  65.843  1.00  0.00    -0.153 A  
HETATM   11 CL   UNL     1      -7.702   7.551  64.622  1.00  0.00    -0.115 Cl 
HETATM   12  C   UNL     1      -9.648   7.076  66.495  1.00  0.00    -0.144 A  
HETATM   13  C   UNL     1     -10.532   8.820  67.938  1.00  0.00    -0.275 A  
HETATM   14  C   UNL     1     -10.455   7.479  67.563  1.00  0.00    -0.341 A  
BRANCH  12  15
HETATM   15  O   UNL     1      -9.718   5.721  66.265  1.00  0.00    -0.157 OA 
BRANCH  15  16
HETATM   16  C   UNL     1      -9.819   4.866  67.411  1.00  0.00    -0.178 C  
HETATM   17  C   UNL     1      -8.448   4.344  67.812  1.00  0.00    -0.098 C  
HETATM   18  O   UNL     1      -8.253   3.569  68.739  1.00  0.00    -0.067 OA 
HETATM   19  O   UNL     1      -7.439   4.828  67.043  1.00  0.00    -0.084 OA 
ENDBRANCH  15  16
ENDBRANCH  12  15
ENDBRANCH   5   7
ENDBRANCH   3   5
ENDBRANCH   2   3
TORSDOF 5
ENDMDL
MODEL      194
REMARK 921   NORMALIZED FREE ENERGY PREDICTED BY IDOCK:   -2.98 KCAL/MOL
REMARK 922        TOTAL FREE ENERGY PREDICTED BY IDOCK:   -4.55 KCAL/MOL
REMARK 923 INTER-LIGAND FREE ENERGY PREDICTED BY IDOCK:   -4.50 KCAL/MOL
REMARK 924 INTRA-LIGAND FREE ENERGY PREDICTED BY IDOCK:   -0.05 KCAL/MOL
REMARK 927      BINDING AFFINITY PREDICTED BY RF-SCORE:    0.00 PKD
ROOT
HETATM    1  C   UNL     1      -6.119  17.223  69.489  1.00  0.00    -0.247 C  
HETATM    2  C   UNL     1      -7.182  18.202  69.000  1.00  0.00    -0.226 C  
ENDROOT
BRANCH   2   3
HETATM    3  C   UNL     1      -6.827  18.892  67.699  1.00  0.00    -0.225 C  
HETATM    4  C   UNL     1      -5.816  19.776  67.631  1.00  0.00    -0.200 C  
BRANCH   3   5
HETATM    5  C   UNL     1      -7.739  18.597  66.537  1.00  0.00    -0.258 C  
HETATM    6  O   UNL     1      -7.989  19.478  65.723  1.00  0.00    -0.416 OA 
BRANCH   5   7
HETATM    7  C   UNL     1      -8.427  17.276  66.410  1.00  0.00    -0.304 A  
HETATM    8  C   UNL     1      -9.800  17.173  66.112  1.00  0.00    -0.262 A  
HETATM    9 CL   UNL     1     -10.729  18.596  65.722  1.00  0.00    -0.382 Cl 
HETATM   10  C   UNL     1     -10.429  15.901  66.082  1.00  0.00    -0.326 A  
HETATM   11 CL   UNL     1     -12.095  15.790  65.593  1.00  0.00     0.797 Cl 
HETATM   12  C   UNL     1      -9.684  14.742  66.373  1.00  0.00    -0.291 A  
HETATM   13  C   UNL     1      -7.696  16.108  66.673  1.00  0.00    -0.265 A  
HETATM   14  C   UNL     1      -8.314  14.859  66.628  1.00  0.00    -0.059 A  
BRANCH  12  15
HETATM   15  O   UNL     1     -10.111  13.434  66.386  1.00  0.00    -0.278 OA 
BRANCH  15  16
HETATM   16  C   UNL     1     -10.052  12.712  65.150  1.00  0.00    -0.237 C  
HETATM   17  C   UNL     1     -11.421  12.159  64.786  1.00  0.00    -0.322 C  
HETATM   18  O   UNL     1     -11.645  11.477  63.795  1.00  0.00    -0.383 OA 
HETATM   19  O   UNL     1     -12.395  12.502  65.670  1.00  0.00    -0.615 OA 
ENDBRANCH  15  16
ENDBRANCH  12  15
ENDBRANCH   5   7
ENDBRANCH   3   5
ENDBRANCH   2   3
TORSDOF 5
ENDMDL
MODEL      195
REMARK 921   NORMALIZED FREE ENERGY PREDICTED BY IDOCK:   -2.98 KCAL/MOL
REMARK 922        TOTAL FREE ENERGY PREDICTED BY IDOCK:   -4.55 KCAL/MOL
REMARK 923 INTER-LIGAND FREE ENERGY PREDICTED BY IDOCK:   -3.89 KCAL/MOL
REMARK 924 INTRA-LIGAND FREE ENERGY PREDICTED BY IDOCK:   -0.66 KCAL/MOL
REMARK 927      BINDING AFFINITY PREDICTED BY RF-SCORE:    0.00 PKD
ROOT
HETATM    1  C   UNL     1      -7.963   6.381  68.872  1.00  0.00    -0.110 C  
HETATM    2  C   UNL     1      -8.229   7.842  68.523  1.00  0.00    -0.127 C  
ENDROOT
BRANCH   2   3
HETATM    3  C   UNL     1      -6.999   8.724  68.594  1.00  0.00    -0.064 C  
HETATM    4  C   UNL     1      -6.226   8.755  69.694  1.00  0.00    -0.036 C  
BRANCH   3   5
HETATM    5  C   UNL     1      -6.772   9.619  67.405  1.00  0.00    -0.071 C  
HETATM    6  O   UNL     1      -5.765   9.476  66.721  1.00  0.00    -0.049 OA 
BRANCH   5   7
HETATM    7  C   UNL     1      -7.704  10.747  67.096  1.00  0.00    -0.120 A  
HETATM    8  C   UNL     1      -7.573  12.012  67.701  1.00  0.00    -0.136 A  
HETATM    9 CL   UNL     1      -6.208  12.364  68.727  1.00  0.00    -0.068 Cl 
HETATM   10  C   UNL     1      -8.529  13.029  67.441  1.00  0.00    -0.200 A  
HETATM   11 CL   UNL     1      -8.278  14.618  68.103  1.00  0.00    -0.135 Cl 
HETATM   12  C   UNL     1      -9.623  12.764  66.596  1.00  0.00    -0.255 A  
HETATM   13  C   UNL     1      -8.787  10.510  66.238  1.00  0.00    -0.172 A  
HETATM   14  C   UNL     1      -9.717  11.515  65.973  1.00  0.00    -0.253 A  
BRANCH  12  15
HETATM   15  O   UNL     1     -10.638  13.614  66.222  1.00  0.00    -0.283 OA 
BRANCH  15  16
HETATM   16  C   UNL     1     -11.414  13.246  65.076  1.00  0.00    -0.305 C  
HETATM   17  C   UNL     1     -11.940  14.483  64.364  1.00  0.00    -0.449 C  
HETATM   18  O   UNL     1     -12.657  14.452  63.373  1.00  0.00    -0.729 OA 
HETATM   19  O   UNL     1     -11.529  15.648  64.930  1.00  0.00    -0.326 OA 
ENDBRANCH  15  16
ENDBRANCH  12  15
ENDBRANCH   5   7
ENDBRANCH   3   5
ENDBRANCH   2   3
TORSDOF 5
ENDMDL
MODEL      196
REMARK 921   NORMALIZED FREE ENERGY PREDICTED BY IDOCK:   -2.94 KCAL/MOL
REMARK 922        TOTAL FREE ENERGY PREDICTED BY IDOCK:   -4.51 KCAL/MOL
REMARK 923 INTER-LIGAND FREE ENERGY PREDICTED BY IDOCK:   -3.83 KCAL/MOL
REMARK 924 INTRA-LIGAND FREE ENERGY PREDICTED BY IDOCK:   -0.68 KCAL/MOL
REMARK 927      BINDING AFFINITY PREDICTED BY RF-SCORE:    0.00 PKD
ROOT
HETATM    1  C   UNL     1      -5.457  12.630  70.040  1.00  0.00    -0.114 C  
HETATM    2  C   UNL     1      -6.761  12.647  69.249  1.00  0.00    -0.054 C  
ENDROOT
BRANCH   2   3
HETATM    3  C   UNL     1      -7.215  11.278  68.785  1.00  0.00    -0.104 C  
HETATM    4  C   UNL     1      -6.328  10.332  68.430  1.00  0.00    -0.048 C  
BRANCH   3   5
HETATM    5  C   UNL     1      -8.705  11.097  68.658  1.00  0.00    -0.153 C  
HETATM    6  O   UNL     1      -9.405  12.048  68.330  1.00  0.00    -0.200 OA 
BRANCH   5   7
HETATM    7  C   UNL     1      -9.360   9.802  69.017  1.00  0.00    -0.161 A  
HETATM    8  C   UNL     1      -9.847   8.914  68.039  1.00  0.00    -0.168 A  
HETATM    9 CL   UNL     1      -9.560   9.219  66.346  1.00  0.00    -0.276 Cl 
HETATM   10  C   UNL     1     -10.535   7.735  68.427  1.00  0.00    -0.166 A  
HETATM   11 CL   UNL     1     -11.020   6.595  67.205  1.00  0.00    -0.471 Cl 
HETATM   12  C   UNL     1     -10.753   7.465  69.791  1.00  0.00    -0.241 A  
HETATM   13  C   UNL     1      -9.565   9.505  70.372  1.00  0.00    -0.326 A  
HETATM   14  C   UNL     1     -10.229   8.338  70.750  1.00  0.00    -0.219 A  
BRANCH  12  15
HETATM   15  O   UNL     1     -11.386   6.382  70.356  1.00  0.00    -0.336 OA 
BRANCH  15  16
HETATM   16  C   UNL     1     -10.754   5.770  71.488  1.00  0.00    -0.258 C  
HETATM   17  C   UNL     1      -9.919   4.575  71.054  1.00  0.00    -0.187 C  
HETATM   18  O   UNL     1      -9.300   3.855  71.825  1.00  0.00    -0.118 OA 
HETATM   19  O   UNL     1      -9.914   4.379  69.710  1.00  0.00    -0.225 OA 
ENDBRANCH  15  16
ENDBRANCH  12  15
ENDBRANCH   5   7
ENDBRANCH   3   5
ENDBRANCH   2   3
TORSDOF 5
ENDMDL
MODEL      197
REMARK 921   NORMALIZED FREE ENERGY PREDICTED BY IDOCK:   -2.88 KCAL/MOL
REMARK 922        TOTAL FREE ENERGY PREDICTED BY IDOCK:   -4.43 KCAL/MOL
REMARK 923 INTER-LIGAND FREE ENERGY PREDICTED BY IDOCK:   -4.23 KCAL/MOL
REMARK 924 INTRA-LIGAND FREE ENERGY PREDICTED BY IDOCK:   -0.20 KCAL/MOL
REMARK 927      BINDING AFFINITY PREDICTED BY RF-SCORE:    0.00 PKD
ROOT
HETATM    1  C   UNL     1     -11.886  13.654  65.562  1.00  0.00    -0.382 C  
HETATM    2  C   UNL     1     -10.496  13.894  66.141  1.00  0.00    -0.297 C  
ENDROOT
BRANCH   2   3
HETATM    3  C   UNL     1     -10.157  13.000  67.316  1.00  0.00    -0.235 C  
HETATM    4  C   UNL     1      -9.025  13.173  68.020  1.00  0.00    -0.195 C  
BRANCH   3   5
HETATM    5  C   UNL     1     -11.113  11.863  67.564  1.00  0.00    -0.273 C  
HETATM    6  O   UNL     1     -12.282  12.104  67.845  1.00  0.00    -0.438 OA 
BRANCH   5   7
HETATM    7  C   UNL     1     -10.643  10.444  67.570  1.00  0.00    -0.312 A  
HETATM    8  C   UNL     1     -10.598   9.677  68.751  1.00  0.00    -0.216 A  
HETATM    9 CL   UNL     1     -11.243  10.310  70.242  1.00  0.00    -0.368 Cl 
HETATM   10  C   UNL     1     -10.068   8.361  68.725  1.00  0.00    -0.196 A  
HETATM   11 CL   UNL     1     -10.134   7.391  70.168  1.00  0.00    -0.195 Cl 
HETATM   12  C   UNL     1      -9.564   7.830  67.521  1.00  0.00    -0.148 A  
HETATM   13  C   UNL     1     -10.160   9.889  66.377  1.00  0.00    -0.308 A  
HETATM   14  C   UNL     1      -9.653   8.590  66.352  1.00  0.00    -0.314 A  
BRANCH  12  15
HETATM   15  O   UNL     1      -9.023   6.585  67.299  1.00  0.00    -0.115 OA 
BRANCH  15  16
HETATM   16  C   UNL     1      -7.685   6.532  66.791  1.00  0.00    -0.099 C  
HETATM   17  C   UNL     1      -6.737   5.962  67.835  1.00  0.00    -0.058 C  
HETATM   18  O   UNL     1      -5.531   5.837  67.672  1.00  0.00    -0.008 OA 
HETATM   19  O   UNL     1      -7.359   5.590  68.984  1.00  0.00    -0.074 OA 
ENDBRANCH  15  16
ENDBRANCH  12  15
ENDBRANCH   5   7
ENDBRANCH   3   5
ENDBRANCH   2   3
TORSDOF 5
ENDMDL
MODEL      198
REMARK 921   NORMALIZED FREE ENERGY PREDICTED BY IDOCK:   -2.87 KCAL/MOL
REMARK 922        TOTAL FREE ENERGY PREDICTED BY IDOCK:   -4.42 KCAL/MOL
REMARK 923 INTER-LIGAND FREE ENERGY PREDICTED BY IDOCK:   -4.25 KCAL/MOL
REMARK 924 INTRA-LIGAND FREE ENERGY PREDICTED BY IDOCK:   -0.17 KCAL/MOL
REMARK 927      BINDING AFFINITY PREDICTED BY RF-SCORE:    0.00 PKD
ROOT
HETATM    1  C   UNL     1     -10.920  13.475  64.533  1.00  0.00    -0.405 C  
HETATM    2  C   UNL     1     -10.454  12.281  65.360  1.00  0.00    -0.302 C  
ENDROOT
BRANCH   2   3
HETATM    3  C   UNL     1      -9.697  11.239  64.562  1.00  0.00    -0.293 C  
HETATM    4  C   UNL     1      -9.932  11.060  63.250  1.00  0.00    -0.414 C  
BRANCH   3   5
HETATM    5  C   UNL     1      -8.757  10.370  65.354  1.00  0.00    -0.180 C  
HETATM    6  O   UNL     1      -7.547  10.532  65.249  1.00  0.00    -0.141 OA 
BRANCH   5   7
HETATM    7  C   UNL     1      -9.268   9.244  66.195  1.00  0.00    -0.249 A  
HETATM    8  C   UNL     1      -8.848   7.914  65.999  1.00  0.00    -0.158 A  
HETATM    9 CL   UNL     1      -7.584   7.545  64.856  1.00  0.00    -0.093 Cl 
HETATM   10  C   UNL     1      -9.421   6.866  66.766  1.00  0.00    -0.165 A  
HETATM   11 CL   UNL     1      -8.801   5.250  66.590  1.00  0.00    -0.113 Cl 
HETATM   12  C   UNL     1     -10.427   7.154  67.708  1.00  0.00    -0.223 A  
HETATM   13  C   UNL     1     -10.253   9.514  67.155  1.00  0.00    -0.305 A  
HETATM   14  C   UNL     1     -10.804   8.484  67.918  1.00  0.00    -0.045 A  
BRANCH  12  15
HETATM   15  O   UNL     1     -11.089   6.283  68.542  1.00  0.00    -0.334 OA 
BRANCH  15  16
HETATM   16  C   UNL     1     -10.703   6.273  69.922  1.00  0.00    -0.294 C  
HETATM   17  C   UNL     1     -10.053   4.948  70.287  1.00  0.00    -0.252 C  
HETATM   18  O   UNL     1      -9.658   4.664  71.410  1.00  0.00    -0.148 OA 
HETATM   19  O   UNL     1      -9.938   4.094  69.237  1.00  0.00    -0.138 OA 
ENDBRANCH  15  16
ENDBRANCH  12  15
ENDBRANCH   5   7
ENDBRANCH   3   5
ENDBRANCH   2   3
TORSDOF 5
ENDMDL
MODEL      199
REMARK 921   NORMALIZED FREE ENERGY PREDICTED BY IDOCK:   -2.87 KCAL/MOL
REMARK 922        TOTAL FREE ENERGY PREDICTED BY IDOCK:   -4.42 KCAL/MOL
REMARK 923 INTER-LIGAND FREE ENERGY PREDICTED BY IDOCK:   -3.78 KCAL/MOL
REMARK 924 INTRA-LIGAND FREE ENERGY PREDICTED BY IDOCK:   -0.64 KCAL/MOL
REMARK 927      BINDING AFFINITY PREDICTED BY RF-SCORE:    0.00 PKD
ROOT
HETATM    1  C   UNL     1      -9.461   6.175  70.876  1.00  0.00    -0.187 C  
HETATM    2  C   UNL     1     -10.497   6.982  70.099  1.00  0.00    -0.232 C  
ENDROOT
BRANCH   2   3
HETATM    3  C   UNL     1     -10.269   6.992  68.602  1.00  0.00    -0.182 C  
HETATM    4  C   UNL     1     -11.002   6.219  67.780  1.00  0.00    -0.427 C  
BRANCH   3   5
HETATM    5  C   UNL     1      -9.117   7.837  68.125  1.00  0.00    -0.129 C  
HETATM    6  O   UNL     1      -7.968   7.452  68.306  1.00  0.00    -0.119 OA 
BRANCH   5   7
HETATM    7  C   UNL     1      -9.345   9.185  67.521  1.00  0.00    -0.157 A  
HETATM    8  C   UNL     1      -9.183   9.423  66.142  1.00  0.00    -0.190 A  
HETATM    9 CL   UNL     1      -8.860   8.104  65.048  1.00  0.00    -0.006 Cl 
HETATM   10  C   UNL     1      -9.329  10.737  65.624  1.00  0.00    -0.207 A  
HETATM   11 CL   UNL     1      -9.245  10.985  63.904  1.00  0.00    -0.203 Cl 
HETATM   12  C   UNL     1      -9.613  11.807  66.494  1.00  0.00    -0.210 A  
HETATM   13  C   UNL     1      -9.651  10.260  68.368  1.00  0.00    -0.155 A  
HETATM   14  C   UNL     1      -9.808  11.547  67.854  1.00  0.00    -0.192 A  
BRANCH  12  15
HETATM   15  O   UNL     1      -9.796  13.135  66.182  1.00  0.00    -0.281 OA 
BRANCH  15  16
HETATM   16  C   UNL     1     -10.305  13.987  67.215  1.00  0.00    -0.264 C  
HETATM   17  C   UNL     1      -9.376  15.170  67.440  1.00  0.00    -0.196 C  
HETATM   18  O   UNL     1      -9.560  16.035  68.286  1.00  0.00    -0.206 OA 
HETATM   19  O   UNL     1      -8.310  15.188  66.598  1.00  0.00    -0.236 OA 
ENDBRANCH  15  16
ENDBRANCH  12  15
ENDBRANCH   5   7
ENDBRANCH   3   5
ENDBRANCH   2   3
TORSDOF 5
ENDMDL
MODEL      200
REMARK 921   NORMALIZED FREE ENERGY PREDICTED BY IDOCK:   -2.87 KCAL/MOL
REMARK 922        TOTAL FREE ENERGY PREDICTED BY IDOCK:   -4.41 KCAL/MOL
REMARK 923 INTER-LIGAND FREE ENERGY PREDICTED BY IDOCK:   -4.33 KCAL/MOL
REMARK 924 INTRA-LIGAND FREE ENERGY PREDICTED BY IDOCK:   -0.08 KCAL/MOL
REMARK 927      BINDING AFFINITY PREDICTED BY RF-SCORE:    0.00 PKD
ROOT
HETATM    1  C   UNL     1      -6.552   4.712  65.872  1.00  0.00    -0.045 C  
HETATM    2  C   UNL     1      -6.364   5.451  67.193  1.00  0.00    -0.039 C  
ENDROOT
BRANCH   2   3
HETATM    3  C   UNL     1      -6.623   6.941  67.105  1.00  0.00    -0.051 C  
HETATM    4  C   UNL     1      -5.612   7.818  66.974  1.00  0.00    -0.032 C  
BRANCH   3   5
HETATM    5  C   UNL     1      -8.059   7.362  67.274  1.00  0.00    -0.112 C  
HETATM    6  O   UNL     1      -8.816   6.678  67.953  1.00  0.00    -0.117 OA 
BRANCH   5   7
HETATM    7  C   UNL     1      -8.608   8.549  66.549  1.00  0.00    -0.130 A  
HETATM    8  C   UNL     1      -8.630   8.621  65.142  1.00  0.00    -0.173 A  
HETATM    9 CL   UNL     1      -8.156   7.247  64.179  1.00  0.00    -0.086 Cl 
HETATM   10  C   UNL     1      -9.084   9.801  64.497  1.00  0.00    -0.249 A  
HETATM   11 CL   UNL     1      -9.216   9.821  62.762  1.00  0.00    -0.290 Cl 
HETATM   12  C   UNL     1      -9.491  10.909  65.264  1.00  0.00    -0.217 A  
HETATM   13  C   UNL     1      -9.040   9.654  67.296  1.00  0.00    -0.150 A  
HETATM   14  C   UNL     1      -9.499  10.806  66.658  1.00  0.00    -0.201 A  
BRANCH  12  15
HETATM   15  O   UNL     1      -9.964  12.123  64.823  1.00  0.00    -0.255 OA 
BRANCH  15  16
HETATM   16  C   UNL     1     -10.749  12.126  63.625  1.00  0.00    -0.467 C  
HETATM   17  C   UNL     1     -12.227  12.267  63.952  1.00  0.00    -0.515 C  
HETATM   18  O   UNL     1     -13.119  12.267  63.114  1.00  0.00    -0.588 OA 
HETATM   19  O   UNL     1     -12.476  12.405  65.280  1.00  0.00    -0.611 OA 
ENDBRANCH  15  16
ENDBRANCH  12  15
ENDBRANCH   5   7
ENDBRANCH   3   5
ENDBRANCH   2   3
TORSDOF 5
ENDMDL
MODEL      201
REMARK 921   NORMALIZED FREE ENERGY PREDICTED BY IDOCK:   -2.86 KCAL/MOL
REMARK 922        TOTAL FREE ENERGY PREDICTED BY IDOCK:   -4.40 KCAL/MOL
REMARK 923 INTER-LIGAND FREE ENERGY PREDICTED BY IDOCK:   -4.54 KCAL/MOL
REMARK 924 INTRA-LIGAND FREE ENERGY PREDICTED BY IDOCK:    0.14 KCAL/MOL
REMARK 927      BINDING AFFINITY PREDICTED BY RF-SCORE:    0.00 PKD
ROOT
HETATM    1  C   UNL     1      -5.265  16.353  69.878  1.00  0.00    -0.150 C  
HETATM    2  C   UNL     1      -5.458  14.992  69.217  1.00  0.00    -0.094 C  
ENDROOT
BRANCH   2   3
HETATM    3  C   UNL     1      -5.832  13.888  70.184  1.00  0.00    -0.143 C  
HETATM    4  C   UNL     1      -5.516  13.967  71.489  1.00  0.00    -0.223 C  
BRANCH   3   5
HETATM    5  C   UNL     1      -6.479  12.676  69.567  1.00  0.00    -0.078 C  
HETATM    6  O   UNL     1      -5.979  11.569  69.737  1.00  0.00    -0.086 OA 
BRANCH   5   7
HETATM    7  C   UNL     1      -7.668  12.806  68.670  1.00  0.00    -0.064 A  
HETATM    8  C   UNL     1      -7.937  11.874  67.648  1.00  0.00    -0.146 A  
HETATM    9 CL   UNL     1      -6.971  10.431  67.488  1.00  0.00    -0.083 Cl 
HETATM   10  C   UNL     1      -9.030  12.081  66.766  1.00  0.00    -0.198 A  
HETATM   11 CL   UNL     1      -9.415  10.857  65.591  1.00  0.00    -0.234 Cl 
HETATM   12  C   UNL     1      -9.832  13.231  66.899  1.00  0.00    -0.247 A  
HETATM   13  C   UNL     1      -8.492  13.932  68.801  1.00  0.00    -0.008 A  
HETATM   14  C   UNL     1      -9.574  14.125  67.943  1.00  0.00    -0.223 A  
BRANCH  12  15
HETATM   15  O   UNL     1     -10.928  13.598  66.152  1.00  0.00    -0.283 OA 
BRANCH  15  16
HETATM   16  C   UNL     1     -11.003  14.963  65.724  1.00  0.00    -0.345 C  
HETATM   17  C   UNL     1     -11.936  15.100  64.531  1.00  0.00    -0.319 C  
HETATM   18  O   UNL     1     -12.157  16.154  63.950  1.00  0.00    -0.956 OA 
HETATM   19  O   UNL     1     -12.522  13.930  64.166  1.00  0.00    -0.659 OA 
ENDBRANCH  15  16
ENDBRANCH  12  15
ENDBRANCH   5   7
ENDBRANCH   3   5
ENDBRANCH   2   3
TORSDOF 5
ENDMDL
MODEL      202
REMARK 921   NORMALIZED FREE ENERGY PREDICTED BY IDOCK:   -2.85 KCAL/MOL
REMARK 922        TOTAL FREE ENERGY PREDICTED BY IDOCK:   -4.39 KCAL/MOL
REMARK 923 INTER-LIGAND FREE ENERGY PREDICTED BY IDOCK:   -3.55 KCAL/MOL
REMARK 924 INTRA-LIGAND FREE ENERGY PREDICTED BY IDOCK:   -0.84 KCAL/MOL
REMARK 927      BINDING AFFINITY PREDICTED BY RF-SCORE:    0.00 PKD
ROOT
HETATM    1  C   UNL     1     -11.218  11.550  67.321  1.00  0.00    -0.365 C  
HETATM    2  C   UNL     1     -10.257  11.983  68.425  1.00  0.00    -0.211 C  
ENDROOT
BRANCH   2   3
HETATM    3  C   UNL     1      -8.818  11.579  68.178  1.00  0.00    -0.165 C  
HETATM    4  C   UNL     1      -8.055  12.229  67.281  1.00  0.00    -0.182 C  
BRANCH   3   5
HETATM    5  C   UNL     1      -8.349  10.357  68.922  1.00  0.00    -0.138 C  
HETATM    6  O   UNL     1      -7.493  10.468  69.793  1.00  0.00    -0.154 OA 
BRANCH   5   7
HETATM    7  C   UNL     1      -8.836   8.992  68.553  1.00  0.00    -0.134 A  
HETATM    8  C   UNL     1      -9.823   8.323  69.303  1.00  0.00    -0.186 A  
HETATM    9 CL   UNL     1     -10.638   9.132  70.615  1.00  0.00    -0.278 Cl 
HETATM   10  C   UNL     1     -10.196   6.996  68.964  1.00  0.00    -0.187 A  
HETATM   11 CL   UNL     1     -11.501   6.235  69.829  1.00  0.00    -0.508 Cl 
HETATM   12  C   UNL     1      -9.562   6.339  67.892  1.00  0.00    -0.118 A  
HETATM   13  C   UNL     1      -8.234   8.331  67.474  1.00  0.00    -0.122 A  
HETATM   14  C   UNL     1      -8.613   7.032  67.135  1.00  0.00    -0.121 A  
BRANCH  12  15
HETATM   15  O   UNL     1      -9.791   5.070  67.414  1.00  0.00    -0.155 OA 
BRANCH  15  16
HETATM   16  C   UNL     1      -9.214   3.980  68.144  1.00  0.00    -0.153 C  
HETATM   17  C   UNL     1      -9.022   2.772  67.241  1.00  0.00    -0.157 C  
HETATM   18  O   UNL     1      -8.576   1.697  67.618  1.00  0.00    -0.073 OA 
HETATM   19  O   UNL     1      -9.387   2.997  65.952  1.00  0.00    -0.147 OA 
ENDBRANCH  15  16
ENDBRANCH  12  15
ENDBRANCH   5   7
ENDBRANCH   3   5
ENDBRANCH   2   3
TORSDOF 5
ENDMDL
MODEL      203
REMARK 921   NORMALIZED FREE ENERGY PREDICTED BY IDOCK:   -2.84 KCAL/MOL
REMARK 922        TOTAL FREE ENERGY PREDICTED BY IDOCK:   -4.38 KCAL/MOL
REMARK 923 INTER-LIGAND FREE ENERGY PREDICTED BY IDOCK:   -3.79 KCAL/MOL
REMARK 924 INTRA-LIGAND FREE ENERGY PREDICTED BY IDOCK:   -0.59 KCAL/MOL
REMARK 927      BINDING AFFINITY PREDICTED BY RF-SCORE:    0.00 PKD
ROOT
HETATM    1  C   UNL     1      -5.136  15.974  69.218  1.00  0.00    -0.109 C  
HETATM    2  C   UNL     1      -5.210  14.482  68.908  1.00  0.00    -0.088 C  
ENDROOT
BRANCH   2   3
HETATM    3  C   UNL     1      -5.763  13.646  70.045  1.00  0.00    -0.128 C  
HETATM    4  C   UNL     1      -5.200  13.668  71.265  1.00  0.00    -0.171 C  
BRANCH   3   5
HETATM    5  C   UNL     1      -6.904  12.732  69.683  1.00  0.00     0.178 C  
HETATM    6  O   UNL     1      -7.058  11.682  70.296  1.00  0.00     0.279 OA 
BRANCH   5   7
HETATM    7  C   UNL     1      -7.799  13.033  68.524  1.00  0.00    -0.105 A  
HETATM    8  C   UNL     1      -8.666  14.143  68.517  1.00  0.00    -0.166 A  
HETATM    9 CL   UNL     1      -8.616  15.313  69.809  1.00  0.00    -0.111 Cl 
HETATM   10  C   UNL     1      -9.557  14.344  67.430  1.00  0.00    -0.216 A  
HETATM   11 CL   UNL     1     -10.530  15.786  67.387  1.00  0.00    -0.291 Cl 
HETATM   12  C   UNL     1      -9.591  13.419  66.369  1.00  0.00    -0.257 A  
HETATM   13  C   UNL     1      -7.830  12.136  67.446  1.00  0.00    -0.168 A  
HETATM   14  C   UNL     1      -8.697  12.344  66.374  1.00  0.00     0.013 A  
BRANCH  12  15
HETATM   15  O   UNL     1     -10.373  13.448  65.238  1.00  0.00    -0.303 OA 
BRANCH  15  16
HETATM   16  C   UNL     1     -11.203  12.307  64.985  1.00  0.00    -0.321 C  
HETATM   17  C   UNL     1     -12.361  12.679  64.072  1.00  0.00    -0.443 C  
HETATM   18  O   UNL     1     -13.237  11.900  63.723  1.00  0.00    -0.655 OA 
HETATM   19  O   UNL     1     -12.333  13.974  63.664  1.00  0.00    -0.728 OA 
ENDBRANCH  15  16
ENDBRANCH  12  15
ENDBRANCH   5   7
ENDBRANCH   3   5
ENDBRANCH   2   3
TORSDOF 5
ENDMDL
MODEL      204
REMARK 921   NORMALIZED FREE ENERGY PREDICTED BY IDOCK:   -2.79 KCAL/MOL
REMARK 922        TOTAL FREE ENERGY PREDICTED BY IDOCK:   -4.31 KCAL/MOL
REMARK 923 INTER-LIGAND FREE ENERGY PREDICTED BY IDOCK:   -4.12 KCAL/MOL
REMARK 924 INTRA-LIGAND FREE ENERGY PREDICTED BY IDOCK:   -0.19 KCAL/MOL
REMARK 927      BINDING AFFINITY PREDICTED BY RF-SCORE:    0.00 PKD
ROOT
HETATM    1  C   UNL     1     -11.623  15.680  68.830  1.00  0.00    -0.392 C  
HETATM    2  C   UNL     1     -12.014  14.325  68.248  1.00  0.00    -0.346 C  
ENDROOT
BRANCH   2   3
HETATM    3  C   UNL     1     -11.647  14.156  66.788  1.00  0.00    -0.409 C  
HETATM    4  C   UNL     1     -12.591  14.138  65.830  1.00  0.00    -0.475 C  
BRANCH   3   5
HETATM    5  C   UNL     1     -10.188  13.913  66.508  1.00  0.00    -0.280 C  
HETATM    6  O   UNL     1      -9.538  14.756  65.900  1.00  0.00    -0.309 OA 
BRANCH   5   7
HETATM    7  C   UNL     1      -9.535  12.618  66.873  1.00  0.00    -0.229 A  
HETATM    8  C   UNL     1      -9.748  11.439  66.132  1.00  0.00    -0.219 A  
HETATM    9 CL   UNL     1     -10.667  11.479  64.651  1.00  0.00    -0.366 Cl 
HETATM   10  C   UNL     1      -9.174  10.215  66.562  1.00  0.00    -0.153 A  
HETATM   11 CL   UNL     1      -9.350   8.799  65.566  1.00  0.00    -0.221 Cl 
HETATM   12  C   UNL     1      -8.410  10.174  67.745  1.00  0.00    -0.114 A  
HETATM   13  C   UNL     1      -8.752  12.563  68.034  1.00  0.00    -0.186 A  
HETATM   14  C   UNL     1      -8.177  11.360  68.446  1.00  0.00    -0.151 A  
BRANCH  12  15
HETATM   15  O   UNL     1      -7.775   9.094  68.312  1.00  0.00    -0.090 OA 
BRANCH  15  16
HETATM   16  C   UNL     1      -7.307   8.068  67.427  1.00  0.00    -0.089 C  
HETATM   17  C   UNL     1      -5.789   7.976  67.468  1.00  0.00    -0.039 C  
HETATM   18  O   UNL     1      -5.130   7.204  66.785  1.00  0.00    -0.020 OA 
HETATM   19  O   UNL     1      -5.219   8.836  68.352  1.00  0.00    -0.033 OA 
ENDBRANCH  15  16
ENDBRANCH  12  15
ENDBRANCH   5   7
ENDBRANCH   3   5
ENDBRANCH   2   3
TORSDOF 5
ENDMDL
MODEL      205
REMARK 921   NORMALIZED FREE ENERGY PREDICTED BY IDOCK:   -2.79 KCAL/MOL
REMARK 922        TOTAL FREE ENERGY PREDICTED BY IDOCK:   -4.31 KCAL/MOL
REMARK 923 INTER-LIGAND FREE ENERGY PREDICTED BY IDOCK:   -3.78 KCAL/MOL
REMARK 924 INTRA-LIGAND FREE ENERGY PREDICTED BY IDOCK:   -0.53 KCAL/MOL
REMARK 927      BINDING AFFINITY PREDICTED BY RF-SCORE:    0.00 PKD
ROOT
HETATM    1  C   UNL     1     -10.000   7.614  67.109  1.00  0.00    -0.297 C  
HETATM    2  C   UNL     1      -9.525   8.743  66.199  1.00  0.00    -0.315 C  
ENDROOT
BRANCH   2   3
HETATM    3  C   UNL     1      -8.322   9.494  66.731  1.00  0.00    -0.116 C  
HETATM    4  C   UNL     1      -7.119   9.396  66.137  1.00  0.00    -0.091 C  
BRANCH   3   5
HETATM    5  C   UNL     1      -8.547  10.261  68.008  1.00  0.00    -0.118 C  
HETATM    6  O   UNL     1      -8.792   9.653  69.045  1.00  0.00    -0.135 OA 
BRANCH   5   7
HETATM    7  C   UNL     1      -8.575  11.755  68.019  1.00  0.00    -0.158 A  
HETATM    8  C   UNL     1      -7.450  12.521  68.383  1.00  0.00    -0.127 A  
HETATM    9 CL   UNL     1      -5.916  11.750  68.688  1.00  0.00    -0.049 Cl 
HETATM   10  C   UNL     1      -7.545  13.935  68.459  1.00  0.00    -0.134 A  
HETATM   11 CL   UNL     1      -6.113  14.865  68.792  1.00  0.00    -0.082 Cl 
HETATM   12  C   UNL     1      -8.773  14.572  68.192  1.00  0.00    -0.171 A  
HETATM   13  C   UNL     1      -9.782  12.409  67.733  1.00  0.00    -0.201 A  
HETATM   14  C   UNL     1      -9.868  13.799  67.794  1.00  0.00    -0.234 A  
BRANCH  12  15
HETATM   15  O   UNL     1      -9.056  15.918  68.207  1.00  0.00    -0.181 OA 
BRANCH  15  16
HETATM   16  C   UNL     1      -8.832  16.648  66.995  1.00  0.00    -0.199 C  
HETATM   17  C   UNL     1     -10.008  17.566  66.697  1.00  0.00    -0.314 C  
HETATM   18  O   UNL     1     -10.088  18.279  65.706  1.00  0.00    -0.560 OA 
HETATM   19  O   UNL     1     -10.976  17.531  67.650  1.00  0.00    -0.294 OA 
ENDBRANCH  15  16
ENDBRANCH  12  15
ENDBRANCH   5   7
ENDBRANCH   3   5
ENDBRANCH   2   3
TORSDOF 5
ENDMDL
MODEL      206
REMARK 921   NORMALIZED FREE ENERGY PREDICTED BY IDOCK:   -2.72 KCAL/MOL
REMARK 922        TOTAL FREE ENERGY PREDICTED BY IDOCK:   -4.22 KCAL/MOL
REMARK 923 INTER-LIGAND FREE ENERGY PREDICTED BY IDOCK:   -4.29 KCAL/MOL
REMARK 924 INTRA-LIGAND FREE ENERGY PREDICTED BY IDOCK:    0.06 KCAL/MOL
REMARK 927      BINDING AFFINITY PREDICTED BY RF-SCORE:    0.00 PKD
ROOT
HETATM    1  C   UNL     1     -10.152   9.749  65.608  1.00  0.00    -0.282 C  
HETATM    2  C   UNL     1      -8.659   9.513  65.403  1.00  0.00    -0.173 C  
ENDROOT
BRANCH   2   3
HETATM    3  C   UNL     1      -7.776  10.547  66.071  1.00  0.00    -0.147 C  
HETATM    4  C   UNL     1      -6.453  10.591  65.837  1.00  0.00    -0.127 C  
BRANCH   3   5
HETATM    5  C   UNL     1      -8.463  11.436  67.075  1.00  0.00    -0.159 C  
HETATM    6  O   UNL     1      -8.497  12.647  66.890  1.00  0.00    -0.184 OA 
BRANCH   5   7
HETATM    7  C   UNL     1      -9.021  10.880  68.346  1.00  0.00    -0.154 A  
HETATM    8  C   UNL     1      -8.242  10.108  69.230  1.00  0.00    -0.156 A  
HETATM    9 CL   UNL     1      -6.533   9.899  68.951  1.00  0.00    -0.045 Cl 
HETATM   10  C   UNL     1      -8.835   9.532  70.384  1.00  0.00    -0.234 A  
HETATM   11 CL   UNL     1      -7.827   8.685  71.522  1.00  0.00    -0.159 Cl 
HETATM   12  C   UNL     1     -10.209   9.713  70.632  1.00  0.00    -0.278 A  
HETATM   13  C   UNL     1     -10.382  11.070  68.623  1.00  0.00    -0.209 A  
HETATM   14  C   UNL     1     -10.958  10.514  69.766  1.00  0.00    -0.350 A  
BRANCH  12  15
HETATM   15  O   UNL     1     -10.953   9.244  71.690  1.00  0.00    -0.355 OA 
BRANCH  15  16
HETATM   16  C   UNL     1     -12.347   9.008  71.458  1.00  0.00    -0.331 C  
HETATM   17  C   UNL     1     -12.698   7.554  71.732  1.00  0.00    -0.331 C  
HETATM   18  O   UNL     1     -13.815   7.077  71.582  1.00  0.00    -0.346 OA 
HETATM   19  O   UNL     1     -11.645   6.818  72.175  1.00  0.00    -0.269 OA 
ENDBRANCH  15  16
ENDBRANCH  12  15
ENDBRANCH   5   7
ENDBRANCH   3   5
ENDBRANCH   2   3
TORSDOF 5
ENDMDL
MODEL      207
REMARK 921   NORMALIZED FREE ENERGY PREDICTED BY IDOCK:   -2.71 KCAL/MOL
REMARK 922        TOTAL FREE ENERGY PREDICTED BY IDOCK:   -4.21 KCAL/MOL
REMARK 923 INTER-LIGAND FREE ENERGY PREDICTED BY IDOCK:   -3.66 KCAL/MOL
REMARK 924 INTRA-LIGAND FREE ENERGY PREDICTED BY IDOCK:   -0.54 KCAL/MOL
REMARK 927      BINDING AFFINITY PREDICTED BY RF-SCORE:    0.00 PKD
ROOT
HETATM    1  C   UNL     1      -9.202  10.926  63.705  1.00  0.00    -0.233 C  
HETATM    2  C   UNL     1     -10.493  10.788  64.506  1.00  0.00    -0.351 C  
ENDROOT
BRANCH   2   3
HETATM    3  C   UNL     1     -10.605  11.762  65.661  1.00  0.00    -0.314 C  
HETATM    4  C   UNL     1     -11.319  12.896  65.551  1.00  0.00    -0.340 C  
BRANCH   3   5
HETATM    5  C   UNL     1      -9.789  11.420  66.880  1.00  0.00    -0.193 C  
HETATM    6  O   UNL     1      -9.060  12.270  67.380  1.00  0.00    -0.172 OA 
BRANCH   5   7
HETATM    7  C   UNL     1      -9.774  10.033  67.438  1.00  0.00    -0.196 A  
HETATM    8  C   UNL     1     -10.515   9.680  68.583  1.00  0.00    -0.210 A  
HETATM    9 CL   UNL     1     -11.614  10.821  69.312  1.00  0.00    -0.354 Cl 
HETATM   10  C   UNL     1     -10.407   8.373  69.126  1.00  0.00    -0.220 A  
HETATM   11 CL   UNL     1     -11.422   7.925  70.466  1.00  0.00    -0.246 Cl 
HETATM   12  C   UNL     1      -9.541   7.435  68.532  1.00  0.00    -0.146 A  
HETATM   13  C   UNL     1      -8.936   9.078  66.846  1.00  0.00    -0.144 A  
HETATM   14  C   UNL     1      -8.843   7.790  67.374  1.00  0.00    -0.128 A  
BRANCH  12  15
HETATM   15  O   UNL     1      -9.310   6.131  68.906  1.00  0.00    -0.124 OA 
BRANCH  15  16
HETATM   16  C   UNL     1      -8.436   5.913  70.020  1.00  0.00    -0.126 C  
HETATM   17  C   UNL     1      -8.067   4.442  70.132  1.00  0.00    -0.059 C  
HETATM   18  O   UNL     1      -7.357   3.978  71.014  1.00  0.00    -0.039 OA 
HETATM   19  O   UNL     1      -8.595   3.676  69.143  1.00  0.00    -0.070 OA 
ENDBRANCH  15  16
ENDBRANCH  12  15
ENDBRANCH   5   7
ENDBRANCH   3   5
ENDBRANCH   2   3
TORSDOF 5
ENDMDL
MODEL      208
REMARK 921   NORMALIZED FREE ENERGY PREDICTED BY IDOCK:   -2.71 KCAL/MOL
REMARK 922        TOTAL FREE ENERGY PREDICTED BY IDOCK:   -4.21 KCAL/MOL
REMARK 923 INTER-LIGAND FREE ENERGY PREDICTED BY IDOCK:   -3.45 KCAL/MOL
REMARK 924 INTRA-LIGAND FREE ENERGY PREDICTED BY IDOCK:   -0.76 KCAL/MOL
REMARK 927      BINDING AFFINITY PREDICTED BY RF-SCORE:    0.00 PKD
ROOT
HETATM    1  C   UNL     1     -12.683  13.658  65.518  1.00  0.00    -0.514 C  
HETATM    2  C   UNL     1     -11.304  13.871  64.901  1.00  0.00    -0.349 C  
ENDROOT
BRANCH   2   3
HETATM    3  C   UNL     1     -10.174  13.246  65.695  1.00  0.00    -0.295 C  
HETATM    4  C   UNL     1      -9.305  14.004  66.387  1.00  0.00    -0.242 C  
BRANCH   3   5
HETATM    5  C   UNL     1     -10.040  11.751  65.567  1.00  0.00    -0.249 C  
HETATM    6  O   UNL     1     -10.497  11.183  64.582  1.00  0.00    -0.309 OA 
BRANCH   5   7
HETATM    7  C   UNL     1      -9.446  10.932  66.667  1.00  0.00    -0.204 A  
HETATM    8  C   UNL     1      -8.229  10.240  66.510  1.00  0.00    -0.127 A  
HETATM    9 CL   UNL     1      -7.277  10.442  65.063  1.00  0.00    -0.104 Cl 
HETATM   10  C   UNL     1      -7.743   9.408  67.552  1.00  0.00    -0.091 A  
HETATM   11 CL   UNL     1      -6.180   8.661  67.383  1.00  0.00    -0.055 Cl 
HETATM   12  C   UNL     1      -8.491   9.254  68.735  1.00  0.00    -0.129 A  
HETATM   13  C   UNL     1     -10.165  10.786  67.862  1.00  0.00    -0.203 A  
HETATM   14  C   UNL     1      -9.678   9.978  68.890  1.00  0.00    -0.181 A  
BRANCH  12  15
HETATM   15  O   UNL     1      -8.184   8.505  69.847  1.00  0.00    -0.115 OA 
BRANCH  15  16
HETATM   16  C   UNL     1      -8.360   7.086  69.751  1.00  0.00    -0.132 C  
HETATM   17  C   UNL     1      -7.089   6.359  70.164  1.00  0.00    -0.074 C  
HETATM   18  O   UNL     1      -6.957   5.143  70.145  1.00  0.00    -0.049 OA 
HETATM   19  O   UNL     1      -6.098   7.194  70.572  1.00  0.00    -0.027 OA 
ENDBRANCH  15  16
ENDBRANCH  12  15
ENDBRANCH   5   7
ENDBRANCH   3   5
ENDBRANCH   2   3
TORSDOF 5
ENDMDL
MODEL      209
REMARK 921   NORMALIZED FREE ENERGY PREDICTED BY IDOCK:   -2.70 KCAL/MOL
REMARK 922        TOTAL FREE ENERGY PREDICTED BY IDOCK:   -4.19 KCAL/MOL
REMARK 923 INTER-LIGAND FREE ENERGY PREDICTED BY IDOCK:   -3.33 KCAL/MOL
REMARK 924 INTRA-LIGAND FREE ENERGY PREDICTED BY IDOCK:   -0.86 KCAL/MOL
REMARK 927      BINDING AFFINITY PREDICTED BY RF-SCORE:    0.00 PKD
ROOT
HETATM    1  C   UNL     1      -6.945  10.165  70.102  1.00  0.00    -0.157 C  
HETATM    2  C   UNL     1      -7.764   9.994  68.826  1.00  0.00    -0.085 C  
ENDROOT
BRANCH   2   3
HETATM    3  C   UNL     1      -9.072  10.759  68.830  1.00  0.00    -0.170 C  
HETATM    4  C   UNL     1      -9.158  11.996  68.312  1.00  0.00    -0.190 C  
BRANCH   3   5
HETATM    5  C   UNL     1     -10.217  10.082  69.536  1.00  0.00    -0.234 C  
HETATM    6  O   UNL     1     -11.090  10.762  70.065  1.00  0.00    -0.279 OA 
BRANCH   5   7
HETATM    7  C   UNL     1     -10.262   8.596  69.690  1.00  0.00    -0.208 A  
HETATM    8  C   UNL     1      -9.907   7.959  70.895  1.00  0.00    -0.178 A  
HETATM    9 CL   UNL     1      -9.547   8.898  72.320  1.00  0.00    -0.265 Cl 
HETATM   10  C   UNL     1      -9.885   6.541  70.972  1.00  0.00    -0.179 A  
HETATM   11 CL   UNL     1      -9.561   5.780  72.502  1.00  0.00    -0.165 Cl 
HETATM   12  C   UNL     1     -10.195   5.772  69.835  1.00  0.00    -0.236 A  
HETATM   13  C   UNL     1     -10.592   7.813  68.576  1.00  0.00    -0.153 A  
HETATM   14  C   UNL     1     -10.583   6.420  68.658  1.00  0.00    -0.300 A  
BRANCH  12  15
HETATM   15  O   UNL     1     -10.235   4.402  69.717  1.00  0.00    -0.151 OA 
BRANCH  15  16
HETATM   16  C   UNL     1      -8.989   3.725  69.511  1.00  0.00    -0.106 C  
HETATM   17  C   UNL     1      -8.794   2.632  70.550  1.00  0.00    -0.082 C  
HETATM   18  O   UNL     1      -7.800   1.922  70.621  1.00  0.00    -0.039 OA 
HETATM   19  O   UNL     1      -9.843   2.504  71.403  1.00  0.00    -0.155 OA 
ENDBRANCH  15  16
ENDBRANCH  12  15
ENDBRANCH   5   7
ENDBRANCH   3   5
ENDBRANCH   2   3
TORSDOF 5
ENDMDL
MODEL      210
REMARK 921   NORMALIZED FREE ENERGY PREDICTED BY IDOCK:   -2.69 KCAL/MOL
REMARK 922        TOTAL FREE ENERGY PREDICTED BY IDOCK:   -4.18 KCAL/MOL
REMARK 923 INTER-LIGAND FREE ENERGY PREDICTED BY IDOCK:   -3.75 KCAL/MOL
REMARK 924 INTRA-LIGAND FREE ENERGY PREDICTED BY IDOCK:   -0.43 KCAL/MOL
REMARK 927      BINDING AFFINITY PREDICTED BY RF-SCORE:    0.00 PKD
ROOT
HETATM    1  C   UNL     1     -10.390  13.551  67.974  1.00  0.00    -0.241 C  
HETATM    2  C   UNL     1      -9.291  13.021  67.058  1.00  0.00    -0.236 C  
ENDROOT
BRANCH   2   3
HETATM    3  C   UNL     1      -9.480  11.575  66.648  1.00  0.00    -0.208 C  
HETATM    4  C   UNL     1     -10.535  11.192  65.907  1.00  0.00    -0.310 C  
BRANCH   3   5
HETATM    5  C   UNL     1      -8.473  10.604  67.207  1.00  0.00    -0.126 C  
HETATM    6  O   UNL     1      -7.622  10.122  66.469  1.00  0.00    -0.103 OA 
BRANCH   5   7
HETATM    7  C   UNL     1      -8.551  10.141  68.626  1.00  0.00    -0.123 A  
HETATM    8  C   UNL     1      -7.397   9.879  69.391  1.00  0.00    -0.091 A  
HETATM    9 CL   UNL     1      -5.814  10.240  68.755  1.00  0.00    -0.041 Cl 
HETATM   10  C   UNL     1      -7.518   9.362  70.707  1.00  0.00    -0.112 A  
HETATM   11 CL   UNL     1      -6.085   9.162  71.674  1.00  0.00    -0.077 Cl 
HETATM   12  C   UNL     1      -8.792   9.088  71.240  1.00  0.00    -0.189 A  
HETATM   13  C   UNL     1      -9.811   9.885  69.183  1.00  0.00    -0.204 A  
HETATM   14  C   UNL     1      -9.927   9.391  70.482  1.00  0.00    -0.328 A  
BRANCH  12  15
HETATM   15  O   UNL     1      -9.107   8.597  72.486  1.00  0.00    -0.322 OA 
BRANCH  15  16
HETATM   16  C   UNL     1      -9.203   7.174  72.625  1.00  0.00    -0.138 C  
HETATM   17  C   UNL     1     -10.625   6.764  72.976  1.00  0.00    -0.267 C  
HETATM   18  O   UNL     1     -10.975   5.610  73.181  1.00  0.00    -0.259 OA 
HETATM   19  O   UNL     1     -11.490   7.810  73.034  1.00  0.00    -0.372 OA 
ENDBRANCH  15  16
ENDBRANCH  12  15
ENDBRANCH   5   7
ENDBRANCH   3   5
ENDBRANCH   2   3
TORSDOF 5
ENDMDL
MODEL      211
REMARK 921   NORMALIZED FREE ENERGY PREDICTED BY IDOCK:   -2.61 KCAL/MOL
REMARK 922        TOTAL FREE ENERGY PREDICTED BY IDOCK:   -4.08 KCAL/MOL
REMARK 923 INTER-LIGAND FREE ENERGY PREDICTED BY IDOCK:   -3.64 KCAL/MOL
REMARK 924 INTRA-LIGAND FREE ENERGY PREDICTED BY IDOCK:   -0.45 KCAL/MOL
REMARK 927      BINDING AFFINITY PREDICTED BY RF-SCORE:    0.00 PKD
ROOT
HETATM    1  C   UNL     1     -13.116  14.774  71.359  1.00  0.00    -0.424 C  
HETATM    2  C   UNL     1     -12.582  13.599  70.545  1.00  0.00    -0.337 C  
ENDROOT
BRANCH   2   3
HETATM    3  C   UNL     1     -11.416  13.955  69.646  1.00  0.00    -0.310 C  
HETATM    4  C   UNL     1     -10.588  14.972  69.947  1.00  0.00    -0.207 C  
BRANCH   3   5
HETATM    5  C   UNL     1     -11.318  13.168  68.366  1.00  0.00    -0.289 C  
HETATM    6  O   UNL     1     -12.237  13.211  67.556  1.00  0.00    -0.282 OA 
BRANCH   5   7
HETATM    7  C   UNL     1     -10.164  12.255  68.106  1.00  0.00    -0.212 A  
HETATM    8  C   UNL     1      -9.884  11.149  68.932  1.00  0.00    -0.162 A  
HETATM    9 CL   UNL     1     -10.979  10.704  70.215  1.00  0.00    -0.303 Cl 
HETATM   10  C   UNL     1      -8.730  10.357  68.696  1.00  0.00    -0.138 A  
HETATM   11 CL   UNL     1      -8.472   8.927  69.653  1.00  0.00    -0.125 Cl 
HETATM   12  C   UNL     1      -7.851  10.692  67.648  1.00  0.00    -0.105 A  
HETATM   13  C   UNL     1      -9.289  12.558  67.053  1.00  0.00    -0.210 A  
HETATM   14  C   UNL     1      -8.164  11.769  66.814  1.00  0.00    -0.147 A  
BRANCH  12  15
HETATM   15  O   UNL     1      -6.698  10.047  67.264  1.00  0.00    -0.072 OA 
BRANCH  15  16
HETATM   16  C   UNL     1      -6.258  10.240  65.914  1.00  0.00    -0.105 C  
HETATM   17  C   UNL     1      -6.506   8.989  65.086  1.00  0.00    -0.071 C  
HETATM   18  O   UNL     1      -6.195   8.873  63.908  1.00  0.00    -0.075 OA 
HETATM   19  O   UNL     1      -7.122   7.996  65.778  1.00  0.00    -0.062 OA 
ENDBRANCH  15  16
ENDBRANCH  12  15
ENDBRANCH   5   7
ENDBRANCH   3   5
ENDBRANCH   2   3
TORSDOF 5
ENDMDL
MODEL      212
REMARK 921   NORMALIZED FREE ENERGY PREDICTED BY IDOCK:   -2.56 KCAL/MOL
REMARK 922        TOTAL FREE ENERGY PREDICTED BY IDOCK:   -4.01 KCAL/MOL
REMARK 923 INTER-LIGAND FREE ENERGY PREDICTED BY IDOCK:   -3.34 KCAL/MOL
REMARK 924 INTRA-LIGAND FREE ENERGY PREDICTED BY IDOCK:   -0.68 KCAL/MOL
REMARK 927      BINDING AFFINITY PREDICTED BY RF-SCORE:    0.00 PKD
ROOT
HETATM    1  C   UNL     1      -9.324  13.134  67.786  1.00  0.00    -0.206 C  
HETATM    2  C   UNL     1      -7.898  12.770  68.187  1.00  0.00    -0.146 C  
ENDROOT
BRANCH   2   3
HETATM    3  C   UNL     1      -7.607  11.284  68.135  1.00  0.00    -0.105 C  
HETATM    4  C   UNL     1      -7.547  10.625  66.964  1.00  0.00    -0.110 C  
BRANCH   3   5
HETATM    5  C   UNL     1      -7.496  10.597  69.471  1.00  0.00    -0.130 C  
HETATM    6  O   UNL     1      -6.733  11.042  70.320  1.00  0.00    -0.230 OA 
BRANCH   5   7
HETATM    7  C   UNL     1      -8.227   9.322  69.748  1.00  0.00    -0.131 A  
HETATM    8  C   UNL     1      -7.657   8.061  69.486  1.00  0.00    -0.101 A  
HETATM    9 CL   UNL     1      -5.997   7.932  68.967  1.00  0.00    -0.037 Cl 
HETATM   10  C   UNL     1      -8.418   6.880  69.688  1.00  0.00    -0.133 A  
HETATM   11 CL   UNL     1      -7.653   5.332  69.473  1.00  0.00    -0.068 Cl 
HETATM   12  C   UNL     1      -9.752   6.970  70.128  1.00  0.00    -0.175 A  
HETATM   13  C   UNL     1      -9.549   9.391  70.210  1.00  0.00    -0.294 A  
HETATM   14  C   UNL     1     -10.289   8.228  70.421  1.00  0.00    -0.214 A  
BRANCH  12  15
HETATM   15  O   UNL     1     -10.636   5.948  70.385  1.00  0.00    -0.242 OA 
BRANCH  15  16
HETATM   16  C   UNL     1     -10.384   5.138  71.540  1.00  0.00    -0.208 C  
HETATM   17  C   UNL     1     -11.459   5.356  72.593  1.00  0.00    -0.241 C  
HETATM   18  O   UNL     1     -11.468   4.810  73.688  1.00  0.00    -0.273 OA 
HETATM   19  O   UNL     1     -12.433   6.218  72.201  1.00  0.00    -0.291 OA 
ENDBRANCH  15  16
ENDBRANCH  12  15
ENDBRANCH   5   7
ENDBRANCH   3   5
ENDBRANCH   2   3
TORSDOF 5
ENDMDL
MODEL      213
REMARK 921   NORMALIZED FREE ENERGY PREDICTED BY IDOCK:   -2.48 KCAL/MOL
REMARK 922        TOTAL FREE ENERGY PREDICTED BY IDOCK:   -3.91 KCAL/MOL
REMARK 923 INTER-LIGAND FREE ENERGY PREDICTED BY IDOCK:   -3.24 KCAL/MOL
REMARK 924 INTRA-LIGAND FREE ENERGY PREDICTED BY IDOCK:   -0.67 KCAL/MOL
REMARK 927      BINDING AFFINITY PREDICTED BY RF-SCORE:    0.00 PKD
ROOT
HETATM    1  C   UNL     1      -6.684   5.174  66.213  1.00  0.00    -0.057 C  
HETATM    2  C   UNL     1      -7.234   5.906  67.434  1.00  0.00    -0.076 C  
ENDROOT
BRANCH   2   3
HETATM    3  C   UNL     1      -7.316   7.409  67.262  1.00  0.00    -0.098 C  
HETATM    4  C   UNL     1      -6.690   8.030  66.246  1.00  0.00    -0.054 C  
BRANCH   3   5
HETATM    5  C   UNL     1      -8.049   8.148  68.350  1.00  0.00    -0.128 C  
HETATM    6  O   UNL     1      -8.392   7.551  69.364  1.00  0.00    -0.128 OA 
BRANCH   5   7
HETATM    7  C   UNL     1      -8.455   9.576  68.176  1.00  0.00    -0.119 A  
HETATM    8  C   UNL     1      -9.566   9.948  67.394  1.00  0.00    -0.155 A  
HETATM    9 CL   UNL     1     -10.617   8.733  66.716  1.00  0.00    -0.287 Cl 
HETATM   10  C   UNL     1      -9.866  11.320  67.190  1.00  0.00    -0.190 A  
HETATM   11 CL   UNL     1     -11.310  11.753  66.321  1.00  0.00    -0.380 Cl 
HETATM   12  C   UNL     1      -9.038  12.311  67.751  1.00  0.00    -0.191 A  
HETATM   13  C   UNL     1      -7.657  10.577  68.747  1.00  0.00    -0.101 A  
HETATM   14  C   UNL     1      -7.963  11.925  68.557  1.00  0.00    -0.137 A  
BRANCH  12  15
HETATM   15  O   UNL     1      -9.170  13.678  67.671  1.00  0.00    -0.195 OA 
BRANCH  15  16
HETATM   16  C   UNL     1     -10.190  14.287  68.472  1.00  0.00    -0.245 C  
HETATM   17  C   UNL     1      -9.595  15.352  69.380  1.00  0.00    -0.270 C  
HETATM   18  O   UNL     1     -10.241  16.004  70.189  1.00  0.00    -0.208 OA 
HETATM   19  O   UNL     1      -8.259  15.526  69.205  1.00  0.00    -0.224 OA 
ENDBRANCH  15  16
ENDBRANCH  12  15
ENDBRANCH   5   7
ENDBRANCH   3   5
ENDBRANCH   2   3
TORSDOF 5
ENDMDL
MODEL      214
REMARK 921   NORMALIZED FREE ENERGY PREDICTED BY IDOCK:   -2.47 KCAL/MOL
REMARK 922        TOTAL FREE ENERGY PREDICTED BY IDOCK:   -3.90 KCAL/MOL
REMARK 923 INTER-LIGAND FREE ENERGY PREDICTED BY IDOCK:   -3.21 KCAL/MOL
REMARK 924 INTRA-LIGAND FREE ENERGY PREDICTED BY IDOCK:   -0.69 KCAL/MOL
REMARK 927      BINDING AFFINITY PREDICTED BY RF-SCORE:    0.00 PKD
ROOT
HETATM    1  C   UNL     1      -9.177   2.046  73.171  1.00  0.00    -0.085 C  
HETATM    2  C   UNL     1      -8.635   3.417  73.565  1.00  0.00    -0.074 C  
ENDROOT
BRANCH   2   3
HETATM    3  C   UNL     1      -9.261   4.566  72.802  1.00  0.00    -0.145 C  
HETATM    4  C   UNL     1     -10.595   4.720  72.744  1.00  0.00    -0.272 C  
BRANCH   3   5
HETATM    5  C   UNL     1      -8.299   5.444  72.045  1.00  0.00    -0.122 C  
HETATM    6  O   UNL     1      -7.123   5.492  72.388  1.00  0.00    -0.079 OA 
BRANCH   5   7
HETATM    7  C   UNL     1      -8.769   6.334  70.940  1.00  0.00    -0.136 A  
HETATM    8  C   UNL     1      -9.277   7.625  71.186  1.00  0.00    -0.147 A  
HETATM    9 CL   UNL     1      -9.231   8.303  72.792  1.00  0.00    -0.332 Cl 
HETATM   10  C   UNL     1      -9.789   8.404  70.115  1.00  0.00    -0.181 A  
HETATM   11 CL   UNL     1     -10.298  10.039  70.425  1.00  0.00    -0.322 Cl 
HETATM   12  C   UNL     1      -9.811   7.877  68.810  1.00  0.00    -0.167 A  
HETATM   13  C   UNL     1      -8.776   5.836  69.630  1.00  0.00    -0.122 A  
HETATM   14  C   UNL     1      -9.267   6.610  68.578  1.00  0.00    -0.127 A  
BRANCH  12  15
HETATM   15  O   UNL     1     -10.256   8.477  67.655  1.00  0.00    -0.205 OA 
BRANCH  15  16
HETATM   16  C   UNL     1      -9.381   9.423  67.028  1.00  0.00    -0.148 C  
HETATM   17  C   UNL     1     -10.167  10.617  66.508  1.00  0.00    -0.233 C  
HETATM   18  O   UNL     1      -9.668  11.556  65.903  1.00  0.00    -0.218 OA 
HETATM   19  O   UNL     1     -11.495  10.552  66.786  1.00  0.00    -0.099 OA 
ENDBRANCH  15  16
ENDBRANCH  12  15
ENDBRANCH   5   7
ENDBRANCH   3   5
ENDBRANCH   2   3
TORSDOF 5
ENDMDL
MODEL      215
REMARK 921   NORMALIZED FREE ENERGY PREDICTED BY IDOCK:   -2.43 KCAL/MOL
REMARK 922        TOTAL FREE ENERGY PREDICTED BY IDOCK:   -3.85 KCAL/MOL
REMARK 923 INTER-LIGAND FREE ENERGY PREDICTED BY IDOCK:   -3.65 KCAL/MOL
REMARK 924 INTRA-LIGAND FREE ENERGY PREDICTED BY IDOCK:   -0.20 KCAL/MOL
REMARK 927      BINDING AFFINITY PREDICTED BY RF-SCORE:    0.00 PKD
ROOT
HETATM    1  C   UNL     1     -12.806  12.033  71.960  1.00  0.00    -0.251 C  
HETATM    2  C   UNL     1     -12.328  13.482  71.976  1.00  0.00     0.125 C  
ENDROOT
BRANCH   2   3
HETATM    3  C   UNL     1     -13.055  14.378  70.994  1.00  0.00    -0.417 C  
HETATM    4  C   UNL     1     -14.342  14.719  71.181  1.00  0.00    -0.271 C  
BRANCH   3   5
HETATM    5  C   UNL     1     -12.272  14.765  69.767  1.00  0.00    -0.294 C  
HETATM    6  O   UNL     1     -12.287  15.929  69.380  1.00  0.00    -0.209 OA 
BRANCH   5   7
HETATM    7  C   UNL     1     -11.554  13.739  68.951  1.00  0.00    -0.358 A  
HETATM    8  C   UNL     1     -10.314  14.004  68.339  1.00  0.00    -0.251 A  
HETATM    9 CL   UNL     1      -9.482  15.507  68.641  1.00  0.00    -0.196 Cl 
HETATM   10  C   UNL     1      -9.707  13.028  67.506  1.00  0.00    -0.206 A  
HETATM   11 CL   UNL     1      -8.120  13.333  66.860  1.00  0.00    -0.013 Cl 
HETATM   12  C   UNL     1     -10.358  11.802  67.272  1.00  0.00    -0.206 A  
HETATM   13  C   UNL     1     -12.175  12.502  68.726  1.00  0.00     0.019 A  
HETATM   14  C   UNL     1     -11.569  11.540  67.919  1.00  0.00    -0.352 A  
BRANCH  12  15
HETATM   15  O   UNL     1      -9.929  10.741  66.509  1.00  0.00    -0.199 OA 
BRANCH  15  16
HETATM   16  C   UNL     1     -10.722   9.548  66.540  1.00  0.00     0.039 C  
HETATM   17  C   UNL     1      -9.874   8.351  66.943  1.00  0.00    -0.245 C  
HETATM   18  O   UNL     1     -10.296   7.205  67.017  1.00  0.00    -0.242 OA 
HETATM   19  O   UNL     1      -8.585   8.672  67.227  1.00  0.00    -0.124 OA 
ENDBRANCH  15  16
ENDBRANCH  12  15
ENDBRANCH   5   7
ENDBRANCH   3   5
ENDBRANCH   2   3
TORSDOF 5
ENDMDL
MODEL      216
REMARK 921   NORMALIZED FREE ENERGY PREDICTED BY IDOCK:   -2.42 KCAL/MOL
REMARK 922        TOTAL FREE ENERGY PREDICTED BY IDOCK:   -3.84 KCAL/MOL
REMARK 923 INTER-LIGAND FREE ENERGY PREDICTED BY IDOCK:   -3.03 KCAL/MOL
REMARK 924 INTRA-LIGAND FREE ENERGY PREDICTED BY IDOCK:   -0.81 KCAL/MOL
REMARK 927      BINDING AFFINITY PREDICTED BY RF-SCORE:    0.00 PKD
ROOT
HETATM    1  C   UNL     1      -7.464  10.970  69.373  1.00  0.00    -0.074 C  
HETATM    2  C   UNL     1      -6.898   9.982  68.359  1.00  0.00    -0.062 C  
ENDROOT
BRANCH   2   3
HETATM    3  C   UNL     1      -6.924  10.486  66.930  1.00  0.00    -0.096 C  
HETATM    4  C   UNL     1      -5.971  11.313  66.465  1.00  0.00    -0.144 C  
BRANCH   3   5
HETATM    5  C   UNL     1      -8.129  10.084  66.121  1.00  0.00    -0.122 C  
HETATM    6  O   UNL     1      -8.791  10.943  65.550  1.00  0.00    -0.190 OA 
BRANCH   5   7
HETATM    7  C   UNL     1      -8.593   8.663  66.079  1.00  0.00    -0.173 A  
HETATM    8  C   UNL     1      -9.601   8.180  66.937  1.00  0.00    -0.208 A  
HETATM    9 CL   UNL     1     -10.466   9.271  67.987  1.00  0.00    -0.270 Cl 
HETATM   10  C   UNL     1      -9.952   6.805  66.919  1.00  0.00    -0.191 A  
HETATM   11 CL   UNL     1     -11.281   6.257  67.901  1.00  0.00    -0.351 Cl 
HETATM   12  C   UNL     1      -9.277   5.919  66.059  1.00  0.00    -0.128 A  
HETATM   13  C   UNL     1      -7.949   7.770  65.212  1.00  0.00    -0.127 A  
HETATM   14  C   UNL     1      -8.307   6.422  65.187  1.00  0.00    -0.109 A  
BRANCH  12  15
HETATM   15  O   UNL     1      -9.480   4.568  65.897  1.00  0.00    -0.145 OA 
BRANCH  15  16
HETATM   16  C   UNL     1     -10.607   4.164  65.109  1.00  0.00    -0.117 C  
HETATM   17  C   UNL     1     -10.163   3.286  63.949  1.00  0.00    -0.207 C  
HETATM   18  O   UNL     1     -10.921   2.830  63.104  1.00  0.00    -0.226 OA 
HETATM   19  O   UNL     1      -8.827   3.040  63.938  1.00  0.00    -0.092 OA 
ENDBRANCH  15  16
ENDBRANCH  12  15
ENDBRANCH   5   7
ENDBRANCH   3   5
ENDBRANCH   2   3
TORSDOF 5
ENDMDL
MODEL      217
REMARK 921   NORMALIZED FREE ENERGY PREDICTED BY IDOCK:   -2.40 KCAL/MOL
REMARK 922        TOTAL FREE ENERGY PREDICTED BY IDOCK:   -3.81 KCAL/MOL
REMARK 923 INTER-LIGAND FREE ENERGY PREDICTED BY IDOCK:   -3.17 KCAL/MOL
REMARK 924 INTRA-LIGAND FREE ENERGY PREDICTED BY IDOCK:   -0.64 KCAL/MOL
REMARK 927      BINDING AFFINITY PREDICTED BY RF-SCORE:    0.00 PKD
ROOT
HETATM    1  C   UNL     1      -6.824  10.933  69.415  1.00  0.00    -0.114 C  
HETATM    2  C   UNL     1      -6.655  10.068  68.171  1.00  0.00    -0.055 C  
ENDROOT
BRANCH   2   3
HETATM    3  C   UNL     1      -6.687  10.848  66.873  1.00  0.00    -0.106 C  
HETATM    4  C   UNL     1      -5.650  11.618  66.497  1.00  0.00    -0.065 C  
BRANCH   3   5
HETATM    5  C   UNL     1      -7.979  10.777  66.103  1.00  0.00    -0.157 C  
HETATM    6  O   UNL     1      -7.954  10.687  64.881  1.00  0.00    -0.105 OA 
BRANCH   5   7
HETATM    7  C   UNL     1      -9.299  10.914  66.793  1.00  0.00    -0.185 A  
HETATM    8  C   UNL     1      -9.965  12.151  66.894  1.00  0.00    -0.204 A  
HETATM    9 CL   UNL     1      -9.345  13.559  66.073  1.00  0.00    -0.100 Cl 
HETATM   10  C   UNL     1     -11.175  12.250  67.629  1.00  0.00    -0.290 A  
HETATM   11 CL   UNL     1     -12.041  13.759  67.637  1.00  0.00    -0.382 Cl 
HETATM   12  C   UNL     1     -11.698  11.115  68.277  1.00  0.00    -0.252 A  
HETATM   13  C   UNL     1      -9.848   9.789  67.425  1.00  0.00    -0.219 A  
HETATM   14  C   UNL     1     -11.045   9.887  68.134  1.00  0.00    -0.215 A  
BRANCH  12  15
HETATM   15  O   UNL     1     -12.851  11.013  69.022  1.00  0.00    -0.086 OA 
BRANCH  15  16
HETATM   16  C   UNL     1     -12.845  10.088  70.116  1.00  0.00     0.189 C  
HETATM   17  C   UNL     1     -13.035  10.819  71.436  1.00  0.00    -0.432 C  
HETATM   18  O   UNL     1     -13.039  10.270  72.530  1.00  0.00    -0.184 OA 
HETATM   19  O   UNL     1     -13.213  12.157  71.292  1.00  0.00    -0.206 OA 
ENDBRANCH  15  16
ENDBRANCH  12  15
ENDBRANCH   5   7
ENDBRANCH   3   5
ENDBRANCH   2   3
TORSDOF 5
ENDMDL
MODEL      218
REMARK 921   NORMALIZED FREE ENERGY PREDICTED BY IDOCK:   -2.38 KCAL/MOL
REMARK 922        TOTAL FREE ENERGY PREDICTED BY IDOCK:   -3.79 KCAL/MOL
REMARK 923 INTER-LIGAND FREE ENERGY PREDICTED BY IDOCK:   -3.67 KCAL/MOL
REMARK 924 INTRA-LIGAND FREE ENERGY PREDICTED BY IDOCK:   -0.12 KCAL/MOL
REMARK 927      BINDING AFFINITY PREDICTED BY RF-SCORE:    0.00 PKD
ROOT
HETATM    1  C   UNL     1      -9.954   7.510  67.106  1.00  0.00    -0.288 C  
HETATM    2  C   UNL     1      -9.390   8.557  66.151  1.00  0.00    -0.279 C  
ENDROOT
BRANCH   2   3
HETATM    3  C   UNL     1      -8.242   9.359  66.730  1.00  0.00    -0.112 C  
HETATM    4  C   UNL     1      -7.006   9.285  66.207  1.00  0.00    -0.087 C  
BRANCH   3   5
HETATM    5  C   UNL     1      -8.563  10.149  67.972  1.00  0.00    -0.118 C  
HETATM    6  O   UNL     1      -8.257  11.335  68.033  1.00  0.00    -0.123 OA 
BRANCH   5   7
HETATM    7  C   UNL     1      -9.160   9.491  69.175  1.00  0.00    -0.152 A  
HETATM    8  C   UNL     1     -10.524   9.624  69.499  1.00  0.00    -0.224 A  
HETATM    9 CL   UNL     1     -11.616  10.442  68.413  1.00  0.00    -0.227 Cl 
HETATM   10  C   UNL     1     -11.031   9.050  70.695  1.00  0.00    -0.257 A  
HETATM   11 CL   UNL     1     -12.740   9.124  71.012  1.00  0.00    -0.242 Cl 
HETATM   12  C   UNL     1     -10.163   8.368  71.569  1.00  0.00    -0.228 A  
HETATM   13  C   UNL     1      -8.316   8.787  70.045  1.00  0.00    -0.127 A  
HETATM   14  C   UNL     1      -8.821   8.212  71.212  1.00  0.00    -0.176 A  
BRANCH  12  15
HETATM   15  O   UNL     1     -10.467   7.745  72.757  1.00  0.00    -0.271 OA 
BRANCH  15  16
HETATM   16  C   UNL     1     -10.958   6.401  72.687  1.00  0.00    -0.253 C  
HETATM   17  C   UNL     1     -10.196   5.501  73.647  1.00  0.00    -0.218 C  
HETATM   18  O   UNL     1     -10.394   4.299  73.765  1.00  0.00    -0.151 OA 
HETATM   19  O   UNL     1      -9.266   6.161  74.384  1.00  0.00    -0.139 OA 
ENDBRANCH  15  16
ENDBRANCH  12  15
ENDBRANCH   5   7
ENDBRANCH   3   5
ENDBRANCH   2   3
TORSDOF 5
ENDMDL
MODEL      219
REMARK 921   NORMALIZED FREE ENERGY PREDICTED BY IDOCK:   -2.36 KCAL/MOL
REMARK 922        TOTAL FREE ENERGY PREDICTED BY IDOCK:   -3.76 KCAL/MOL
REMARK 923 INTER-LIGAND FREE ENERGY PREDICTED BY IDOCK:   -3.10 KCAL/MOL
REMARK 924 INTRA-LIGAND FREE ENERGY PREDICTED BY IDOCK:   -0.66 KCAL/MOL
REMARK 927      BINDING AFFINITY PREDICTED BY RF-SCORE:    0.00 PKD
ROOT
HETATM    1  C   UNL     1      -8.047   9.420  64.566  1.00  0.00    -0.136 C  
HETATM    2  C   UNL     1      -9.317   9.343  65.409  1.00  0.00    -0.311 C  
ENDROOT
BRANCH   2   3
HETATM    3  C   UNL     1      -9.068   8.992  66.861  1.00  0.00    -0.161 C  
HETATM    4  C   UNL     1      -8.012   9.490  67.529  1.00  0.00    -0.106 C  
BRANCH   3   5
HETATM    5  C   UNL     1     -10.015   7.983  67.457  1.00  0.00    -0.194 C  
HETATM    6  O   UNL     1     -11.017   7.650  66.834  1.00  0.00    -0.253 OA 
BRANCH   5   7
HETATM    7  C   UNL     1      -9.808   7.449  68.838  1.00  0.00    -0.157 A  
HETATM    8  C   UNL     1     -10.254   8.142  69.981  1.00  0.00    -0.202 A  
HETATM    9 CL   UNL     1     -11.213   9.590  69.820  1.00  0.00    -0.210 Cl 
HETATM   10  C   UNL     1      -9.964   7.639  71.276  1.00  0.00    -0.179 A  
HETATM   11 CL   UNL     1     -10.628   8.447  72.667  1.00  0.00    -0.375 Cl 
HETATM   12  C   UNL     1      -9.210   6.459  71.419  1.00  0.00    -0.149 A  
HETATM   13  C   UNL     1      -9.080   6.263  69.000  1.00  0.00    -0.129 A  
HETATM   14  C   UNL     1      -8.810   5.763  70.274  1.00  0.00    -0.145 A  
BRANCH  12  15
HETATM   15  O   UNL     1      -8.838   5.819  72.579  1.00  0.00    -0.130 OA 
BRANCH  15  16
HETATM   16  C   UNL     1      -7.780   4.857  72.488  1.00  0.00    -0.093 C  
HETATM   17  C   UNL     1      -6.734   5.107  73.563  1.00  0.00    -0.074 C  
HETATM   18  O   UNL     1      -5.711   4.450  73.691  1.00  0.00    -0.008 OA 
HETATM   19  O   UNL     1      -7.046   6.138  74.391  1.00  0.00    -0.089 OA 
ENDBRANCH  15  16
ENDBRANCH  12  15
ENDBRANCH   5   7
ENDBRANCH   3   5
ENDBRANCH   2   3
TORSDOF 5
ENDMDL
MODEL      220
REMARK 921   NORMALIZED FREE ENERGY PREDICTED BY IDOCK:   -2.35 KCAL/MOL
REMARK 922        TOTAL FREE ENERGY PREDICTED BY IDOCK:   -3.75 KCAL/MOL
REMARK 923 INTER-LIGAND FREE ENERGY PREDICTED BY IDOCK:   -2.90 KCAL/MOL
REMARK 924 INTRA-LIGAND FREE ENERGY PREDICTED BY IDOCK:   -0.85 KCAL/MOL
REMARK 927      BINDING AFFINITY PREDICTED BY RF-SCORE:    0.00 PKD
ROOT
HETATM    1  C   UNL     1     -10.640  10.720  67.487  1.00  0.00    -0.280 C  
HETATM    2  C   UNL     1     -10.494   9.208  67.350  1.00  0.00    -0.339 C  
ENDROOT
BRANCH   2   3
HETATM    3  C   UNL     1      -9.253   8.778  66.595  1.00  0.00    -0.223 C  
HETATM    4  C   UNL     1      -9.235   8.730  65.251  1.00  0.00    -0.099 C  
BRANCH   3   5
HETATM    5  C   UNL     1      -8.099   8.320  67.449  1.00  0.00    -0.121 C  
HETATM    6  O   UNL     1      -6.959   8.359  66.999  1.00  0.00    -0.072 OA 
BRANCH   5   7
HETATM    7  C   UNL     1      -8.326   7.727  68.802  1.00  0.00    -0.128 A  
HETATM    8  C   UNL     1      -8.140   8.469  69.985  1.00  0.00    -0.111 A  
HETATM    9 CL   UNL     1      -7.785  10.175  69.911  1.00  0.00    -0.177 Cl 
HETATM   10  C   UNL     1      -8.287   7.843  71.250  1.00  0.00    -0.113 A  
HETATM   11 CL   UNL     1      -8.171   8.808  72.693  1.00  0.00    -0.015 Cl 
HETATM   12  C   UNL     1      -8.595   6.471  71.322  1.00  0.00    -0.127 A  
HETATM   13  C   UNL     1      -8.657   6.368  68.895  1.00  0.00    -0.123 A  
HETATM   14  C   UNL     1      -8.815   5.759  70.139  1.00  0.00    -0.144 A  
BRANCH  12  15
HETATM   15  O   UNL     1      -8.783   5.697  72.444  1.00  0.00    -0.128 OA 
BRANCH  15  16
HETATM   16  C   UNL     1     -10.057   5.781  73.094  1.00  0.00    -0.183 C  
HETATM   17  C   UNL     1     -10.788   4.450  73.015  1.00  0.00    -0.212 C  
HETATM   18  O   UNL     1     -11.910   4.255  73.463  1.00  0.00    -0.144 OA 
HETATM   19  O   UNL     1     -10.070   3.475  72.401  1.00  0.00    -0.159 OA 
ENDBRANCH  15  16
ENDBRANCH  12  15
ENDBRANCH   5   7
ENDBRANCH   3   5
ENDBRANCH   2   3
TORSDOF 5
ENDMDL
MODEL      221
REMARK 921   NORMALIZED FREE ENERGY PREDICTED BY IDOCK:   -2.34 KCAL/MOL
REMARK 922        TOTAL FREE ENERGY PREDICTED BY IDOCK:   -3.73 KCAL/MOL
REMARK 923 INTER-LIGAND FREE ENERGY PREDICTED BY IDOCK:   -3.00 KCAL/MOL
REMARK 924 INTRA-LIGAND FREE ENERGY PREDICTED BY IDOCK:   -0.73 KCAL/MOL
REMARK 927      BINDING AFFINITY PREDICTED BY RF-SCORE:    0.00 PKD
ROOT
HETATM    1  C   UNL     1      -5.628   8.724  73.822  1.00  0.00    -0.114 C  
HETATM    2  C   UNL     1      -6.066   7.941  72.589  1.00  0.00    -0.052 C  
ENDROOT
BRANCH   2   3
HETATM    3  C   UNL     1      -6.686   8.799  71.505  1.00  0.00    -0.082 C  
HETATM    4  C   UNL     1      -5.986   9.779  70.906  1.00  0.00    -0.089 C  
BRANCH   3   5
HETATM    5  C   UNL     1      -8.144   8.544  71.229  1.00  0.00    -0.136 C  
HETATM    6  O   UNL     1      -8.975   8.766  72.103  1.00  0.00    -0.336 OA 
BRANCH   5   7
HETATM    7  C   UNL     1      -8.592   7.933  69.940  1.00  0.00    -0.139 A  
HETATM    8  C   UNL     1      -9.086   8.712  68.875  1.00  0.00    -0.145 A  
HETATM    9 CL   UNL     1      -9.048  10.453  68.961  1.00  0.00    -0.181 Cl 
HETATM   10  C   UNL     1      -9.577   8.083  67.701  1.00  0.00    -0.151 A  
HETATM   11 CL   UNL     1     -10.069   9.068  66.354  1.00  0.00    -0.369 Cl 
HETATM   12  C   UNL     1      -9.592   6.678  67.611  1.00  0.00    -0.124 A  
HETATM   13  C   UNL     1      -8.592   6.536  69.821  1.00  0.00    -0.136 A  
HETATM   14  C   UNL     1      -9.062   5.922  68.661  1.00  0.00    -0.115 A  
BRANCH  12  15
HETATM   15  O   UNL     1     -10.018   5.896  66.562  1.00  0.00    -0.162 OA 
BRANCH  15  16
HETATM   16  C   UNL     1      -9.974   4.475  66.744  1.00  0.00    -0.215 C  
HETATM   17  C   UNL     1      -9.503   3.786  65.472  1.00  0.00    -0.169 C  
HETATM   18  O   UNL     1      -9.404   2.574  65.345  1.00  0.00    -0.131 OA 
HETATM   19  O   UNL     1      -9.187   4.652  64.475  1.00  0.00    -0.154 OA 
ENDBRANCH  15  16
ENDBRANCH  12  15
ENDBRANCH   5   7
ENDBRANCH   3   5
ENDBRANCH   2   3
TORSDOF 5
ENDMDL
MODEL      222
REMARK 921   NORMALIZED FREE ENERGY PREDICTED BY IDOCK:   -2.33 KCAL/MOL
REMARK 922        TOTAL FREE ENERGY PREDICTED BY IDOCK:   -3.71 KCAL/MOL
REMARK 923 INTER-LIGAND FREE ENERGY PREDICTED BY IDOCK:   -2.87 KCAL/MOL
REMARK 924 INTRA-LIGAND FREE ENERGY PREDICTED BY IDOCK:   -0.84 KCAL/MOL
REMARK 927      BINDING AFFINITY PREDICTED BY RF-SCORE:    0.00 PKD
ROOT
HETATM    1  C   UNL     1      -8.674  12.832  68.134  1.00  0.00    -0.193 C  
HETATM    2  C   UNL     1      -7.314  12.431  68.695  1.00  0.00    -0.102 C  
ENDROOT
BRANCH   2   3
HETATM    3  C   UNL     1      -7.072  10.935  68.707  1.00  0.00    -0.083 C  
HETATM    4  C   UNL     1      -6.857  10.254  67.568  1.00  0.00    -0.072 C  
BRANCH   3   5
HETATM    5  C   UNL     1      -7.190  10.269  70.053  1.00  0.00    -0.158 C  
HETATM    6  O   UNL     1      -6.631  10.763  71.026  1.00  0.00    -0.235 OA 
BRANCH   5   7
HETATM    7  C   UNL     1      -7.897   8.961  70.209  1.00  0.00    -0.104 A  
HETATM    8  C   UNL     1      -9.297   8.880  70.346  1.00  0.00    -0.193 A  
HETATM    9 CL   UNL     1     -10.286  10.306  70.180  1.00  0.00    -0.276 Cl 
HETATM   10  C   UNL     1      -9.918   7.624  70.575  1.00  0.00    -0.184 A  
HETATM   11 CL   UNL     1     -11.655   7.533  70.620  1.00  0.00    -0.297 Cl 
HETATM   12  C   UNL     1      -9.132   6.462  70.688  1.00  0.00    -0.148 A  
HETATM   13  C   UNL     1      -7.133   7.789  70.300  1.00  0.00    -0.050 A  
HETATM   14  C   UNL     1      -7.748   6.555  70.510  1.00  0.00    -0.105 A  
BRANCH  12  15
HETATM   15  O   UNL     1      -9.548   5.168  70.899  1.00  0.00    -0.158 OA 
BRANCH  15  16
HETATM   16  C   UNL     1      -9.981   4.423  69.753  1.00  0.00    -0.154 C  
HETATM   17  C   UNL     1      -9.173   3.142  69.610  1.00  0.00    -0.151 C  
HETATM   18  O   UNL     1      -9.317   2.338  68.700  1.00  0.00    -0.162 OA 
HETATM   19  O   UNL     1      -8.266   2.961  70.606  1.00  0.00    -0.049 OA 
ENDBRANCH  15  16
ENDBRANCH  12  15
ENDBRANCH   5   7
ENDBRANCH   3   5
ENDBRANCH   2   3
TORSDOF 5
ENDMDL
MODEL      223
REMARK 921   NORMALIZED FREE ENERGY PREDICTED BY IDOCK:   -2.32 KCAL/MOL
REMARK 922        TOTAL FREE ENERGY PREDICTED BY IDOCK:   -3.71 KCAL/MOL
REMARK 923 INTER-LIGAND FREE ENERGY PREDICTED BY IDOCK:   -2.84 KCAL/MOL
REMARK 924 INTRA-LIGAND FREE ENERGY PREDICTED BY IDOCK:   -0.87 KCAL/MOL
REMARK 927      BINDING AFFINITY PREDICTED BY RF-SCORE:    0.00 PKD
ROOT
HETATM    1  C   UNL     1      -8.150   9.759  64.486  1.00  0.00    -0.146 C  
HETATM    2  C   UNL     1      -8.467  10.864  65.488  1.00  0.00    -0.115 C  
ENDROOT
BRANCH   2   3
HETATM    3  C   UNL     1      -8.793  10.356  66.878  1.00  0.00    -0.141 C  
HETATM    4  C   UNL     1      -7.926  10.504  67.896  1.00  0.00    -0.106 C  
BRANCH   3   5
HETATM    5  C   UNL     1     -10.088   9.599  67.006  1.00  0.00    -0.214 C  
HETATM    6  O   UNL     1     -11.153  10.206  66.961  1.00  0.00    -0.167 OA 
BRANCH   5   7
HETATM    7  C   UNL     1     -10.102   8.131  67.286  1.00  0.00    -0.309 A  
HETATM    8  C   UNL     1     -10.126   7.620  68.599  1.00  0.00    -0.190 A  
HETATM    9 CL   UNL     1     -10.300   8.694  69.963  1.00  0.00    -0.204 Cl 
HETATM   10  C   UNL     1     -10.054   6.220  68.820  1.00  0.00    -0.161 A  
HETATM   11 CL   UNL     1     -10.207   5.609  70.442  1.00  0.00    -0.281 Cl 
HETATM   12  C   UNL     1      -9.936   5.341  67.726  1.00  0.00    -0.162 A  
HETATM   13  C   UNL     1     -10.009   7.239  66.209  1.00  0.00     0.023 A  
HETATM   14  C   UNL     1      -9.954   5.863  66.429  1.00  0.00    -0.162 A  
BRANCH  12  15
HETATM   15  O   UNL     1      -9.862   3.968  67.740  1.00  0.00    -0.137 OA 
BRANCH  15  16
HETATM   16  C   UNL     1      -8.564   3.382  67.895  1.00  0.00    -0.100 C  
HETATM   17  C   UNL     1      -8.225   2.505  66.699  1.00  0.00    -0.086 C  
HETATM   18  O   UNL     1      -7.190   1.863  66.590  1.00  0.00    -0.053 OA 
HETATM   19  O   UNL     1      -9.187   2.505  65.740  1.00  0.00    -0.130 OA 
ENDBRANCH  15  16
ENDBRANCH  12  15
ENDBRANCH   5   7
ENDBRANCH   3   5
ENDBRANCH   2   3
TORSDOF 5
ENDMDL
MODEL      224
REMARK 921   NORMALIZED FREE ENERGY PREDICTED BY IDOCK:   -2.31 KCAL/MOL
REMARK 922        TOTAL FREE ENERGY PREDICTED BY IDOCK:   -3.69 KCAL/MOL
REMARK 923 INTER-LIGAND FREE ENERGY PREDICTED BY IDOCK:   -2.94 KCAL/MOL
REMARK 924 INTRA-LIGAND FREE ENERGY PREDICTED BY IDOCK:   -0.75 KCAL/MOL
REMARK 927      BINDING AFFINITY PREDICTED BY RF-SCORE:    0.00 PKD
ROOT
HETATM    1  C   UNL     1     -10.477  10.415  66.304  1.00  0.00    -0.229 C  
HETATM    2  C   UNL     1     -10.723   9.582  67.559  1.00  0.00    -0.311 C  
ENDROOT
BRANCH   2   3
HETATM    3  C   UNL     1     -10.101   8.202  67.510  1.00  0.00    -0.286 C  
HETATM    4  C   UNL     1     -10.758   7.158  66.975  1.00  0.00    -0.420 C  
BRANCH   3   5
HETATM    5  C   UNL     1      -8.761   8.069  68.186  1.00  0.00    -0.126 C  
HETATM    6  O   UNL     1      -8.421   6.987  68.650  1.00  0.00    -0.121 OA 
BRANCH   5   7
HETATM    7  C   UNL     1      -7.876   9.257  68.390  1.00  0.00    -0.094 A  
HETATM    8  C   UNL     1      -6.998   9.715  67.388  1.00  0.00    -0.084 A  
HETATM    9 CL   UNL     1      -7.022   9.002  65.797  1.00  0.00    -0.080 Cl 
HETATM   10  C   UNL     1      -6.117  10.796  67.654  1.00  0.00    -0.047 A  
HETATM   11 CL   UNL     1      -5.129  11.421  66.365  1.00  0.00    -0.120 Cl 
HETATM   12  C   UNL     1      -6.104  11.395  68.928  1.00  0.00    -0.050 A  
HETATM   13  C   UNL     1      -7.866   9.882  69.644  1.00  0.00    -0.156 A  
HETATM   14  C   UNL     1      -7.010  10.953  69.897  1.00  0.00    -0.094 A  
BRANCH  12  15
HETATM   15  O   UNL     1      -5.335  12.447  69.368  1.00  0.00    -0.068 OA 
BRANCH  15  16
HETATM   16  C   UNL     1      -6.019  13.560  69.955  1.00  0.00    -0.130 C  
HETATM   17  C   UNL     1      -6.197  14.677  68.938  1.00  0.00    -0.087 C  
HETATM   18  O   UNL     1      -6.723  15.754  69.186  1.00  0.00    -0.133 OA 
HETATM   19  O   UNL     1      -5.720  14.366  67.705  1.00  0.00    -0.306 OA 
ENDBRANCH  15  16
ENDBRANCH  12  15
ENDBRANCH   5   7
ENDBRANCH   3   5
ENDBRANCH   2   3
TORSDOF 5
ENDMDL
MODEL      225
REMARK 921   NORMALIZED FREE ENERGY PREDICTED BY IDOCK:   -2.27 KCAL/MOL
REMARK 922        TOTAL FREE ENERGY PREDICTED BY IDOCK:   -3.65 KCAL/MOL
REMARK 923 INTER-LIGAND FREE ENERGY PREDICTED BY IDOCK:   -4.28 KCAL/MOL
REMARK 924 INTRA-LIGAND FREE ENERGY PREDICTED BY IDOCK:    0.63 KCAL/MOL
REMARK 927      BINDING AFFINITY PREDICTED BY RF-SCORE:    0.00 PKD
ROOT
HETATM    1  C   UNL     1     -11.146   6.666  68.812  1.00  0.00    -0.297 C  
HETATM    2  C   UNL     1     -10.593   6.150  70.137  1.00  0.00    -0.321 C  
ENDROOT
BRANCH   2   3
HETATM    3  C   UNL     1     -10.490   7.211  71.213  1.00  0.00    -0.219 C  
HETATM    4  C   UNL     1      -9.729   7.025  72.306  1.00  0.00    -0.169 C  
BRANCH   3   5
HETATM    5  C   UNL     1     -11.366   8.421  71.019  1.00  0.00    -0.266 C  
HETATM    6  O   UNL     1     -12.443   8.489  71.599  1.00  0.00    -0.304 OA 
BRANCH   5   7
HETATM    7  C   UNL     1     -10.992   9.500  70.053  1.00  0.00    -0.284 A  
HETATM    8  C   UNL     1      -9.656   9.902  69.863  1.00  0.00    -0.227 A  
HETATM    9 CL   UNL     1      -8.353   9.041  70.640  1.00  0.00    -0.189 Cl 
HETATM   10  C   UNL     1      -9.355  10.987  68.998  1.00  0.00    -0.091 A  
HETATM   11 CL   UNL     1      -7.691  11.386  68.686  1.00  0.00    -0.131 Cl 
HETATM   12  C   UNL     1     -10.396  11.676  68.347  1.00  0.00    -0.204 A  
HETATM   13  C   UNL     1     -12.013  10.182  69.378  1.00  0.00     0.044 A  
HETATM   14  C   UNL     1     -11.713  11.238  68.517  1.00  0.00    -0.378 A  
BRANCH  12  15
HETATM   15  O   UNL     1     -10.303  12.735  67.474  1.00  0.00    -0.216 OA 
BRANCH  15  16
HETATM   16  C   UNL     1     -10.168  14.043  68.043  1.00  0.00    -0.238 C  
HETATM   17  C   UNL     1      -9.863  15.069  66.962  1.00  0.00    -0.238 C  
HETATM   18  O   UNL     1      -9.669  16.257  67.178  1.00  0.00    -0.232 OA 
HETATM   19  O   UNL     1      -9.832  14.541  65.710  1.00  0.00    -0.316 OA 
ENDBRANCH  15  16
ENDBRANCH  12  15
ENDBRANCH   5   7
ENDBRANCH   3   5
ENDBRANCH   2   3
TORSDOF 5
ENDMDL
MODEL      226
REMARK 921   NORMALIZED FREE ENERGY PREDICTED BY IDOCK:   -2.08 KCAL/MOL
REMARK 922        TOTAL FREE ENERGY PREDICTED BY IDOCK:   -3.40 KCAL/MOL
REMARK 923 INTER-LIGAND FREE ENERGY PREDICTED BY IDOCK:   -2.74 KCAL/MOL
REMARK 924 INTRA-LIGAND FREE ENERGY PREDICTED BY IDOCK:   -0.66 KCAL/MOL
REMARK 927      BINDING AFFINITY PREDICTED BY RF-SCORE:    0.00 PKD
ROOT
HETATM    1  C   UNL     1     -13.123  14.766  71.380  1.00  0.00    -0.424 C  
HETATM    2  C   UNL     1     -12.653  13.438  70.795  1.00  0.00    -0.369 C  
ENDROOT
BRANCH   2   3
HETATM    3  C   UNL     1     -11.361  13.537  70.010  1.00  0.00    -0.028 C  
HETATM    4  C   UNL     1     -10.474  14.520  70.247  1.00  0.00     0.395 C  
BRANCH   3   5
HETATM    5  C   UNL     1     -11.198  12.534  68.898  1.00  0.00    -0.281 C  
HETATM    6  O   UNL     1     -11.923  12.600  67.911  1.00  0.00    -0.349 OA 
BRANCH   5   7
HETATM    7  C   UNL     1     -10.234  11.398  69.016  1.00  0.00    -0.137 A  
HETATM    8  C   UNL     1      -8.926  11.471  68.498  1.00  0.00    -0.146 A  
HETATM    9 CL   UNL     1      -8.322  12.964  67.828  1.00  0.00    -0.164 Cl 
HETATM   10  C   UNL     1      -8.071  10.339  68.559  1.00  0.00    -0.109 A  
HETATM   11 CL   UNL     1      -6.423  10.491  68.022  1.00  0.00    -0.059 Cl 
HETATM   12  C   UNL     1      -8.540   9.135  69.118  1.00  0.00    -0.133 A  
HETATM   13  C   UNL     1     -10.674  10.198  69.591  1.00  0.00    -0.295 A  
HETATM   14  C   UNL     1      -9.827   9.092  69.663  1.00  0.00    -0.188 A  
BRANCH  12  15
HETATM   15  O   UNL     1      -7.865   7.946  69.271  1.00  0.00    -0.110 OA 
BRANCH  15  16
HETATM   16  C   UNL     1      -8.333   7.052  70.288  1.00  0.00    -0.133 C  
HETATM   17  C   UNL     1      -7.377   7.036  71.470  1.00  0.00    -0.080 C  
HETATM   18  O   UNL     1      -7.523   6.335  72.462  1.00  0.00    -0.091 OA 
HETATM   19  O   UNL     1      -6.331   7.892  71.331  1.00  0.00    -0.035 OA 
ENDBRANCH  15  16
ENDBRANCH  12  15
ENDBRANCH   5   7
ENDBRANCH   3   5
ENDBRANCH   2   3
TORSDOF 5
ENDMDL
MODEL      227
REMARK 921   NORMALIZED FREE ENERGY PREDICTED BY IDOCK:   -1.79 KCAL/MOL
REMARK 922        TOTAL FREE ENERGY PREDICTED BY IDOCK:   -3.03 KCAL/MOL
REMARK 923 INTER-LIGAND FREE ENERGY PREDICTED BY IDOCK:   -3.40 KCAL/MOL
REMARK 924 INTRA-LIGAND FREE ENERGY PREDICTED BY IDOCK:    0.37 KCAL/MOL
REMARK 927      BINDING AFFINITY PREDICTED BY RF-SCORE:    0.00 PKD
ROOT
HETATM    1  C   UNL     1     -12.415  11.979  63.548  1.00  0.00    -0.654 C  
HETATM    2  C   UNL     1     -11.300  13.016  63.634  1.00  0.00    -0.392 C  
ENDROOT
BRANCH   2   3
HETATM    3  C   UNL     1     -11.673  14.254  64.423  1.00  0.00    -0.405 C  
HETATM    4  C   UNL     1     -12.219  15.326  63.821  1.00  0.00     0.348 C  
BRANCH   3   5
HETATM    5  C   UNL     1     -11.300  14.233  65.882  1.00  0.00    -0.328 C  
HETATM    6  O   UNL     1     -12.073  14.697  66.712  1.00  0.00    -0.353 OA 
BRANCH   5   7
HETATM    7  C   UNL     1      -9.961  13.743  66.330  1.00  0.00    -0.301 A  
HETATM    8  C   UNL     1      -8.944  14.624  66.747  1.00  0.00    -0.257 A  
HETATM    9 CL   UNL     1      -9.263  16.332  66.906  1.00  0.00    -0.225 Cl 
HETATM   10  C   UNL     1      -7.660  14.122  67.086  1.00  0.00     0.053 A  
HETATM   11 CL   UNL     1      -6.460  15.215  67.712  1.00  0.00    -0.168 Cl 
HETATM   12  C   UNL     1      -7.397  12.742  66.983  1.00  0.00     0.099 A  
HETATM   13  C   UNL     1      -9.687  12.370  66.258  1.00  0.00    -0.253 A  
HETATM   14  C   UNL     1      -8.429  11.878  66.606  1.00  0.00    -0.143 A  
BRANCH  12  15
HETATM   15  O   UNL     1      -6.230  12.074  67.272  1.00  0.00    -0.120 OA 
BRANCH  15  16
HETATM   16  C   UNL     1      -6.314  10.654  67.446  1.00  0.00    -0.058 C  
HETATM   17  C   UNL     1      -6.123   9.939  66.118  1.00  0.00    -0.067 C  
HETATM   18  O   UNL     1      -6.179   8.724  65.978  1.00  0.00    -0.054 OA 
HETATM   19  O   UNL     1      -5.873  10.781  65.082  1.00  0.00    -0.120 OA 
ENDBRANCH  15  16
ENDBRANCH  12  15
ENDBRANCH   5   7
ENDBRANCH   3   5
ENDBRANCH   2   3
TORSDOF 5
ENDMDL
MODEL      228
REMARK 921   NORMALIZED FREE ENERGY PREDICTED BY IDOCK:   -1.65 KCAL/MOL
REMARK 922        TOTAL FREE ENERGY PREDICTED BY IDOCK:   -2.83 KCAL/MOL
REMARK 923 INTER-LIGAND FREE ENERGY PREDICTED BY IDOCK:   -3.65 KCAL/MOL
REMARK 924 INTRA-LIGAND FREE ENERGY PREDICTED BY IDOCK:    0.81 KCAL/MOL
REMARK 927      BINDING AFFINITY PREDICTED BY RF-SCORE:    0.00 PKD
ROOT
HETATM    1  C   UNL     1     -10.306   7.329  68.097  1.00  0.00    -0.234 C  
HETATM    2  C   UNL     1     -10.735   8.530  67.260  1.00  0.00    -0.219 C  
ENDROOT
BRANCH   2   3
HETATM    3  C   UNL     1     -10.702   9.845  68.011  1.00  0.00    -0.296 C  
HETATM    4  C   UNL     1     -10.312  10.983  67.409  1.00  0.00    -0.242 C  
BRANCH   3   5
HETATM    5  C   UNL     1     -11.032   9.763  69.478  1.00  0.00    -0.227 C  
HETATM    6  O   UNL     1     -12.010  10.362  69.914  1.00  0.00    -0.260 OA 
BRANCH   5   7
HETATM    7  C   UNL     1     -10.135   9.045  70.435  1.00  0.00    -0.248 A  
HETATM    8  C   UNL     1     -10.614   8.500  71.642  1.00  0.00    -0.283 A  
HETATM    9 CL   UNL     1     -12.321   8.503  71.999  1.00  0.00    -0.393 Cl 
HETATM   10  C   UNL     1      -9.712   7.899  72.559  1.00  0.00    -0.227 A  
HETATM   11 CL   UNL     1     -10.342   7.125  73.985  1.00  0.00    -0.344 Cl 
HETATM   12  C   UNL     1      -8.334   7.869  72.271  1.00  0.00    -0.131 A  
HETATM   13  C   UNL     1      -8.763   8.984  70.155  1.00  0.00    -0.184 A  
HETATM   14  C   UNL     1      -7.882   8.380  71.051  1.00  0.00    -0.106 A  
BRANCH  12  15
HETATM   15  O   UNL     1      -7.317   7.329  73.025  1.00  0.00    -0.072 OA 
BRANCH  15  16
HETATM   16  C   UNL     1      -7.000   5.949  72.806  1.00  0.00    -0.076 C  
HETATM   17  C   UNL     1      -5.856   5.513  73.708  1.00  0.00    -0.047 C  
HETATM   18  O   UNL     1      -5.367   4.391  73.703  1.00  0.00    -0.007 OA 
HETATM   19  O   UNL     1      -5.423   6.492  74.543  1.00  0.00    -0.052 OA 
ENDBRANCH  15  16
ENDBRANCH  12  15
ENDBRANCH   5   7
ENDBRANCH   3   5
ENDBRANCH   2   3
TORSDOF 5
ENDMDL
MODEL      229
REMARK 921   NORMALIZED FREE ENERGY PREDICTED BY IDOCK:   -1.18 KCAL/MOL
REMARK 922        TOTAL FREE ENERGY PREDICTED BY IDOCK:   -2.23 KCAL/MOL
REMARK 923 INTER-LIGAND FREE ENERGY PREDICTED BY IDOCK:   -1.71 KCAL/MOL
REMARK 924 INTRA-LIGAND FREE ENERGY PREDICTED BY IDOCK:   -0.52 KCAL/MOL
REMARK 927      BINDING AFFINITY PREDICTED BY RF-SCORE:    0.00 PKD
ROOT
HETATM    1  C   UNL     1      -6.299  12.826  69.470  1.00  0.00    -0.108 C  
HETATM    2  C   UNL     1      -7.111  11.538  69.556  1.00  0.00     0.016 C  
ENDROOT
BRANCH   2   3
HETATM    3  C   UNL     1      -6.555  10.405  68.718  1.00  0.00    -0.052 C  
HETATM    4  C   UNL     1      -5.237  10.134  68.698  1.00  0.00    -0.039 C  
BRANCH   3   5
HETATM    5  C   UNL     1      -7.554   9.687  67.850  1.00  0.00    -0.083 C  
HETATM    6  O   UNL     1      -7.901  10.186  66.785  1.00  0.00    -0.106 OA 
BRANCH   5   7
HETATM    7  C   UNL     1      -8.208   8.422  68.305  1.00  0.00    -0.124 A  
HETATM    8  C   UNL     1      -9.576   8.365  68.634  1.00  0.00    -0.149 A  
HETATM    9 CL   UNL     1     -10.609   9.745  68.371  1.00  0.00    -0.249 Cl 
HETATM   10  C   UNL     1     -10.137   7.163  69.141  1.00  0.00    -0.183 A  
HETATM   11 CL   UNL     1     -11.852   7.081  69.425  1.00  0.00     0.169 Cl 
HETATM   12  C   UNL     1      -9.318   6.034  69.337  1.00  0.00    -0.131 A  
HETATM   13  C   UNL     1      -7.414   7.281  68.484  1.00  0.00    -0.105 A  
HETATM   14  C   UNL     1      -7.971   6.097  68.968  1.00  0.00    -0.108 A  
BRANCH  12  15
HETATM   15  O   UNL     1      -9.677   4.792  69.806  1.00  0.00    -0.163 OA 
BRANCH  15  16
HETATM   16  C   UNL     1      -8.695   3.752  69.727  1.00  0.00    -0.077 C  
HETATM   17  C   UNL     1      -8.321   3.261  71.117  1.00  0.00    -0.066 C  
HETATM   18  O   UNL     1      -7.482   2.398  71.337  1.00  0.00    -0.039 OA 
HETATM   19  O   UNL     1      -9.019   3.868  72.111  1.00  0.00    -0.109 OA 
ENDBRANCH  15  16
ENDBRANCH  12  15
ENDBRANCH   5   7
ENDBRANCH   3   5
ENDBRANCH   2   3
TORSDOF 5
ENDMDL
MODEL      230
REMARK 921   NORMALIZED FREE ENERGY PREDICTED BY IDOCK:    0.36 KCAL/MOL
REMARK 922        TOTAL FREE ENERGY PREDICTED BY IDOCK:   -0.25 KCAL/MOL
REMARK 923 INTER-LIGAND FREE ENERGY PREDICTED BY IDOCK:   -1.26 KCAL/MOL
REMARK 924 INTRA-LIGAND FREE ENERGY PREDICTED BY IDOCK:    1.01 KCAL/MOL
REMARK 927      BINDING AFFINITY PREDICTED BY RF-SCORE:    0.00 PKD
ROOT
HETATM    1  C   UNL     1      -5.704  15.952  71.116  1.00  0.00     0.315 C  
HETATM    2  C   UNL     1      -6.730  17.061  70.902  1.00  0.00     2.470 C  
ENDROOT
BRANCH   2   3
HETATM    3  C   UNL     1      -6.230  18.201  70.038  1.00  0.00    -0.041 C  
HETATM    4  C   UNL     1      -5.283  19.047  70.481  1.00  0.00    -0.226 C  
BRANCH   3   5
HETATM    5  C   UNL     1      -6.933  18.372  68.717  1.00  0.00    -0.277 C  
HETATM    6  O   UNL     1      -7.003  19.485  68.208  1.00  0.00    -0.272 OA 
BRANCH   5   7
HETATM    7  C   UNL     1      -7.633  17.227  68.059  1.00  0.00    -0.197 A  
HETATM    8  C   UNL     1      -8.707  17.420  67.169  1.00  0.00    -0.227 A  
HETATM    9 CL   UNL     1      -9.168  19.027  66.673  1.00  0.00    -0.330 Cl 
HETATM   10  C   UNL     1      -9.396  16.301  66.631  1.00  0.00    -0.248 A  
HETATM   11 CL   UNL     1     -10.640  16.562  65.442  1.00  0.00    -0.351 Cl 
HETATM   12  C   UNL     1      -9.020  14.997  67.007  1.00  0.00    -0.234 A  
HETATM   13  C   UNL     1      -7.257  15.921  68.402  1.00  0.00    -0.121 A  
HETATM   14  C   UNL     1      -7.926  14.823  67.860  1.00  0.00    -0.147 A  
BRANCH  12  15
HETATM   15  O   UNL     1      -9.557  13.801  66.590  1.00  0.00    -0.271 OA 
BRANCH  15  16
HETATM   16  C   UNL     1      -9.554  12.719  67.529  1.00  0.00    -0.192 C  
HETATM   17  C   UNL     1     -10.905  12.021  67.546  1.00  0.00    -0.241 C  
HETATM   18  O   UNL     1     -11.183  11.082  68.281  1.00  0.00    -0.232 OA 
HETATM   19  O   UNL     1     -11.790  12.534  66.652  1.00  0.00    -0.437 OA 
ENDBRANCH  15  16
ENDBRANCH  12  15
ENDBRANCH   5   7
ENDBRANCH   3   5
ENDBRANCH   2   3
TORSDOF 5
ENDMDL
MODEL      231
REMARK 921   NORMALIZED FREE ENERGY PREDICTED BY IDOCK:    0.50 KCAL/MOL
REMARK 922        TOTAL FREE ENERGY PREDICTED BY IDOCK:   -0.06 KCAL/MOL
REMARK 923 INTER-LIGAND FREE ENERGY PREDICTED BY IDOCK:   -0.61 KCAL/MOL
REMARK 924 INTRA-LIGAND FREE ENERGY PREDICTED BY IDOCK:    0.55 KCAL/MOL
REMARK 927      BINDING AFFINITY PREDICTED BY RF-SCORE:    0.00 PKD
ROOT
HETATM    1  C   UNL     1      -6.532  12.692  69.589  1.00  0.00    -0.050 C  
HETATM    2  C   UNL     1      -7.591  11.639  69.901  1.00  0.00     1.001 C  
ENDROOT
BRANCH   2   3
HETATM    3  C   UNL     1      -7.204  10.237  69.478  1.00  0.00    -0.122 C  
HETATM    4  C   UNL     1      -6.043   9.685  69.873  1.00  0.00    -0.043 C  
BRANCH   3   5
HETATM    5  C   UNL     1      -8.150   9.563  68.519  1.00  0.00    -0.101 C  
HETATM    6  O   UNL     1      -8.101   9.837  67.325  1.00  0.00    -0.115 OA 
BRANCH   5   7
HETATM    7  C   UNL     1      -9.216   8.636  69.007  1.00  0.00    -0.145 A  
HETATM    8  C   UNL     1      -9.571   7.468  68.304  1.00  0.00    -0.152 A  
HETATM    9 CL   UNL     1      -8.662   6.970  66.901  1.00  0.00    -0.119 Cl 
HETATM   10  C   UNL     1     -10.645   6.660  68.761  1.00  0.00    -0.236 A  
HETATM   11 CL   UNL     1     -10.985   5.161  67.945  1.00  0.00     0.305 Cl 
HETATM   12  C   UNL     1     -11.372   7.039  69.905  1.00  0.00    -0.216 A  
HETATM   13  C   UNL     1      -9.936   8.984  70.159  1.00  0.00    -0.216 A  
HETATM   14  C   UNL     1     -10.982   8.180  70.613  1.00  0.00    -0.255 A  
BRANCH  12  15
HETATM   15  O   UNL     1     -12.429   6.388  70.498  1.00  0.00    -0.047 OA 
BRANCH  15  16
HETATM   16  C   UNL     1     -12.824   6.832  71.802  1.00  0.00    -0.259 C  
HETATM   17  C   UNL     1     -13.793   8.000  71.700  1.00  0.00    -0.379 C  
HETATM   18  O   UNL     1     -14.262   8.589  72.665  1.00  0.00    -0.388 OA 
HETATM   19  O   UNL     1     -14.105   8.333  70.421  1.00  0.00     0.923 OA 
ENDBRANCH  15  16
ENDBRANCH  12  15
ENDBRANCH   5   7
ENDBRANCH   3   5
ENDBRANCH   2   3
TORSDOF 5
ENDMDL
MODEL      232
REMARK 921   NORMALIZED FREE ENERGY PREDICTED BY IDOCK:    1.34 KCAL/MOL
REMARK 922        TOTAL FREE ENERGY PREDICTED BY IDOCK:    1.02 KCAL/MOL
REMARK 923 INTER-LIGAND FREE ENERGY PREDICTED BY IDOCK:   -0.98 KCAL/MOL
REMARK 924 INTRA-LIGAND FREE ENERGY PREDICTED BY IDOCK:    2.00 KCAL/MOL
REMARK 927      BINDING AFFINITY PREDICTED BY RF-SCORE:    0.00 PKD
ROOT
HETATM    1  C   UNL     1      -5.142  16.565  69.770  1.00  0.00    -0.144 C  
HETATM    2  C   UNL     1      -5.622  15.189  69.320  1.00  0.00    -0.095 C  
ENDROOT
BRANCH   2   3
HETATM    3  C   UNL     1      -6.332  14.403  70.403  1.00  0.00    -0.144 C  
HETATM    4  C   UNL     1      -6.570  14.940  71.613  1.00  0.00     1.102 C  
BRANCH   3   5
HETATM    5  C   UNL     1      -6.653  12.971  70.063  1.00  0.00     0.200 C  
HETATM    6  O   UNL     1      -6.237  12.069  70.782  1.00  0.00    -0.236 OA 
BRANCH   5   7
HETATM    7  C   UNL     1      -7.387  12.619  68.810  1.00  0.00    -0.066 A  
HETATM    8  C   UNL     1      -7.764  11.295  68.511  1.00  0.00    -0.131 A  
HETATM    9 CL   UNL     1      -7.524  10.022  69.678  1.00  0.00    -0.116 Cl 
HETATM   10  C   UNL     1      -8.387  10.995  67.271  1.00  0.00    -0.125 A  
HETATM   11 CL   UNL     1      -8.951   9.376  66.976  1.00  0.00    -0.142 Cl 
HETATM   12  C   UNL     1      -8.606  12.018  66.329  1.00  0.00     0.031 A  
HETATM   13  C   UNL     1      -7.636  13.629  67.869  1.00  0.00    -0.156 A  
HETATM   14  C   UNL     1      -8.262  13.333  66.658  1.00  0.00     0.306 A  
BRANCH  12  15
HETATM   15  O   UNL     1      -9.196  11.924  65.090  1.00  0.00    -0.037 OA 
BRANCH  15  16
HETATM   16  C   UNL     1     -10.420  12.642  64.890  1.00  0.00    -0.309 C  
HETATM   17  C   UNL     1     -11.548  12.014  65.695  1.00  0.00    -0.296 C  
HETATM   18  O   UNL     1     -12.705  12.411  65.682  1.00  0.00    -0.462 OA 
HETATM   19  O   UNL     1     -11.148  10.958  66.451  1.00  0.00    -0.158 OA 
ENDBRANCH  15  16
ENDBRANCH  12  15
ENDBRANCH   5   7
ENDBRANCH   3   5
ENDBRANCH   2   3
TORSDOF 5
ENDMDL
MODEL      233
REMARK 921   NORMALIZED FREE ENERGY PREDICTED BY IDOCK:    2.23 KCAL/MOL
REMARK 922        TOTAL FREE ENERGY PREDICTED BY IDOCK:    2.18 KCAL/MOL
REMARK 923 INTER-LIGAND FREE ENERGY PREDICTED BY IDOCK:    0.44 KCAL/MOL
REMARK 924 INTRA-LIGAND FREE ENERGY PREDICTED BY IDOCK:    1.74 KCAL/MOL
REMARK 927      BINDING AFFINITY PREDICTED BY RF-SCORE:    0.00 PKD
ROOT
HETATM    1  C   UNL     1      -7.147  20.643  62.880  1.00  0.00     1.140 C  
HETATM    2  C   UNL     1      -6.765  19.243  63.350  1.00  0.00     2.725 C  
ENDROOT
BRANCH   2   3
HETATM    3  C   UNL     1      -6.389  19.169  64.816  1.00  0.00    -0.190 C  
HETATM    4  C   UNL     1      -5.148  18.823  65.201  1.00  0.00    -0.200 C  
BRANCH   3   5
HETATM    5  C   UNL     1      -7.514  19.409  65.789  1.00  0.00    -0.235 C  
HETATM    6  O   UNL     1      -7.976  20.537  65.916  1.00  0.00    -0.035 OA 
BRANCH   5   7
HETATM    7  C   UNL     1      -8.016  18.315  66.676  1.00  0.00    -0.273 A  
HETATM    8  C   UNL     1      -7.143  17.428  67.336  1.00  0.00    -0.164 A  
HETATM    9 CL   UNL     1      -5.417  17.672  67.268  1.00  0.00    -0.143 Cl 
HETATM   10  C   UNL     1      -7.664  16.354  68.102  1.00  0.00    -0.160 A  
HETATM   11 CL   UNL     1      -6.570  15.346  69.005  1.00  0.00    -0.117 Cl 
HETATM   12  C   UNL     1      -9.057  16.160  68.184  1.00  0.00    -0.189 A  
HETATM   13  C   UNL     1      -9.399  18.121  66.788  1.00  0.00    -0.286 A  
HETATM   14  C   UNL     1      -9.909  17.073  67.554  1.00  0.00    -0.258 A  
BRANCH  12  15
HETATM   15  O   UNL     1      -9.744  15.190  68.876  1.00  0.00    -0.207 OA 
BRANCH  15  16
HETATM   16  C   UNL     1      -9.630  13.842  68.405  1.00  0.00    -0.215 C  
HETATM   17  C   UNL     1     -10.863  13.036  68.782  1.00  0.00    -0.244 C  
HETATM   18  O   UNL     1     -11.011  11.848  68.528  1.00  0.00    -0.209 OA 
HETATM   19  O   UNL     1     -11.808  13.766  69.429  1.00  0.00    -0.297 OA 
ENDBRANCH  15  16
ENDBRANCH  12  15
ENDBRANCH   5   7
ENDBRANCH   3   5
ENDBRANCH   2   3
TORSDOF 5
ENDMDL
MODEL      234
REMARK 921   NORMALIZED FREE ENERGY PREDICTED BY IDOCK:    2.45 KCAL/MOL
REMARK 922        TOTAL FREE ENERGY PREDICTED BY IDOCK:    2.45 KCAL/MOL
REMARK 923 INTER-LIGAND FREE ENERGY PREDICTED BY IDOCK:    1.74 KCAL/MOL
REMARK 924 INTRA-LIGAND FREE ENERGY PREDICTED BY IDOCK:    0.71 KCAL/MOL
REMARK 927      BINDING AFFINITY PREDICTED BY RF-SCORE:    0.00 PKD
ROOT
HETATM    1  C   UNL     1      -5.732  15.982  71.240  1.00  0.00     0.440 C  
HETATM    2  C   UNL     1      -6.660  17.185  71.377  1.00  0.00     3.469 C  
ENDROOT
BRANCH   2   3
HETATM    3  C   UNL     1      -5.998  18.509  71.057  1.00  0.00     0.430 C  
HETATM    4  C   UNL     1      -5.148  19.091  71.921  1.00  0.00    -0.115 C  
BRANCH   3   5
HETATM    5  C   UNL     1      -6.434  19.160  69.770  1.00  0.00    -0.200 C  
HETATM    6  O   UNL     1      -6.521  20.381  69.707  1.00  0.00    -0.287 OA 
BRANCH   5   7
HETATM    7  C   UNL     1      -6.859  18.340  68.594  1.00  0.00    -0.261 A  
HETATM    8  C   UNL     1      -6.495  18.680  67.276  1.00  0.00    -0.195 A  
HETATM    9 CL   UNL     1      -5.392  19.997  66.974  1.00  0.00    -0.162 Cl 
HETATM   10  C   UNL     1      -6.989  17.921  66.184  1.00  0.00    -0.301 A  
HETATM   11 CL   UNL     1      -6.430  18.285  64.576  1.00  0.00     0.850 Cl 
HETATM   12  C   UNL     1      -7.863  16.841  66.416  1.00  0.00    -0.318 A  
HETATM   13  C   UNL     1      -7.710  17.247  68.807  1.00  0.00    -0.261 A  
HETATM   14  C   UNL     1      -8.182  16.494  67.732  1.00  0.00    -0.173 A  
BRANCH  12  15
HETATM   15  O   UNL     1      -8.433  15.992  65.496  1.00  0.00     0.254 OA 
BRANCH  15  16
HETATM   16  C   UNL     1      -9.343  15.002  65.992  1.00  0.00    -0.269 C  
HETATM   17  C   UNL     1     -10.781  15.477  65.851  1.00  0.00    -0.339 C  
HETATM   18  O   UNL     1     -11.754  14.837  66.225  1.00  0.00    -0.343 OA 
HETATM   19  O   UNL     1     -10.893  16.692  65.253  1.00  0.00    -0.478 OA 
ENDBRANCH  15  16
ENDBRANCH  12  15
ENDBRANCH   5   7
ENDBRANCH   3   5
ENDBRANCH   2   3
TORSDOF 5
ENDMDL
MODEL      235
REMARK 921   NORMALIZED FREE ENERGY PREDICTED BY IDOCK:    3.54 KCAL/MOL
REMARK 922        TOTAL FREE ENERGY PREDICTED BY IDOCK:    3.87 KCAL/MOL
REMARK 923 INTER-LIGAND FREE ENERGY PREDICTED BY IDOCK:    2.00 KCAL/MOL
REMARK 924 INTRA-LIGAND FREE ENERGY PREDICTED BY IDOCK:    1.87 KCAL/MOL
REMARK 927      BINDING AFFINITY PREDICTED BY RF-SCORE:    0.00 PKD
ROOT
HETATM    1  C   UNL     1      -9.021  18.559  70.608  1.00  0.00     3.984 C  
HETATM    2  C   UNL     1      -9.277  19.761  69.704  1.00  0.00     0.379 C  
ENDROOT
BRANCH   2   3
HETATM    3  C   UNL     1     -10.074  19.433  68.459  1.00  0.00    -0.527 C  
HETATM    4  C   UNL     1     -10.874  20.347  67.882  1.00  0.00     0.230 C  
BRANCH   3   5
HETATM    5  C   UNL     1      -9.985  18.005  67.987  1.00  0.00    -0.343 C  
HETATM    6  O   UNL     1     -10.923  17.509  67.373  1.00  0.00    -0.228 OA 
BRANCH   5   7
HETATM    7  C   UNL     1      -8.812  17.147  68.338  1.00  0.00    -0.255 A  
HETATM    8  C   UNL     1      -7.661  17.087  67.528  1.00  0.00    -0.165 A  
HETATM    9 CL   UNL     1      -7.493  18.143  66.150  1.00  0.00    -0.303 Cl 
HETATM   10  C   UNL     1      -6.605  16.196  67.855  1.00  0.00    -0.139 A  
HETATM   11 CL   UNL     1      -5.145  16.228  66.910  1.00  0.00     0.075 Cl 
HETATM   12  C   UNL     1      -6.719  15.355  68.978  1.00  0.00    -0.128 A  
HETATM   13  C   UNL     1      -8.897  16.319  69.466  1.00  0.00     0.089 A  
HETATM   14  C   UNL     1      -7.851  15.455  69.793  1.00  0.00    -0.059 A  
BRANCH  12  15
HETATM   15  O   UNL     1      -5.808  14.441  69.455  1.00  0.00    -0.092 OA 
BRANCH  15  16
HETATM   16  C   UNL     1      -6.261  13.092  69.628  1.00  0.00    -0.112 C  
HETATM   17  C   UNL     1      -5.997  12.273  68.373  1.00  0.00    -0.054 C  
HETATM   18  O   UNL     1      -6.314  11.099  68.241  1.00  0.00    -0.049 OA 
HETATM   19  O   UNL     1      -5.359  12.970  67.397  1.00  0.00    -0.298 OA 
ENDBRANCH  15  16
ENDBRANCH  12  15
ENDBRANCH   5   7
ENDBRANCH   3   5
ENDBRANCH   2   3
TORSDOF 5
ENDMDL
MODEL      236
REMARK 921   NORMALIZED FREE ENERGY PREDICTED BY IDOCK:    3.98 KCAL/MOL
REMARK 922        TOTAL FREE ENERGY PREDICTED BY IDOCK:    4.44 KCAL/MOL
REMARK 923 INTER-LIGAND FREE ENERGY PREDICTED BY IDOCK:    3.49 KCAL/MOL
REMARK 924 INTRA-LIGAND FREE ENERGY PREDICTED BY IDOCK:    0.95 KCAL/MOL
REMARK 927      BINDING AFFINITY PREDICTED BY RF-SCORE:    0.00 PKD
ROOT
HETATM    1  C   UNL     1      -5.803  12.256  72.004  1.00  0.00     1.417 C  
HETATM    2  C   UNL     1      -6.469  13.605  71.751  1.00  0.00     1.648 C  
ENDROOT
BRANCH   2   3
HETATM    3  C   UNL     1      -6.344  14.092  70.322  1.00  0.00    -0.121 C  
HETATM    4  C   UNL     1      -5.154  14.118  69.696  1.00  0.00    -0.090 C  
BRANCH   3   5
HETATM    5  C   UNL     1      -7.608  14.631  69.706  1.00  0.00     0.087 C  
HETATM    6  O   UNL     1      -7.726  15.836  69.518  1.00  0.00    -0.229 OA 
BRANCH   5   7
HETATM    7  C   UNL     1      -8.767  13.734  69.409  1.00  0.00     0.778 A  
HETATM    8  C   UNL     1     -10.084  14.065  69.783  1.00  0.00     0.712 A  
HETATM    9 CL   UNL     1     -10.440  15.624  70.478  1.00  0.00    -0.240 Cl 
HETATM   10  C   UNL     1     -11.141  13.146  69.554  1.00  0.00    -0.003 A  
HETATM   11 CL   UNL     1     -12.775  13.626  69.915  1.00  0.00    -0.096 Cl 
HETATM   12  C   UNL     1     -10.869  11.893  68.973  1.00  0.00    -0.190 A  
HETATM   13  C   UNL     1      -8.520  12.491  68.809  1.00  0.00     0.153 A  
HETATM   14  C   UNL     1      -9.563  11.597  68.572  1.00  0.00    -0.181 A  
BRANCH  12  15
HETATM   15  O   UNL     1     -11.754  10.884  68.669  1.00  0.00    -0.331 OA 
BRANCH  15  16
HETATM   16  C   UNL     1     -11.896   9.826  69.625  1.00  0.00     0.196 C  
HETATM   17  C   UNL     1     -12.938  10.186  70.673  1.00  0.00    -0.227 C  
HETATM   18  O   UNL     1     -13.232   9.472  71.622  1.00  0.00    -0.359 OA 
HETATM   19  O   UNL     1     -13.531  11.388  70.454  1.00  0.00     0.567 OA 
ENDBRANCH  15  16
ENDBRANCH  12  15
ENDBRANCH   5   7
ENDBRANCH   3   5
ENDBRANCH   2   3
TORSDOF 5
ENDMDL
MODEL      237
REMARK 921   NORMALIZED FREE ENERGY PREDICTED BY IDOCK:    5.67 KCAL/MOL
REMARK 922        TOTAL FREE ENERGY PREDICTED BY IDOCK:    6.62 KCAL/MOL
REMARK 923 INTER-LIGAND FREE ENERGY PREDICTED BY IDOCK:    4.87 KCAL/MOL
REMARK 924 INTRA-LIGAND FREE ENERGY PREDICTED BY IDOCK:    1.75 KCAL/MOL
REMARK 927      BINDING AFFINITY PREDICTED BY RF-SCORE:    0.00 PKD
ROOT
HETATM    1  C   UNL     1      -5.824  12.251  72.021  1.00  0.00     1.417 C  
HETATM    2  C   UNL     1      -6.482  13.612  71.820  1.00  0.00     1.648 C  
ENDROOT
BRANCH   2   3
HETATM    3  C   UNL     1      -6.379  14.139  70.403  1.00  0.00    -0.103 C  
HETATM    4  C   UNL     1      -5.207  14.144  69.744  1.00  0.00    -0.092 C  
BRANCH   3   5
HETATM    5  C   UNL     1      -7.641  14.737  69.839  1.00  0.00     0.114 C  
HETATM    6  O   UNL     1      -7.718  15.950  69.677  1.00  0.00    -0.175 OA 
BRANCH   5   7
HETATM    7  C   UNL     1      -8.842  13.891  69.563  1.00  0.00     0.912 A  
HETATM    8  C   UNL     1     -10.136  14.274  69.967  1.00  0.00     0.797 A  
HETATM    9 CL   UNL     1     -10.412  15.843  70.677  1.00  0.00    -0.019 Cl 
HETATM   10  C   UNL     1     -11.235  13.402  69.757  1.00  0.00     0.023 A  
HETATM   11 CL   UNL     1     -12.839  13.948  70.155  1.00  0.00    -0.175 Cl 
HETATM   12  C   UNL     1     -11.029  12.141  69.164  1.00  0.00    -0.161 A  
HETATM   13  C   UNL     1      -8.660  12.642  68.952  1.00  0.00     0.317 A  
HETATM   14  C   UNL     1      -9.745  11.794  68.733  1.00  0.00    -0.079 A  
BRANCH  12  15
HETATM   15  O   UNL     1     -11.961  11.172  68.875  1.00  0.00    -0.394 OA 
BRANCH  15  16
HETATM   16  C   UNL     1     -11.831  10.490  67.621  1.00  0.00     0.844 C  
HETATM   17  C   UNL     1     -11.729  11.486  66.477  1.00  0.00     0.173 C  
HETATM   18  O   UNL     1     -11.640  11.170  65.298  1.00  0.00     0.165 OA 
HETATM   19  O   UNL     1     -11.735  12.781  66.886  1.00  0.00    -0.346 OA 
ENDBRANCH  15  16
ENDBRANCH  12  15
ENDBRANCH   5   7
ENDBRANCH   3   5
ENDBRANCH   2   3
TORSDOF 5
ENDMDL
MODEL      238
REMARK 921   NORMALIZED FREE ENERGY PREDICTED BY IDOCK:   15.74 KCAL/MOL
REMARK 922        TOTAL FREE ENERGY PREDICTED BY IDOCK:   19.64 KCAL/MOL
REMARK 923 INTER-LIGAND FREE ENERGY PREDICTED BY IDOCK:   12.46 KCAL/MOL
REMARK 924 INTRA-LIGAND FREE ENERGY PREDICTED BY IDOCK:    7.18 KCAL/MOL
REMARK 927      BINDING AFFINITY PREDICTED BY RF-SCORE:    0.00 PKD
ROOT
HETATM    1  C   UNL     1      -9.053  18.666  71.107  1.00  0.00     5.748 C  
HETATM    2  C   UNL     1      -9.664  20.054  70.943  1.00  0.00     1.669 C  
ENDROOT
BRANCH   2   3
HETATM    3  C   UNL     1     -10.673  20.150  69.818  1.00  0.00     0.824 C  
HETATM    4  C   UNL     1     -11.682  21.039  69.859  1.00  0.00     4.237 C  
BRANCH   3   5
HETATM    5  C   UNL     1     -10.524  19.128  68.722  1.00  0.00     0.020 C  
HETATM    6  O   UNL     1     -11.499  18.814  68.048  1.00  0.00     0.460 OA 
BRANCH   5   7
HETATM    7  C   UNL     1      -9.229  18.414  68.501  1.00  0.00    -0.348 A  
HETATM    8  C   UNL     1      -9.074  17.443  67.492  1.00  0.00    -0.232 A  
HETATM    9 CL   UNL     1     -10.355  17.144  66.347  1.00  0.00    -0.323 Cl 
HETATM   10  C   UNL     1      -7.852  16.731  67.371  1.00  0.00    -0.171 A  
HETATM   11 CL   UNL     1      -7.643  15.625  66.044  1.00  0.00     1.188 Cl 
HETATM   12  C   UNL     1      -6.802  16.979  68.276  1.00  0.00    -0.170 A  
HETATM   13  C   UNL     1      -8.164  18.664  69.376  1.00  0.00     0.288 A  
HETATM   14  C   UNL     1      -6.960  17.973  69.246  1.00  0.00    -0.155 A  
BRANCH  12  15
HETATM   15  O   UNL     1      -5.555  16.400  68.313  1.00  0.00    -0.100 OA 
BRANCH  15  16
HETATM   16  C   UNL     1      -5.218  15.642  69.482  1.00  0.00    -0.103 C  
HETATM   17  C   UNL     1      -6.122  14.425  69.610  1.00  0.00    -0.119 C  
HETATM   18  O   UNL     1      -6.069  13.626  70.534  1.00  0.00    -0.163 OA 
HETATM   19  O   UNL     1      -7.003  14.297  68.585  1.00  0.00    -0.092 OA 
ENDBRANCH  15  16
ENDBRANCH  12  15
ENDBRANCH   5   7
ENDBRANCH   3   5
ENDBRANCH   2   3
TORSDOF 5
ENDMDL
MODEL      239
REMARK 921   NORMALIZED FREE ENERGY PREDICTED BY IDOCK:   18.19 KCAL/MOL
REMARK 922        TOTAL FREE ENERGY PREDICTED BY IDOCK:   22.80 KCAL/MOL
REMARK 923 INTER-LIGAND FREE ENERGY PREDICTED BY IDOCK:   16.21 KCAL/MOL
REMARK 924 INTRA-LIGAND FREE ENERGY PREDICTED BY IDOCK:    6.59 KCAL/MOL
REMARK 927      BINDING AFFINITY PREDICTED BY RF-SCORE:    0.00 PKD
ROOT
HETATM    1  C   UNL     1      -5.911  16.845  72.630  1.00  0.00     2.931 C  
HETATM    2  C   UNL     1      -6.903  18.004  72.603  1.00  0.00     6.338 C  
ENDROOT
BRANCH   2   3
HETATM    3  C   UNL     1      -6.332  19.287  72.033  1.00  0.00     0.973 C  
HETATM    4  C   UNL     1      -5.160  19.782  72.468  1.00  0.00     1.055 C  
BRANCH   3   5
HETATM    5  C   UNL     1      -7.207  20.001  71.038  1.00  0.00     0.883 C  
HETATM    6  O   UNL     1      -7.408  21.204  71.161  1.00  0.00     1.997 OA 
BRANCH   5   7
HETATM    7  C   UNL     1      -7.917  19.254  69.955  1.00  0.00     0.665 A  
HETATM    8  C   UNL     1      -9.294  19.421  69.711  1.00  0.00     0.466 A  
HETATM    9 CL   UNL     1     -10.204  20.636  70.570  1.00  0.00     1.059 Cl 
HETATM   10  C   UNL     1      -9.944  18.631  68.727  1.00  0.00    -0.383 A  
HETATM   11 CL   UNL     1     -11.617  18.939  68.360  1.00  0.00     1.645 Cl 
HETATM   12  C   UNL     1      -9.215  17.662  68.010  1.00  0.00    -0.271 A  
HETATM   13  C   UNL     1      -7.203  18.302  69.214  1.00  0.00    -0.091 A  
HETATM   14  C   UNL     1      -7.841  17.537  68.238  1.00  0.00    -0.253 A  
BRANCH  12  15
HETATM   15  O   UNL     1      -9.664  16.815  67.024  1.00  0.00    -0.239 OA 
BRANCH  15  16
HETATM   16  C   UNL     1      -9.898  15.449  67.388  1.00  0.00    -0.216 C  
HETATM   17  C   UNL     1      -9.105  15.083  68.633  1.00  0.00    -0.191 C  
HETATM   18  O   UNL     1      -9.099  13.970  69.140  1.00  0.00     0.081 OA 
HETATM   19  O   UNL     1      -8.398  16.122  69.148  1.00  0.00    -0.237 OA 
ENDBRANCH  15  16
ENDBRANCH  12  15
ENDBRANCH   5   7
ENDBRANCH   3   5
ENDBRANCH   2   3
TORSDOF 5
ENDMDL
MODEL      240
REMARK 921   NORMALIZED FREE ENERGY PREDICTED BY IDOCK:   20.37 KCAL/MOL
REMARK 922        TOTAL FREE ENERGY PREDICTED BY IDOCK:   25.62 KCAL/MOL
REMARK 923 INTER-LIGAND FREE ENERGY PREDICTED BY IDOCK:   18.35 KCAL/MOL
REMARK 924 INTRA-LIGAND FREE ENERGY PREDICTED BY IDOCK:    7.28 KCAL/MOL
REMARK 927      BINDING AFFINITY PREDICTED BY RF-SCORE:    0.00 PKD
ROOT
HETATM    1  C   UNL     1      -9.578  20.187  70.965  1.00  0.00     1.844 C  
HETATM    2  C   UNL     1     -10.225  19.450  72.134  1.00  0.00     3.497 C  
ENDROOT
BRANCH   2   3
HETATM    3  C   UNL     1     -11.016  18.225  71.724  1.00  0.00     3.173 C  
HETATM    4  C   UNL     1     -12.301  18.069  72.092  1.00  0.00     7.304 C  
BRANCH   3   5
HETATM    5  C   UNL     1     -10.242  17.171  70.976  1.00  0.00     2.665 C  
HETATM    6  O   UNL     1      -9.954  16.119  71.536  1.00  0.00     2.223 OA 
BRANCH   5   7
HETATM    7  C   UNL     1      -9.732  17.421  69.593  1.00  0.00     0.417 A  
HETATM    8  C   UNL     1      -9.070  16.424  68.849  1.00  0.00    -0.256 A  
HETATM    9 CL   UNL     1      -8.957  14.794  69.459  1.00  0.00     0.031 Cl 
HETATM   10  C   UNL     1      -8.530  16.730  67.573  1.00  0.00    -0.192 A  
HETATM   11 CL   UNL     1      -7.824  15.453  66.623  1.00  0.00    -0.113 Cl 
HETATM   12  C   UNL     1      -8.635  18.037  67.060  1.00  0.00    -0.245 A  
HETATM   13  C   UNL     1      -9.849  18.710  69.055  1.00  0.00    -0.330 A  
HETATM   14  C   UNL     1      -9.329  19.003  67.794  1.00  0.00    -0.347 A  
BRANCH  12  15
HETATM   15  O   UNL     1      -8.185  18.517  65.852  1.00  0.00    -0.497 OA 
BRANCH  15  16
HETATM   16  C   UNL     1      -7.009  19.336  65.868  1.00  0.00    -0.275 C  
HETATM   17  C   UNL     1      -6.249  19.156  67.173  1.00  0.00    -0.178 C  
HETATM   18  O   UNL     1      -5.225  19.761  67.460  1.00  0.00    -0.168 OA 
HETATM   19  O   UNL     1      -6.812  18.241  68.005  1.00  0.00    -0.205 OA 
ENDBRANCH  15  16
ENDBRANCH  12  15
ENDBRANCH   5   7
ENDBRANCH   3   5
ENDBRANCH   2   3
TORSDOF 5
ENDMDL
