MODEL        1
REMARK 921   NORMALIZED FREE ENERGY PREDICTED BY IDOCK:   -4.87 KCAL/MOL
REMARK 922        TOTAL FREE ENERGY PREDICTED BY IDOCK:   -6.40 KCAL/MOL
REMARK 923 INTER-LIGAND FREE ENERGY PREDICTED BY IDOCK:   -6.00 KCAL/MOL
REMARK 924 INTRA-LIGAND FREE ENERGY PREDICTED BY IDOCK:   -0.39 KCAL/MOL
REMARK 927      BINDING AFFINITY PREDICTED BY RF-SCORE:    0.00 PKD
ROOT
HETATM    1  C   UNL     1     -14.360   7.556  71.512  1.00  0.00    -0.603 C  
HETATM    2  C   UNL     1     -13.822   8.909  71.979  1.00  0.00    -0.456 C  
ENDROOT
BRANCH   2   3
HETATM    3  N   UNL     1     -12.356   8.980  72.218  1.00  0.00    -0.356 NA 
HETATM    4  C   UNL     1     -11.735   7.686  71.899  1.00  0.00    -0.289 C  
BRANCH   3   5
HETATM    5  C   UNL     1     -11.742  10.085  71.391  1.00  0.00    -0.334 C  
HETATM    6  C   UNL     1     -10.669   9.529  70.428  1.00  0.00    -0.341 C  
BRANCH   5   7
HETATM    7  C   UNL     1     -12.649  11.084  70.555  1.00  0.00    -0.304 C  
HETATM    8  H   UNL     1     -12.965  11.591  68.644  1.00  0.00     0.000 HD 
HETATM    9  O   UNL     1     -12.423  10.993  69.144  1.00  0.00    -0.432 OA 
BRANCH   7  10
HETATM   10  C   UNL     1     -12.755  12.543  70.967  1.00  0.00    -0.316 A  
HETATM   11  C   UNL     1     -13.493  12.871  72.123  1.00  0.00    -0.619 A  
HETATM   12  C   UNL     1     -13.634  14.199  72.537  1.00  0.00    -0.644 A  
HETATM   13  C   UNL     1     -13.050  15.221  71.798  1.00  0.00    -0.488 A  
HETATM   14  C   UNL     1     -12.330  14.915  70.644  1.00  0.00    -0.406 A  
HETATM   15  C   UNL     1     -12.189  13.586  70.227  1.00  0.00    -0.417 A  
ENDBRANCH   7  10
ENDBRANCH   5   7
ENDBRANCH   3   5
ENDBRANCH   2   3
TORSDOF 4
ENDMDL
MODEL        2
REMARK 921   NORMALIZED FREE ENERGY PREDICTED BY IDOCK:   -4.85 KCAL/MOL
REMARK 922        TOTAL FREE ENERGY PREDICTED BY IDOCK:   -6.38 KCAL/MOL
REMARK 923 INTER-LIGAND FREE ENERGY PREDICTED BY IDOCK:   -6.07 KCAL/MOL
REMARK 924 INTRA-LIGAND FREE ENERGY PREDICTED BY IDOCK:   -0.31 KCAL/MOL
REMARK 927      BINDING AFFINITY PREDICTED BY RF-SCORE:    0.00 PKD
ROOT
HETATM    1  C   UNL     1     -12.511  12.812  65.097  1.00  0.00    -0.565 C  
HETATM    2  C   UNL     1     -12.285  13.923  66.123  1.00  0.00    -0.464 C  
ENDROOT
BRANCH   2   3
HETATM    3  N   UNL     1     -12.141  13.485  67.536  1.00  0.00    -0.338 NA 
HETATM    4  C   UNL     1     -11.604  12.117  67.583  1.00  0.00    -0.343 C  
BRANCH   3   5
HETATM    5  C   UNL     1     -11.245  14.436  68.293  1.00  0.00    -0.275 C  
HETATM    6  C   UNL     1     -10.186  15.065  67.359  1.00  0.00    -0.234 C  
BRANCH   5   7
HETATM    7  C   UNL     1     -11.852  15.612  69.171  1.00  0.00    -0.362 C  
HETATM    8  H   UNL     1     -11.476  17.536  69.577  1.00  0.00     0.000 HD 
HETATM    9  O   UNL     1     -11.113  16.833  69.052  1.00  0.00    -0.277 OA 
BRANCH   7  10
HETATM   10  C   UNL     1     -12.212  15.367  70.627  1.00  0.00    -0.431 A  
HETATM   11  C   UNL     1     -11.779  16.291  71.599  1.00  0.00    -0.490 A  
HETATM   12  C   UNL     1     -12.072  16.104  72.954  1.00  0.00    -0.643 A  
HETATM   13  C   UNL     1     -12.789  14.986  73.360  1.00  0.00    -0.652 A  
HETATM   14  C   UNL     1     -13.211  14.053  72.412  1.00  0.00    -0.585 A  
HETATM   15  C   UNL     1     -12.918  14.239  71.055  1.00  0.00    -0.411 A  
ENDBRANCH   7  10
ENDBRANCH   5   7
ENDBRANCH   3   5
ENDBRANCH   2   3
TORSDOF 4
ENDMDL
MODEL        3
REMARK 921   NORMALIZED FREE ENERGY PREDICTED BY IDOCK:   -4.84 KCAL/MOL
REMARK 922        TOTAL FREE ENERGY PREDICTED BY IDOCK:   -6.36 KCAL/MOL
REMARK 923 INTER-LIGAND FREE ENERGY PREDICTED BY IDOCK:   -6.06 KCAL/MOL
REMARK 924 INTRA-LIGAND FREE ENERGY PREDICTED BY IDOCK:   -0.30 KCAL/MOL
REMARK 927      BINDING AFFINITY PREDICTED BY RF-SCORE:    0.00 PKD
ROOT
HETATM    1  C   UNL     1     -12.511  12.812  65.097  1.00  0.00    -0.565 C  
HETATM    2  C   UNL     1     -12.285  13.923  66.123  1.00  0.00    -0.464 C  
ENDROOT
BRANCH   2   3
HETATM    3  N   UNL     1     -12.141  13.485  67.536  1.00  0.00    -0.338 NA 
HETATM    4  C   UNL     1     -11.604  12.117  67.583  1.00  0.00    -0.343 C  
BRANCH   3   5
HETATM    5  C   UNL     1     -11.245  14.436  68.293  1.00  0.00    -0.275 C  
HETATM    6  C   UNL     1     -10.186  15.065  67.359  1.00  0.00    -0.234 C  
BRANCH   5   7
HETATM    7  C   UNL     1     -11.852  15.612  69.171  1.00  0.00    -0.362 C  
HETATM    8  H   UNL     1     -11.476  17.536  69.577  1.00  0.00     0.000 HD 
HETATM    9  O   UNL     1     -11.113  16.833  69.052  1.00  0.00    -0.277 OA 
BRANCH   7  10
HETATM   10  C   UNL     1     -12.212  15.367  70.627  1.00  0.00    -0.431 A  
HETATM   11  C   UNL     1     -13.029  14.263  70.948  1.00  0.00    -0.395 A  
HETATM   12  C   UNL     1     -13.402  14.003  72.270  1.00  0.00    -0.574 A  
HETATM   13  C   UNL     1     -12.977  14.845  73.290  1.00  0.00    -0.635 A  
HETATM   14  C   UNL     1     -12.181  15.950  72.987  1.00  0.00    -0.609 A  
HETATM   15  C   UNL     1     -11.807  16.213  71.663  1.00  0.00    -0.557 A  
ENDBRANCH   7  10
ENDBRANCH   5   7
ENDBRANCH   3   5
ENDBRANCH   2   3
TORSDOF 4
ENDMDL
MODEL        4
REMARK 921   NORMALIZED FREE ENERGY PREDICTED BY IDOCK:   -4.82 KCAL/MOL
REMARK 922        TOTAL FREE ENERGY PREDICTED BY IDOCK:   -6.34 KCAL/MOL
REMARK 923 INTER-LIGAND FREE ENERGY PREDICTED BY IDOCK:   -5.98 KCAL/MOL
REMARK 924 INTRA-LIGAND FREE ENERGY PREDICTED BY IDOCK:   -0.36 KCAL/MOL
REMARK 927      BINDING AFFINITY PREDICTED BY RF-SCORE:    0.00 PKD
ROOT
HETATM    1  C   UNL     1      -9.300  15.990  66.027  1.00  0.00    -0.380 C  
HETATM    2  C   UNL     1     -10.071  14.684  66.217  1.00  0.00    -0.294 C  
ENDROOT
BRANCH   2   3
HETATM    3  N   UNL     1     -11.493  14.820  66.629  1.00  0.00    -0.354 NA 
HETATM    4  C   UNL     1     -12.334  13.925  65.821  1.00  0.00    -0.486 C  
BRANCH   3   5
HETATM    5  C   UNL     1     -11.646  14.513  68.099  1.00  0.00    -0.331 C  
HETATM    6  C   UNL     1     -10.542  13.546  68.585  1.00  0.00    -0.259 C  
BRANCH   5   7
HETATM    7  C   UNL     1     -11.755  15.677  69.174  1.00  0.00    -0.390 C  
HETATM    8  H   UNL     1     -10.653  17.201  69.859  1.00  0.00     0.000 HD 
HETATM    9  O   UNL     1     -10.588  16.505  69.216  1.00  0.00    -0.287 OA 
BRANCH   7  10
HETATM   10  C   UNL     1     -12.220  15.368  70.588  1.00  0.00    -0.431 A  
HETATM   11  C   UNL     1     -11.735  16.157  71.650  1.00  0.00    -0.558 A  
HETATM   12  C   UNL     1     -12.120  15.904  72.971  1.00  0.00    -0.615 A  
HETATM   13  C   UNL     1     -12.984  14.853  73.252  1.00  0.00    -0.635 A  
HETATM   14  C   UNL     1     -13.460  14.053  72.214  1.00  0.00    -0.597 A  
HETATM   15  C   UNL     1     -13.074  14.304  70.891  1.00  0.00    -0.368 A  
ENDBRANCH   7  10
ENDBRANCH   5   7
ENDBRANCH   3   5
ENDBRANCH   2   3
TORSDOF 4
ENDMDL
MODEL        5
REMARK 921   NORMALIZED FREE ENERGY PREDICTED BY IDOCK:   -4.80 KCAL/MOL
REMARK 922        TOTAL FREE ENERGY PREDICTED BY IDOCK:   -6.32 KCAL/MOL
REMARK 923 INTER-LIGAND FREE ENERGY PREDICTED BY IDOCK:   -5.90 KCAL/MOL
REMARK 924 INTRA-LIGAND FREE ENERGY PREDICTED BY IDOCK:   -0.42 KCAL/MOL
REMARK 927      BINDING AFFINITY PREDICTED BY RF-SCORE:    0.00 PKD
ROOT
HETATM    1  C   UNL     1     -14.382   7.856  71.661  1.00  0.00    -0.595 C  
HETATM    2  C   UNL     1     -13.418   8.863  72.290  1.00  0.00    -0.455 C  
ENDROOT
BRANCH   2   3
HETATM    3  N   UNL     1     -11.995   8.750  71.875  1.00  0.00    -0.339 NA 
HETATM    4  C   UNL     1     -11.826   7.594  70.981  1.00  0.00    -0.285 C  
BRANCH   3   5
HETATM    5  C   UNL     1     -11.544  10.021  71.194  1.00  0.00    -0.378 C  
HETATM    6  C   UNL     1     -10.430   9.736  70.162  1.00  0.00    -0.338 C  
BRANCH   5   7
HETATM    7  C   UNL     1     -12.589  10.993  70.498  1.00  0.00    -0.304 C  
HETATM    8  H   UNL     1     -13.132  11.547  68.653  1.00  0.00     0.000 HD 
HETATM    9  O   UNL     1     -12.507  10.966  69.069  1.00  0.00    -0.425 OA 
BRANCH   7  10
HETATM   10  C   UNL     1     -12.732  12.428  70.980  1.00  0.00    -0.315 A  
HETATM   11  C   UNL     1     -12.121  13.458  70.237  1.00  0.00    -0.419 A  
HETATM   12  C   UNL     1     -12.210  14.793  70.645  1.00  0.00    -0.385 A  
HETATM   13  C   UNL     1     -12.900  15.117  71.807  1.00  0.00    -0.432 A  
HETATM   14  C   UNL     1     -13.496  14.108  72.562  1.00  0.00    -0.634 A  
HETATM   15  C   UNL     1     -13.408  12.771  72.155  1.00  0.00    -0.593 A  
ENDBRANCH   7  10
ENDBRANCH   5   7
ENDBRANCH   3   5
ENDBRANCH   2   3
TORSDOF 4
ENDMDL
MODEL        6
REMARK 921   NORMALIZED FREE ENERGY PREDICTED BY IDOCK:   -4.77 KCAL/MOL
REMARK 922        TOTAL FREE ENERGY PREDICTED BY IDOCK:   -6.27 KCAL/MOL
REMARK 923 INTER-LIGAND FREE ENERGY PREDICTED BY IDOCK:   -5.97 KCAL/MOL
REMARK 924 INTRA-LIGAND FREE ENERGY PREDICTED BY IDOCK:   -0.31 KCAL/MOL
REMARK 927      BINDING AFFINITY PREDICTED BY RF-SCORE:    0.00 PKD
ROOT
HETATM    1  C   UNL     1     -12.159  15.980  72.672  1.00  0.00    -0.640 C  
HETATM    2  C   UNL     1     -11.771  15.010  71.556  1.00  0.00    -0.370 C  
ENDROOT
BRANCH   2   3
HETATM    3  N   UNL     1     -12.432  13.679  71.590  1.00  0.00    -0.238 NA 
HETATM    4  C   UNL     1     -13.778  13.806  72.170  1.00  0.00    -0.540 C  
BRANCH   3   5
HETATM    5  C   UNL     1     -12.503  13.093  70.200  1.00  0.00    -0.122 C  
HETATM    6  C   UNL     1     -12.038  14.115  69.139  1.00  0.00    -0.362 C  
BRANCH   5   7
HETATM    7  C   UNL     1     -11.802  11.710  69.856  1.00  0.00    -0.358 C  
HETATM    8  H   UNL     1     -11.646  10.444  68.314  1.00  0.00     0.000 HD 
HETATM    9  O   UNL     1     -12.065  11.270  68.519  1.00  0.00    -0.573 OA 
BRANCH   7  10
HETATM   10  C   UNL     1     -11.917  10.538  70.817  1.00  0.00    -0.472 A  
HETATM   11  C   UNL     1     -10.792   9.714  71.022  1.00  0.00    -0.412 A  
HETATM   12  C   UNL     1     -10.850   8.614  71.884  1.00  0.00    -0.419 A  
HETATM   13  C   UNL     1     -12.034   8.313  72.545  1.00  0.00    -0.420 A  
HETATM   14  C   UNL     1     -13.161   9.109  72.341  1.00  0.00    -0.512 A  
HETATM   15  C   UNL     1     -13.105  10.210  71.477  1.00  0.00    -0.529 A  
ENDBRANCH   7  10
ENDBRANCH   5   7
ENDBRANCH   3   5
ENDBRANCH   2   3
TORSDOF 4
ENDMDL
MODEL        7
REMARK 921   NORMALIZED FREE ENERGY PREDICTED BY IDOCK:   -4.76 KCAL/MOL
REMARK 922        TOTAL FREE ENERGY PREDICTED BY IDOCK:   -6.27 KCAL/MOL
REMARK 923 INTER-LIGAND FREE ENERGY PREDICTED BY IDOCK:   -5.93 KCAL/MOL
REMARK 924 INTRA-LIGAND FREE ENERGY PREDICTED BY IDOCK:   -0.34 KCAL/MOL
REMARK 927      BINDING AFFINITY PREDICTED BY RF-SCORE:    0.00 PKD
ROOT
HETATM    1  C   UNL     1     -12.043  13.743  64.516  1.00  0.00    -0.463 C  
HETATM    2  C   UNL     1     -12.377  13.620  66.003  1.00  0.00    -0.445 C  
ENDROOT
BRANCH   2   3
HETATM    3  N   UNL     1     -12.033  12.325  66.644  1.00  0.00    -0.622 NA 
HETATM    4  C   UNL     1     -11.015  11.627  65.844  1.00  0.00    -0.280 C  
BRANCH   3   5
HETATM    5  C   UNL     1     -11.539  12.551  68.054  1.00  0.00    -0.342 C  
HETATM    6  C   UNL     1     -10.063  12.120  68.204  1.00  0.00    -0.206 C  
BRANCH   5   7
HETATM    7  C   UNL     1     -11.687  13.967  68.757  1.00  0.00    -0.353 C  
HETATM    8  H   UNL     1     -10.547  15.549  69.211  1.00  0.00     0.000 HD 
HETATM    9  O   UNL     1     -10.459  14.702  68.791  1.00  0.00    -0.233 OA 
BRANCH   7  10
HETATM   10  C   UNL     1     -12.395  14.082  70.097  1.00  0.00    -0.409 A  
HETATM   11  C   UNL     1     -12.583  12.917  70.868  1.00  0.00    -0.355 A  
HETATM   12  C   UNL     1     -13.242  12.966  72.100  1.00  0.00    -0.552 A  
HETATM   13  C   UNL     1     -13.732  14.175  72.577  1.00  0.00    -0.626 A  
HETATM   14  C   UNL     1     -13.568  15.335  71.820  1.00  0.00    -0.581 A  
HETATM   15  C   UNL     1     -12.910  15.287  70.584  1.00  0.00    -0.462 A  
ENDBRANCH   7  10
ENDBRANCH   5   7
ENDBRANCH   3   5
ENDBRANCH   2   3
TORSDOF 4
ENDMDL
MODEL        8
REMARK 921   NORMALIZED FREE ENERGY PREDICTED BY IDOCK:   -4.73 KCAL/MOL
REMARK 922        TOTAL FREE ENERGY PREDICTED BY IDOCK:   -6.22 KCAL/MOL
REMARK 923 INTER-LIGAND FREE ENERGY PREDICTED BY IDOCK:   -5.91 KCAL/MOL
REMARK 924 INTRA-LIGAND FREE ENERGY PREDICTED BY IDOCK:   -0.32 KCAL/MOL
REMARK 927      BINDING AFFINITY PREDICTED BY RF-SCORE:    0.00 PKD
ROOT
HETATM    1  C   UNL     1     -10.978  11.872  65.390  1.00  0.00    -0.352 C  
HETATM    2  C   UNL     1     -10.820  12.536  66.758  1.00  0.00    -0.249 C  
ENDROOT
BRANCH   2   3
HETATM    3  N   UNL     1     -11.428  13.885  66.902  1.00  0.00    -0.334 NA 
HETATM    4  C   UNL     1     -12.445  14.088  65.860  1.00  0.00    -0.481 C  
BRANCH   3   5
HETATM    5  C   UNL     1     -12.034  14.043  68.277  1.00  0.00    -0.349 C  
HETATM    6  C   UNL     1     -11.718  12.822  69.169  1.00  0.00    -0.375 C  
BRANCH   5   7
HETATM    7  C   UNL     1     -11.762  15.343  69.149  1.00  0.00    -0.345 C  
HETATM    8  H   UNL     1     -10.212  16.468  69.730  1.00  0.00     0.000 HD 
HETATM    9  O   UNL     1     -10.374  15.691  69.209  1.00  0.00    -0.217 OA 
BRANCH   7  10
HETATM   10  C   UNL     1     -12.390  15.481  70.526  1.00  0.00    -0.461 A  
HETATM   11  C   UNL     1     -11.577  15.884  71.605  1.00  0.00    -0.541 A  
HETATM   12  C   UNL     1     -12.103  16.011  72.895  1.00  0.00    -0.626 A  
HETATM   13  C   UNL     1     -13.443  15.728  73.129  1.00  0.00    -0.652 A  
HETATM   14  C   UNL     1     -14.256  15.313  72.075  1.00  0.00    -0.679 A  
HETATM   15  C   UNL     1     -13.731  15.183  70.783  1.00  0.00    -0.244 A  
ENDBRANCH   7  10
ENDBRANCH   5   7
ENDBRANCH   3   5
ENDBRANCH   2   3
TORSDOF 4
ENDMDL
MODEL        9
REMARK 921   NORMALIZED FREE ENERGY PREDICTED BY IDOCK:   -4.69 KCAL/MOL
REMARK 922        TOTAL FREE ENERGY PREDICTED BY IDOCK:   -6.18 KCAL/MOL
REMARK 923 INTER-LIGAND FREE ENERGY PREDICTED BY IDOCK:   -5.82 KCAL/MOL
REMARK 924 INTRA-LIGAND FREE ENERGY PREDICTED BY IDOCK:   -0.36 KCAL/MOL
REMARK 927      BINDING AFFINITY PREDICTED BY RF-SCORE:    0.00 PKD
ROOT
HETATM    1  C   UNL     1     -12.443  12.675  64.865  1.00  0.00    -0.564 C  
HETATM    2  C   UNL     1     -12.626  14.015  65.577  1.00  0.00    -0.516 C  
ENDROOT
BRANCH   2   3
HETATM    3  N   UNL     1     -12.152  14.075  66.985  1.00  0.00    -0.439 NA 
HETATM    4  C   UNL     1     -11.859  12.718  67.471  1.00  0.00    -0.343 C  
BRANCH   3   5
HETATM    5  C   UNL     1     -10.929  14.955  67.090  1.00  0.00    -0.323 C  
HETATM    6  C   UNL     1      -9.632  14.127  66.947  1.00  0.00    -0.275 C  
BRANCH   5   7
HETATM    7  C   UNL     1     -10.765  16.244  66.177  1.00  0.00    -0.197 C  
HETATM    8  H   UNL     1      -9.761  16.812  64.542  1.00  0.00     0.000 HD 
HETATM    9  O   UNL     1      -9.859  16.041  65.087  1.00  0.00    -0.397 OA 
BRANCH   7  10
HETATM   10  C   UNL     1     -10.513  17.601  66.813  1.00  0.00    -0.289 A  
HETATM   11  C   UNL     1     -10.482  18.743  65.987  1.00  0.00    -0.483 A  
HETATM   12  C   UNL     1     -10.238  20.013  66.521  1.00  0.00    -0.598 A  
HETATM   13  C   UNL     1     -10.012  20.160  67.883  1.00  0.00    -0.537 A  
HETATM   14  C   UNL     1     -10.024  19.038  68.712  1.00  0.00    -0.475 A  
HETATM   15  C   UNL     1     -10.266  17.766  68.179  1.00  0.00    -0.383 A  
ENDBRANCH   7  10
ENDBRANCH   5   7
ENDBRANCH   3   5
ENDBRANCH   2   3
TORSDOF 4
ENDMDL
MODEL       10
REMARK 921   NORMALIZED FREE ENERGY PREDICTED BY IDOCK:   -4.67 KCAL/MOL
REMARK 922        TOTAL FREE ENERGY PREDICTED BY IDOCK:   -6.16 KCAL/MOL
REMARK 923 INTER-LIGAND FREE ENERGY PREDICTED BY IDOCK:   -5.88 KCAL/MOL
REMARK 924 INTRA-LIGAND FREE ENERGY PREDICTED BY IDOCK:   -0.28 KCAL/MOL
REMARK 927      BINDING AFFINITY PREDICTED BY RF-SCORE:    0.00 PKD
ROOT
HETATM    1  C   UNL     1     -10.253  18.695  67.897  1.00  0.00    -0.433 C  
HETATM    2  C   UNL     1     -10.527  17.325  68.517  1.00  0.00    -0.375 C  
ENDROOT
BRANCH   2   3
HETATM    3  N   UNL     1     -10.695  16.198  67.562  1.00  0.00    -0.315 NA 
HETATM    4  C   UNL     1      -9.390  15.582  67.283  1.00  0.00    -0.212 C  
BRANCH   3   5
HETATM    5  C   UNL     1     -11.659  15.177  68.119  1.00  0.00    -0.341 C  
HETATM    6  C   UNL     1     -12.112  14.184  67.026  1.00  0.00    -0.449 C  
BRANCH   5   7
HETATM    7  C   UNL     1     -11.294  14.322  69.407  1.00  0.00    -0.282 C  
HETATM    8  H   UNL     1     -11.133  12.400  69.941  1.00  0.00     0.000 HD 
HETATM    9  O   UNL     1     -11.350  12.911  69.172  1.00  0.00    -0.261 OA 
BRANCH   7  10
HETATM   10  C   UNL     1     -11.936  14.649  70.745  1.00  0.00    -0.380 A  
HETATM   11  C   UNL     1     -12.925  13.782  71.254  1.00  0.00    -0.409 A  
HETATM   12  C   UNL     1     -13.558  14.045  72.473  1.00  0.00    -0.670 A  
HETATM   13  C   UNL     1     -13.222  15.183  73.196  1.00  0.00    -0.603 A  
HETATM   14  C   UNL     1     -12.258  16.059  72.699  1.00  0.00    -0.619 A  
HETATM   15  C   UNL     1     -11.624  15.798  71.478  1.00  0.00    -0.531 A  
ENDBRANCH   7  10
ENDBRANCH   5   7
ENDBRANCH   3   5
ENDBRANCH   2   3
TORSDOF 4
ENDMDL
MODEL       11
REMARK 921   NORMALIZED FREE ENERGY PREDICTED BY IDOCK:   -4.66 KCAL/MOL
REMARK 922        TOTAL FREE ENERGY PREDICTED BY IDOCK:   -6.14 KCAL/MOL
REMARK 923 INTER-LIGAND FREE ENERGY PREDICTED BY IDOCK:   -5.61 KCAL/MOL
REMARK 924 INTRA-LIGAND FREE ENERGY PREDICTED BY IDOCK:   -0.53 KCAL/MOL
REMARK 927      BINDING AFFINITY PREDICTED BY RF-SCORE:    0.00 PKD
ROOT
HETATM    1  C   UNL     1     -10.882  11.161  68.980  1.00  0.00    -0.276 C  
HETATM    2  C   UNL     1     -11.769  11.939  68.008  1.00  0.00    -0.312 C  
ENDROOT
BRANCH   2   3
HETATM    3  N   UNL     1     -11.193  13.197  67.464  1.00  0.00    -0.271 NA 
HETATM    4  C   UNL     1     -12.195  13.886  66.637  1.00  0.00    -0.424 C  
BRANCH   3   5
HETATM    5  C   UNL     1     -10.725  14.089  68.589  1.00  0.00    -0.259 C  
HETATM    6  C   UNL     1      -9.381  14.767  68.240  1.00  0.00    -0.199 C  
BRANCH   5   7
HETATM    7  C   UNL     1     -11.671  15.211  69.195  1.00  0.00    -0.325 C  
HETATM    8  H   UNL     1     -11.752  17.207  69.318  1.00  0.00     0.000 HD 
HETATM    9  O   UNL     1     -11.186  16.536  68.956  1.00  0.00    -0.305 OA 
BRANCH   7  10
HETATM   10  C   UNL     1     -12.172  15.094  70.625  1.00  0.00    -0.401 A  
HETATM   11  C   UNL     1     -11.853  16.117  71.542  1.00  0.00    -0.528 A  
HETATM   12  C   UNL     1     -12.276  16.049  72.873  1.00  0.00    -0.621 A  
HETATM   13  C   UNL     1     -13.013  14.957  73.312  1.00  0.00    -0.635 A  
HETATM   14  C   UNL     1     -13.323  13.929  72.422  1.00  0.00    -0.629 A  
HETATM   15  C   UNL     1     -12.899  13.994  71.088  1.00  0.00    -0.427 A  
ENDBRANCH   7  10
ENDBRANCH   5   7
ENDBRANCH   3   5
ENDBRANCH   2   3
TORSDOF 4
ENDMDL
MODEL       12
REMARK 921   NORMALIZED FREE ENERGY PREDICTED BY IDOCK:   -4.64 KCAL/MOL
REMARK 922        TOTAL FREE ENERGY PREDICTED BY IDOCK:   -6.12 KCAL/MOL
REMARK 923 INTER-LIGAND FREE ENERGY PREDICTED BY IDOCK:   -5.91 KCAL/MOL
REMARK 924 INTRA-LIGAND FREE ENERGY PREDICTED BY IDOCK:   -0.21 KCAL/MOL
REMARK 927      BINDING AFFINITY PREDICTED BY RF-SCORE:    0.00 PKD
ROOT
HETATM    1  C   UNL     1     -10.255  18.691  67.896  1.00  0.00    -0.433 C  
HETATM    2  C   UNL     1     -10.530  17.317  68.507  1.00  0.00    -0.375 C  
ENDROOT
BRANCH   2   3
HETATM    3  N   UNL     1     -10.707  16.199  67.544  1.00  0.00    -0.315 NA 
HETATM    4  C   UNL     1      -9.405  15.582  67.251  1.00  0.00    -0.212 C  
BRANCH   3   5
HETATM    5  C   UNL     1     -11.669  15.175  68.100  1.00  0.00    -0.302 C  
HETATM    6  C   UNL     1     -12.142  14.199  66.999  1.00  0.00    -0.449 C  
BRANCH   5   7
HETATM    7  C   UNL     1     -11.292  14.300  69.371  1.00  0.00    -0.282 C  
HETATM    8  H   UNL     1     -11.126  12.370  69.874  1.00  0.00     0.000 HD 
HETATM    9  O   UNL     1     -11.351  12.893  69.114  1.00  0.00    -0.261 OA 
BRANCH   7  10
HETATM   10  C   UNL     1     -11.922  14.606  70.720  1.00  0.00    -0.380 A  
HETATM   11  C   UNL     1     -11.598  15.818  71.362  1.00  0.00    -0.511 A  
HETATM   12  C   UNL     1     -12.139  16.140  72.611  1.00  0.00    -0.652 A  
HETATM   13  C   UNL     1     -13.001  15.253  73.243  1.00  0.00    -0.645 A  
HETATM   14  C   UNL     1     -13.319  14.042  72.628  1.00  0.00    -0.643 A  
HETATM   15  C   UNL     1     -12.778  13.717  71.378  1.00  0.00    -0.450 A  
ENDBRANCH   7  10
ENDBRANCH   5   7
ENDBRANCH   3   5
ENDBRANCH   2   3
TORSDOF 4
ENDMDL
MODEL       13
REMARK 921   NORMALIZED FREE ENERGY PREDICTED BY IDOCK:   -4.64 KCAL/MOL
REMARK 922        TOTAL FREE ENERGY PREDICTED BY IDOCK:   -6.12 KCAL/MOL
REMARK 923 INTER-LIGAND FREE ENERGY PREDICTED BY IDOCK:   -5.81 KCAL/MOL
REMARK 924 INTRA-LIGAND FREE ENERGY PREDICTED BY IDOCK:   -0.31 KCAL/MOL
REMARK 927      BINDING AFFINITY PREDICTED BY RF-SCORE:    0.00 PKD
ROOT
HETATM    1  C   UNL     1     -10.358  15.437  65.300  1.00  0.00    -0.420 C  
HETATM    2  C   UNL     1     -10.665  14.787  66.650  1.00  0.00    -0.309 C  
ENDROOT
BRANCH   2   3
HETATM    3  N   UNL     1     -12.025  14.206  66.800  1.00  0.00    -0.431 NA 
HETATM    4  C   UNL     1     -12.632  14.010  65.475  1.00  0.00    -0.516 C  
BRANCH   3   5
HETATM    5  C   UNL     1     -11.957  12.899  67.553  1.00  0.00    -0.296 C  
HETATM    6  C   UNL     1     -11.175  11.833  66.753  1.00  0.00    -0.388 C  
BRANCH   5   7
HETATM    7  C   UNL     1     -11.428  12.841  69.050  1.00  0.00    -0.309 C  
HETATM    8  H   UNL     1     -10.629  11.511  70.314  1.00  0.00     0.000 HD 
HETATM    9  O   UNL     1     -10.945  11.545  69.419  1.00  0.00    -0.230 OA 
BRANCH   7  10
HETATM   10  C   UNL     1     -12.267  13.420  70.177  1.00  0.00    -0.385 A  
HETATM   11  C   UNL     1     -12.765  12.551  71.169  1.00  0.00    -0.340 A  
HETATM   12  C   UNL     1     -13.555  13.032  72.218  1.00  0.00    -0.643 A  
HETATM   13  C   UNL     1     -13.869  14.383  72.287  1.00  0.00    -0.589 A  
HETATM   14  C   UNL     1     -13.397  15.254  71.305  1.00  0.00    -0.586 A  
HETATM   15  C   UNL     1     -12.607  14.774  70.253  1.00  0.00    -0.365 A  
ENDBRANCH   7  10
ENDBRANCH   5   7
ENDBRANCH   3   5
ENDBRANCH   2   3
TORSDOF 4
ENDMDL
MODEL       14
REMARK 921   NORMALIZED FREE ENERGY PREDICTED BY IDOCK:   -4.62 KCAL/MOL
REMARK 922        TOTAL FREE ENERGY PREDICTED BY IDOCK:   -6.10 KCAL/MOL
REMARK 923 INTER-LIGAND FREE ENERGY PREDICTED BY IDOCK:   -5.67 KCAL/MOL
REMARK 924 INTRA-LIGAND FREE ENERGY PREDICTED BY IDOCK:   -0.42 KCAL/MOL
REMARK 927      BINDING AFFINITY PREDICTED BY RF-SCORE:    0.00 PKD
ROOT
HETATM    1  C   UNL     1     -12.188  12.060  63.612  1.00  0.00    -0.642 C  
HETATM    2  C   UNL     1     -10.915  12.555  64.298  1.00  0.00    -0.360 C  
ENDROOT
BRANCH   2   3
HETATM    3  N   UNL     1     -10.858  14.010  64.596  1.00  0.00    -0.413 NA 
HETATM    4  C   UNL     1     -12.178  14.616  64.372  1.00  0.00    -0.452 C  
BRANCH   3   5
HETATM    5  C   UNL     1     -10.401  14.236  66.018  1.00  0.00    -0.309 C  
HETATM    6  C   UNL     1      -9.361  15.377  66.094  1.00  0.00    -0.367 C  
BRANCH   5   7
HETATM    7  C   UNL     1     -11.448  14.478  67.188  1.00  0.00    -0.368 C  
HETATM    8  H   UNL     1     -11.893  15.882  68.543  1.00  0.00     0.000 HD 
HETATM    9  O   UNL     1     -11.268  15.738  67.843  1.00  0.00    -0.341 OA 
BRANCH   7  10
HETATM   10  C   UNL     1     -11.703  13.391  68.219  1.00  0.00    -0.391 A  
HETATM   11  C   UNL     1     -12.022  13.768  69.539  1.00  0.00    -0.399 A  
HETATM   12  C   UNL     1     -12.251  12.807  70.529  1.00  0.00    -0.389 A  
HETATM   13  C   UNL     1     -12.152  11.456  70.219  1.00  0.00    -0.459 A  
HETATM   14  C   UNL     1     -11.821  11.067  68.922  1.00  0.00    -0.378 A  
HETATM   15  C   UNL     1     -11.591  12.028  67.929  1.00  0.00    -0.405 A  
ENDBRANCH   7  10
ENDBRANCH   5   7
ENDBRANCH   3   5
ENDBRANCH   2   3
TORSDOF 4
ENDMDL
MODEL       15
REMARK 921   NORMALIZED FREE ENERGY PREDICTED BY IDOCK:   -4.62 KCAL/MOL
REMARK 922        TOTAL FREE ENERGY PREDICTED BY IDOCK:   -6.10 KCAL/MOL
REMARK 923 INTER-LIGAND FREE ENERGY PREDICTED BY IDOCK:   -5.55 KCAL/MOL
REMARK 924 INTRA-LIGAND FREE ENERGY PREDICTED BY IDOCK:   -0.55 KCAL/MOL
REMARK 927      BINDING AFFINITY PREDICTED BY RF-SCORE:    0.00 PKD
ROOT
HETATM    1  C   UNL     1      -9.377  15.944  69.372  1.00  0.00    -0.250 C  
HETATM    2  C   UNL     1      -9.026  14.921  68.291  1.00  0.00    -0.177 C  
ENDROOT
BRANCH   2   3
HETATM    3  N   UNL     1     -10.125  14.552  67.361  1.00  0.00    -0.235 NA 
HETATM    4  C   UNL     1     -11.424  14.852  67.981  1.00  0.00    -0.337 C  
BRANCH   3   5
HETATM    5  C   UNL     1      -9.975  15.290  66.052  1.00  0.00    -0.319 C  
HETATM    6  C   UNL     1     -10.457  14.425  64.866  1.00  0.00    -0.448 C  
BRANCH   5   7
HETATM    7  C   UNL     1     -10.589  16.741  65.853  1.00  0.00    -0.248 C  
HETATM    8  H   UNL     1     -11.409  17.842  64.396  1.00  0.00     0.000 HD 
HETATM    9  O   UNL     1     -11.042  16.974  64.515  1.00  0.00    -1.098 OA 
BRANCH   7  10
HETATM   10  C   UNL     1      -9.842  17.961  66.366  1.00  0.00    -0.339 A  
HETATM   11  C   UNL     1     -10.579  19.110  66.718  1.00  0.00    -0.528 A  
HETATM   12  C   UNL     1      -9.938  20.264  67.181  1.00  0.00    -0.593 A  
HETATM   13  C   UNL     1      -8.553  20.293  67.287  1.00  0.00    -0.425 A  
HETATM   14  C   UNL     1      -7.809  19.170  66.927  1.00  0.00    -0.266 A  
HETATM   15  C   UNL     1      -8.448  18.014  66.462  1.00  0.00    -0.285 A  
ENDBRANCH   7  10
ENDBRANCH   5   7
ENDBRANCH   3   5
ENDBRANCH   2   3
TORSDOF 4
ENDMDL
MODEL       16
REMARK 921   NORMALIZED FREE ENERGY PREDICTED BY IDOCK:   -4.59 KCAL/MOL
REMARK 922        TOTAL FREE ENERGY PREDICTED BY IDOCK:   -6.05 KCAL/MOL
REMARK 923 INTER-LIGAND FREE ENERGY PREDICTED BY IDOCK:   -5.69 KCAL/MOL
REMARK 924 INTRA-LIGAND FREE ENERGY PREDICTED BY IDOCK:   -0.36 KCAL/MOL
REMARK 927      BINDING AFFINITY PREDICTED BY RF-SCORE:    0.00 PKD
ROOT
HETATM    1  C   UNL     1      -6.640  17.745  66.184  1.00  0.00    -0.309 C  
HETATM    2  C   UNL     1      -7.890  16.931  66.522  1.00  0.00    -0.294 C  
ENDROOT
BRANCH   2   3
HETATM    3  N   UNL     1      -8.945  17.645  67.288  1.00  0.00    -0.237 NA 
HETATM    4  C   UNL     1      -8.521  19.027  67.553  1.00  0.00    -0.282 C  
BRANCH   3   5
HETATM    5  C   UNL     1     -10.250  17.624  66.527  1.00  0.00    -0.355 C  
HETATM    6  C   UNL     1     -10.608  19.030  65.996  1.00  0.00    -0.499 C  
BRANCH   5   7
HETATM    7  C   UNL     1     -10.490  16.599  65.338  1.00  0.00    -0.233 C  
HETATM    8  H   UNL     1     -11.356  16.562  63.534  1.00  0.00     0.000 HD 
HETATM    9  O   UNL     1     -11.212  17.175  64.244  1.00  0.00    -1.126 OA 
BRANCH   7  10
HETATM   10  C   UNL     1     -11.021  15.205  65.630  1.00  0.00    -0.359 A  
HETATM   11  C   UNL     1     -11.056  14.259  64.585  1.00  0.00    -0.371 A  
HETATM   12  C   UNL     1     -11.549  12.967  64.797  1.00  0.00    -0.368 A  
HETATM   13  C   UNL     1     -12.026  12.605  66.051  1.00  0.00    -0.478 A  
HETATM   14  C   UNL     1     -12.014  13.534  67.091  1.00  0.00    -0.426 A  
HETATM   15  C   UNL     1     -11.521  14.828  66.880  1.00  0.00    -0.354 A  
ENDBRANCH   7  10
ENDBRANCH   5   7
ENDBRANCH   3   5
ENDBRANCH   2   3
TORSDOF 4
ENDMDL
MODEL       17
REMARK 921   NORMALIZED FREE ENERGY PREDICTED BY IDOCK:   -4.53 KCAL/MOL
REMARK 922        TOTAL FREE ENERGY PREDICTED BY IDOCK:   -5.99 KCAL/MOL
REMARK 923 INTER-LIGAND FREE ENERGY PREDICTED BY IDOCK:   -5.67 KCAL/MOL
REMARK 924 INTRA-LIGAND FREE ENERGY PREDICTED BY IDOCK:   -0.31 KCAL/MOL
REMARK 927      BINDING AFFINITY PREDICTED BY RF-SCORE:    0.00 PKD
ROOT
HETATM    1  C   UNL     1     -11.905  14.411  69.202  1.00  0.00    -0.359 C  
HETATM    2  C   UNL     1     -11.727  14.239  67.693  1.00  0.00    -0.389 C  
ENDROOT
BRANCH   2   3
HETATM    3  N   UNL     1     -10.324  14.178  67.205  1.00  0.00    -0.264 NA 
HETATM    4  C   UNL     1      -9.932  12.777  66.990  1.00  0.00    -0.231 C  
BRANCH   3   5
HETATM    5  C   UNL     1     -10.177  14.975  65.930  1.00  0.00    -0.315 C  
HETATM    6  C   UNL     1     -10.429  14.092  64.688  1.00  0.00    -0.398 C  
BRANCH   5   7
HETATM    7  C   UNL     1     -10.976  16.330  65.712  1.00  0.00    -0.062 C  
HETATM    8  H   UNL     1     -11.680  17.436  64.200  1.00  0.00     0.000 HD 
HETATM    9  O   UNL     1     -11.202  16.626  64.330  1.00  0.00    -1.098 OA 
BRANCH   7  10
HETATM   10  C   UNL     1     -10.554  17.590  66.449  1.00  0.00    -0.195 A  
HETATM   11  C   UNL     1     -10.228  17.501  67.817  1.00  0.00    -0.349 A  
HETATM   12  C   UNL     1      -9.848  18.634  68.544  1.00  0.00    -0.427 A  
HETATM   13  C   UNL     1      -9.799  19.874  67.920  1.00  0.00    -0.529 A  
HETATM   14  C   UNL     1     -10.134  19.982  66.570  1.00  0.00    -0.606 A  
HETATM   15  C   UNL     1     -10.516  18.849  65.841  1.00  0.00    -0.450 A  
ENDBRANCH   7  10
ENDBRANCH   5   7
ENDBRANCH   3   5
ENDBRANCH   2   3
TORSDOF 4
ENDMDL
MODEL       18
REMARK 921   NORMALIZED FREE ENERGY PREDICTED BY IDOCK:   -4.53 KCAL/MOL
REMARK 922        TOTAL FREE ENERGY PREDICTED BY IDOCK:   -5.98 KCAL/MOL
REMARK 923 INTER-LIGAND FREE ENERGY PREDICTED BY IDOCK:   -5.48 KCAL/MOL
REMARK 924 INTRA-LIGAND FREE ENERGY PREDICTED BY IDOCK:   -0.50 KCAL/MOL
REMARK 927      BINDING AFFINITY PREDICTED BY RF-SCORE:    0.00 PKD
ROOT
HETATM    1  C   UNL     1     -12.072  14.617  64.311  1.00  0.00    -0.437 C  
HETATM    2  C   UNL     1     -12.655  14.087  65.621  1.00  0.00    -0.512 C  
ENDROOT
BRANCH   2   3
HETATM    3  N   UNL     1     -11.671  13.733  66.677  1.00  0.00    -0.372 NA 
HETATM    4  C   UNL     1     -10.344  13.535  66.076  1.00  0.00    -0.303 C  
BRANCH   3   5
HETATM    5  C   UNL     1     -11.623  14.812  67.733  1.00  0.00    -0.357 C  
HETATM    6  C   UNL     1     -12.016  14.253  69.119  1.00  0.00    -0.372 C  
BRANCH   5   7
HETATM    7  C   UNL     1     -10.324  15.702  67.938  1.00  0.00    -0.259 C  
HETATM    8  H   UNL     1      -8.991  16.111  69.373  1.00  0.00     0.000 HD 
HETATM    9  O   UNL     1      -9.767  15.579  69.251  1.00  0.00    -0.235 OA 
BRANCH   7  10
HETATM   10  C   UNL     1     -10.326  17.162  67.513  1.00  0.00    -0.341 A  
HETATM   11  C   UNL     1     -10.156  18.156  68.498  1.00  0.00    -0.413 A  
HETATM   12  C   UNL     1     -10.165  19.513  68.161  1.00  0.00    -0.556 A  
HETATM   13  C   UNL     1     -10.357  19.899  66.840  1.00  0.00    -0.596 A  
HETATM   14  C   UNL     1     -10.543  18.928  65.857  1.00  0.00    -0.438 A  
HETATM   15  C   UNL     1     -10.535  17.568  66.192  1.00  0.00    -0.288 A  
ENDBRANCH   7  10
ENDBRANCH   5   7
ENDBRANCH   3   5
ENDBRANCH   2   3
TORSDOF 4
ENDMDL
MODEL       19
REMARK 921   NORMALIZED FREE ENERGY PREDICTED BY IDOCK:   -4.51 KCAL/MOL
REMARK 922        TOTAL FREE ENERGY PREDICTED BY IDOCK:   -5.95 KCAL/MOL
REMARK 923 INTER-LIGAND FREE ENERGY PREDICTED BY IDOCK:   -5.51 KCAL/MOL
REMARK 924 INTRA-LIGAND FREE ENERGY PREDICTED BY IDOCK:   -0.45 KCAL/MOL
REMARK 927      BINDING AFFINITY PREDICTED BY RF-SCORE:    0.00 PKD
ROOT
HETATM    1  C   UNL     1     -11.538   6.614  69.634  1.00  0.00    -0.305 C  
HETATM    2  C   UNL     1     -11.124   6.137  71.026  1.00  0.00    -0.297 C  
ENDROOT
BRANCH   2   3
HETATM    3  N   UNL     1     -11.885   6.712  72.166  1.00  0.00    -0.307 NA 
HETATM    4  C   UNL     1     -10.962   7.375  73.098  1.00  0.00    -0.359 C  
BRANCH   3   5
HETATM    5  C   UNL     1     -12.926   7.685  71.665  1.00  0.00    -0.350 C  
HETATM    6  C   UNL     1     -14.326   7.031  71.623  1.00  0.00    -0.462 C  
BRANCH   5   7
HETATM    7  C   UNL     1     -13.098   9.117  72.328  1.00  0.00    -0.438 C  
HETATM    8  H   UNL     1     -14.478  10.149  73.347  1.00  0.00     0.000 HD 
HETATM    9  O   UNL     1     -14.376   9.292  72.950  1.00  0.00    -0.461 OA 
BRANCH   7  10
HETATM   10  C   UNL     1     -12.728  10.368  71.548  1.00  0.00    -0.564 A  
HETATM   11  C   UNL     1     -11.805  10.258  70.488  1.00  0.00    -0.419 A  
HETATM   12  C   UNL     1     -11.419  11.381  69.748  1.00  0.00    -0.376 A  
HETATM   13  C   UNL     1     -11.939  12.630  70.063  1.00  0.00    -0.377 A  
HETATM   14  C   UNL     1     -12.840  12.758  71.119  1.00  0.00    -0.315 A  
HETATM   15  C   UNL     1     -13.227  11.635  71.862  1.00  0.00    -0.475 A  
ENDBRANCH   7  10
ENDBRANCH   5   7
ENDBRANCH   3   5
ENDBRANCH   2   3
TORSDOF 4
ENDMDL
MODEL       20
REMARK 921   NORMALIZED FREE ENERGY PREDICTED BY IDOCK:   -4.49 KCAL/MOL
REMARK 922        TOTAL FREE ENERGY PREDICTED BY IDOCK:   -5.93 KCAL/MOL
REMARK 923 INTER-LIGAND FREE ENERGY PREDICTED BY IDOCK:   -5.54 KCAL/MOL
REMARK 924 INTRA-LIGAND FREE ENERGY PREDICTED BY IDOCK:   -0.39 KCAL/MOL
REMARK 927      BINDING AFFINITY PREDICTED BY RF-SCORE:    0.00 PKD
ROOT
HETATM    1  C   UNL     1     -11.337  14.646  64.997  1.00  0.00    -0.390 C  
HETATM    2  C   UNL     1     -12.300  13.823  65.853  1.00  0.00    -0.476 C  
ENDROOT
BRANCH   2   3
HETATM    3  N   UNL     1     -12.191  12.347  65.721  1.00  0.00    -0.638 NA 
HETATM    4  C   UNL     1     -11.485  12.008  64.477  1.00  0.00    -0.319 C  
BRANCH   3   5
HETATM    5  C   UNL     1     -11.475  11.764  66.917  1.00  0.00    -0.293 C  
HETATM    6  C   UNL     1     -10.180  11.037  66.491  1.00  0.00    -0.280 C  
BRANCH   5   7
HETATM    7  C   UNL     1     -11.115  12.663  68.175  1.00  0.00    -0.249 C  
HETATM    8  H   UNL     1      -9.492  13.276  69.173  1.00  0.00     0.000 HD 
HETATM    9  O   UNL     1      -9.707  12.739  68.420  1.00  0.00    -0.223 OA 
BRANCH   7  10
HETATM   10  C   UNL     1     -11.858  12.469  69.487  1.00  0.00    -0.375 A  
HETATM   11  C   UNL     1     -12.190  13.604  70.255  1.00  0.00    -0.423 A  
HETATM   12  C   UNL     1     -12.859  13.478  71.476  1.00  0.00    -0.440 A  
HETATM   13  C   UNL     1     -13.196  12.218  71.956  1.00  0.00    -0.508 A  
HETATM   14  C   UNL     1     -12.861  11.085  71.216  1.00  0.00    -0.528 A  
HETATM   15  C   UNL     1     -12.190  11.208  69.993  1.00  0.00    -0.402 A  
ENDBRANCH   7  10
ENDBRANCH   5   7
ENDBRANCH   3   5
ENDBRANCH   2   3
TORSDOF 4
ENDMDL
MODEL       21
REMARK 921   NORMALIZED FREE ENERGY PREDICTED BY IDOCK:   -4.48 KCAL/MOL
REMARK 922        TOTAL FREE ENERGY PREDICTED BY IDOCK:   -5.92 KCAL/MOL
REMARK 923 INTER-LIGAND FREE ENERGY PREDICTED BY IDOCK:   -5.59 KCAL/MOL
REMARK 924 INTRA-LIGAND FREE ENERGY PREDICTED BY IDOCK:   -0.33 KCAL/MOL
REMARK 927      BINDING AFFINITY PREDICTED BY RF-SCORE:    0.00 PKD
ROOT
HETATM    1  C   UNL     1     -12.584  12.496  64.646  1.00  0.00    -0.507 C  
HETATM    2  C   UNL     1     -11.892  12.940  65.934  1.00  0.00    -0.424 C  
ENDROOT
BRANCH   2   3
HETATM    3  N   UNL     1     -11.150  14.226  65.866  1.00  0.00    -0.305 NA 
HETATM    4  C   UNL     1     -11.608  15.005  64.706  1.00  0.00    -0.395 C  
BRANCH   3   5
HETATM    5  C   UNL     1     -11.338  15.010  67.144  1.00  0.00    -0.320 C  
HETATM    6  C   UNL     1     -11.877  14.107  68.277  1.00  0.00    -0.391 C  
BRANCH   5   7
HETATM    7  C   UNL     1     -10.157  15.876  67.757  1.00  0.00    -0.244 C  
HETATM    8  H   UNL     1      -9.124  16.019  69.465  1.00  0.00     0.000 HD 
HETATM    9  O   UNL     1      -9.830  15.500  69.099  1.00  0.00    -0.213 OA 
BRANCH   7  10
HETATM   10  C   UNL     1     -10.182  17.391  67.636  1.00  0.00    -0.342 A  
HETATM   11  C   UNL     1     -10.206  17.970  66.351  1.00  0.00    -0.393 A  
HETATM   12  C   UNL     1     -10.214  19.359  66.186  1.00  0.00    -0.570 A  
HETATM   13  C   UNL     1     -10.187  20.190  67.299  1.00  0.00    -0.540 A  
HETATM   14  C   UNL     1     -10.148  19.633  68.577  1.00  0.00    -0.557 A  
HETATM   15  C   UNL     1     -10.138  18.243  68.745  1.00  0.00    -0.393 A  
ENDBRANCH   7  10
ENDBRANCH   5   7
ENDBRANCH   3   5
ENDBRANCH   2   3
TORSDOF 4
ENDMDL
MODEL       22
REMARK 921   NORMALIZED FREE ENERGY PREDICTED BY IDOCK:   -4.47 KCAL/MOL
REMARK 922        TOTAL FREE ENERGY PREDICTED BY IDOCK:   -5.91 KCAL/MOL
REMARK 923 INTER-LIGAND FREE ENERGY PREDICTED BY IDOCK:   -5.60 KCAL/MOL
REMARK 924 INTRA-LIGAND FREE ENERGY PREDICTED BY IDOCK:   -0.31 KCAL/MOL
REMARK 927      BINDING AFFINITY PREDICTED BY RF-SCORE:    0.00 PKD
ROOT
HETATM    1  C   UNL     1     -11.405  12.357  63.620  1.00  0.00    -0.556 C  
HETATM    2  C   UNL     1     -10.666  13.382  64.480  1.00  0.00    -0.419 C  
ENDROOT
BRANCH   2   3
HETATM    3  N   UNL     1     -11.515  14.385  65.175  1.00  0.00    -0.347 NA 
HETATM    4  C   UNL     1     -12.785  13.766  65.582  1.00  0.00    -0.478 C  
BRANCH   3   5
HETATM    5  C   UNL     1     -10.788  14.949  66.373  1.00  0.00    -0.325 C  
HETATM    6  C   UNL     1     -10.207  13.821  67.255  1.00  0.00    -0.253 C  
BRANCH   5   7
HETATM    7  C   UNL     1      -9.650  16.043  66.201  1.00  0.00    -0.334 C  
HETATM    8  H   UNL     1      -7.667  16.199  66.421  1.00  0.00     0.000 HD 
HETATM    9  O   UNL     1      -8.347  15.544  66.524  1.00  0.00    -0.269 OA 
BRANCH   7  10
HETATM   10  C   UNL     1      -9.832  17.432  66.791  1.00  0.00    -0.297 A  
HETATM   11  C   UNL     1      -9.394  17.673  68.109  1.00  0.00    -0.279 A  
HETATM   12  C   UNL     1      -9.553  18.928  68.704  1.00  0.00    -0.443 A  
HETATM   13  C   UNL     1     -10.161  19.958  67.998  1.00  0.00    -0.572 A  
HETATM   14  C   UNL     1     -10.615  19.731  66.699  1.00  0.00    -0.578 A  
HETATM   15  C   UNL     1     -10.459  18.474  66.102  1.00  0.00    -0.447 A  
ENDBRANCH   7  10
ENDBRANCH   5   7
ENDBRANCH   3   5
ENDBRANCH   2   3
TORSDOF 4
ENDMDL
MODEL       23
REMARK 921   NORMALIZED FREE ENERGY PREDICTED BY IDOCK:   -4.41 KCAL/MOL
REMARK 922        TOTAL FREE ENERGY PREDICTED BY IDOCK:   -5.84 KCAL/MOL
REMARK 923 INTER-LIGAND FREE ENERGY PREDICTED BY IDOCK:   -5.42 KCAL/MOL
REMARK 924 INTRA-LIGAND FREE ENERGY PREDICTED BY IDOCK:   -0.42 KCAL/MOL
REMARK 927      BINDING AFFINITY PREDICTED BY RF-SCORE:    0.00 PKD
ROOT
HETATM    1  C   UNL     1      -9.673   6.589  70.758  1.00  0.00    -0.194 C  
HETATM    2  C   UNL     1     -11.137   6.152  70.810  1.00  0.00    -0.309 C  
ENDROOT
BRANCH   2   3
HETATM    3  N   UNL     1     -11.918   6.629  71.981  1.00  0.00    -0.323 NA 
HETATM    4  C   UNL     1     -11.013   7.217  72.979  1.00  0.00    -0.344 C  
BRANCH   3   5
HETATM    5  C   UNL     1     -12.957   7.636  71.544  1.00  0.00    -0.341 C  
HETATM    6  C   UNL     1     -14.361   6.995  71.479  1.00  0.00    -0.435 C  
BRANCH   5   7
HETATM    7  C   UNL     1     -13.111   9.030  72.287  1.00  0.00    -0.445 C  
HETATM    8  H   UNL     1     -14.488  10.029  73.342  1.00  0.00     0.000 HD 
HETATM    9  O   UNL     1     -14.396   9.195  72.898  1.00  0.00    -0.519 OA 
BRANCH   7  10
HETATM   10  C   UNL     1     -12.703  10.316  71.587  1.00  0.00    -0.561 A  
HETATM   11  C   UNL     1     -13.265  11.534  72.022  1.00  0.00    -0.443 A  
HETATM   12  C   UNL     1     -12.935  12.743  71.402  1.00  0.00    -0.359 A  
HETATM   13  C   UNL     1     -12.049  12.753  70.331  1.00  0.00    -0.382 A  
HETATM   14  C   UNL     1     -11.497  11.555  69.879  1.00  0.00    -0.340 A  
HETATM   15  C   UNL     1     -11.827  10.343  70.498  1.00  0.00    -0.430 A  
ENDBRANCH   7  10
ENDBRANCH   5   7
ENDBRANCH   3   5
ENDBRANCH   2   3
TORSDOF 4
ENDMDL
MODEL       24
REMARK 921   NORMALIZED FREE ENERGY PREDICTED BY IDOCK:   -4.39 KCAL/MOL
REMARK 922        TOTAL FREE ENERGY PREDICTED BY IDOCK:   -5.81 KCAL/MOL
REMARK 923 INTER-LIGAND FREE ENERGY PREDICTED BY IDOCK:   -5.37 KCAL/MOL
REMARK 924 INTRA-LIGAND FREE ENERGY PREDICTED BY IDOCK:   -0.44 KCAL/MOL
REMARK 927      BINDING AFFINITY PREDICTED BY RF-SCORE:    0.00 PKD
ROOT
HETATM    1  C   UNL     1     -13.912  14.256  72.288  1.00  0.00    -0.629 C  
HETATM    2  C   UNL     1     -13.748  15.102  71.026  1.00  0.00    -0.382 C  
ENDROOT
BRANCH   2   3
HETATM    3  N   UNL     1     -12.405  15.703  70.813  1.00  0.00    -0.410 NA 
HETATM    4  C   UNL     1     -11.539  15.409  71.965  1.00  0.00    -0.459 C  
BRANCH   3   5
HETATM    5  C   UNL     1     -11.791  15.178  69.537  1.00  0.00    -0.332 C  
HETATM    6  C   UNL     1     -10.250  15.287  69.574  1.00  0.00    -0.265 C  
BRANCH   5   7
HETATM    7  C   UNL     1     -12.145  13.729  68.991  1.00  0.00    -0.322 C  
HETATM    8  H   UNL     1     -11.773  11.816  69.448  1.00  0.00     0.000 HD 
HETATM    9  O   UNL     1     -11.562  12.682  69.775  1.00  0.00    -0.274 OA 
BRANCH   7  10
HETATM   10  C   UNL     1     -11.992  13.414  67.512  1.00  0.00    -0.381 A  
HETATM   11  C   UNL     1     -11.369  12.206  67.136  1.00  0.00    -0.393 A  
HETATM   12  C   UNL     1     -11.190  11.876  65.789  1.00  0.00    -0.365 A  
HETATM   13  C   UNL     1     -11.619  12.750  64.798  1.00  0.00    -0.368 A  
HETATM   14  C   UNL     1     -12.222  13.956  65.154  1.00  0.00    -0.443 A  
HETATM   15  C   UNL     1     -12.401  14.289  66.502  1.00  0.00    -0.345 A  
ENDBRANCH   7  10
ENDBRANCH   5   7
ENDBRANCH   3   5
ENDBRANCH   2   3
TORSDOF 4
ENDMDL
MODEL       25
REMARK 921   NORMALIZED FREE ENERGY PREDICTED BY IDOCK:   -4.39 KCAL/MOL
REMARK 922        TOTAL FREE ENERGY PREDICTED BY IDOCK:   -5.80 KCAL/MOL
REMARK 923 INTER-LIGAND FREE ENERGY PREDICTED BY IDOCK:   -5.51 KCAL/MOL
REMARK 924 INTRA-LIGAND FREE ENERGY PREDICTED BY IDOCK:   -0.30 KCAL/MOL
REMARK 927      BINDING AFFINITY PREDICTED BY RF-SCORE:    0.00 PKD
ROOT
HETATM    1  C   UNL     1     -12.437  14.010  65.308  1.00  0.00    -0.495 C  
HETATM    2  C   UNL     1     -12.019  13.584  66.715  1.00  0.00    -0.404 C  
ENDROOT
BRANCH   2   3
HETATM    3  N   UNL     1     -11.807  12.127  66.920  1.00  0.00    -0.601 NA 
HETATM    4  C   UNL     1     -10.922  11.600  65.871  1.00  0.00    -0.280 C  
BRANCH   3   5
HETATM    5  C   UNL     1     -11.224  11.869  68.289  1.00  0.00    -0.261 C  
HETATM    6  C   UNL     1     -10.026  12.803  68.571  1.00  0.00    -0.168 C  
BRANCH   5   7
HETATM    7  C   UNL     1     -12.141  11.879  69.586  1.00  0.00    -0.239 C  
HETATM    8  H   UNL     1     -12.625  13.123  71.077  1.00  0.00     0.000 HD 
HETATM    9  O   UNL     1     -12.077  13.117  70.302  1.00  0.00    -0.349 OA 
BRANCH   7  10
HETATM   10  C   UNL     1     -12.092  10.715  70.562  1.00  0.00    -0.448 A  
HETATM   11  C   UNL     1     -10.944   9.897  70.588  1.00  0.00    -0.405 A  
HETATM   12  C   UNL     1     -10.855   8.805  71.456  1.00  0.00    -0.374 A  
HETATM   13  C   UNL     1     -11.915   8.505  72.303  1.00  0.00    -0.454 A  
HETATM   14  C   UNL     1     -13.064   9.294  72.279  1.00  0.00    -0.517 A  
HETATM   15  C   UNL     1     -13.156  10.388  71.409  1.00  0.00    -0.512 A  
ENDBRANCH   7  10
ENDBRANCH   5   7
ENDBRANCH   3   5
ENDBRANCH   2   3
TORSDOF 4
ENDMDL
MODEL       26
REMARK 921   NORMALIZED FREE ENERGY PREDICTED BY IDOCK:   -4.38 KCAL/MOL
REMARK 922        TOTAL FREE ENERGY PREDICTED BY IDOCK:   -5.80 KCAL/MOL
REMARK 923 INTER-LIGAND FREE ENERGY PREDICTED BY IDOCK:   -5.36 KCAL/MOL
REMARK 924 INTRA-LIGAND FREE ENERGY PREDICTED BY IDOCK:   -0.44 KCAL/MOL
REMARK 927      BINDING AFFINITY PREDICTED BY RF-SCORE:    0.00 PKD
ROOT
HETATM    1  C   UNL     1     -12.065  13.091  65.887  1.00  0.00    -0.503 C  
HETATM    2  C   UNL     1     -11.752  14.366  66.671  1.00  0.00    -0.394 C  
ENDROOT
BRANCH   2   3
HETATM    3  N   UNL     1     -10.410  14.427  67.307  1.00  0.00    -0.259 NA 
HETATM    4  C   UNL     1      -9.537  15.332  66.544  1.00  0.00    -0.271 C  
BRANCH   3   5
HETATM    5  C   UNL     1     -10.529  14.884  68.741  1.00  0.00    -0.242 C  
HETATM    6  C   UNL     1     -10.032  16.338  68.906  1.00  0.00    -0.248 C  
BRANCH   5   7
HETATM    7  C   UNL     1     -11.903  14.767  69.528  1.00  0.00    -0.326 C  
HETATM    8  H   UNL     1     -12.959  15.804  70.876  1.00  0.00     0.000 HD 
HETATM    9  O   UNL     1     -12.138  15.874  70.405  1.00  0.00    -0.361 OA 
BRANCH   7  10
HETATM   10  C   UNL     1     -12.273  13.468  70.226  1.00  0.00    -0.417 A  
HETATM   11  C   UNL     1     -13.003  13.528  71.430  1.00  0.00    -0.421 A  
HETATM   12  C   UNL     1     -13.355  12.363  72.119  1.00  0.00    -0.508 A  
HETATM   13  C   UNL     1     -12.974  11.122  71.623  1.00  0.00    -0.548 A  
HETATM   14  C   UNL     1     -12.238  11.047  70.441  1.00  0.00    -0.461 A  
HETATM   15  C   UNL     1     -11.883  12.213  69.750  1.00  0.00    -0.397 A  
ENDBRANCH   7  10
ENDBRANCH   5   7
ENDBRANCH   3   5
ENDBRANCH   2   3
TORSDOF 4
ENDMDL
MODEL       27
REMARK 921   NORMALIZED FREE ENERGY PREDICTED BY IDOCK:   -4.38 KCAL/MOL
REMARK 922        TOTAL FREE ENERGY PREDICTED BY IDOCK:   -5.80 KCAL/MOL
REMARK 923 INTER-LIGAND FREE ENERGY PREDICTED BY IDOCK:   -5.23 KCAL/MOL
REMARK 924 INTRA-LIGAND FREE ENERGY PREDICTED BY IDOCK:   -0.57 KCAL/MOL
REMARK 927      BINDING AFFINITY PREDICTED BY RF-SCORE:    0.00 PKD
ROOT
HETATM    1  C   UNL     1      -9.353  11.737  66.302  1.00  0.00    -0.235 C  
HETATM    2  C   UNL     1     -10.373  11.480  65.191  1.00  0.00    -0.278 C  
ENDROOT
BRANCH   2   3
HETATM    3  N   UNL     1     -10.273  12.361  63.998  1.00  0.00    -0.380 NA 
HETATM    4  C   UNL     1      -9.780  11.588  62.848  1.00  0.00    -0.273 C  
BRANCH   3   5
HETATM    5  C   UNL     1     -11.616  12.980  63.689  1.00  0.00    -0.449 C  
HETATM    6  C   UNL     1     -12.729  11.910  63.657  1.00  0.00    -0.509 C  
BRANCH   5   7
HETATM    7  C   UNL     1     -12.168  14.206  64.535  1.00  0.00    -0.445 C  
HETATM    8  H   UNL     1     -13.042  15.979  64.222  1.00  0.00     0.000 HD 
HETATM    9  O   UNL     1     -12.712  15.247  63.716  1.00  0.00    -0.687 OA 
BRANCH   7  10
HETATM   10  C   UNL     1     -11.321  14.809  65.643  1.00  0.00    -0.343 A  
HETATM   11  C   UNL     1     -11.736  14.648  66.981  1.00  0.00    -0.379 A  
HETATM   12  C   UNL     1     -11.000  15.197  68.036  1.00  0.00    -0.295 A  
HETATM   13  C   UNL     1      -9.847  15.925  67.772  1.00  0.00    -0.222 A  
HETATM   14  C   UNL     1      -9.431  16.108  66.453  1.00  0.00    -0.323 A  
HETATM   15  C   UNL     1     -10.167  15.560  65.395  1.00  0.00    -0.409 A  
ENDBRANCH   7  10
ENDBRANCH   5   7
ENDBRANCH   3   5
ENDBRANCH   2   3
TORSDOF 4
ENDMDL
MODEL       28
REMARK 921   NORMALIZED FREE ENERGY PREDICTED BY IDOCK:   -4.37 KCAL/MOL
REMARK 922        TOTAL FREE ENERGY PREDICTED BY IDOCK:   -5.79 KCAL/MOL
REMARK 923 INTER-LIGAND FREE ENERGY PREDICTED BY IDOCK:   -5.34 KCAL/MOL
REMARK 924 INTRA-LIGAND FREE ENERGY PREDICTED BY IDOCK:   -0.45 KCAL/MOL
REMARK 927      BINDING AFFINITY PREDICTED BY RF-SCORE:    0.00 PKD
ROOT
HETATM    1  C   UNL     1      -9.346   9.110  70.878  1.00  0.00    -0.335 C  
HETATM    2  C   UNL     1     -10.499   8.720  71.803  1.00  0.00    -0.346 C  
ENDROOT
BRANCH   2   3
HETATM    3  N   UNL     1     -11.754   8.287  71.135  1.00  0.00    -0.279 NA 
HETATM    4  C   UNL     1     -12.254   7.056  71.763  1.00  0.00    -0.351 C  
BRANCH   3   5
HETATM    5  C   UNL     1     -12.791   9.382  71.205  1.00  0.00    -0.309 C  
HETATM    6  C   UNL     1     -13.814   9.110  72.331  1.00  0.00    -0.524 C  
BRANCH   5   7
HETATM    7  C   UNL     1     -12.367  10.909  71.318  1.00  0.00    -0.343 C  
HETATM    8  H   UNL     1     -12.989  12.581  72.224  1.00  0.00     0.000 HD 
HETATM    9  O   UNL     1     -13.243  11.669  72.157  1.00  0.00    -0.504 OA 
BRANCH   7  10
HETATM   10  C   UNL     1     -12.036  11.702  70.064  1.00  0.00    -0.429 A  
HETATM   11  C   UNL     1     -12.038  13.110  70.131  1.00  0.00    -0.392 A  
HETATM   12  C   UNL     1     -11.756  13.886  69.002  1.00  0.00    -0.378 A  
HETATM   13  C   UNL     1     -11.478  13.269  67.789  1.00  0.00    -0.354 A  
HETATM   14  C   UNL     1     -11.487  11.877  67.702  1.00  0.00    -0.387 A  
HETATM   15  C   UNL     1     -11.771  11.098  68.831  1.00  0.00    -0.406 A  
ENDBRANCH   7  10
ENDBRANCH   5   7
ENDBRANCH   3   5
ENDBRANCH   2   3
TORSDOF 4
ENDMDL
MODEL       29
REMARK 921   NORMALIZED FREE ENERGY PREDICTED BY IDOCK:   -4.34 KCAL/MOL
REMARK 922        TOTAL FREE ENERGY PREDICTED BY IDOCK:   -5.75 KCAL/MOL
REMARK 923 INTER-LIGAND FREE ENERGY PREDICTED BY IDOCK:   -5.49 KCAL/MOL
REMARK 924 INTRA-LIGAND FREE ENERGY PREDICTED BY IDOCK:   -0.26 KCAL/MOL
REMARK 927      BINDING AFFINITY PREDICTED BY RF-SCORE:    0.00 PKD
ROOT
HETATM    1  C   UNL     1      -9.742  16.877  68.823  1.00  0.00    -0.265 C  
HETATM    2  C   UNL     1     -11.123  16.241  68.665  1.00  0.00    -0.356 C  
ENDROOT
BRANCH   2   3
HETATM    3  N   UNL     1     -11.261  15.243  67.572  1.00  0.00    -0.326 NA 
HETATM    4  C   UNL     1     -10.155  15.396  66.615  1.00  0.00    -0.265 C  
BRANCH   3   5
HETATM    5  C   UNL     1     -11.285  13.844  68.140  1.00  0.00    -0.268 C  
HETATM    6  C   UNL     1     -11.814  13.840  69.592  1.00  0.00    -0.393 C  
BRANCH   5   7
HETATM    7  C   UNL     1     -12.016  12.660  67.373  1.00  0.00    -0.242 C  
HETATM    8  H   UNL     1     -12.474  10.734  67.665  1.00  0.00     0.000 HD 
HETATM    9  O   UNL     1     -12.038  11.441  68.124  1.00  0.00    -0.623 OA 
BRANCH   7  10
HETATM   10  C   UNL     1     -11.673  12.367  65.921  1.00  0.00    -0.476 A  
HETATM   11  C   UNL     1     -10.602  11.494  65.640  1.00  0.00    -0.326 A  
HETATM   12  C   UNL     1     -10.236  11.203  64.322  1.00  0.00    -0.399 A  
HETATM   13  C   UNL     1     -10.924  11.788  63.266  1.00  0.00    -0.387 A  
HETATM   14  C   UNL     1     -11.975  12.666  63.528  1.00  0.00    -0.630 A  
HETATM   15  C   UNL     1     -12.343  12.960  64.847  1.00  0.00    -0.532 A  
ENDBRANCH   7  10
ENDBRANCH   5   7
ENDBRANCH   3   5
ENDBRANCH   2   3
TORSDOF 4
ENDMDL
MODEL       30
REMARK 921   NORMALIZED FREE ENERGY PREDICTED BY IDOCK:   -4.34 KCAL/MOL
REMARK 922        TOTAL FREE ENERGY PREDICTED BY IDOCK:   -5.74 KCAL/MOL
REMARK 923 INTER-LIGAND FREE ENERGY PREDICTED BY IDOCK:   -5.26 KCAL/MOL
REMARK 924 INTRA-LIGAND FREE ENERGY PREDICTED BY IDOCK:   -0.48 KCAL/MOL
REMARK 927      BINDING AFFINITY PREDICTED BY RF-SCORE:    0.00 PKD
ROOT
HETATM    1  C   UNL     1     -11.754  15.845  71.506  1.00  0.00    -0.545 C  
HETATM    2  C   UNL     1     -12.433  15.710  70.143  1.00  0.00    -0.278 C  
ENDROOT
BRANCH   2   3
HETATM    3  N   UNL     1     -11.553  15.310  69.013  1.00  0.00    -0.323 NA 
HETATM    4  C   UNL     1     -10.155  15.254  69.466  1.00  0.00    -0.256 C  
BRANCH   3   5
HETATM    5  C   UNL     1     -11.988  13.975  68.457  1.00  0.00    -0.348 C  
HETATM    6  C   UNL     1     -12.102  14.023  66.917  1.00  0.00    -0.465 C  
BRANCH   5   7
HETATM    7  C   UNL     1     -11.211  12.640  68.827  1.00  0.00    -0.280 C  
HETATM    8  H   UNL     1     -10.411  11.058  67.899  1.00  0.00     0.000 HD 
HETATM    9  O   UNL     1     -10.874  11.856  67.677  1.00  0.00    -0.209 OA 
BRANCH   7  10
HETATM   10  C   UNL     1     -11.733  11.737  69.933  1.00  0.00    -0.399 A  
HETATM   11  C   UNL     1     -11.308  10.393  69.970  1.00  0.00    -0.384 A  
HETATM   12  C   UNL     1     -11.770   9.517  70.958  1.00  0.00    -0.419 A  
HETATM   13  C   UNL     1     -12.672   9.966  71.915  1.00  0.00    -0.501 A  
HETATM   14  C   UNL     1     -13.115  11.287  71.882  1.00  0.00    -0.510 A  
HETATM   15  C   UNL     1     -12.654  12.166  70.893  1.00  0.00    -0.340 A  
ENDBRANCH   7  10
ENDBRANCH   5   7
ENDBRANCH   3   5
ENDBRANCH   2   3
TORSDOF 4
ENDMDL
MODEL       31
REMARK 921   NORMALIZED FREE ENERGY PREDICTED BY IDOCK:   -4.32 KCAL/MOL
REMARK 922        TOTAL FREE ENERGY PREDICTED BY IDOCK:   -5.72 KCAL/MOL
REMARK 923 INTER-LIGAND FREE ENERGY PREDICTED BY IDOCK:   -5.41 KCAL/MOL
REMARK 924 INTRA-LIGAND FREE ENERGY PREDICTED BY IDOCK:   -0.31 KCAL/MOL
REMARK 927      BINDING AFFINITY PREDICTED BY RF-SCORE:    0.00 PKD
ROOT
HETATM    1  C   UNL     1      -7.688  15.517  67.139  1.00  0.00    -0.257 C  
HETATM    2  C   UNL     1      -9.089  14.960  66.886  1.00  0.00    -0.250 C  
ENDROOT
BRANCH   2   3
HETATM    3  N   UNL     1     -10.183  15.549  67.702  1.00  0.00    -0.252 NA 
HETATM    4  C   UNL     1     -10.531  16.880  67.184  1.00  0.00    -0.296 C  
BRANCH   3   5
HETATM    5  C   UNL     1     -11.390  14.641  67.696  1.00  0.00    -0.336 C  
HETATM    6  C   UNL     1     -11.575  13.969  66.317  1.00  0.00    -0.379 C  
BRANCH   5   7
HETATM    7  C   UNL     1     -11.572  13.511  68.797  1.00  0.00    -0.325 C  
HETATM    8  H   UNL     1     -12.152  11.598  68.909  1.00  0.00     0.000 HD 
HETATM    9  O   UNL     1     -12.043  12.274  68.250  1.00  0.00    -0.363 OA 
BRANCH   7  10
HETATM   10  C   UNL     1     -12.308  13.818  70.090  1.00  0.00    -0.390 A  
HETATM   11  C   UNL     1     -12.651  15.156  70.375  1.00  0.00    -0.405 A  
HETATM   12  C   UNL     1     -13.315  15.494  71.559  1.00  0.00    -0.593 A  
HETATM   13  C   UNL     1     -13.636  14.505  72.480  1.00  0.00    -0.586 A  
HETATM   14  C   UNL     1     -13.289  13.179  72.221  1.00  0.00    -0.621 A  
HETATM   15  C   UNL     1     -12.623  12.839  71.037  1.00  0.00    -0.362 A  
ENDBRANCH   7  10
ENDBRANCH   5   7
ENDBRANCH   3   5
ENDBRANCH   2   3
TORSDOF 4
ENDMDL
MODEL       32
REMARK 921   NORMALIZED FREE ENERGY PREDICTED BY IDOCK:   -4.30 KCAL/MOL
REMARK 922        TOTAL FREE ENERGY PREDICTED BY IDOCK:   -5.70 KCAL/MOL
REMARK 923 INTER-LIGAND FREE ENERGY PREDICTED BY IDOCK:   -5.37 KCAL/MOL
REMARK 924 INTRA-LIGAND FREE ENERGY PREDICTED BY IDOCK:   -0.34 KCAL/MOL
REMARK 927      BINDING AFFINITY PREDICTED BY RF-SCORE:    0.00 PKD
ROOT
HETATM    1  C   UNL     1     -11.122  15.340  71.169  1.00  0.00    -0.328 C  
HETATM    2  C   UNL     1     -10.301  15.633  69.913  1.00  0.00    -0.315 C  
ENDROOT
BRANCH   2   3
HETATM    3  N   UNL     1     -10.679  14.870  68.695  1.00  0.00    -0.243 NA 
HETATM    4  C   UNL     1     -11.839  14.013  68.983  1.00  0.00    -0.354 C  
BRANCH   3   5
HETATM    5  C   UNL     1     -10.983  15.814  67.556  1.00  0.00    -0.293 C  
HETATM    6  C   UNL     1     -10.615  17.269  67.925  1.00  0.00    -0.384 C  
BRANCH   5   7
HETATM    7  C   UNL     1     -10.422  15.545  66.095  1.00  0.00    -0.313 C  
HETATM    8  H   UNL     1     -10.158  16.538  64.377  1.00  0.00     0.000 HD 
HETATM    9  O   UNL     1     -10.494  16.699  65.251  1.00  0.00    -0.612 OA 
BRANCH   7  10
HETATM   10  C   UNL     1     -10.864  14.313  65.324  1.00  0.00    -0.363 A  
HETATM   11  C   UNL     1     -10.175  13.100  65.528  1.00  0.00    -0.297 A  
HETATM   12  C   UNL     1     -10.532  11.941  64.832  1.00  0.00    -0.331 A  
HETATM   13  C   UNL     1     -11.575  11.977  63.914  1.00  0.00    -0.536 A  
HETATM   14  C   UNL     1     -12.257  13.173  63.689  1.00  0.00    -0.553 A  
HETATM   15  C   UNL     1     -11.899  14.335  64.384  1.00  0.00    -0.444 A  
ENDBRANCH   7  10
ENDBRANCH   5   7
ENDBRANCH   3   5
ENDBRANCH   2   3
TORSDOF 4
ENDMDL
MODEL       33
REMARK 921   NORMALIZED FREE ENERGY PREDICTED BY IDOCK:   -4.29 KCAL/MOL
REMARK 922        TOTAL FREE ENERGY PREDICTED BY IDOCK:   -5.69 KCAL/MOL
REMARK 923 INTER-LIGAND FREE ENERGY PREDICTED BY IDOCK:   -5.30 KCAL/MOL
REMARK 924 INTRA-LIGAND FREE ENERGY PREDICTED BY IDOCK:   -0.38 KCAL/MOL
REMARK 927      BINDING AFFINITY PREDICTED BY RF-SCORE:    0.00 PKD
ROOT
HETATM    1  C   UNL     1     -10.520  19.371  67.695  1.00  0.00    -0.573 C  
HETATM    2  C   UNL     1     -10.524  18.605  66.372  1.00  0.00    -0.418 C  
ENDROOT
BRANCH   2   3
HETATM    3  N   UNL     1      -9.231  17.994  65.967  1.00  0.00    -0.522 NA 
HETATM    4  C   UNL     1      -8.136  18.578  66.756  1.00  0.00    -0.254 C  
BRANCH   3   5
HETATM    5  C   UNL     1      -9.279  16.495  66.147  1.00  0.00    -0.303 C  
HETATM    6  C   UNL     1      -8.289  16.033  67.241  1.00  0.00    -0.205 C  
BRANCH   5   7
HETATM    7  C   UNL     1     -10.653  15.744  66.412  1.00  0.00    -0.307 C  
HETATM    8  H   UNL     1     -11.738  15.093  67.962  1.00  0.00     0.000 HD 
HETATM    9  O   UNL     1     -10.917  15.542  67.804  1.00  0.00    -0.301 OA 
BRANCH   7  10
HETATM   10  C   UNL     1     -10.994  14.484  65.633  1.00  0.00    -0.323 A  
HETATM   11  C   UNL     1     -12.240  13.864  65.856  1.00  0.00    -0.497 A  
HETATM   12  C   UNL     1     -12.596  12.695  65.177  1.00  0.00    -0.459 A  
HETATM   13  C   UNL     1     -11.710  12.121  64.274  1.00  0.00    -0.451 A  
HETATM   14  C   UNL     1     -10.467  12.713  64.053  1.00  0.00    -0.443 A  
HETATM   15  C   UNL     1     -10.108  13.883  64.733  1.00  0.00    -0.247 A  
ENDBRANCH   7  10
ENDBRANCH   5   7
ENDBRANCH   3   5
ENDBRANCH   2   3
TORSDOF 4
ENDMDL
MODEL       34
REMARK 921   NORMALIZED FREE ENERGY PREDICTED BY IDOCK:   -4.27 KCAL/MOL
REMARK 922        TOTAL FREE ENERGY PREDICTED BY IDOCK:   -5.67 KCAL/MOL
REMARK 923 INTER-LIGAND FREE ENERGY PREDICTED BY IDOCK:   -5.30 KCAL/MOL
REMARK 924 INTRA-LIGAND FREE ENERGY PREDICTED BY IDOCK:   -0.37 KCAL/MOL
REMARK 927      BINDING AFFINITY PREDICTED BY RF-SCORE:    0.00 PKD
ROOT
HETATM    1  C   UNL     1     -10.139  17.490  66.791  1.00  0.00    -0.320 C  
HETATM    2  C   UNL     1     -10.718  16.203  67.379  1.00  0.00    -0.291 C  
ENDROOT
BRANCH   2   3
HETATM    3  N   UNL     1     -10.628  14.995  66.518  1.00  0.00    -0.298 NA 
HETATM    4  C   UNL     1      -9.323  14.344  66.709  1.00  0.00    -0.268 C  
BRANCH   3   5
HETATM    5  C   UNL     1     -11.753  14.039  66.836  1.00  0.00    -0.410 C  
HETATM    6  C   UNL     1     -12.659  13.814  65.604  1.00  0.00    -0.551 C  
BRANCH   5   7
HETATM    7  C   UNL     1     -11.463  12.612  67.470  1.00  0.00    -0.340 C  
HETATM    8  H   UNL     1     -11.670  10.680  66.988  1.00  0.00     0.000 HD 
HETATM    9  O   UNL     1     -11.843  11.533  66.609  1.00  0.00    -0.470 OA 
BRANCH   7  10
HETATM   10  C   UNL     1     -11.893  12.310  68.896  1.00  0.00    -0.355 A  
HETATM   11  C   UNL     1     -12.098  10.968  69.274  1.00  0.00    -0.363 A  
HETATM   12  C   UNL     1     -12.509  10.638  70.570  1.00  0.00    -0.445 A  
HETATM   13  C   UNL     1     -12.732  11.643  71.503  1.00  0.00    -0.423 A  
HETATM   14  C   UNL     1     -12.549  12.976  71.140  1.00  0.00    -0.388 A  
HETATM   15  C   UNL     1     -12.139  13.309  69.843  1.00  0.00    -0.377 A  
ENDBRANCH   7  10
ENDBRANCH   5   7
ENDBRANCH   3   5
ENDBRANCH   2   3
TORSDOF 4
ENDMDL
MODEL       35
REMARK 921   NORMALIZED FREE ENERGY PREDICTED BY IDOCK:   -4.26 KCAL/MOL
REMARK 922        TOTAL FREE ENERGY PREDICTED BY IDOCK:   -5.65 KCAL/MOL
REMARK 923 INTER-LIGAND FREE ENERGY PREDICTED BY IDOCK:   -5.28 KCAL/MOL
REMARK 924 INTRA-LIGAND FREE ENERGY PREDICTED BY IDOCK:   -0.37 KCAL/MOL
REMARK 927      BINDING AFFINITY PREDICTED BY RF-SCORE:    0.00 PKD
ROOT
HETATM    1  C   UNL     1     -12.346  11.961  63.664  1.00  0.00    -0.591 C  
HETATM    2  C   UNL     1     -12.518  12.600  65.042  1.00  0.00    -0.487 C  
ENDROOT
BRANCH   2   3
HETATM    3  N   UNL     1     -11.573  12.143  66.095  1.00  0.00    -0.438 NA 
HETATM    4  C   UNL     1     -10.446  11.428  65.478  1.00  0.00    -0.268 C  
BRANCH   3   5
HETATM    5  C   UNL     1     -11.080  13.319  66.904  1.00  0.00    -0.289 C  
HETATM    6  C   UNL     1     -12.128  14.455  66.933  1.00  0.00    -0.386 C  
BRANCH   5   7
HETATM    7  C   UNL     1     -10.554  13.130  68.391  1.00  0.00    -0.251 C  
HETATM    8  H   UNL     1      -8.901  12.515  69.336  1.00  0.00     0.000 HD 
HETATM    9  O   UNL     1      -9.215  12.628  68.447  1.00  0.00    -0.195 OA 
BRANCH   7  10
HETATM   10  C   UNL     1     -11.417  12.415  69.418  1.00  0.00    -0.336 A  
HETATM   11  C   UNL     1     -12.115  13.184  70.372  1.00  0.00    -0.392 A  
HETATM   12  C   UNL     1     -12.910  12.575  71.348  1.00  0.00    -0.359 A  
HETATM   13  C   UNL     1     -13.010  11.190  71.395  1.00  0.00    -0.506 A  
HETATM   14  C   UNL     1     -12.313  10.414  70.469  1.00  0.00    -0.410 A  
HETATM   15  C   UNL     1     -11.516  11.022  69.491  1.00  0.00    -0.370 A  
ENDBRANCH   7  10
ENDBRANCH   5   7
ENDBRANCH   3   5
ENDBRANCH   2   3
TORSDOF 4
ENDMDL
MODEL       36
REMARK 921   NORMALIZED FREE ENERGY PREDICTED BY IDOCK:   -4.25 KCAL/MOL
REMARK 922        TOTAL FREE ENERGY PREDICTED BY IDOCK:   -5.64 KCAL/MOL
REMARK 923 INTER-LIGAND FREE ENERGY PREDICTED BY IDOCK:   -5.33 KCAL/MOL
REMARK 924 INTRA-LIGAND FREE ENERGY PREDICTED BY IDOCK:   -0.31 KCAL/MOL
REMARK 927      BINDING AFFINITY PREDICTED BY RF-SCORE:    0.00 PKD
ROOT
HETATM    1  C   UNL     1      -8.878   7.683  73.881  1.00  0.00    -0.311 C  
HETATM    2  C   UNL     1     -10.227   7.720  73.163  1.00  0.00    -0.335 C  
ENDROOT
BRANCH   2   3
HETATM    3  N   UNL     1     -10.326   8.654  72.010  1.00  0.00    -0.329 NA 
HETATM    4  C   UNL     1      -9.297   8.324  71.012  1.00  0.00    -0.162 C  
BRANCH   3   5
HETATM    5  C   UNL     1     -11.705   8.587  71.397  1.00  0.00    -0.294 C  
HETATM    6  C   UNL     1     -12.326   7.183  71.575  1.00  0.00    -0.406 C  
BRANCH   5   7
HETATM    7  C   UNL     1     -12.824   9.647  71.780  1.00  0.00    -0.421 C  
HETATM    8  H   UNL     1     -14.819   9.807  71.746  1.00  0.00     0.000 HD 
HETATM    9  O   UNL     1     -14.150   9.174  71.517  1.00  0.00    -0.320 OA 
BRANCH   7  10
HETATM   10  C   UNL     1     -12.692  11.091  71.326  1.00  0.00    -0.537 A  
HETATM   11  C   UNL     1     -11.953  11.372  70.159  1.00  0.00    -0.460 A  
HETATM   12  C   UNL     1     -11.788  12.685  69.708  1.00  0.00    -0.379 A  
HETATM   13  C   UNL     1     -12.348  13.738  70.420  1.00  0.00    -0.423 A  
HETATM   14  C   UNL     1     -13.069  13.479  71.585  1.00  0.00    -0.459 A  
HETATM   15  C   UNL     1     -13.234  12.164  72.040  1.00  0.00    -0.496 A  
ENDBRANCH   7  10
ENDBRANCH   5   7
ENDBRANCH   3   5
ENDBRANCH   2   3
TORSDOF 4
ENDMDL
MODEL       37
REMARK 921   NORMALIZED FREE ENERGY PREDICTED BY IDOCK:   -4.21 KCAL/MOL
REMARK 922        TOTAL FREE ENERGY PREDICTED BY IDOCK:   -5.59 KCAL/MOL
REMARK 923 INTER-LIGAND FREE ENERGY PREDICTED BY IDOCK:   -5.37 KCAL/MOL
REMARK 924 INTRA-LIGAND FREE ENERGY PREDICTED BY IDOCK:   -0.22 KCAL/MOL
REMARK 927      BINDING AFFINITY PREDICTED BY RF-SCORE:    0.00 PKD
ROOT
HETATM    1  C   UNL     1     -11.929  13.035  63.466  1.00  0.00    -0.615 C  
HETATM    2  C   UNL     1     -12.052  14.095  64.561  1.00  0.00    -0.468 C  
ENDROOT
BRANCH   2   3
HETATM    3  N   UNL     1     -10.894  14.215  65.485  1.00  0.00    -0.298 NA 
HETATM    4  C   UNL     1     -10.427  15.609  65.521  1.00  0.00    -0.404 C  
BRANCH   3   5
HETATM    5  C   UNL     1     -11.275  13.744  66.868  1.00  0.00    -0.313 C  
HETATM    6  C   UNL     1     -11.429  12.207  66.911  1.00  0.00    -0.414 C  
BRANCH   5   7
HETATM    7  C   UNL     1     -10.424  14.164  68.141  1.00  0.00    -0.244 C  
HETATM    8  H   UNL     1      -8.857  13.497  69.192  1.00  0.00     0.000 HD 
HETATM    9  O   UNL     1      -9.365  13.245  68.431  1.00  0.00    -0.205 OA 
BRANCH   7  10
HETATM   10  C   UNL     1     -11.126  14.565  69.429  1.00  0.00    -0.297 A  
HETATM   11  C   UNL     1     -11.959  13.624  70.069  1.00  0.00    -0.413 A  
HETATM   12  C   UNL     1     -12.640  13.948  71.247  1.00  0.00    -0.450 A  
HETATM   13  C   UNL     1     -12.510  15.217  71.797  1.00  0.00    -0.431 A  
HETATM   14  C   UNL     1     -11.703  16.164  71.167  1.00  0.00    -0.454 A  
HETATM   15  C   UNL     1     -11.021  15.843  69.986  1.00  0.00    -0.361 A  
ENDBRANCH   7  10
ENDBRANCH   5   7
ENDBRANCH   3   5
ENDBRANCH   2   3
TORSDOF 4
ENDMDL
MODEL       38
REMARK 921   NORMALIZED FREE ENERGY PREDICTED BY IDOCK:   -4.19 KCAL/MOL
REMARK 922        TOTAL FREE ENERGY PREDICTED BY IDOCK:   -5.56 KCAL/MOL
REMARK 923 INTER-LIGAND FREE ENERGY PREDICTED BY IDOCK:   -5.29 KCAL/MOL
REMARK 924 INTRA-LIGAND FREE ENERGY PREDICTED BY IDOCK:   -0.27 KCAL/MOL
REMARK 927      BINDING AFFINITY PREDICTED BY RF-SCORE:    0.00 PKD
ROOT
HETATM    1  C   UNL     1     -14.384  15.083  71.624  1.00  0.00    -0.680 C  
HETATM    2  C   UNL     1     -13.159  14.208  71.357  1.00  0.00    -0.358 C  
ENDROOT
BRANCH   2   3
HETATM    3  N   UNL     1     -12.573  14.305  69.994  1.00  0.00    -0.297 NA 
HETATM    4  C   UNL     1     -11.678  15.469  69.917  1.00  0.00    -0.352 C  
BRANCH   3   5
HETATM    5  C   UNL     1     -11.830  13.036  69.651  1.00  0.00    -0.319 C  
HETATM    6  C   UNL     1     -12.298  11.859  70.536  1.00  0.00    -0.372 C  
BRANCH   5   7
HETATM    7  C   UNL     1     -11.765  12.501  68.156  1.00  0.00    -0.348 C  
HETATM    8  H   UNL     1     -10.951  10.985  67.134  1.00  0.00     0.000 HD 
HETATM    9  O   UNL     1     -10.990  11.305  68.027  1.00  0.00    -0.212 OA 
BRANCH   7  10
HETATM   10  C   UNL     1     -11.437  13.455  67.020  1.00  0.00    -0.372 A  
HETATM   11  C   UNL     1     -12.407  13.683  66.022  1.00  0.00    -0.493 A  
HETATM   12  C   UNL     1     -12.149  14.539  64.947  1.00  0.00    -0.421 A  
HETATM   13  C   UNL     1     -10.916  15.171  64.845  1.00  0.00    -0.434 A  
HETATM   14  C   UNL     1      -9.940  14.944  65.815  1.00  0.00    -0.376 A  
HETATM   15  C   UNL     1     -10.196  14.086  66.892  1.00  0.00    -0.260 A  
ENDBRANCH   7  10
ENDBRANCH   5   7
ENDBRANCH   3   5
ENDBRANCH   2   3
TORSDOF 4
ENDMDL
MODEL       39
REMARK 921   NORMALIZED FREE ENERGY PREDICTED BY IDOCK:   -4.19 KCAL/MOL
REMARK 922        TOTAL FREE ENERGY PREDICTED BY IDOCK:   -5.56 KCAL/MOL
REMARK 923 INTER-LIGAND FREE ENERGY PREDICTED BY IDOCK:   -5.17 KCAL/MOL
REMARK 924 INTRA-LIGAND FREE ENERGY PREDICTED BY IDOCK:   -0.39 KCAL/MOL
REMARK 927      BINDING AFFINITY PREDICTED BY RF-SCORE:    0.00 PKD
ROOT
HETATM    1  C   UNL     1      -9.883  11.684  63.589  1.00  0.00    -0.366 C  
HETATM    2  C   UNL     1     -11.152  12.439  63.985  1.00  0.00    -0.396 C  
ENDROOT
BRANCH   2   3
HETATM    3  N   UNL     1     -10.953  13.801  64.545  1.00  0.00    -0.399 NA 
HETATM    4  C   UNL     1     -12.184  14.589  64.391  1.00  0.00    -0.458 C  
BRANCH   3   5
HETATM    5  C   UNL     1     -10.551  13.717  65.999  1.00  0.00    -0.290 C  
HETATM    6  C   UNL     1      -9.238  14.489  66.260  1.00  0.00    -0.231 C  
BRANCH   5   7
HETATM    7  C   UNL     1     -11.566  14.114  67.154  1.00  0.00    -0.377 C  
HETATM    8  H   UNL     1     -11.972  15.685  68.327  1.00  0.00     0.000 HD 
HETATM    9  O   UNL     1     -11.366  15.448  67.636  1.00  0.00    -0.331 OA 
BRANCH   7  10
HETATM   10  C   UNL     1     -11.794  13.171  68.324  1.00  0.00    -0.384 A  
HETATM   11  C   UNL     1     -11.749  11.781  68.095  1.00  0.00    -0.377 A  
HETATM   12  C   UNL     1     -11.968  10.871  69.134  1.00  0.00    -0.359 A  
HETATM   13  C   UNL     1     -12.246  11.334  70.414  1.00  0.00    -0.453 A  
HETATM   14  C   UNL     1     -12.310  12.707  70.654  1.00  0.00    -0.375 A  
HETATM   15  C   UNL     1     -12.093  13.620  69.614  1.00  0.00    -0.378 A  
ENDBRANCH   7  10
ENDBRANCH   5   7
ENDBRANCH   3   5
ENDBRANCH   2   3
TORSDOF 4
ENDMDL
MODEL       40
REMARK 921   NORMALIZED FREE ENERGY PREDICTED BY IDOCK:   -4.18 KCAL/MOL
REMARK 922        TOTAL FREE ENERGY PREDICTED BY IDOCK:   -5.55 KCAL/MOL
REMARK 923 INTER-LIGAND FREE ENERGY PREDICTED BY IDOCK:   -5.02 KCAL/MOL
REMARK 924 INTRA-LIGAND FREE ENERGY PREDICTED BY IDOCK:   -0.53 KCAL/MOL
REMARK 927      BINDING AFFINITY PREDICTED BY RF-SCORE:    0.00 PKD
ROOT
HETATM    1  C   UNL     1     -10.387  10.848  66.371  1.00  0.00    -0.306 C  
HETATM    2  C   UNL     1     -11.383  11.995  66.200  1.00  0.00    -0.351 C  
ENDROOT
BRANCH   2   3
HETATM    3  N   UNL     1     -10.986  13.298  66.797  1.00  0.00    -0.284 NA 
HETATM    4  C   UNL     1     -12.049  14.291  66.578  1.00  0.00    -0.429 C  
BRANCH   3   5
HETATM    5  C   UNL     1     -10.704  13.135  68.272  1.00  0.00    -0.245 C  
HETATM    6  C   UNL     1      -9.916  14.344  68.825  1.00  0.00    -0.223 C  
BRANCH   5   7
HETATM    7  C   UNL     1     -11.873  12.826  69.302  1.00  0.00    -0.303 C  
HETATM    8  H   UNL     1     -12.864  13.750  70.774  1.00  0.00     0.000 HD 
HETATM    9  O   UNL     1     -12.166  13.935  70.159  1.00  0.00    -0.324 OA 
BRANCH   7  10
HETATM   10  C   UNL     1     -11.855  11.539  70.110  1.00  0.00    -0.440 A  
HETATM   11  C   UNL     1     -12.838  11.347  71.103  1.00  0.00    -0.440 A  
HETATM   12  C   UNL     1     -12.856  10.187  71.884  1.00  0.00    -0.526 A  
HETATM   13  C   UNL     1     -11.888   9.208  71.696  1.00  0.00    -0.443 A  
HETATM   14  C   UNL     1     -10.900   9.391  70.729  1.00  0.00    -0.372 A  
HETATM   15  C   UNL     1     -10.879  10.552  69.946  1.00  0.00    -0.334 A  
ENDBRANCH   7  10
ENDBRANCH   5   7
ENDBRANCH   3   5
ENDBRANCH   2   3
TORSDOF 4
ENDMDL
MODEL       41
REMARK 921   NORMALIZED FREE ENERGY PREDICTED BY IDOCK:   -4.18 KCAL/MOL
REMARK 922        TOTAL FREE ENERGY PREDICTED BY IDOCK:   -5.54 KCAL/MOL
REMARK 923 INTER-LIGAND FREE ENERGY PREDICTED BY IDOCK:   -4.79 KCAL/MOL
REMARK 924 INTRA-LIGAND FREE ENERGY PREDICTED BY IDOCK:   -0.76 KCAL/MOL
REMARK 927      BINDING AFFINITY PREDICTED BY RF-SCORE:    0.00 PKD
ROOT
HETATM    1  C   UNL     1     -10.706  15.211  65.070  1.00  0.00    -0.451 C  
HETATM    2  C   UNL     1     -10.681  13.772  64.554  1.00  0.00    -0.390 C  
ENDROOT
BRANCH   2   3
HETATM    3  N   UNL     1     -11.741  12.872  65.080  1.00  0.00    -0.327 NA 
HETATM    4  C   UNL     1     -12.509  12.301  63.963  1.00  0.00    -0.458 C  
BRANCH   3   5
HETATM    5  C   UNL     1     -11.130  11.777  65.922  1.00  0.00    -0.302 C  
HETATM    6  C   UNL     1      -9.709  11.423  65.431  1.00  0.00    -0.265 C  
BRANCH   5   7
HETATM    7  C   UNL     1     -11.061  11.901  67.504  1.00  0.00    -0.273 C  
HETATM    8  H   UNL     1     -12.117  11.331  69.106  1.00  0.00     0.000 HD 
HETATM    9  O   UNL     1     -12.158  11.257  68.160  1.00  0.00    -0.635 OA 
BRANCH   7  10
HETATM   10  C   UNL     1     -10.793  13.250  68.151  1.00  0.00    -0.270 A  
HETATM   11  C   UNL     1     -11.887  14.025  68.585  1.00  0.00    -0.396 A  
HETATM   12  C   UNL     1     -11.695  15.280  69.173  1.00  0.00    -0.355 A  
HETATM   13  C   UNL     1     -10.409  15.784  69.325  1.00  0.00    -0.245 A  
HETATM   14  C   UNL     1      -9.317  15.037  68.887  1.00  0.00    -0.208 A  
HETATM   15  C   UNL     1      -9.508  13.781  68.297  1.00  0.00    -0.214 A  
ENDBRANCH   7  10
ENDBRANCH   5   7
ENDBRANCH   3   5
ENDBRANCH   2   3
TORSDOF 4
ENDMDL
MODEL       42
REMARK 921   NORMALIZED FREE ENERGY PREDICTED BY IDOCK:   -4.17 KCAL/MOL
REMARK 922        TOTAL FREE ENERGY PREDICTED BY IDOCK:   -5.54 KCAL/MOL
REMARK 923 INTER-LIGAND FREE ENERGY PREDICTED BY IDOCK:   -5.18 KCAL/MOL
REMARK 924 INTRA-LIGAND FREE ENERGY PREDICTED BY IDOCK:   -0.36 KCAL/MOL
REMARK 927      BINDING AFFINITY PREDICTED BY RF-SCORE:    0.00 PKD
ROOT
HETATM    1  C   UNL     1      -9.840  19.946  68.218  1.00  0.00    -0.514 C  
HETATM    2  C   UNL     1     -10.151  18.538  68.727  1.00  0.00    -0.356 C  
ENDROOT
BRANCH   2   3
HETATM    3  N   UNL     1     -10.825  17.630  67.762  1.00  0.00    -0.319 NA 
HETATM    4  C   UNL     1     -10.271  17.834  66.415  1.00  0.00    -0.365 C  
BRANCH   3   5
HETATM    5  C   UNL     1     -10.663  16.192  68.194  1.00  0.00    -0.315 C  
HETATM    6  C   UNL     1      -9.327  15.981  68.941  1.00  0.00    -0.231 C  
BRANCH   5   7
HETATM    7  C   UNL     1     -11.791  15.455  69.034  1.00  0.00    -0.335 C  
HETATM    8  H   UNL     1     -12.632  15.567  70.847  1.00  0.00     0.000 HD 
HETATM    9  O   UNL     1     -11.958  16.008  70.345  1.00  0.00    -0.340 OA 
BRANCH   7  10
HETATM   10  C   UNL     1     -11.819  13.937  69.106  1.00  0.00    -0.401 A  
HETATM   11  C   UNL     1     -11.608  13.197  67.925  1.00  0.00    -0.375 A  
HETATM   12  C   UNL     1     -11.638  11.799  67.935  1.00  0.00    -0.377 A  
HETATM   13  C   UNL     1     -11.891  11.119  69.120  1.00  0.00    -0.419 A  
HETATM   14  C   UNL     1     -12.118  11.837  70.294  1.00  0.00    -0.426 A  
HETATM   15  C   UNL     1     -12.089  13.237  70.286  1.00  0.00    -0.405 A  
ENDBRANCH   7  10
ENDBRANCH   5   7
ENDBRANCH   3   5
ENDBRANCH   2   3
TORSDOF 4
ENDMDL
MODEL       43
REMARK 921   NORMALIZED FREE ENERGY PREDICTED BY IDOCK:   -4.17 KCAL/MOL
REMARK 922        TOTAL FREE ENERGY PREDICTED BY IDOCK:   -5.54 KCAL/MOL
REMARK 923 INTER-LIGAND FREE ENERGY PREDICTED BY IDOCK:   -4.82 KCAL/MOL
REMARK 924 INTRA-LIGAND FREE ENERGY PREDICTED BY IDOCK:   -0.73 KCAL/MOL
REMARK 927      BINDING AFFINITY PREDICTED BY RF-SCORE:    0.00 PKD
ROOT
HETATM    1  C   UNL     1      -8.356  13.167  67.296  1.00  0.00    -0.182 C  
HETATM    2  C   UNL     1      -9.144  11.899  66.968  1.00  0.00    -0.191 C  
ENDROOT
BRANCH   2   3
HETATM    3  N   UNL     1     -10.084  11.993  65.820  1.00  0.00    -0.233 NA 
HETATM    4  C   UNL     1      -9.938  10.811  64.957  1.00  0.00    -0.300 C  
BRANCH   3   5
HETATM    5  C   UNL     1     -11.505  12.122  66.313  1.00  0.00    -0.374 C  
HETATM    6  C   UNL     1     -11.652  11.556  67.744  1.00  0.00    -0.338 C  
BRANCH   5   7
HETATM    7  C   UNL     1     -12.262  13.518  66.282  1.00  0.00    -0.416 C  
HETATM    8  H   UNL     1     -13.433  14.568  65.044  1.00  0.00     0.000 HD 
HETATM    9  O   UNL     1     -12.981  13.733  65.063  1.00  0.00    -0.732 OA 
BRANCH   7  10
HETATM   10  C   UNL     1     -11.531  14.789  66.683  1.00  0.00    -0.339 A  
HETATM   11  C   UNL     1     -10.781  15.478  65.708  1.00  0.00    -0.362 A  
HETATM   12  C   UNL     1     -10.078  16.643  66.029  1.00  0.00    -0.359 A  
HETATM   13  C   UNL     1     -10.104  17.132  67.329  1.00  0.00    -0.294 A  
HETATM   14  C   UNL     1     -10.828  16.454  68.309  1.00  0.00    -0.347 A  
HETATM   15  C   UNL     1     -11.531  15.286  67.990  1.00  0.00    -0.351 A  
ENDBRANCH   7  10
ENDBRANCH   5   7
ENDBRANCH   3   5
ENDBRANCH   2   3
TORSDOF 4
ENDMDL
MODEL       44
REMARK 921   NORMALIZED FREE ENERGY PREDICTED BY IDOCK:   -4.15 KCAL/MOL
REMARK 922        TOTAL FREE ENERGY PREDICTED BY IDOCK:   -5.51 KCAL/MOL
REMARK 923 INTER-LIGAND FREE ENERGY PREDICTED BY IDOCK:   -5.17 KCAL/MOL
REMARK 924 INTRA-LIGAND FREE ENERGY PREDICTED BY IDOCK:   -0.34 KCAL/MOL
REMARK 927      BINDING AFFINITY PREDICTED BY RF-SCORE:    0.00 PKD
ROOT
HETATM    1  C   UNL     1     -11.135   7.767  72.835  1.00  0.00    -0.457 C  
HETATM    2  C   UNL     1     -10.649   8.784  71.802  1.00  0.00    -0.347 C  
ENDROOT
BRANCH   2   3
HETATM    3  N   UNL     1     -11.702   9.423  70.971  1.00  0.00    -0.302 NA 
HETATM    4  C   UNL     1     -12.847   9.795  71.815  1.00  0.00    -0.434 C  
BRANCH   3   5
HETATM    5  C   UNL     1     -11.148  10.635  70.261  1.00  0.00    -0.233 C  
HETATM    6  C   UNL     1      -9.922  10.263  69.397  1.00  0.00    -0.254 C  
BRANCH   5   7
HETATM    7  C   UNL     1     -12.081  11.565  69.373  1.00  0.00    -0.279 C  
HETATM    8  H   UNL     1     -12.603  11.780  67.453  1.00  0.00     0.000 HD 
HETATM    9  O   UNL     1     -12.045  11.224  67.983  1.00  0.00    -0.638 OA 
BRANCH   7  10
HETATM   10  C   UNL     1     -12.027  13.075  69.536  1.00  0.00    -0.350 A  
HETATM   11  C   UNL     1     -12.367  13.636  70.784  1.00  0.00    -0.446 A  
HETATM   12  C   UNL     1     -12.348  15.021  70.981  1.00  0.00    -0.394 A  
HETATM   13  C   UNL     1     -12.002  15.866  69.934  1.00  0.00    -0.283 A  
HETATM   14  C   UNL     1     -11.679  15.327  68.689  1.00  0.00    -0.367 A  
HETATM   15  C   UNL     1     -11.698  13.941  68.489  1.00  0.00    -0.390 A  
ENDBRANCH   7  10
ENDBRANCH   5   7
ENDBRANCH   3   5
ENDBRANCH   2   3
TORSDOF 4
ENDMDL
MODEL       45
REMARK 921   NORMALIZED FREE ENERGY PREDICTED BY IDOCK:   -4.15 KCAL/MOL
REMARK 922        TOTAL FREE ENERGY PREDICTED BY IDOCK:   -5.51 KCAL/MOL
REMARK 923 INTER-LIGAND FREE ENERGY PREDICTED BY IDOCK:   -5.30 KCAL/MOL
REMARK 924 INTRA-LIGAND FREE ENERGY PREDICTED BY IDOCK:   -0.22 KCAL/MOL
REMARK 927      BINDING AFFINITY PREDICTED BY RF-SCORE:    0.00 PKD
ROOT
HETATM    1  C   UNL     1     -10.244  10.907  64.814  1.00  0.00    -0.398 C  
HETATM    2  C   UNL     1     -10.968  12.115  65.410  1.00  0.00    -0.302 C  
ENDROOT
BRANCH   2   3
HETATM    3  N   UNL     1     -11.219  13.248  64.481  1.00  0.00    -0.346 NA 
HETATM    4  C   UNL     1     -11.935  12.767  63.290  1.00  0.00    -0.443 C  
BRANCH   3   5
HETATM    5  C   UNL     1     -12.007  14.332  65.177  1.00  0.00    -0.395 C  
HETATM    6  C   UNL     1     -12.185  14.016  66.679  1.00  0.00    -0.463 C  
BRANCH   5   7
HETATM    7  C   UNL     1     -11.579  15.857  65.067  1.00  0.00     0.039 C  
HETATM    8  H   UNL     1     -11.342  17.256  63.655  1.00  0.00     0.000 HD 
HETATM    9  O   UNL     1     -11.598  16.345  63.721  1.00  0.00    -1.055 OA 
BRANCH   7  10
HETATM   10  C   UNL     1     -10.328  16.350  65.776  1.00  0.00    -0.388 A  
HETATM   11  C   UNL     1     -10.244  17.710  66.139  1.00  0.00    -0.345 A  
HETATM   12  C   UNL     1      -9.109  18.217  66.780  1.00  0.00    -0.287 A  
HETATM   13  C   UNL     1      -8.037  17.378  67.057  1.00  0.00    -0.240 A  
HETATM   14  C   UNL     1      -8.098  16.034  66.690  1.00  0.00    -0.311 A  
HETATM   15  C   UNL     1      -9.233  15.524  66.047  1.00  0.00    -0.361 A  
ENDBRANCH   7  10
ENDBRANCH   5   7
ENDBRANCH   3   5
ENDBRANCH   2   3
TORSDOF 4
ENDMDL
MODEL       46
REMARK 921   NORMALIZED FREE ENERGY PREDICTED BY IDOCK:   -4.14 KCAL/MOL
REMARK 922        TOTAL FREE ENERGY PREDICTED BY IDOCK:   -5.50 KCAL/MOL
REMARK 923 INTER-LIGAND FREE ENERGY PREDICTED BY IDOCK:   -5.15 KCAL/MOL
REMARK 924 INTRA-LIGAND FREE ENERGY PREDICTED BY IDOCK:   -0.35 KCAL/MOL
REMARK 927      BINDING AFFINITY PREDICTED BY RF-SCORE:    0.00 PKD
ROOT
HETATM    1  C   UNL     1      -9.221   9.620  64.833  1.00  0.00    -0.306 C  
HETATM    2  C   UNL     1      -9.231  10.989  65.513  1.00  0.00    -0.213 C  
ENDROOT
BRANCH   2   3
HETATM    3  N   UNL     1     -10.191  11.983  64.965  1.00  0.00    -0.270 NA 
HETATM    4  C   UNL     1     -10.540  11.628  63.581  1.00  0.00    -0.433 C  
BRANCH   3   5
HETATM    5  C   UNL     1     -11.429  12.050  65.828  1.00  0.00    -0.320 C  
HETATM    6  C   UNL     1     -11.153  11.491  67.242  1.00  0.00    -0.351 C  
BRANCH   5   7
HETATM    7  C   UNL     1     -12.230  13.409  66.009  1.00  0.00    -0.437 C  
HETATM    8  H   UNL     1     -13.522  14.543  64.984  1.00  0.00     0.000 HD 
HETATM    9  O   UNL     1     -13.043  13.730  64.875  1.00  0.00    -0.716 OA 
BRANCH   7  10
HETATM   10  C   UNL     1     -11.513  14.656  66.501  1.00  0.00    -0.354 A  
HETATM   11  C   UNL     1     -11.649  15.028  67.854  1.00  0.00    -0.350 A  
HETATM   12  C   UNL     1     -11.023  16.175  68.353  1.00  0.00    -0.341 A  
HETATM   13  C   UNL     1     -10.262  16.973  67.507  1.00  0.00    -0.323 A  
HETATM   14  C   UNL     1     -10.131  16.627  66.163  1.00  0.00    -0.361 A  
HETATM   15  C   UNL     1     -10.759  15.480  65.661  1.00  0.00    -0.378 A  
ENDBRANCH   7  10
ENDBRANCH   5   7
ENDBRANCH   3   5
ENDBRANCH   2   3
TORSDOF 4
ENDMDL
MODEL       47
REMARK 921   NORMALIZED FREE ENERGY PREDICTED BY IDOCK:   -4.14 KCAL/MOL
REMARK 922        TOTAL FREE ENERGY PREDICTED BY IDOCK:   -5.50 KCAL/MOL
REMARK 923 INTER-LIGAND FREE ENERGY PREDICTED BY IDOCK:   -5.24 KCAL/MOL
REMARK 924 INTRA-LIGAND FREE ENERGY PREDICTED BY IDOCK:   -0.26 KCAL/MOL
REMARK 927      BINDING AFFINITY PREDICTED BY RF-SCORE:    0.00 PKD
ROOT
HETATM    1  C   UNL     1      -9.930   8.488  66.348  1.00  0.00    -0.314 C  
HETATM    2  C   UNL     1     -10.361   9.955  66.361  1.00  0.00    -0.176 C  
ENDROOT
BRANCH   2   3
HETATM    3  N   UNL     1      -9.689  10.841  65.374  1.00  0.00    -0.227 NA 
HETATM    4  C   UNL     1      -9.347  10.074  64.168  1.00  0.00    -0.280 C  
BRANCH   3   5
HETATM    5  C   UNL     1     -10.579  12.011  65.029  1.00  0.00    -0.289 C  
HETATM    6  C   UNL     1     -10.974  11.989  63.535  1.00  0.00    -0.514 C  
BRANCH   5   7
HETATM    7  C   UNL     1     -11.900  12.310  65.858  1.00  0.00    -0.354 C  
HETATM    8  H   UNL     1     -13.760  12.978  65.537  1.00  0.00     0.000 HD 
HETATM    9  O   UNL     1     -12.970  12.799  65.041  1.00  0.00    -0.811 OA 
BRANCH   7  10
HETATM   10  C   UNL     1     -11.825  13.113  67.146  1.00  0.00    -0.424 A  
HETATM   11  C   UNL     1     -11.650  14.510  67.067  1.00  0.00    -0.402 A  
HETATM   12  C   UNL     1     -11.559  15.292  68.223  1.00  0.00    -0.357 A  
HETATM   13  C   UNL     1     -11.631  14.691  69.474  1.00  0.00    -0.350 A  
HETATM   14  C   UNL     1     -11.789  13.309  69.569  1.00  0.00    -0.388 A  
HETATM   15  C   UNL     1     -11.878  12.524  68.413  1.00  0.00    -0.353 A  
ENDBRANCH   7  10
ENDBRANCH   5   7
ENDBRANCH   3   5
ENDBRANCH   2   3
TORSDOF 4
ENDMDL
MODEL       48
REMARK 921   NORMALIZED FREE ENERGY PREDICTED BY IDOCK:   -4.12 KCAL/MOL
REMARK 922        TOTAL FREE ENERGY PREDICTED BY IDOCK:   -5.48 KCAL/MOL
REMARK 923 INTER-LIGAND FREE ENERGY PREDICTED BY IDOCK:   -5.16 KCAL/MOL
REMARK 924 INTRA-LIGAND FREE ENERGY PREDICTED BY IDOCK:   -0.32 KCAL/MOL
REMARK 927      BINDING AFFINITY PREDICTED BY RF-SCORE:    0.00 PKD
ROOT
HETATM    1  C   UNL     1     -12.794  10.407  71.584  1.00  0.00    -0.579 C  
HETATM    2  C   UNL     1     -12.649  11.732  70.835  1.00  0.00    -0.289 C  
ENDROOT
BRANCH   2   3
HETATM    3  N   UNL     1     -11.556  11.796  69.830  1.00  0.00    -0.296 NA 
HETATM    4  C   UNL     1     -11.408  10.491  69.170  1.00  0.00    -0.257 C  
BRANCH   3   5
HETATM    5  C   UNL     1     -11.839  12.879  68.816  1.00  0.00    -0.315 C  
HETATM    6  C   UNL     1     -12.126  14.230  69.508  1.00  0.00    -0.376 C  
BRANCH   5   7
HETATM    7  C   UNL     1     -10.831  13.169  67.623  1.00  0.00    -0.254 C  
HETATM    8  H   UNL     1      -9.453  14.528  67.112  1.00  0.00     0.000 HD 
HETATM    9  O   UNL     1     -10.055  14.355  67.826  1.00  0.00    -0.223 OA 
BRANCH   7  10
HETATM   10  C   UNL     1     -11.318  13.110  66.184  1.00  0.00    -0.343 A  
HETATM   11  C   UNL     1     -11.057  11.950  65.426  1.00  0.00    -0.360 A  
HETATM   12  C   UNL     1     -11.469  11.852  64.093  1.00  0.00    -0.449 A  
HETATM   13  C   UNL     1     -12.137  12.913  63.494  1.00  0.00    -0.633 A  
HETATM   14  C   UNL     1     -12.389  14.073  64.225  1.00  0.00    -0.393 A  
HETATM   15  C   UNL     1     -11.975  14.174  65.560  1.00  0.00    -0.394 A  
ENDBRANCH   7  10
ENDBRANCH   5   7
ENDBRANCH   3   5
ENDBRANCH   2   3
TORSDOF 4
ENDMDL
MODEL       49
REMARK 921   NORMALIZED FREE ENERGY PREDICTED BY IDOCK:   -4.12 KCAL/MOL
REMARK 922        TOTAL FREE ENERGY PREDICTED BY IDOCK:   -5.48 KCAL/MOL
REMARK 923 INTER-LIGAND FREE ENERGY PREDICTED BY IDOCK:   -5.14 KCAL/MOL
REMARK 924 INTRA-LIGAND FREE ENERGY PREDICTED BY IDOCK:   -0.34 KCAL/MOL
REMARK 927      BINDING AFFINITY PREDICTED BY RF-SCORE:    0.00 PKD
ROOT
HETATM    1  C   UNL     1      -6.580  19.571  69.572  1.00  0.00    -0.365 C  
HETATM    2  C   UNL     1      -7.696  18.758  68.916  1.00  0.00    -0.263 C  
ENDROOT
BRANCH   2   3
HETATM    3  N   UNL     1      -8.805  19.542  68.312  1.00  0.00    -0.330 NA 
HETATM    4  C   UNL     1      -8.265  20.497  67.333  1.00  0.00    -0.286 C  
BRANCH   3   5
HETATM    5  C   UNL     1      -9.807  18.618  67.660  1.00  0.00    -0.320 C  
HETATM    6  C   UNL     1     -10.649  19.366  66.602  1.00  0.00    -0.566 C  
BRANCH   5   7
HETATM    7  C   UNL     1      -9.351  17.243  67.009  1.00  0.00    -0.251 C  
HETATM    8  H   UNL     1      -8.307  16.599  65.427  1.00  0.00     0.000 HD 
HETATM    9  O   UNL     1      -8.579  17.421  65.816  1.00  0.00    -0.526 OA 
BRANCH   7  10
HETATM   10  C   UNL     1     -10.360  16.124  66.809  1.00  0.00    -0.291 A  
HETATM   11  C   UNL     1     -10.986  15.563  67.940  1.00  0.00    -0.316 A  
HETATM   12  C   UNL     1     -11.910  14.521  67.812  1.00  0.00    -0.390 A  
HETATM   13  C   UNL     1     -12.215  14.016  66.554  1.00  0.00    -0.485 A  
HETATM   14  C   UNL     1     -11.592  14.549  65.426  1.00  0.00    -0.355 A  
HETATM   15  C   UNL     1     -10.665  15.591  65.552  1.00  0.00    -0.395 A  
ENDBRANCH   7  10
ENDBRANCH   5   7
ENDBRANCH   3   5
ENDBRANCH   2   3
TORSDOF 4
ENDMDL
MODEL       50
REMARK 921   NORMALIZED FREE ENERGY PREDICTED BY IDOCK:   -4.10 KCAL/MOL
REMARK 922        TOTAL FREE ENERGY PREDICTED BY IDOCK:   -5.45 KCAL/MOL
REMARK 923 INTER-LIGAND FREE ENERGY PREDICTED BY IDOCK:   -5.15 KCAL/MOL
REMARK 924 INTRA-LIGAND FREE ENERGY PREDICTED BY IDOCK:   -0.31 KCAL/MOL
REMARK 927      BINDING AFFINITY PREDICTED BY RF-SCORE:    0.00 PKD
ROOT
HETATM    1  C   UNL     1     -10.645   9.196  71.208  1.00  0.00    -0.399 C  
HETATM    2  C   UNL     1     -10.768  10.172  70.038  1.00  0.00    -0.305 C  
ENDROOT
BRANCH   2   3
HETATM    3  N   UNL     1     -12.122  10.737  69.799  1.00  0.00    -0.323 NA 
HETATM    4  C   UNL     1     -12.818  10.922  71.081  1.00  0.00    -0.409 C  
BRANCH   3   5
HETATM    5  C   UNL     1     -12.021  12.046  69.054  1.00  0.00    -0.264 C  
HETATM    6  C   UNL     1     -12.038  13.245  70.028  1.00  0.00    -0.385 C  
BRANCH   5   7
HETATM    7  C   UNL     1     -10.854  12.307  68.009  1.00  0.00    -0.220 C  
HETATM    8  H   UNL     1      -9.386  13.631  67.691  1.00  0.00     0.000 HD 
HETATM    9  O   UNL     1     -10.084  13.475  68.316  1.00  0.00    -0.236 OA 
BRANCH   7  10
HETATM   10  C   UNL     1     -11.141  12.255  66.517  1.00  0.00    -0.343 A  
HETATM   11  C   UNL     1     -12.138  13.100  65.988  1.00  0.00    -0.495 A  
HETATM   12  C   UNL     1     -12.451  13.080  64.625  1.00  0.00    -0.460 A  
HETATM   13  C   UNL     1     -11.783  12.209  63.773  1.00  0.00    -0.576 A  
HETATM   14  C   UNL     1     -10.805  11.356  64.284  1.00  0.00    -0.416 A  
HETATM   15  C   UNL     1     -10.491  11.374  65.649  1.00  0.00    -0.316 A  
ENDBRANCH   7  10
ENDBRANCH   5   7
ENDBRANCH   3   5
ENDBRANCH   2   3
TORSDOF 4
ENDMDL
MODEL       51
REMARK 921   NORMALIZED FREE ENERGY PREDICTED BY IDOCK:   -4.10 KCAL/MOL
REMARK 922        TOTAL FREE ENERGY PREDICTED BY IDOCK:   -5.45 KCAL/MOL
REMARK 923 INTER-LIGAND FREE ENERGY PREDICTED BY IDOCK:   -5.13 KCAL/MOL
REMARK 924 INTRA-LIGAND FREE ENERGY PREDICTED BY IDOCK:   -0.32 KCAL/MOL
REMARK 927      BINDING AFFINITY PREDICTED BY RF-SCORE:    0.00 PKD
ROOT
HETATM    1  C   UNL     1      -8.455  10.555  63.920  1.00  0.00    -0.120 C  
HETATM    2  C   UNL     1      -9.969  10.520  64.130  1.00  0.00    -0.318 C  
ENDROOT
BRANCH   2   3
HETATM    3  N   UNL     1     -10.489  11.333  65.261  1.00  0.00    -0.279 NA 
HETATM    4  C   UNL     1      -9.377  11.748  66.130  1.00  0.00    -0.225 C  
BRANCH   3   5
HETATM    5  C   UNL     1     -11.238  12.537  64.742  1.00  0.00    -0.306 C  
HETATM    6  C   UNL     1     -12.115  12.166  63.525  1.00  0.00    -0.649 C  
BRANCH   5   7
HETATM    7  C   UNL     1     -12.130  13.428  65.707  1.00  0.00    -0.436 C  
HETATM    8  H   UNL     1     -13.934  14.295  65.716  1.00  0.00     0.000 HD 
HETATM    9  O   UNL     1     -13.400  13.763  65.139  1.00  0.00    -0.688 OA 
BRANCH   7  10
HETATM   10  C   UNL     1     -11.531  14.647  66.389  1.00  0.00    -0.348 A  
HETATM   11  C   UNL     1     -10.773  15.552  65.618  1.00  0.00    -0.378 A  
HETATM   12  C   UNL     1     -10.187  16.681  66.200  1.00  0.00    -0.360 A  
HETATM   13  C   UNL     1     -10.340  16.917  67.561  1.00  0.00    -0.318 A  
HETATM   14  C   UNL     1     -11.074  16.024  68.340  1.00  0.00    -0.351 A  
HETATM   15  C   UNL     1     -11.660  14.892  67.759  1.00  0.00    -0.358 A  
ENDBRANCH   7  10
ENDBRANCH   5   7
ENDBRANCH   3   5
ENDBRANCH   2   3
TORSDOF 4
ENDMDL
MODEL       52
REMARK 921   NORMALIZED FREE ENERGY PREDICTED BY IDOCK:   -4.06 KCAL/MOL
REMARK 922        TOTAL FREE ENERGY PREDICTED BY IDOCK:   -5.40 KCAL/MOL
REMARK 923 INTER-LIGAND FREE ENERGY PREDICTED BY IDOCK:   -5.07 KCAL/MOL
REMARK 924 INTRA-LIGAND FREE ENERGY PREDICTED BY IDOCK:   -0.33 KCAL/MOL
REMARK 927      BINDING AFFINITY PREDICTED BY RF-SCORE:    0.00 PKD
ROOT
HETATM    1  C   UNL     1      -9.154  15.413  68.474  1.00  0.00    -0.197 C  
HETATM    2  C   UNL     1      -9.815  15.333  67.098  1.00  0.00    -0.224 C  
ENDROOT
BRANCH   2   3
HETATM    3  N   UNL     1     -10.668  14.141  66.853  1.00  0.00    -0.284 NA 
HETATM    4  C   UNL     1     -11.455  13.835  68.056  1.00  0.00    -0.310 C  
BRANCH   3   5
HETATM    5  C   UNL     1     -11.575  14.379  65.668  1.00  0.00    -0.347 C  
HETATM    6  C   UNL     1     -11.076  15.566  64.814  1.00  0.00    -0.421 C  
BRANCH   5   7
HETATM    7  C   UNL     1     -11.943  13.203  64.667  1.00  0.00    -0.388 C  
HETATM    8  H   UNL     1     -13.491  12.002  64.258  1.00  0.00     0.000 HD 
HETATM    9  O   UNL     1     -13.271  12.706  64.857  1.00  0.00    -0.819 OA 
BRANCH   7  10
HETATM   10  C   UNL     1     -10.980  12.044  64.468  1.00  0.00    -0.369 A  
HETATM   11  C   UNL     1     -10.298  11.930  63.239  1.00  0.00    -0.432 A  
HETATM   12  C   UNL     1      -9.414  10.873  63.000  1.00  0.00    -0.369 A  
HETATM   13  C   UNL     1      -9.206   9.909  63.978  1.00  0.00    -0.302 A  
HETATM   14  C   UNL     1      -9.885   9.998  65.193  1.00  0.00    -0.388 A  
HETATM   15  C   UNL     1     -10.772  11.054  65.434  1.00  0.00    -0.222 A  
ENDBRANCH   7  10
ENDBRANCH   5   7
ENDBRANCH   3   5
ENDBRANCH   2   3
TORSDOF 4
ENDMDL
MODEL       53
REMARK 921   NORMALIZED FREE ENERGY PREDICTED BY IDOCK:   -4.05 KCAL/MOL
REMARK 922        TOTAL FREE ENERGY PREDICTED BY IDOCK:   -5.39 KCAL/MOL
REMARK 923 INTER-LIGAND FREE ENERGY PREDICTED BY IDOCK:   -5.12 KCAL/MOL
REMARK 924 INTRA-LIGAND FREE ENERGY PREDICTED BY IDOCK:   -0.27 KCAL/MOL
REMARK 927      BINDING AFFINITY PREDICTED BY RF-SCORE:    0.00 PKD
ROOT
HETATM    1  C   UNL     1     -13.200  10.914  71.808  1.00  0.00    -0.513 C  
HETATM    2  C   UNL     1     -12.559  12.151  71.179  1.00  0.00    -0.260 C  
ENDROOT
BRANCH   2   3
HETATM    3  N   UNL     1     -13.360  13.402  71.239  1.00  0.00    -0.179 NA 
HETATM    4  C   UNL     1     -13.543  13.810  72.640  1.00  0.00    -0.507 C  
BRANCH   3   5
HETATM    5  C   UNL     1     -12.684  14.497  70.448  1.00  0.00    -0.322 C  
HETATM    6  C   UNL     1     -12.365  15.715  71.343  1.00  0.00    -0.485 C  
BRANCH   5   7
HETATM    7  C   UNL     1     -11.388  14.201  69.580  1.00  0.00    -0.259 C  
HETATM    8  H   UNL     1      -9.641  15.072  69.138  1.00  0.00     0.000 HD 
HETATM    9  O   UNL     1     -10.416  15.249  69.658  1.00  0.00    -0.245 OA 
BRANCH   7  10
HETATM   10  C   UNL     1     -11.526  13.730  68.141  1.00  0.00    -0.348 A  
HETATM   11  C   UNL     1     -11.905  14.663  67.154  1.00  0.00    -0.367 A  
HETATM   12  C   UNL     1     -12.061  14.277  65.819  1.00  0.00    -0.414 A  
HETATM   13  C   UNL     1     -11.852  12.954  65.451  1.00  0.00    -0.444 A  
HETATM   14  C   UNL     1     -11.493  12.016  66.417  1.00  0.00    -0.417 A  
HETATM   15  C   UNL     1     -11.337  12.399  67.756  1.00  0.00    -0.356 A  
ENDBRANCH   7  10
ENDBRANCH   5   7
ENDBRANCH   3   5
ENDBRANCH   2   3
TORSDOF 4
ENDMDL
MODEL       54
REMARK 921   NORMALIZED FREE ENERGY PREDICTED BY IDOCK:   -4.05 KCAL/MOL
REMARK 922        TOTAL FREE ENERGY PREDICTED BY IDOCK:   -5.39 KCAL/MOL
REMARK 923 INTER-LIGAND FREE ENERGY PREDICTED BY IDOCK:   -5.04 KCAL/MOL
REMARK 924 INTRA-LIGAND FREE ENERGY PREDICTED BY IDOCK:   -0.35 KCAL/MOL
REMARK 927      BINDING AFFINITY PREDICTED BY RF-SCORE:    0.00 PKD
ROOT
HETATM    1  C   UNL     1     -12.624  12.296  63.418  1.00  0.00    -0.545 C  
HETATM    2  C   UNL     1     -12.409  12.485  64.920  1.00  0.00    -0.470 C  
ENDROOT
BRANCH   2   3
HETATM    3  N   UNL     1     -11.131  11.958  65.467  1.00  0.00    -0.309 NA 
HETATM    4  C   UNL     1     -10.038  12.219  64.520  1.00  0.00    -0.254 C  
BRANCH   3   5
HETATM    5  C   UNL     1     -10.836  12.587  66.809  1.00  0.00    -0.249 C  
HETATM    6  C   UNL     1      -9.328  12.884  66.965  1.00  0.00    -0.235 C  
BRANCH   5   7
HETATM    7  C   UNL     1     -11.621  13.876  67.301  1.00  0.00    -0.365 C  
HETATM    8  H   UNL     1     -11.581  15.859  67.029  1.00  0.00     0.000 HD 
HETATM    9  O   UNL     1     -11.112  15.088  66.734  1.00  0.00    -0.324 OA 
BRANCH   7  10
HETATM   10  C   UNL     1     -11.902  14.078  68.782  1.00  0.00    -0.396 A  
HETATM   11  C   UNL     1     -11.920  15.389  69.297  1.00  0.00    -0.335 A  
HETATM   12  C   UNL     1     -12.158  15.628  70.655  1.00  0.00    -0.443 A  
HETATM   13  C   UNL     1     -12.371  14.561  71.519  1.00  0.00    -0.430 A  
HETATM   14  C   UNL     1     -12.341  13.256  71.027  1.00  0.00    -0.379 A  
HETATM   15  C   UNL     1     -12.101  13.015  69.669  1.00  0.00    -0.304 A  
ENDBRANCH   7  10
ENDBRANCH   5   7
ENDBRANCH   3   5
ENDBRANCH   2   3
TORSDOF 4
ENDMDL
MODEL       55
REMARK 921   NORMALIZED FREE ENERGY PREDICTED BY IDOCK:   -4.04 KCAL/MOL
REMARK 922        TOTAL FREE ENERGY PREDICTED BY IDOCK:   -5.38 KCAL/MOL
REMARK 923 INTER-LIGAND FREE ENERGY PREDICTED BY IDOCK:   -5.05 KCAL/MOL
REMARK 924 INTRA-LIGAND FREE ENERGY PREDICTED BY IDOCK:   -0.32 KCAL/MOL
REMARK 927      BINDING AFFINITY PREDICTED BY RF-SCORE:    0.00 PKD
ROOT
HETATM    1  C   UNL     1      -9.794  15.723  66.012  1.00  0.00    -0.366 C  
HETATM    2  C   UNL     1     -10.265  14.274  65.886  1.00  0.00    -0.324 C  
ENDROOT
BRANCH   2   3
HETATM    3  N   UNL     1     -11.570  13.955  66.522  1.00  0.00    -0.352 NA 
HETATM    4  C   UNL     1     -12.631  13.947  65.504  1.00  0.00    -0.526 C  
BRANCH   3   5
HETATM    5  C   UNL     1     -11.499  12.622  67.228  1.00  0.00    -0.342 C  
HETATM    6  C   UNL     1     -10.943  11.524  66.293  1.00  0.00    -0.328 C  
BRANCH   5   7
HETATM    7  C   UNL     1     -10.753  12.471  68.622  1.00  0.00    -0.234 C  
HETATM    8  H   UNL     1      -8.933  12.003  69.313  1.00  0.00     0.000 HD 
HETATM    9  O   UNL     1      -9.379  12.093  68.479  1.00  0.00    -0.183 OA 
BRANCH   7  10
HETATM   10  C   UNL     1     -11.394  11.675  69.747  1.00  0.00    -0.276 A  
HETATM   11  C   UNL     1     -11.094  10.302  69.863  1.00  0.00    -0.362 A  
HETATM   12  C   UNL     1     -11.670   9.521  70.871  1.00  0.00    -0.391 A  
HETATM   13  C   UNL     1     -12.560  10.095  71.769  1.00  0.00    -0.500 A  
HETATM   14  C   UNL     1     -12.879  11.448  71.658  1.00  0.00    -0.497 A  
HETATM   15  C   UNL     1     -12.305  12.232  70.649  1.00  0.00    -0.375 A  
ENDBRANCH   7  10
ENDBRANCH   5   7
ENDBRANCH   3   5
ENDBRANCH   2   3
TORSDOF 4
ENDMDL
MODEL       56
REMARK 921   NORMALIZED FREE ENERGY PREDICTED BY IDOCK:   -4.04 KCAL/MOL
REMARK 922        TOTAL FREE ENERGY PREDICTED BY IDOCK:   -5.37 KCAL/MOL
REMARK 923 INTER-LIGAND FREE ENERGY PREDICTED BY IDOCK:   -4.95 KCAL/MOL
REMARK 924 INTRA-LIGAND FREE ENERGY PREDICTED BY IDOCK:   -0.42 KCAL/MOL
REMARK 927      BINDING AFFINITY PREDICTED BY RF-SCORE:    0.00 PKD
ROOT
HETATM    1  C   UNL     1      -9.465   8.381  66.451  1.00  0.00    -0.293 C  
HETATM    2  C   UNL     1     -10.593   8.743  67.417  1.00  0.00    -0.233 C  
ENDROOT
BRANCH   2   3
HETATM    3  N   UNL     1     -10.338   9.900  68.314  1.00  0.00    -0.190 NA 
HETATM    4  C   UNL     1      -9.066  10.543  67.950  1.00  0.00    -0.136 C  
BRANCH   3   5
HETATM    5  C   UNL     1     -11.477  10.889  68.234  1.00  0.00    -0.305 C  
HETATM    6  C   UNL     1     -12.146  11.082  69.613  1.00  0.00    -0.411 C  
BRANCH   5   7
HETATM    7  C   UNL     1     -11.267  12.334  67.609  1.00  0.00    -0.290 C  
HETATM    8  H   UNL     1     -11.730  14.236  68.026  1.00  0.00     0.000 HD 
HETATM    9  O   UNL     1     -11.855  13.372  68.400  1.00  0.00    -0.337 OA 
BRANCH   7  10
HETATM   10  C   UNL     1     -11.559  12.577  66.137  1.00  0.00    -0.448 A  
HETATM   11  C   UNL     1     -11.153  11.610  65.195  1.00  0.00    -0.300 A  
HETATM   12  C   UNL     1     -11.384  11.793  63.828  1.00  0.00    -0.524 A  
HETATM   13  C   UNL     1     -12.013  12.948  63.380  1.00  0.00    -0.612 A  
HETATM   14  C   UNL     1     -12.406  13.922  64.298  1.00  0.00    -0.390 A  
HETATM   15  C   UNL     1     -12.174  13.741  65.667  1.00  0.00    -0.484 A  
ENDBRANCH   7  10
ENDBRANCH   5   7
ENDBRANCH   3   5
ENDBRANCH   2   3
TORSDOF 4
ENDMDL
MODEL       57
REMARK 921   NORMALIZED FREE ENERGY PREDICTED BY IDOCK:   -4.03 KCAL/MOL
REMARK 922        TOTAL FREE ENERGY PREDICTED BY IDOCK:   -5.37 KCAL/MOL
REMARK 923 INTER-LIGAND FREE ENERGY PREDICTED BY IDOCK:   -5.23 KCAL/MOL
REMARK 924 INTRA-LIGAND FREE ENERGY PREDICTED BY IDOCK:   -0.14 KCAL/MOL
REMARK 927      BINDING AFFINITY PREDICTED BY RF-SCORE:    0.00 PKD
ROOT
HETATM    1  C   UNL     1      -9.927  18.058  68.612  1.00  0.00    -0.396 C  
HETATM    2  C   UNL     1      -9.534  16.642  68.190  1.00  0.00    -0.228 C  
ENDROOT
BRANCH   2   3
HETATM    3  N   UNL     1     -10.496  15.566  68.544  1.00  0.00    -0.233 NA 
HETATM    4  C   UNL     1     -11.276  15.963  69.726  1.00  0.00    -0.339 C  
BRANCH   3   5
HETATM    5  C   UNL     1     -11.408  15.271  67.377  1.00  0.00    -0.284 C  
HETATM    6  C   UNL     1     -10.754  15.686  66.040  1.00  0.00    -0.322 C  
BRANCH   5   7
HETATM    7  C   UNL     1     -12.028  13.824  67.166  1.00  0.00    -0.405 C  
HETATM    8  H   UNL     1     -12.288  12.131  68.202  1.00  0.00     0.000 HD 
HETATM    9  O   UNL     1     -11.917  12.996  68.329  1.00  0.00    -0.332 OA 
BRANCH   7  10
HETATM   10  C   UNL     1     -11.678  13.020  65.924  1.00  0.00    -0.442 A  
HETATM   11  C   UNL     1     -12.610  12.961  64.868  1.00  0.00    -0.525 A  
HETATM   12  C   UNL     1     -12.344  12.223  63.711  1.00  0.00    -0.637 A  
HETATM   13  C   UNL     1     -11.150  11.522  63.595  1.00  0.00    -0.469 A  
HETATM   14  C   UNL     1     -10.224  11.557  64.638  1.00  0.00    -0.334 A  
HETATM   15  C   UNL     1     -10.490  12.295  65.798  1.00  0.00    -0.287 A  
ENDBRANCH   7  10
ENDBRANCH   5   7
ENDBRANCH   3   5
ENDBRANCH   2   3
TORSDOF 4
ENDMDL
MODEL       58
REMARK 921   NORMALIZED FREE ENERGY PREDICTED BY IDOCK:   -4.03 KCAL/MOL
REMARK 922        TOTAL FREE ENERGY PREDICTED BY IDOCK:   -5.37 KCAL/MOL
REMARK 923 INTER-LIGAND FREE ENERGY PREDICTED BY IDOCK:   -5.10 KCAL/MOL
REMARK 924 INTRA-LIGAND FREE ENERGY PREDICTED BY IDOCK:   -0.27 KCAL/MOL
REMARK 927      BINDING AFFINITY PREDICTED BY RF-SCORE:    0.00 PKD
ROOT
HETATM    1  C   UNL     1     -10.423   9.142  67.202  1.00  0.00    -0.325 C  
HETATM    2  C   UNL     1     -10.754  10.610  66.932  1.00  0.00    -0.237 C  
ENDROOT
BRANCH   2   3
HETATM    3  N   UNL     1      -9.961  11.271  65.862  1.00  0.00    -0.224 NA 
HETATM    4  C   UNL     1      -9.687  10.313  64.781  1.00  0.00    -0.332 C  
BRANCH   3   5
HETATM    5  C   UNL     1     -10.699  12.477  65.331  1.00  0.00    -0.280 C  
HETATM    6  C   UNL     1     -11.125  12.268  63.861  1.00  0.00    -0.475 C  
BRANCH   5   7
HETATM    7  C   UNL     1     -11.952  13.077  66.101  1.00  0.00    -0.427 C  
HETATM    8  H   UNL     1     -13.702  13.949  65.678  1.00  0.00     0.000 HD 
HETATM    9  O   UNL     1     -12.954  13.591  65.217  1.00  0.00    -0.701 OA 
BRANCH   7  10
HETATM   10  C   UNL     1     -11.745  14.037  67.261  1.00  0.00    -0.420 A  
HETATM   11  C   UNL     1     -12.118  13.627  68.557  1.00  0.00    -0.321 A  
HETATM   12  C   UNL     1     -11.963  14.478  69.656  1.00  0.00    -0.375 A  
HETATM   13  C   UNL     1     -11.444  15.754  69.476  1.00  0.00    -0.356 A  
HETATM   14  C   UNL     1     -11.085  16.181  68.198  1.00  0.00    -0.332 A  
HETATM   15  C   UNL     1     -11.241  15.331  67.096  1.00  0.00    -0.291 A  
ENDBRANCH   7  10
ENDBRANCH   5   7
ENDBRANCH   3   5
ENDBRANCH   2   3
TORSDOF 4
ENDMDL
MODEL       59
REMARK 921   NORMALIZED FREE ENERGY PREDICTED BY IDOCK:   -4.03 KCAL/MOL
REMARK 922        TOTAL FREE ENERGY PREDICTED BY IDOCK:   -5.36 KCAL/MOL
REMARK 923 INTER-LIGAND FREE ENERGY PREDICTED BY IDOCK:   -5.01 KCAL/MOL
REMARK 924 INTRA-LIGAND FREE ENERGY PREDICTED BY IDOCK:   -0.35 KCAL/MOL
REMARK 927      BINDING AFFINITY PREDICTED BY RF-SCORE:    0.00 PKD
ROOT
HETATM    1  C   UNL     1      -6.973  14.827  68.782  1.00  0.00    -0.103 C  
HETATM    2  C   UNL     1      -8.422  15.226  69.060  1.00  0.00    -0.221 C  
ENDROOT
BRANCH   2   3
HETATM    3  N   UNL     1      -8.728  16.678  68.968  1.00  0.00    -0.231 NA 
HETATM    4  C   UNL     1      -8.207  17.218  67.703  1.00  0.00    -0.193 C  
BRANCH   3   5
HETATM    5  C   UNL     1     -10.217  16.909  69.074  1.00  0.00    -0.308 C  
HETATM    6  C   UNL     1     -10.746  17.702  67.857  1.00  0.00    -0.341 C  
BRANCH   5   7
HETATM    7  C   UNL     1     -11.219  15.701  69.317  1.00  0.00    -0.320 C  
HETATM    8  H   UNL     1     -12.633  14.694  68.321  1.00  0.00     0.000 HD 
HETATM    9  O   UNL     1     -12.034  15.416  68.175  1.00  0.00    -0.253 OA 
BRANCH   7  10
HETATM   10  C   UNL     1     -12.064  15.656  70.580  1.00  0.00    -0.430 A  
HETATM   11  C   UNL     1     -11.508  16.126  71.787  1.00  0.00    -0.386 A  
HETATM   12  C   UNL     1     -12.238  16.092  72.979  1.00  0.00    -0.641 A  
HETATM   13  C   UNL     1     -13.529  15.579  72.987  1.00  0.00    -0.632 A  
HETATM   14  C   UNL     1     -14.088  15.095  71.804  1.00  0.00    -0.645 A  
HETATM   15  C   UNL     1     -13.358  15.127  70.609  1.00  0.00    -0.304 A  
ENDBRANCH   7  10
ENDBRANCH   5   7
ENDBRANCH   3   5
ENDBRANCH   2   3
TORSDOF 4
ENDMDL
MODEL       60
REMARK 921   NORMALIZED FREE ENERGY PREDICTED BY IDOCK:   -4.03 KCAL/MOL
REMARK 922        TOTAL FREE ENERGY PREDICTED BY IDOCK:   -5.36 KCAL/MOL
REMARK 923 INTER-LIGAND FREE ENERGY PREDICTED BY IDOCK:   -4.98 KCAL/MOL
REMARK 924 INTRA-LIGAND FREE ENERGY PREDICTED BY IDOCK:   -0.38 KCAL/MOL
REMARK 927      BINDING AFFINITY PREDICTED BY RF-SCORE:    0.00 PKD
ROOT
HETATM    1  C   UNL     1     -10.094  19.618  67.232  1.00  0.00    -0.534 C  
HETATM    2  C   UNL     1      -9.016  18.546  67.391  1.00  0.00    -0.272 C  
ENDROOT
BRANCH   2   3
HETATM    3  N   UNL     1      -8.444  18.005  66.131  1.00  0.00    -0.488 NA 
HETATM    4  C   UNL     1      -7.041  18.425  66.000  1.00  0.00    -0.272 C  
BRANCH   3   5
HETATM    5  C   UNL     1      -8.554  16.499  66.108  1.00  0.00    -0.299 C  
HETATM    6  C   UNL     1      -8.037  15.882  67.427  1.00  0.00    -0.187 C  
BRANCH   5   7
HETATM    7  C   UNL     1      -9.929  15.782  65.763  1.00  0.00    -0.358 C  
HETATM    8  H   UNL     1     -11.641  16.189  64.811  1.00  0.00     0.000 HD 
HETATM    9  O   UNL     1     -10.820  16.618  65.017  1.00  0.00    -0.641 OA 
BRANCH   7  10
HETATM   10  C   UNL     1     -10.698  15.047  66.849  1.00  0.00    -0.308 A  
HETATM   11  C   UNL     1     -10.859  13.651  66.741  1.00  0.00    -0.291 A  
HETATM   12  C   UNL     1     -11.571  12.930  67.705  1.00  0.00    -0.406 A  
HETATM   13  C   UNL     1     -12.142  13.593  68.784  1.00  0.00    -0.332 A  
HETATM   14  C   UNL     1     -12.005  14.976  68.897  1.00  0.00    -0.287 A  
HETATM   15  C   UNL     1     -11.294  15.700  67.932  1.00  0.00    -0.302 A  
ENDBRANCH   7  10
ENDBRANCH   5   7
ENDBRANCH   3   5
ENDBRANCH   2   3
TORSDOF 4
ENDMDL
MODEL       61
REMARK 921   NORMALIZED FREE ENERGY PREDICTED BY IDOCK:   -4.02 KCAL/MOL
REMARK 922        TOTAL FREE ENERGY PREDICTED BY IDOCK:   -5.35 KCAL/MOL
REMARK 923 INTER-LIGAND FREE ENERGY PREDICTED BY IDOCK:   -4.96 KCAL/MOL
REMARK 924 INTRA-LIGAND FREE ENERGY PREDICTED BY IDOCK:   -0.39 KCAL/MOL
REMARK 927      BINDING AFFINITY PREDICTED BY RF-SCORE:    0.00 PKD
ROOT
HETATM    1  C   UNL     1     -10.847  10.201  67.821  1.00  0.00    -0.346 C  
HETATM    2  C   UNL     1     -10.678  11.456  68.677  1.00  0.00    -0.206 C  
ENDROOT
BRANCH   2   3
HETATM    3  N   UNL     1     -11.927  12.191  69.010  1.00  0.00    -0.282 NA 
HETATM    4  C   UNL     1     -12.085  12.270  70.469  1.00  0.00    -0.282 C  
BRANCH   3   5
HETATM    5  C   UNL     1     -11.900  13.574  68.401  1.00  0.00    -0.373 C  
HETATM    6  C   UNL     1     -11.609  14.649  69.472  1.00  0.00    -0.350 C  
BRANCH   5   7
HETATM    7  C   UNL     1     -10.981  13.900  67.148  1.00  0.00    -0.291 C  
HETATM    8  H   UNL     1     -10.285  15.501  66.168  1.00  0.00     0.000 HD 
HETATM    9  O   UNL     1     -10.834  15.306  66.917  1.00  0.00    -0.310 OA 
BRANCH   7  10
HETATM   10  C   UNL     1     -11.210  13.182  65.828  1.00  0.00    -0.309 A  
HETATM   11  C   UNL     1     -10.097  12.664  65.135  1.00  0.00    -0.257 A  
HETATM   12  C   UNL     1     -10.251  12.009  63.909  1.00  0.00    -0.424 A  
HETATM   13  C   UNL     1     -11.516  11.870  63.352  1.00  0.00    -0.470 A  
HETATM   14  C   UNL     1     -12.626  12.390  64.017  1.00  0.00    -0.510 A  
HETATM   15  C   UNL     1     -12.473  13.048  65.244  1.00  0.00    -0.555 A  
ENDBRANCH   7  10
ENDBRANCH   5   7
ENDBRANCH   3   5
ENDBRANCH   2   3
TORSDOF 4
ENDMDL
MODEL       62
REMARK 921   NORMALIZED FREE ENERGY PREDICTED BY IDOCK:   -4.00 KCAL/MOL
REMARK 922        TOTAL FREE ENERGY PREDICTED BY IDOCK:   -5.33 KCAL/MOL
REMARK 923 INTER-LIGAND FREE ENERGY PREDICTED BY IDOCK:   -5.08 KCAL/MOL
REMARK 924 INTRA-LIGAND FREE ENERGY PREDICTED BY IDOCK:   -0.25 KCAL/MOL
REMARK 927      BINDING AFFINITY PREDICTED BY RF-SCORE:    0.00 PKD
ROOT
HETATM    1  C   UNL     1      -9.045  10.047  64.558  1.00  0.00    -0.285 C  
HETATM    2  C   UNL     1     -10.224  10.873  65.073  1.00  0.00    -0.303 C  
ENDROOT
BRANCH   2   3
HETATM    3  N   UNL     1     -10.450  12.178  64.399  1.00  0.00    -0.297 NA 
HETATM    4  C   UNL     1     -11.574  12.066  63.458  1.00  0.00    -0.461 C  
BRANCH   3   5
HETATM    5  C   UNL     1     -10.716  13.258  65.422  1.00  0.00    -0.297 C  
HETATM    6  C   UNL     1     -10.551  14.664  64.803  1.00  0.00    -0.379 C  
BRANCH   5   7
HETATM    7  C   UNL     1     -12.060  13.273  66.268  1.00  0.00    -0.414 C  
HETATM    8  H   UNL     1     -13.897  14.059  66.162  1.00  0.00     0.000 HD 
HETATM    9  O   UNL     1     -13.094  14.050  65.655  1.00  0.00    -0.639 OA 
BRANCH   7  10
HETATM   10  C   UNL     1     -12.016  13.556  67.761  1.00  0.00    -0.369 A  
HETATM   11  C   UNL     1     -12.005  12.469  68.658  1.00  0.00    -0.268 A  
HETATM   12  C   UNL     1     -11.980  12.676  70.041  1.00  0.00    -0.377 A  
HETATM   13  C   UNL     1     -11.979  13.969  70.549  1.00  0.00    -0.390 A  
HETATM   14  C   UNL     1     -12.007  15.055  69.675  1.00  0.00    -0.356 A  
HETATM   15  C   UNL     1     -12.032  14.850  68.290  1.00  0.00    -0.245 A  
ENDBRANCH   7  10
ENDBRANCH   5   7
ENDBRANCH   3   5
ENDBRANCH   2   3
TORSDOF 4
ENDMDL
MODEL       63
REMARK 921   NORMALIZED FREE ENERGY PREDICTED BY IDOCK:   -3.99 KCAL/MOL
REMARK 922        TOTAL FREE ENERGY PREDICTED BY IDOCK:   -5.31 KCAL/MOL
REMARK 923 INTER-LIGAND FREE ENERGY PREDICTED BY IDOCK:   -5.01 KCAL/MOL
REMARK 924 INTRA-LIGAND FREE ENERGY PREDICTED BY IDOCK:   -0.31 KCAL/MOL
REMARK 927      BINDING AFFINITY PREDICTED BY RF-SCORE:    0.00 PKD
ROOT
HETATM    1  C   UNL     1      -9.988  11.250  65.123  1.00  0.00    -0.312 C  
HETATM    2  C   UNL     1     -10.995  11.947  66.039  1.00  0.00    -0.309 C  
ENDROOT
BRANCH   2   3
HETATM    3  N   UNL     1     -10.928  11.582  67.478  1.00  0.00    -0.239 NA 
HETATM    4  C   UNL     1      -9.831  10.629  67.701  1.00  0.00    -0.167 C  
BRANCH   3   5
HETATM    5  C   UNL     1     -10.740  12.819  68.325  1.00  0.00    -0.239 C  
HETATM    6  C   UNL     1      -9.557  13.671  67.812  1.00  0.00    -0.224 C  
BRANCH   5   7
HETATM    7  C   UNL     1     -11.946  13.813  68.604  1.00  0.00    -0.366 C  
HETATM    8  H   UNL     1     -12.459  15.707  68.208  1.00  0.00     0.000 HD 
HETATM    9  O   UNL     1     -11.738  15.113  68.040  1.00  0.00    -0.345 OA 
BRANCH   7  10
HETATM   10  C   UNL     1     -12.515  13.945  70.008  1.00  0.00    -0.325 A  
HETATM   11  C   UNL     1     -12.780  15.233  70.515  1.00  0.00    -0.440 A  
HETATM   12  C   UNL     1     -13.289  15.409  71.806  1.00  0.00    -0.567 A  
HETATM   13  C   UNL     1     -13.530  14.304  72.613  1.00  0.00    -0.623 A  
HETATM   14  C   UNL     1     -13.258  13.024  72.132  1.00  0.00    -0.558 A  
HETATM   15  C   UNL     1     -12.747  12.845  70.840  1.00  0.00    -0.291 A  
ENDBRANCH   7  10
ENDBRANCH   5   7
ENDBRANCH   3   5
ENDBRANCH   2   3
TORSDOF 4
ENDMDL
MODEL       64
REMARK 921   NORMALIZED FREE ENERGY PREDICTED BY IDOCK:   -3.98 KCAL/MOL
REMARK 922        TOTAL FREE ENERGY PREDICTED BY IDOCK:   -5.31 KCAL/MOL
REMARK 923 INTER-LIGAND FREE ENERGY PREDICTED BY IDOCK:   -5.05 KCAL/MOL
REMARK 924 INTRA-LIGAND FREE ENERGY PREDICTED BY IDOCK:   -0.26 KCAL/MOL
REMARK 927      BINDING AFFINITY PREDICTED BY RF-SCORE:    0.00 PKD
ROOT
HETATM    1  C   UNL     1     -11.893  11.786  69.453  1.00  0.00    -0.398 C  
HETATM    2  C   UNL     1     -12.034  13.259  69.068  1.00  0.00    -0.293 C  
ENDROOT
BRANCH   2   3
HETATM    3  N   UNL     1     -11.198  13.718  67.928  1.00  0.00    -0.263 NA 
HETATM    4  C   UNL     1     -11.727  13.173  66.669  1.00  0.00    -0.375 C  
BRANCH   3   5
HETATM    5  C   UNL     1     -11.158  15.227  67.881  1.00  0.00    -0.321 C  
HETATM    6  C   UNL     1     -11.426  15.836  69.276  1.00  0.00    -0.368 C  
BRANCH   5   7
HETATM    7  C   UNL     1      -9.911  15.996  67.266  1.00  0.00    -0.242 C  
HETATM    8  H   UNL     1      -7.913  15.952  67.373  1.00  0.00     0.000 HD 
HETATM    9  O   UNL     1      -8.658  15.492  67.740  1.00  0.00    -0.149 OA 
BRANCH   7  10
HETATM   10  C   UNL     1      -9.885  17.516  67.252  1.00  0.00    -0.294 A  
HETATM   11  C   UNL     1     -10.495  18.196  66.178  1.00  0.00    -0.377 A  
HETATM   12  C   UNL     1     -10.485  19.593  66.110  1.00  0.00    -0.624 A  
HETATM   13  C   UNL     1      -9.857  20.331  67.106  1.00  0.00    -0.606 A  
HETATM   14  C   UNL     1      -9.236  19.673  68.167  1.00  0.00    -0.418 A  
HETATM   15  C   UNL     1      -9.243  18.274  68.236  1.00  0.00    -0.322 A  
ENDBRANCH   7  10
ENDBRANCH   5   7
ENDBRANCH   3   5
ENDBRANCH   2   3
TORSDOF 4
ENDMDL
MODEL       65
REMARK 921   NORMALIZED FREE ENERGY PREDICTED BY IDOCK:   -3.97 KCAL/MOL
REMARK 922        TOTAL FREE ENERGY PREDICTED BY IDOCK:   -5.29 KCAL/MOL
REMARK 923 INTER-LIGAND FREE ENERGY PREDICTED BY IDOCK:   -4.89 KCAL/MOL
REMARK 924 INTRA-LIGAND FREE ENERGY PREDICTED BY IDOCK:   -0.40 KCAL/MOL
REMARK 927      BINDING AFFINITY PREDICTED BY RF-SCORE:    0.00 PKD
ROOT
HETATM    1  C   UNL     1     -13.836   9.014  71.876  1.00  0.00    -0.477 C  
HETATM    2  C   UNL     1     -12.641   9.950  71.696  1.00  0.00    -0.424 C  
ENDROOT
BRANCH   2   3
HETATM    3  N   UNL     1     -11.317   9.293  71.531  1.00  0.00    -0.361 NA 
HETATM    4  C   UNL     1     -11.502   7.861  71.252  1.00  0.00    -0.265 C  
BRANCH   3   5
HETATM    5  C   UNL     1     -10.537   9.957  70.420  1.00  0.00    -0.302 C  
HETATM    6  C   UNL     1      -9.135   9.325  70.270  1.00  0.00    -0.271 C  
BRANCH   5   7
HETATM    7  C   UNL     1     -11.146  10.098  68.961  1.00  0.00    -0.205 C  
HETATM    8  H   UNL     1     -10.814   9.396  67.116  1.00  0.00     0.000 HD 
HETATM    9  O   UNL     1     -10.449   9.311  67.989  1.00  0.00    -0.211 OA 
BRANCH   7  10
HETATM   10  C   UNL     1     -11.447  11.475  68.391  1.00  0.00    -0.364 A  
HETATM   11  C   UNL     1     -11.440  11.647  66.992  1.00  0.00    -0.336 A  
HETATM   12  C   UNL     1     -11.695  12.897  66.418  1.00  0.00    -0.454 A  
HETATM   13  C   UNL     1     -11.949  13.994  67.231  1.00  0.00    -0.448 A  
HETATM   14  C   UNL     1     -11.943  13.844  68.617  1.00  0.00    -0.401 A  
HETATM   15  C   UNL     1     -11.687  12.594  69.194  1.00  0.00    -0.375 A  
ENDBRANCH   7  10
ENDBRANCH   5   7
ENDBRANCH   3   5
ENDBRANCH   2   3
TORSDOF 4
ENDMDL
MODEL       66
REMARK 921   NORMALIZED FREE ENERGY PREDICTED BY IDOCK:   -3.97 KCAL/MOL
REMARK 922        TOTAL FREE ENERGY PREDICTED BY IDOCK:   -5.29 KCAL/MOL
REMARK 923 INTER-LIGAND FREE ENERGY PREDICTED BY IDOCK:   -5.02 KCAL/MOL
REMARK 924 INTRA-LIGAND FREE ENERGY PREDICTED BY IDOCK:   -0.27 KCAL/MOL
REMARK 927      BINDING AFFINITY PREDICTED BY RF-SCORE:    0.00 PKD
ROOT
HETATM    1  C   UNL     1     -10.210  10.736  64.370  1.00  0.00    -0.432 C  
HETATM    2  C   UNL     1     -10.037  12.212  64.010  1.00  0.00    -0.331 C  
ENDROOT
BRANCH   2   3
HETATM    3  N   UNL     1     -11.271  12.933  63.605  1.00  0.00    -0.415 NA 
HETATM    4  C   UNL     1     -12.397  11.991  63.526  1.00  0.00    -0.551 C  
BRANCH   3   5
HETATM    5  C   UNL     1     -11.574  14.046  64.581  1.00  0.00    -0.392 C  
HETATM    6  C   UNL     1     -12.974  13.869  65.210  1.00  0.00    -0.341 C  
BRANCH   5   7
HETATM    7  C   UNL     1     -10.571  14.397  65.762  1.00  0.00    -0.318 C  
HETATM    8  H   UNL     1     -10.053  13.684  67.558  1.00  0.00     0.000 HD 
HETATM    9  O   UNL     1     -10.652  13.473  66.853  1.00  0.00    -0.268 OA 
BRANCH   7  10
HETATM   10  C   UNL     1     -10.488  15.818  66.293  1.00  0.00    -0.315 A  
HETATM   11  C   UNL     1     -10.352  16.018  67.681  1.00  0.00    -0.284 A  
HETATM   12  C   UNL     1     -10.286  17.306  68.222  1.00  0.00    -0.361 A  
HETATM   13  C   UNL     1     -10.367  18.413  67.387  1.00  0.00    -0.415 A  
HETATM   14  C   UNL     1     -10.518  18.233  66.013  1.00  0.00    -0.380 A  
HETATM   15  C   UNL     1     -10.585  16.944  65.469  1.00  0.00    -0.215 A  
ENDBRANCH   7  10
ENDBRANCH   5   7
ENDBRANCH   3   5
ENDBRANCH   2   3
TORSDOF 4
ENDMDL
MODEL       67
REMARK 921   NORMALIZED FREE ENERGY PREDICTED BY IDOCK:   -3.97 KCAL/MOL
REMARK 922        TOTAL FREE ENERGY PREDICTED BY IDOCK:   -5.29 KCAL/MOL
REMARK 923 INTER-LIGAND FREE ENERGY PREDICTED BY IDOCK:   -4.96 KCAL/MOL
REMARK 924 INTRA-LIGAND FREE ENERGY PREDICTED BY IDOCK:   -0.33 KCAL/MOL
REMARK 927      BINDING AFFINITY PREDICTED BY RF-SCORE:    0.00 PKD
ROOT
HETATM    1  C   UNL     1     -13.193   9.724  71.736  1.00  0.00    -0.532 C  
HETATM    2  C   UNL     1     -11.910  10.293  71.129  1.00  0.00    -0.362 C  
ENDROOT
BRANCH   2   3
HETATM    3  N   UNL     1     -12.089  11.284  70.036  1.00  0.00    -0.333 NA 
HETATM    4  C   UNL     1     -12.261  12.629  70.606  1.00  0.00    -0.285 C  
BRANCH   3   5
HETATM    5  C   UNL     1     -10.906  11.250  69.098  1.00  0.00    -0.222 C  
HETATM    6  C   UNL     1      -9.802  10.307  69.627  1.00  0.00    -0.230 C  
BRANCH   5   7
HETATM    7  C   UNL     1     -11.093  10.933  67.553  1.00  0.00    -0.310 C  
HETATM    8  H   UNL     1     -10.163   9.916  66.102  1.00  0.00     0.000 HD 
HETATM    9  O   UNL     1     -10.051  10.105  67.025  1.00  0.00    -0.203 OA 
BRANCH   7  10
HETATM   10  C   UNL     1     -11.405  12.055  66.577  1.00  0.00    -0.413 A  
HETATM   11  C   UNL     1     -11.173  11.845  65.203  1.00  0.00    -0.346 A  
HETATM   12  C   UNL     1     -11.429  12.851  64.266  1.00  0.00    -0.427 A  
HETATM   13  C   UNL     1     -11.910  14.084  64.687  1.00  0.00    -0.433 A  
HETATM   14  C   UNL     1     -12.129  14.314  66.044  1.00  0.00    -0.423 A  
HETATM   15  C   UNL     1     -11.872  13.309  66.985  1.00  0.00    -0.442 A  
ENDBRANCH   7  10
ENDBRANCH   5   7
ENDBRANCH   3   5
ENDBRANCH   2   3
TORSDOF 4
ENDMDL
MODEL       68
REMARK 921   NORMALIZED FREE ENERGY PREDICTED BY IDOCK:   -3.95 KCAL/MOL
REMARK 922        TOTAL FREE ENERGY PREDICTED BY IDOCK:   -5.26 KCAL/MOL
REMARK 923 INTER-LIGAND FREE ENERGY PREDICTED BY IDOCK:   -5.12 KCAL/MOL
REMARK 924 INTRA-LIGAND FREE ENERGY PREDICTED BY IDOCK:   -0.15 KCAL/MOL
REMARK 927      BINDING AFFINITY PREDICTED BY RF-SCORE:    0.00 PKD
ROOT
HETATM    1  C   UNL     1      -9.755  10.716  64.821  1.00  0.00    -0.350 C  
HETATM    2  C   UNL     1     -10.456  11.740  65.714  1.00  0.00    -0.260 C  
ENDROOT
BRANCH   2   3
HETATM    3  N   UNL     1     -10.071  11.724  67.150  1.00  0.00    -0.202 NA 
HETATM    4  C   UNL     1      -8.661  12.114  67.293  1.00  0.00    -0.180 C  
BRANCH   3   5
HETATM    5  C   UNL     1     -10.964  12.650  67.943  1.00  0.00    -0.230 C  
HETATM    6  C   UNL     1     -12.118  13.194  67.071  1.00  0.00    -0.366 C  
BRANCH   5   7
HETATM    7  C   UNL     1     -11.596  12.194  69.326  1.00  0.00    -0.318 C  
HETATM    8  H   UNL     1     -12.875  10.818  70.016  1.00  0.00     0.000 HD 
HETATM    9  O   UNL     1     -12.496  11.090  69.189  1.00  0.00    -0.432 OA 
BRANCH   7  10
HETATM   10  C   UNL     1     -12.188  13.228  70.270  1.00  0.00    -0.391 A  
HETATM   11  C   UNL     1     -12.977  12.787  71.352  1.00  0.00    -0.359 A  
HETATM   12  C   UNL     1     -13.557  13.699  72.241  1.00  0.00    -0.669 A  
HETATM   13  C   UNL     1     -13.367  15.063  72.056  1.00  0.00    -0.475 A  
HETATM   14  C   UNL     1     -12.602  15.516  70.982  1.00  0.00    -0.513 A  
HETATM   15  C   UNL     1     -12.022  14.605  70.090  1.00  0.00    -0.372 A  
ENDBRANCH   7  10
ENDBRANCH   5   7
ENDBRANCH   3   5
ENDBRANCH   2   3
TORSDOF 4
ENDMDL
MODEL       69
REMARK 921   NORMALIZED FREE ENERGY PREDICTED BY IDOCK:   -3.92 KCAL/MOL
REMARK 922        TOTAL FREE ENERGY PREDICTED BY IDOCK:   -5.22 KCAL/MOL
REMARK 923 INTER-LIGAND FREE ENERGY PREDICTED BY IDOCK:   -4.80 KCAL/MOL
REMARK 924 INTRA-LIGAND FREE ENERGY PREDICTED BY IDOCK:   -0.43 KCAL/MOL
REMARK 927      BINDING AFFINITY PREDICTED BY RF-SCORE:    0.00 PKD
ROOT
HETATM    1  C   UNL     1     -11.923  13.936  68.250  1.00  0.00    -0.392 C  
HETATM    2  C   UNL     1     -11.808  14.459  66.818  1.00  0.00    -0.410 C  
ENDROOT
BRANCH   2   3
HETATM    3  N   UNL     1     -10.606  14.023  66.059  1.00  0.00    -0.291 NA 
HETATM    4  C   UNL     1     -10.991  13.035  65.041  1.00  0.00    -0.298 C  
BRANCH   3   5
HETATM    5  C   UNL     1      -9.930  15.213  65.420  1.00  0.00    -0.330 C  
HETATM    6  C   UNL     1     -10.968  16.213  64.864  1.00  0.00    -0.364 C  
BRANCH   5   7
HETATM    7  C   UNL     1      -8.840  16.058  66.207  1.00  0.00    -0.344 C  
HETATM    8  H   UNL     1      -7.501  15.796  67.672  1.00  0.00     0.000 HD 
HETATM    9  O   UNL     1      -8.153  15.290  67.201  1.00  0.00    -0.184 OA 
BRANCH   7  10
HETATM   10  C   UNL     1      -9.196  17.426  66.766  1.00  0.00    -0.274 A  
HETATM   11  C   UNL     1      -8.558  18.565  66.232  1.00  0.00    -0.223 A  
HETATM   12  C   UNL     1      -8.838  19.844  66.722  1.00  0.00    -0.422 A  
HETATM   13  C   UNL     1      -9.749  20.006  67.758  1.00  0.00    -0.528 A  
HETATM   14  C   UNL     1     -10.377  18.889  68.308  1.00  0.00    -0.400 A  
HETATM   15  C   UNL     1     -10.097  17.606  67.820  1.00  0.00    -0.338 A  
ENDBRANCH   7  10
ENDBRANCH   5   7
ENDBRANCH   3   5
ENDBRANCH   2   3
TORSDOF 4
ENDMDL
MODEL       70
REMARK 921   NORMALIZED FREE ENERGY PREDICTED BY IDOCK:   -3.91 KCAL/MOL
REMARK 922        TOTAL FREE ENERGY PREDICTED BY IDOCK:   -5.22 KCAL/MOL
REMARK 923 INTER-LIGAND FREE ENERGY PREDICTED BY IDOCK:   -4.88 KCAL/MOL
REMARK 924 INTRA-LIGAND FREE ENERGY PREDICTED BY IDOCK:   -0.34 KCAL/MOL
REMARK 927      BINDING AFFINITY PREDICTED BY RF-SCORE:    0.00 PKD
ROOT
HETATM    1  C   UNL     1      -6.509  18.419  68.529  1.00  0.00    -0.229 C  
HETATM    2  C   UNL     1      -8.010  18.133  68.563  1.00  0.00    -0.300 C  
ENDROOT
BRANCH   2   3
HETATM    3  N   UNL     1      -8.401  16.699  68.559  1.00  0.00    -0.218 NA 
HETATM    4  C   UNL     1      -7.485  15.930  69.414  1.00  0.00    -0.213 C  
BRANCH   3   5
HETATM    5  C   UNL     1      -9.828  16.542  69.030  1.00  0.00    -0.266 C  
HETATM    6  C   UNL     1     -10.822  17.112  67.993  1.00  0.00    -0.317 C  
BRANCH   5   7
HETATM    7  C   UNL     1     -10.389  15.130  69.490  1.00  0.00    -0.243 C  
HETATM    8  H   UNL     1     -11.098  13.450  68.664  1.00  0.00     0.000 HD 
HETATM    9  O   UNL     1     -10.762  14.294  68.389  1.00  0.00    -0.238 OA 
BRANCH   7  10
HETATM   10  C   UNL     1     -11.445  15.048  70.581  1.00  0.00    -0.338 A  
HETATM   11  C   UNL     1     -12.288  13.919  70.627  1.00  0.00    -0.451 A  
HETATM   12  C   UNL     1     -13.285  13.803  71.601  1.00  0.00    -0.450 A  
HETATM   13  C   UNL     1     -13.463  14.816  72.535  1.00  0.00    -0.546 A  
HETATM   14  C   UNL     1     -12.648  15.947  72.492  1.00  0.00    -0.545 A  
HETATM   15  C   UNL     1     -11.650  16.066  71.517  1.00  0.00    -0.529 A  
ENDBRANCH   7  10
ENDBRANCH   5   7
ENDBRANCH   3   5
ENDBRANCH   2   3
TORSDOF 4
ENDMDL
MODEL       71
REMARK 921   NORMALIZED FREE ENERGY PREDICTED BY IDOCK:   -3.88 KCAL/MOL
REMARK 922        TOTAL FREE ENERGY PREDICTED BY IDOCK:   -5.18 KCAL/MOL
REMARK 923 INTER-LIGAND FREE ENERGY PREDICTED BY IDOCK:   -4.95 KCAL/MOL
REMARK 924 INTRA-LIGAND FREE ENERGY PREDICTED BY IDOCK:   -0.23 KCAL/MOL
REMARK 927      BINDING AFFINITY PREDICTED BY RF-SCORE:    0.00 PKD
ROOT
HETATM    1  C   UNL     1     -11.046   5.894  69.735  1.00  0.00    -0.422 C  
HETATM    2  C   UNL     1     -11.404   6.501  71.091  1.00  0.00    -0.314 C  
ENDROOT
BRANCH   2   3
HETATM    3  N   UNL     1     -12.306   7.682  71.059  1.00  0.00    -0.255 NA 
HETATM    4  C   UNL     1     -13.625   7.317  71.597  1.00  0.00    -0.349 C  
BRANCH   3   5
HETATM    5  C   UNL     1     -11.706   8.823  71.847  1.00  0.00    -0.359 C  
HETATM    6  C   UNL     1     -10.221   8.552  72.176  1.00  0.00    -0.403 C  
BRANCH   5   7
HETATM    7  C   UNL     1     -11.806  10.320  71.328  1.00  0.00    -0.335 C  
HETATM    8  H   UNL     1     -13.065  11.872  71.441  1.00  0.00     0.000 HD 
HETATM    9  O   UNL     1     -13.006  10.977  71.752  1.00  0.00    -0.455 OA 
BRANCH   7  10
HETATM   10  C   UNL     1     -11.530  10.640  69.868  1.00  0.00    -0.393 A  
HETATM   11  C   UNL     1     -11.992  11.863  69.341  1.00  0.00    -0.350 A  
HETATM   12  C   UNL     1     -11.778  12.199  68.001  1.00  0.00    -0.409 A  
HETATM   13  C   UNL     1     -11.110  11.314  67.163  1.00  0.00    -0.364 A  
HETATM   14  C   UNL     1     -10.660  10.093  67.665  1.00  0.00    -0.316 A  
HETATM   15  C   UNL     1     -10.875   9.755  69.007  1.00  0.00    -0.223 A  
ENDBRANCH   7  10
ENDBRANCH   5   7
ENDBRANCH   3   5
ENDBRANCH   2   3
TORSDOF 4
ENDMDL
MODEL       72
REMARK 921   NORMALIZED FREE ENERGY PREDICTED BY IDOCK:   -3.88 KCAL/MOL
REMARK 922        TOTAL FREE ENERGY PREDICTED BY IDOCK:   -5.18 KCAL/MOL
REMARK 923 INTER-LIGAND FREE ENERGY PREDICTED BY IDOCK:   -4.83 KCAL/MOL
REMARK 924 INTRA-LIGAND FREE ENERGY PREDICTED BY IDOCK:   -0.34 KCAL/MOL
REMARK 927      BINDING AFFINITY PREDICTED BY RF-SCORE:    0.00 PKD
ROOT
HETATM    1  C   UNL     1     -10.257  17.405  66.229  1.00  0.00    -0.344 C  
HETATM    2  C   UNL     1     -10.540  16.008  66.783  1.00  0.00    -0.297 C  
ENDROOT
BRANCH   2   3
HETATM    3  N   UNL     1     -11.272  15.083  65.877  1.00  0.00    -0.336 NA 
HETATM    4  C   UNL     1     -11.482  15.727  64.572  1.00  0.00    -0.289 C  
BRANCH   3   5
HETATM    5  C   UNL     1     -10.508  13.790  65.718  1.00  0.00    -0.299 C  
HETATM    6  C   UNL     1      -9.250  13.772  66.616  1.00  0.00    -0.238 C  
BRANCH   5   7
HETATM    7  C   UNL     1     -11.228  12.385  65.892  1.00  0.00    -0.336 C  
HETATM    8  H   UNL     1     -13.002  11.544  65.502  1.00  0.00     0.000 HD 
HETATM    9  O   UNL     1     -12.571  12.384  65.398  1.00  0.00    -0.637 OA 
BRANCH   7  10
HETATM   10  C   UNL     1     -11.167  11.659  67.226  1.00  0.00    -0.365 A  
HETATM   11  C   UNL     1     -11.775  12.252  68.351  1.00  0.00    -0.390 A  
HETATM   12  C   UNL     1     -11.734  11.632  69.604  1.00  0.00    -0.418 A  
HETATM   13  C   UNL     1     -11.077  10.417  69.755  1.00  0.00    -0.352 A  
HETATM   14  C   UNL     1     -10.458   9.825  68.655  1.00  0.00    -0.233 A  
HETATM   15  C   UNL     1     -10.496  10.445  67.400  1.00  0.00    -0.299 A  
ENDBRANCH   7  10
ENDBRANCH   5   7
ENDBRANCH   3   5
ENDBRANCH   2   3
TORSDOF 4
ENDMDL
MODEL       73
REMARK 921   NORMALIZED FREE ENERGY PREDICTED BY IDOCK:   -3.87 KCAL/MOL
REMARK 922        TOTAL FREE ENERGY PREDICTED BY IDOCK:   -5.17 KCAL/MOL
REMARK 923 INTER-LIGAND FREE ENERGY PREDICTED BY IDOCK:   -4.66 KCAL/MOL
REMARK 924 INTRA-LIGAND FREE ENERGY PREDICTED BY IDOCK:   -0.50 KCAL/MOL
REMARK 927      BINDING AFFINITY PREDICTED BY RF-SCORE:    0.00 PKD
ROOT
HETATM    1  C   UNL     1      -9.031  14.766  66.805  1.00  0.00    -0.292 C  
HETATM    2  C   UNL     1     -10.364  15.033  66.105  1.00  0.00    -0.299 C  
ENDROOT
BRANCH   2   3
HETATM    3  N   UNL     1     -11.584  14.618  66.845  1.00  0.00    -0.369 NA 
HETATM    4  C   UNL     1     -12.655  14.284  65.895  1.00  0.00    -0.352 C  
BRANCH   3   5
HETATM    5  C   UNL     1     -11.280  13.441  67.742  1.00  0.00    -0.279 C  
HETATM    6  C   UNL     1     -11.824  13.672  69.169  1.00  0.00    -0.394 C  
BRANCH   5   7
HETATM    7  C   UNL     1     -11.682  11.964  67.321  1.00  0.00    -0.247 C  
HETATM    8  H   UNL     1     -12.287  10.264  68.187  1.00  0.00     0.000 HD 
HETATM    9  O   UNL     1     -12.047  11.147  68.439  1.00  0.00    -0.605 OA 
BRANCH   7  10
HETATM   10  C   UNL     1     -10.795  11.174  66.372  1.00  0.00    -0.284 A  
HETATM   11  C   UNL     1     -10.115  10.041  66.863  1.00  0.00    -0.287 A  
HETATM   12  C   UNL     1      -9.275   9.289  66.035  1.00  0.00    -0.262 A  
HETATM   13  C   UNL     1      -9.092   9.663  64.709  1.00  0.00    -0.283 A  
HETATM   14  C   UNL     1      -9.745  10.791  64.213  1.00  0.00    -0.357 A  
HETATM   15  C   UNL     1     -10.586  11.546  65.041  1.00  0.00    -0.354 A  
ENDBRANCH   7  10
ENDBRANCH   5   7
ENDBRANCH   3   5
ENDBRANCH   2   3
TORSDOF 4
ENDMDL
MODEL       74
REMARK 921   NORMALIZED FREE ENERGY PREDICTED BY IDOCK:   -3.85 KCAL/MOL
REMARK 922        TOTAL FREE ENERGY PREDICTED BY IDOCK:   -5.15 KCAL/MOL
REMARK 923 INTER-LIGAND FREE ENERGY PREDICTED BY IDOCK:   -4.93 KCAL/MOL
REMARK 924 INTRA-LIGAND FREE ENERGY PREDICTED BY IDOCK:   -0.21 KCAL/MOL
REMARK 927      BINDING AFFINITY PREDICTED BY RF-SCORE:    0.00 PKD
ROOT
HETATM    1  C   UNL     1     -12.814  14.400  72.950  1.00  0.00    -0.512 C  
HETATM    2  C   UNL     1     -13.276  13.580  71.745  1.00  0.00    -0.404 C  
ENDROOT
BRANCH   2   3
HETATM    3  N   UNL     1     -12.203  13.084  70.844  1.00  0.00    -0.308 NA 
HETATM    4  C   UNL     1     -12.369  11.640  70.618  1.00  0.00    -0.344 C  
BRANCH   3   5
HETATM    5  C   UNL     1     -12.227  13.836  69.534  1.00  0.00    -0.293 C  
HETATM    6  C   UNL     1     -12.159  15.362  69.767  1.00  0.00    -0.373 C  
BRANCH   5   7
HETATM    7  C   UNL     1     -11.201  13.492  68.372  1.00  0.00    -0.278 C  
HETATM    8  H   UNL     1      -9.229  13.555  68.038  1.00  0.00     0.000 HD 
HETATM    9  O   UNL     1      -9.842  13.760  68.733  1.00  0.00    -0.190 OA 
BRANCH   7  10
HETATM   10  C   UNL     1     -11.465  13.977  66.956  1.00  0.00    -0.370 A  
HETATM   11  C   UNL     1     -10.666  15.014  66.433  1.00  0.00    -0.322 A  
HETATM   12  C   UNL     1     -10.877  15.507  65.141  1.00  0.00    -0.452 A  
HETATM   13  C   UNL     1     -11.896  14.981  64.357  1.00  0.00    -0.349 A  
HETATM   14  C   UNL     1     -12.706  13.965  64.865  1.00  0.00    -0.315 A  
HETATM   15  C   UNL     1     -12.496  13.471  66.159  1.00  0.00    -0.424 A  
ENDBRANCH   7  10
ENDBRANCH   5   7
ENDBRANCH   3   5
ENDBRANCH   2   3
TORSDOF 4
ENDMDL
MODEL       75
REMARK 921   NORMALIZED FREE ENERGY PREDICTED BY IDOCK:   -3.85 KCAL/MOL
REMARK 922        TOTAL FREE ENERGY PREDICTED BY IDOCK:   -5.15 KCAL/MOL
REMARK 923 INTER-LIGAND FREE ENERGY PREDICTED BY IDOCK:   -4.84 KCAL/MOL
REMARK 924 INTRA-LIGAND FREE ENERGY PREDICTED BY IDOCK:   -0.31 KCAL/MOL
REMARK 927      BINDING AFFINITY PREDICTED BY RF-SCORE:    0.00 PKD
ROOT
HETATM    1  C   UNL     1     -10.495   5.645  69.894  1.00  0.00    -0.378 C  
HETATM    2  C   UNL     1     -11.016   6.251  71.197  1.00  0.00    -0.280 C  
ENDROOT
BRANCH   2   3
HETATM    3  N   UNL     1     -12.040   7.319  71.056  1.00  0.00    -0.330 NA 
HETATM    4  C   UNL     1     -13.221   6.989  71.868  1.00  0.00    -0.194 C  
BRANCH   3   5
HETATM    5  C   UNL     1     -11.466   8.655  71.466  1.00  0.00    -0.295 C  
HETATM    6  C   UNL     1     -10.054   8.492  72.071  1.00  0.00    -0.386 C  
BRANCH   5   7
HETATM    7  C   UNL     1     -11.401   9.869  70.444  1.00  0.00    -0.307 C  
HETATM    8  H   UNL     1     -10.039  10.841  69.347  1.00  0.00     0.000 HD 
HETATM    9  O   UNL     1     -10.078  10.115  69.957  1.00  0.00    -0.247 OA 
BRANCH   7  10
HETATM   10  C   UNL     1     -12.081  11.186  70.782  1.00  0.00    -0.458 A  
HETATM   11  C   UNL     1     -11.693  12.348  70.086  1.00  0.00    -0.266 A  
HETATM   12  C   UNL     1     -12.277  13.587  70.369  1.00  0.00    -0.426 A  
HETATM   13  C   UNL     1     -13.246  13.687  71.359  1.00  0.00    -0.358 A  
HETATM   14  C   UNL     1     -13.629  12.549  72.069  1.00  0.00    -0.387 A  
HETATM   15  C   UNL     1     -13.046  11.307  71.787  1.00  0.00    -0.527 A  
ENDBRANCH   7  10
ENDBRANCH   5   7
ENDBRANCH   3   5
ENDBRANCH   2   3
TORSDOF 4
ENDMDL
MODEL       76
REMARK 921   NORMALIZED FREE ENERGY PREDICTED BY IDOCK:   -3.83 KCAL/MOL
REMARK 922        TOTAL FREE ENERGY PREDICTED BY IDOCK:   -5.12 KCAL/MOL
REMARK 923 INTER-LIGAND FREE ENERGY PREDICTED BY IDOCK:   -4.57 KCAL/MOL
REMARK 924 INTRA-LIGAND FREE ENERGY PREDICTED BY IDOCK:   -0.55 KCAL/MOL
REMARK 927      BINDING AFFINITY PREDICTED BY RF-SCORE:    0.00 PKD
ROOT
HETATM    1  C   UNL     1     -12.450  10.408  70.974  1.00  0.00    -0.488 C  
HETATM    2  C   UNL     1     -13.345   9.738  72.016  1.00  0.00    -0.451 C  
ENDROOT
BRANCH   2   3
HETATM    3  N   UNL     1     -13.116   8.285  72.234  1.00  0.00    -0.275 NA 
HETATM    4  C   UNL     1     -14.098   7.505  71.467  1.00  0.00    -0.427 C  
BRANCH   3   5
HETATM    5  C   UNL     1     -11.708   7.910  71.836  1.00  0.00    -0.297 C  
HETATM    6  C   UNL     1     -10.849   7.577  73.076  1.00  0.00    -0.445 C  
BRANCH   5   7
HETATM    7  C   UNL     1     -11.435   6.775  70.759  1.00  0.00    -0.342 C  
HETATM    8  H   UNL     1     -10.602   4.958  70.665  1.00  0.00     0.000 HD 
HETATM    9  O   UNL     1     -10.765   5.636  71.309  1.00  0.00    -0.250 OA 
BRANCH   7  10
HETATM   10  C   UNL     1     -10.824   7.133  69.414  1.00  0.00    -0.225 A  
HETATM   11  C   UNL     1      -9.959   8.243  69.335  1.00  0.00    -0.188 A  
HETATM   12  C   UNL     1      -9.383   8.624  68.118  1.00  0.00    -0.145 A  
HETATM   13  C   UNL     1      -9.672   7.911  66.962  1.00  0.00    -0.269 A  
HETATM   14  C   UNL     1     -10.539   6.820  67.020  1.00  0.00    -0.405 A  
HETATM   15  C   UNL     1     -11.117   6.438  68.237  1.00  0.00    -0.359 A  
ENDBRANCH   7  10
ENDBRANCH   5   7
ENDBRANCH   3   5
ENDBRANCH   2   3
TORSDOF 4
ENDMDL
MODEL       77
REMARK 921   NORMALIZED FREE ENERGY PREDICTED BY IDOCK:   -3.82 KCAL/MOL
REMARK 922        TOTAL FREE ENERGY PREDICTED BY IDOCK:   -5.11 KCAL/MOL
REMARK 923 INTER-LIGAND FREE ENERGY PREDICTED BY IDOCK:   -4.80 KCAL/MOL
REMARK 924 INTRA-LIGAND FREE ENERGY PREDICTED BY IDOCK:   -0.31 KCAL/MOL
REMARK 927      BINDING AFFINITY PREDICTED BY RF-SCORE:    0.00 PKD
ROOT
HETATM    1  C   UNL     1     -11.414  12.294  67.945  1.00  0.00    -0.390 C  
HETATM    2  C   UNL     1     -11.934  11.844  69.310  1.00  0.00    -0.281 C  
ENDROOT
BRANCH   2   3
HETATM    3  N   UNL     1     -11.615  10.446  69.701  1.00  0.00    -0.250 NA 
HETATM    4  C   UNL     1     -10.184  10.183  69.490  1.00  0.00    -0.236 C  
BRANCH   3   5
HETATM    5  C   UNL     1     -11.996  10.204  71.143  1.00  0.00    -0.386 C  
HETATM    6  C   UNL     1     -12.925  11.321  71.669  1.00  0.00    -0.537 C  
BRANCH   5   7
HETATM    7  C   UNL     1     -12.620   8.819  71.605  1.00  0.00    -0.345 C  
HETATM    8  H   UNL     1     -14.006   8.145  72.882  1.00  0.00     0.000 HD 
HETATM    9  O   UNL     1     -13.633   8.973  72.605  1.00  0.00    -0.465 OA 
BRANCH   7  10
HETATM   10  C   UNL     1     -11.710   7.656  71.966  1.00  0.00    -0.340 A  
HETATM   11  C   UNL     1     -10.908   7.755  73.121  1.00  0.00    -0.401 A  
HETATM   12  C   UNL     1     -10.043   6.720  73.489  1.00  0.00    -0.294 A  
HETATM   13  C   UNL     1      -9.956   5.577  72.704  1.00  0.00    -0.194 A  
HETATM   14  C   UNL     1     -10.731   5.470  71.550  1.00  0.00    -0.290 A  
HETATM   15  C   UNL     1     -11.598   6.507  71.179  1.00  0.00    -0.390 A  
ENDBRANCH   7  10
ENDBRANCH   5   7
ENDBRANCH   3   5
ENDBRANCH   2   3
TORSDOF 4
ENDMDL
MODEL       78
REMARK 921   NORMALIZED FREE ENERGY PREDICTED BY IDOCK:   -3.82 KCAL/MOL
REMARK 922        TOTAL FREE ENERGY PREDICTED BY IDOCK:   -5.10 KCAL/MOL
REMARK 923 INTER-LIGAND FREE ENERGY PREDICTED BY IDOCK:   -4.91 KCAL/MOL
REMARK 924 INTRA-LIGAND FREE ENERGY PREDICTED BY IDOCK:   -0.19 KCAL/MOL
REMARK 927      BINDING AFFINITY PREDICTED BY RF-SCORE:    0.00 PKD
ROOT
HETATM    1  C   UNL     1      -9.263  17.087  66.533  1.00  0.00    -0.296 C  
HETATM    2  C   UNL     1      -9.355  15.754  67.276  1.00  0.00    -0.211 C  
ENDROOT
BRANCH   2   3
HETATM    3  N   UNL     1     -10.470  14.858  66.873  1.00  0.00    -0.275 NA 
HETATM    4  C   UNL     1     -10.844  15.126  65.476  1.00  0.00    -0.364 C  
BRANCH   3   5
HETATM    5  C   UNL     1     -10.073  13.412  67.050  1.00  0.00    -0.247 C  
HETATM    6  C   UNL     1      -8.848  13.281  67.984  1.00  0.00    -0.190 C  
BRANCH   5   7
HETATM    7  C   UNL     1     -11.131  12.321  67.511  1.00  0.00    -0.275 C  
HETATM    8  H   UNL     1     -12.791  11.446  66.815  1.00  0.00     0.000 HD 
HETATM    9  O   UNL     1     -12.159  12.099  66.539  1.00  0.00    -0.627 OA 
BRANCH   7  10
HETATM   10  C   UNL     1     -11.741  12.391  68.901  1.00  0.00    -0.372 A  
HETATM   11  C   UNL     1     -12.062  13.654  69.439  1.00  0.00    -0.364 A  
HETATM   12  C   UNL     1     -12.611  13.774  70.720  1.00  0.00    -0.410 A  
HETATM   13  C   UNL     1     -12.837  12.637  71.487  1.00  0.00    -0.368 A  
HETATM   14  C   UNL     1     -12.510  11.382  70.975  1.00  0.00    -0.486 A  
HETATM   15  C   UNL     1     -11.959  11.260  69.693  1.00  0.00    -0.423 A  
ENDBRANCH   7  10
ENDBRANCH   5   7
ENDBRANCH   3   5
ENDBRANCH   2   3
TORSDOF 4
ENDMDL
MODEL       79
REMARK 921   NORMALIZED FREE ENERGY PREDICTED BY IDOCK:   -3.81 KCAL/MOL
REMARK 922        TOTAL FREE ENERGY PREDICTED BY IDOCK:   -5.09 KCAL/MOL
REMARK 923 INTER-LIGAND FREE ENERGY PREDICTED BY IDOCK:   -4.88 KCAL/MOL
REMARK 924 INTRA-LIGAND FREE ENERGY PREDICTED BY IDOCK:   -0.21 KCAL/MOL
REMARK 927      BINDING AFFINITY PREDICTED BY RF-SCORE:    0.00 PKD
ROOT
HETATM    1  C   UNL     1     -12.701  10.544  70.959  1.00  0.00    -0.504 C  
HETATM    2  C   UNL     1     -12.031  10.851  69.619  1.00  0.00    -0.343 C  
ENDROOT
BRANCH   2   3
HETATM    3  N   UNL     1     -10.546  10.780  69.602  1.00  0.00    -0.212 NA 
HETATM    4  C   UNL     1     -10.094   9.601  70.356  1.00  0.00    -0.276 C  
BRANCH   3   5
HETATM    5  C   UNL     1     -10.039  10.731  68.181  1.00  0.00    -0.164 C  
HETATM    6  C   UNL     1     -10.844   9.718  67.336  1.00  0.00    -0.265 C  
BRANCH   5   7
HETATM    7  C   UNL     1      -9.897  12.055  67.314  1.00  0.00    -0.192 C  
HETATM    8  H   UNL     1      -9.983  14.038  67.570  1.00  0.00     0.000 HD 
HETATM    9  O   UNL     1     -10.067  13.247  68.088  1.00  0.00    -0.228 OA 
BRANCH   7  10
HETATM   10  C   UNL     1     -10.640  12.185  65.995  1.00  0.00    -0.292 A  
HETATM   11  C   UNL     1     -11.961  12.678  66.005  1.00  0.00    -0.478 A  
HETATM   12  C   UNL     1     -12.694  12.802  64.821  1.00  0.00    -0.469 A  
HETATM   13  C   UNL     1     -12.125  12.426  63.611  1.00  0.00    -0.648 A  
HETATM   14  C   UNL     1     -10.825  11.921  63.585  1.00  0.00    -0.510 A  
HETATM   15  C   UNL     1     -10.090  11.794  64.771  1.00  0.00    -0.302 A  
ENDBRANCH   7  10
ENDBRANCH   5   7
ENDBRANCH   3   5
ENDBRANCH   2   3
TORSDOF 4
ENDMDL
MODEL       80
REMARK 921   NORMALIZED FREE ENERGY PREDICTED BY IDOCK:   -3.81 KCAL/MOL
REMARK 922        TOTAL FREE ENERGY PREDICTED BY IDOCK:   -5.09 KCAL/MOL
REMARK 923 INTER-LIGAND FREE ENERGY PREDICTED BY IDOCK:   -4.80 KCAL/MOL
REMARK 924 INTRA-LIGAND FREE ENERGY PREDICTED BY IDOCK:   -0.29 KCAL/MOL
REMARK 927      BINDING AFFINITY PREDICTED BY RF-SCORE:    0.00 PKD
ROOT
HETATM    1  C   UNL     1     -12.595  11.911  63.456  1.00  0.00    -0.579 C  
HETATM    2  C   UNL     1     -12.157  13.297  63.929  1.00  0.00    -0.468 C  
ENDROOT
BRANCH   2   3
HETATM    3  N   UNL     1     -11.315  13.333  65.153  1.00  0.00    -0.293 NA 
HETATM    4  C   UNL     1     -10.330  12.241  65.113  1.00  0.00    -0.286 C  
BRANCH   3   5
HETATM    5  C   UNL     1     -10.623  14.670  65.276  1.00  0.00    -0.391 C  
HETATM    6  C   UNL     1     -11.524  15.813  64.755  1.00  0.00    -0.256 C  
BRANCH   5   7
HETATM    7  C   UNL     1     -10.008  15.152  66.659  1.00  0.00    -0.251 C  
HETATM    8  H   UNL     1     -10.317  14.883  68.618  1.00  0.00     0.000 HD 
HETATM    9  O   UNL     1     -10.684  14.595  67.792  1.00  0.00    -0.258 OA 
BRANCH   7  10
HETATM   10  C   UNL     1      -9.731  16.627  66.896  1.00  0.00    -0.261 A  
HETATM   11  C   UNL     1      -8.553  17.191  66.365  1.00  0.00    -0.300 A  
HETATM   12  C   UNL     1      -8.244  18.539  66.568  1.00  0.00    -0.299 A  
HETATM   13  C   UNL     1      -9.098  19.342  67.314  1.00  0.00    -0.356 A  
HETATM   14  C   UNL     1     -10.259  18.796  67.859  1.00  0.00    -0.448 A  
HETATM   15  C   UNL     1     -10.570  17.445  67.658  1.00  0.00    -0.350 A  
ENDBRANCH   7  10
ENDBRANCH   5   7
ENDBRANCH   3   5
ENDBRANCH   2   3
TORSDOF 4
ENDMDL
MODEL       81
REMARK 921   NORMALIZED FREE ENERGY PREDICTED BY IDOCK:   -3.80 KCAL/MOL
REMARK 922        TOTAL FREE ENERGY PREDICTED BY IDOCK:   -5.08 KCAL/MOL
REMARK 923 INTER-LIGAND FREE ENERGY PREDICTED BY IDOCK:   -4.56 KCAL/MOL
REMARK 924 INTRA-LIGAND FREE ENERGY PREDICTED BY IDOCK:   -0.52 KCAL/MOL
REMARK 927      BINDING AFFINITY PREDICTED BY RF-SCORE:    0.00 PKD
ROOT
HETATM    1  C   UNL     1     -11.880  12.028  69.645  1.00  0.00    -0.401 C  
HETATM    2  C   UNL     1     -11.240  10.681  69.983  1.00  0.00    -0.309 C  
ENDROOT
BRANCH   2   3
HETATM    3  N   UNL     1      -9.919  10.412  69.358  1.00  0.00    -0.224 NA 
HETATM    4  C   UNL     1      -9.862   9.019  68.891  1.00  0.00    -0.175 C  
BRANCH   3   5
HETATM    5  C   UNL     1      -9.675  11.368  68.214  1.00  0.00    -0.202 C  
HETATM    6  C   UNL     1      -8.386  12.189  68.440  1.00  0.00    -0.143 C  
BRANCH   5   7
HETATM    7  C   UNL     1      -9.648  10.858  66.710  1.00  0.00    -0.183 C  
HETATM    8  H   UNL     1      -8.309  10.494  65.268  1.00  0.00     0.000 HD 
HETATM    9  O   UNL     1      -8.325  10.799  66.167  1.00  0.00    -0.156 OA 
BRANCH   7  10
HETATM   10  C   UNL     1     -10.600  11.455  65.687  1.00  0.00    -0.314 A  
HETATM   11  C   UNL     1     -10.454  11.095  64.332  1.00  0.00    -0.418 A  
HETATM   12  C   UNL     1     -11.294  11.628  63.349  1.00  0.00    -0.380 A  
HETATM   13  C   UNL     1     -12.284  12.536  63.701  1.00  0.00    -0.642 A  
HETATM   14  C   UNL     1     -12.432  12.915  65.035  1.00  0.00    -0.553 A  
HETATM   15  C   UNL     1     -11.590  12.384  66.021  1.00  0.00    -0.455 A  
ENDBRANCH   7  10
ENDBRANCH   5   7
ENDBRANCH   3   5
ENDBRANCH   2   3
TORSDOF 4
ENDMDL
MODEL       82
REMARK 921   NORMALIZED FREE ENERGY PREDICTED BY IDOCK:   -3.79 KCAL/MOL
REMARK 922        TOTAL FREE ENERGY PREDICTED BY IDOCK:   -5.06 KCAL/MOL
REMARK 923 INTER-LIGAND FREE ENERGY PREDICTED BY IDOCK:   -4.50 KCAL/MOL
REMARK 924 INTRA-LIGAND FREE ENERGY PREDICTED BY IDOCK:   -0.56 KCAL/MOL
REMARK 927      BINDING AFFINITY PREDICTED BY RF-SCORE:    0.00 PKD
ROOT
HETATM    1  C   UNL     1     -10.569   6.106  68.502  1.00  0.00    -0.327 C  
HETATM    2  C   UNL     1      -9.236   6.575  69.086  1.00  0.00    -0.135 C  
ENDROOT
BRANCH   2   3
HETATM    3  N   UNL     1      -8.950   6.149  70.481  1.00  0.00    -0.145 NA 
HETATM    4  C   UNL     1      -7.870   6.973  71.043  1.00  0.00    -0.096 C  
BRANCH   3   5
HETATM    5  C   UNL     1     -10.196   6.253  71.328  1.00  0.00    -0.200 C  
HETATM    6  C   UNL     1     -10.403   4.977  72.175  1.00  0.00    -0.276 C  
BRANCH   5   7
HETATM    7  C   UNL     1     -10.434   7.495  72.288  1.00  0.00    -0.230 C  
HETATM    8  H   UNL     1     -10.925   7.852  74.196  1.00  0.00     0.000 HD 
HETATM    9  O   UNL     1     -10.782   7.109  73.622  1.00  0.00    -0.375 OA 
BRANCH   7  10
HETATM   10  C   UNL     1     -11.317   8.648  71.837  1.00  0.00    -0.417 A  
HETATM   11  C   UNL     1     -10.784   9.605  70.950  1.00  0.00    -0.402 A  
HETATM   12  C   UNL     1     -11.549  10.693  70.517  1.00  0.00    -0.444 A  
HETATM   13  C   UNL     1     -12.852  10.848  70.972  1.00  0.00    -0.472 A  
HETATM   14  C   UNL     1     -13.389   9.918  71.862  1.00  0.00    -0.524 A  
HETATM   15  C   UNL     1     -12.624   8.829  72.298  1.00  0.00    -0.460 A  
ENDBRANCH   7  10
ENDBRANCH   5   7
ENDBRANCH   3   5
ENDBRANCH   2   3
TORSDOF 4
ENDMDL
MODEL       83
REMARK 921   NORMALIZED FREE ENERGY PREDICTED BY IDOCK:   -3.75 KCAL/MOL
REMARK 922        TOTAL FREE ENERGY PREDICTED BY IDOCK:   -5.02 KCAL/MOL
REMARK 923 INTER-LIGAND FREE ENERGY PREDICTED BY IDOCK:   -4.68 KCAL/MOL
REMARK 924 INTRA-LIGAND FREE ENERGY PREDICTED BY IDOCK:   -0.34 KCAL/MOL
REMARK 927      BINDING AFFINITY PREDICTED BY RF-SCORE:    0.00 PKD
ROOT
HETATM    1  C   UNL     1      -7.404  19.104  67.171  1.00  0.00    -0.227 C  
HETATM    2  C   UNL     1      -8.762  18.646  66.638  1.00  0.00    -0.302 C  
ENDROOT
BRANCH   2   3
HETATM    3  N   UNL     1      -9.910  18.787  67.572  1.00  0.00    -0.310 NA 
HETATM    4  C   UNL     1     -10.933  19.661  66.977  1.00  0.00    -0.295 C  
BRANCH   3   5
HETATM    5  C   UNL     1     -10.491  17.432  67.899  1.00  0.00    -0.383 C  
HETATM    6  C   UNL     1     -10.377  16.471  66.694  1.00  0.00    -0.298 C  
BRANCH   5   7
HETATM    7  C   UNL     1     -10.023  16.627  69.185  1.00  0.00    -0.263 C  
HETATM    8  H   UNL     1      -8.484  15.489  69.771  1.00  0.00     0.000 HD 
HETATM    9  O   UNL     1      -8.764  15.970  69.002  1.00  0.00    -0.219 OA 
BRANCH   7  10
HETATM   10  C   UNL     1     -10.992  15.697  69.896  1.00  0.00    -0.323 A  
HETATM   11  C   UNL     1     -11.615  16.141  71.080  1.00  0.00    -0.453 A  
HETATM   12  C   UNL     1     -12.503  15.319  71.781  1.00  0.00    -0.431 A  
HETATM   13  C   UNL     1     -12.773  14.037  71.318  1.00  0.00    -0.439 A  
HETATM   14  C   UNL     1     -12.152  13.576  70.157  1.00  0.00    -0.425 A  
HETATM   15  C   UNL     1     -11.262  14.398  69.454  1.00  0.00    -0.317 A  
ENDBRANCH   7  10
ENDBRANCH   5   7
ENDBRANCH   3   5
ENDBRANCH   2   3
TORSDOF 4
ENDMDL
MODEL       84
REMARK 921   NORMALIZED FREE ENERGY PREDICTED BY IDOCK:   -3.74 KCAL/MOL
REMARK 922        TOTAL FREE ENERGY PREDICTED BY IDOCK:   -5.01 KCAL/MOL
REMARK 923 INTER-LIGAND FREE ENERGY PREDICTED BY IDOCK:   -4.53 KCAL/MOL
REMARK 924 INTRA-LIGAND FREE ENERGY PREDICTED BY IDOCK:   -0.48 KCAL/MOL
REMARK 927      BINDING AFFINITY PREDICTED BY RF-SCORE:    0.00 PKD
ROOT
HETATM    1  C   UNL     1     -11.143  10.106  69.374  1.00  0.00    -0.288 C  
HETATM    2  C   UNL     1     -11.585  10.559  70.765  1.00  0.00    -0.338 C  
ENDROOT
BRANCH   2   3
HETATM    3  N   UNL     1     -11.926   9.477  71.726  1.00  0.00    -0.382 NA 
HETATM    4  C   UNL     1     -13.343   9.111  71.582  1.00  0.00    -0.383 C  
BRANCH   3   5
HETATM    5  C   UNL     1     -11.039   8.276  71.499  1.00  0.00    -0.259 C  
HETATM    6  C   UNL     1     -10.116   8.028  72.713  1.00  0.00    -0.378 C  
BRANCH   5   7
HETATM    7  C   UNL     1     -11.651   6.871  71.082  1.00  0.00    -0.319 C  
HETATM    8  H   UNL     1     -12.362   5.219  71.959  1.00  0.00     0.000 HD 
HETATM    9  O   UNL     1     -11.996   6.058  72.209  1.00  0.00    -0.318 OA 
BRANCH   7  10
HETATM   10  C   UNL     1     -10.961   6.023  70.026  1.00  0.00    -0.450 A  
HETATM   11  C   UNL     1     -11.135   6.357  68.667  1.00  0.00    -0.393 A  
HETATM   12  C   UNL     1     -10.535   5.600  67.656  1.00  0.00    -0.284 A  
HETATM   13  C   UNL     1      -9.762   4.493  67.985  1.00  0.00    -0.192 A  
HETATM   14  C   UNL     1      -9.593   4.140  69.323  1.00  0.00    -0.256 A  
HETATM   15  C   UNL     1     -10.195   4.896  70.337  1.00  0.00    -0.292 A  
ENDBRANCH   7  10
ENDBRANCH   5   7
ENDBRANCH   3   5
ENDBRANCH   2   3
TORSDOF 4
ENDMDL
MODEL       85
REMARK 921   NORMALIZED FREE ENERGY PREDICTED BY IDOCK:   -3.74 KCAL/MOL
REMARK 922        TOTAL FREE ENERGY PREDICTED BY IDOCK:   -5.01 KCAL/MOL
REMARK 923 INTER-LIGAND FREE ENERGY PREDICTED BY IDOCK:   -4.57 KCAL/MOL
REMARK 924 INTRA-LIGAND FREE ENERGY PREDICTED BY IDOCK:   -0.43 KCAL/MOL
REMARK 927      BINDING AFFINITY PREDICTED BY RF-SCORE:    0.00 PKD
ROOT
HETATM    1  C   UNL     1      -6.804  16.683  67.088  1.00  0.00    -0.223 C  
HETATM    2  C   UNL     1      -8.091  17.162  67.760  1.00  0.00    -0.193 C  
ENDROOT
BRANCH   2   3
HETATM    3  N   UNL     1      -9.003  16.097  68.255  1.00  0.00    -0.185 NA 
HETATM    4  C   UNL     1      -8.385  15.401  69.393  1.00  0.00    -0.250 C  
BRANCH   3   5
HETATM    5  C   UNL     1     -10.335  16.690  68.652  1.00  0.00    -0.304 C  
HETATM    6  C   UNL     1     -10.693  17.901  67.762  1.00  0.00    -0.339 C  
BRANCH   5   7
HETATM    7  C   UNL     1     -11.636  15.785  68.758  1.00  0.00    -0.395 C  
HETATM    8  H   UNL     1     -12.881  15.098  70.166  1.00  0.00     0.000 HD 
HETATM    9  O   UNL     1     -12.103  15.639  70.103  1.00  0.00    -0.366 OA 
BRANCH   7  10
HETATM   10  C   UNL     1     -11.692  14.446  68.042  1.00  0.00    -0.374 A  
HETATM   11  C   UNL     1     -11.516  13.266  68.794  1.00  0.00    -0.346 A  
HETATM   12  C   UNL     1     -11.544  12.009  68.181  1.00  0.00    -0.403 A  
HETATM   13  C   UNL     1     -11.736  11.911  66.809  1.00  0.00    -0.281 A  
HETATM   14  C   UNL     1     -11.896  13.069  66.049  1.00  0.00    -0.471 A  
HETATM   15  C   UNL     1     -11.867  14.329  66.660  1.00  0.00    -0.442 A  
ENDBRANCH   7  10
ENDBRANCH   5   7
ENDBRANCH   3   5
ENDBRANCH   2   3
TORSDOF 4
ENDMDL
MODEL       86
REMARK 921   NORMALIZED FREE ENERGY PREDICTED BY IDOCK:   -3.73 KCAL/MOL
REMARK 922        TOTAL FREE ENERGY PREDICTED BY IDOCK:   -5.00 KCAL/MOL
REMARK 923 INTER-LIGAND FREE ENERGY PREDICTED BY IDOCK:   -4.60 KCAL/MOL
REMARK 924 INTRA-LIGAND FREE ENERGY PREDICTED BY IDOCK:   -0.40 KCAL/MOL
REMARK 927      BINDING AFFINITY PREDICTED BY RF-SCORE:    0.00 PKD
ROOT
HETATM    1  C   UNL     1     -10.828   7.747  69.950  1.00  0.00    -0.228 C  
HETATM    2  C   UNL     1     -10.311   8.821  68.992  1.00  0.00    -0.213 C  
ENDROOT
BRANCH   2   3
HETATM    3  N   UNL     1     -10.119  10.175  69.573  1.00  0.00    -0.224 NA 
HETATM    4  C   UNL     1      -8.907  10.791  69.012  1.00  0.00    -0.127 C  
BRANCH   3   5
HETATM    5  C   UNL     1     -11.329  11.039  69.305  1.00  0.00    -0.282 C  
HETATM    6  C   UNL     1     -12.177  11.222  70.583  1.00  0.00    -0.489 C  
BRANCH   5   7
HETATM    7  C   UNL     1     -11.183  12.469  68.630  1.00  0.00    -0.278 C  
HETATM    8  H   UNL     1     -11.707  14.366  68.996  1.00  0.00     0.000 HD 
HETATM    9  O   UNL     1     -11.794  13.511  69.399  1.00  0.00    -0.296 OA 
BRANCH   7  10
HETATM   10  C   UNL     1     -11.511  12.654  67.158  1.00  0.00    -0.406 A  
HETATM   11  C   UNL     1     -12.302  13.755  66.771  1.00  0.00    -0.365 A  
HETATM   12  C   UNL     1     -12.644  13.961  65.431  1.00  0.00    -0.538 A  
HETATM   13  C   UNL     1     -12.213  13.067  64.459  1.00  0.00    -0.476 A  
HETATM   14  C   UNL     1     -11.444  11.964  64.828  1.00  0.00    -0.323 A  
HETATM   15  C   UNL     1     -11.100  11.754  66.169  1.00  0.00    -0.358 A  
ENDBRANCH   7  10
ENDBRANCH   5   7
ENDBRANCH   3   5
ENDBRANCH   2   3
TORSDOF 4
ENDMDL
MODEL       87
REMARK 921   NORMALIZED FREE ENERGY PREDICTED BY IDOCK:   -3.71 KCAL/MOL
REMARK 922        TOTAL FREE ENERGY PREDICTED BY IDOCK:   -4.97 KCAL/MOL
REMARK 923 INTER-LIGAND FREE ENERGY PREDICTED BY IDOCK:   -4.40 KCAL/MOL
REMARK 924 INTRA-LIGAND FREE ENERGY PREDICTED BY IDOCK:   -0.57 KCAL/MOL
REMARK 927      BINDING AFFINITY PREDICTED BY RF-SCORE:    0.00 PKD
ROOT
HETATM    1  C   UNL     1      -9.171   9.587  67.266  1.00  0.00    -0.154 C  
HETATM    2  C   UNL     1      -8.320   8.843  68.295  1.00  0.00    -0.125 C  
ENDROOT
BRANCH   2   3
HETATM    3  N   UNL     1      -8.788   7.482  68.667  1.00  0.00    -0.128 NA 
HETATM    4  C   UNL     1      -8.125   7.047  69.905  1.00  0.00    -0.125 C  
BRANCH   3   5
HETATM    5  C   UNL     1     -10.290   7.471  68.833  1.00  0.00    -0.211 C  
HETATM    6  C   UNL     1     -10.925   6.281  68.079  1.00  0.00    -0.418 C  
BRANCH   5   7
HETATM    7  C   UNL     1     -10.956   7.521  70.274  1.00  0.00    -0.250 C  
HETATM    8  H   UNL     1     -12.175   6.412  71.408  1.00  0.00     0.000 HD 
HETATM    9  O   UNL     1     -11.777   6.381  70.547  1.00  0.00    -0.386 OA 
BRANCH   7  10
HETATM   10  C   UNL     1     -11.654   8.786  70.746  1.00  0.00    -0.288 A  
HETATM   11  C   UNL     1     -12.649   8.682  71.740  1.00  0.00    -0.396 A  
HETATM   12  C   UNL     1     -13.332   9.813  72.197  1.00  0.00    -0.527 A  
HETATM   13  C   UNL     1     -13.041  11.062  71.663  1.00  0.00    -0.543 A  
HETATM   14  C   UNL     1     -12.071  11.180  70.668  1.00  0.00    -0.477 A  
HETATM   15  C   UNL     1     -11.387  10.048  70.207  1.00  0.00    -0.376 A  
ENDBRANCH   7  10
ENDBRANCH   5   7
ENDBRANCH   3   5
ENDBRANCH   2   3
TORSDOF 4
ENDMDL
MODEL       88
REMARK 921   NORMALIZED FREE ENERGY PREDICTED BY IDOCK:   -3.70 KCAL/MOL
REMARK 922        TOTAL FREE ENERGY PREDICTED BY IDOCK:   -4.96 KCAL/MOL
REMARK 923 INTER-LIGAND FREE ENERGY PREDICTED BY IDOCK:   -4.63 KCAL/MOL
REMARK 924 INTRA-LIGAND FREE ENERGY PREDICTED BY IDOCK:   -0.33 KCAL/MOL
REMARK 927      BINDING AFFINITY PREDICTED BY RF-SCORE:    0.00 PKD
ROOT
HETATM    1  C   UNL     1      -9.213   3.932  69.052  1.00  0.00    -0.217 C  
HETATM    2  C   UNL     1      -9.848   4.594  70.275  1.00  0.00    -0.243 C  
ENDROOT
BRANCH   2   3
HETATM    3  N   UNL     1     -10.242   6.018  70.115  1.00  0.00    -0.195 NA 
HETATM    4  C   UNL     1     -10.962   6.197  68.845  1.00  0.00    -0.356 C  
BRANCH   3   5
HETATM    5  C   UNL     1     -11.097   6.460  71.279  1.00  0.00    -0.282 C  
HETATM    6  C   UNL     1     -11.163   5.366  72.369  1.00  0.00    -0.272 C  
BRANCH   5   7
HETATM    7  C   UNL     1     -10.829   7.841  72.017  1.00  0.00    -0.245 C  
HETATM    8  H   UNL     1     -10.984   8.622  73.853  1.00  0.00     0.000 HD 
HETATM    9  O   UNL     1     -11.144   7.796  73.412  1.00  0.00    -0.316 OA 
BRANCH   7  10
HETATM   10  C   UNL     1     -11.341   9.138  71.413  1.00  0.00    -0.414 A  
HETATM   11  C   UNL     1     -10.623   9.722  70.349  1.00  0.00    -0.365 A  
HETATM   12  C   UNL     1     -11.043  10.923  69.769  1.00  0.00    -0.328 A  
HETATM   13  C   UNL     1     -12.177  11.565  70.249  1.00  0.00    -0.415 A  
HETATM   14  C   UNL     1     -12.889  11.010  71.311  1.00  0.00    -0.528 A  
HETATM   15  C   UNL     1     -12.470   9.807  71.894  1.00  0.00    -0.451 A  
ENDBRANCH   7  10
ENDBRANCH   5   7
ENDBRANCH   3   5
ENDBRANCH   2   3
TORSDOF 4
ENDMDL
MODEL       89
REMARK 921   NORMALIZED FREE ENERGY PREDICTED BY IDOCK:   -3.69 KCAL/MOL
REMARK 922        TOTAL FREE ENERGY PREDICTED BY IDOCK:   -4.95 KCAL/MOL
REMARK 923 INTER-LIGAND FREE ENERGY PREDICTED BY IDOCK:   -4.43 KCAL/MOL
REMARK 924 INTRA-LIGAND FREE ENERGY PREDICTED BY IDOCK:   -0.52 KCAL/MOL
REMARK 927      BINDING AFFINITY PREDICTED BY RF-SCORE:    0.00 PKD
ROOT
HETATM    1  C   UNL     1     -12.284  14.539  64.362  1.00  0.00    -0.480 C  
HETATM    2  C   UNL     1     -12.861  13.622  65.440  1.00  0.00    -0.389 C  
ENDROOT
BRANCH   2   3
HETATM    3  N   UNL     1     -12.046  12.426  65.783  1.00  0.00    -0.610 NA 
HETATM    4  C   UNL     1     -11.139  12.106  64.671  1.00  0.00    -0.317 C  
BRANCH   3   5
HETATM    5  C   UNL     1     -11.267  12.668  67.054  1.00  0.00    -0.300 C  
HETATM    6  C   UNL     1     -11.345  11.445  67.996  1.00  0.00    -0.372 C  
BRANCH   5   7
HETATM    7  C   UNL     1      -9.749  13.130  67.011  1.00  0.00    -0.241 C  
HETATM    8  H   UNL     1      -7.977  12.547  67.736  1.00  0.00     0.000 HD 
HETATM    9  O   UNL     1      -8.884  12.271  67.762  1.00  0.00    -0.158 OA 
BRANCH   7  10
HETATM   10  C   UNL     1      -9.387  14.583  67.273  1.00  0.00    -0.213 A  
HETATM   11  C   UNL     1      -9.267  15.023  68.607  1.00  0.00    -0.198 A  
HETATM   12  C   UNL     1      -8.952  16.354  68.902  1.00  0.00    -0.256 A  
HETATM   13  C   UNL     1      -8.763  17.266  67.871  1.00  0.00    -0.231 A  
HETATM   14  C   UNL     1      -8.894  16.850  66.547  1.00  0.00    -0.305 A  
HETATM   15  C   UNL     1      -9.211  15.519  66.249  1.00  0.00    -0.364 A  
ENDBRANCH   7  10
ENDBRANCH   5   7
ENDBRANCH   3   5
ENDBRANCH   2   3
TORSDOF 4
ENDMDL
MODEL       90
REMARK 921   NORMALIZED FREE ENERGY PREDICTED BY IDOCK:   -3.69 KCAL/MOL
REMARK 922        TOTAL FREE ENERGY PREDICTED BY IDOCK:   -4.95 KCAL/MOL
REMARK 923 INTER-LIGAND FREE ENERGY PREDICTED BY IDOCK:   -4.65 KCAL/MOL
REMARK 924 INTRA-LIGAND FREE ENERGY PREDICTED BY IDOCK:   -0.29 KCAL/MOL
REMARK 927      BINDING AFFINITY PREDICTED BY RF-SCORE:    0.00 PKD
ROOT
HETATM    1  C   UNL     1     -10.853   6.232  67.209  1.00  0.00    -0.457 C  
HETATM    2  C   UNL     1     -10.621   7.743  67.186  1.00  0.00    -0.331 C  
ENDROOT
BRANCH   2   3
HETATM    3  N   UNL     1     -10.654   8.427  68.505  1.00  0.00    -0.156 NA 
HETATM    4  C   UNL     1      -9.749   7.746  69.444  1.00  0.00    -0.169 C  
BRANCH   3   5
HETATM    5  C   UNL     1     -10.271   9.880  68.353  1.00  0.00    -0.178 C  
HETATM    6  C   UNL     1      -9.345  10.087  67.134  1.00  0.00    -0.173 C  
BRANCH   5   7
HETATM    7  C   UNL     1     -11.376  11.019  68.301  1.00  0.00    -0.299 C  
HETATM    8  H   UNL     1     -11.670  12.792  67.419  1.00  0.00     0.000 HD 
HETATM    9  O   UNL     1     -11.009  12.111  67.450  1.00  0.00    -0.237 OA 
BRANCH   7  10
HETATM   10  C   UNL     1     -11.985  11.549  69.588  1.00  0.00    -0.407 A  
HETATM   11  C   UNL     1     -11.943  12.936  69.839  1.00  0.00    -0.377 A  
HETATM   12  C   UNL     1     -12.475  13.473  71.016  1.00  0.00    -0.451 A  
HETATM   13  C   UNL     1     -13.047  12.633  71.964  1.00  0.00    -0.471 A  
HETATM   14  C   UNL     1     -13.082  11.258  71.738  1.00  0.00    -0.527 A  
HETATM   15  C   UNL     1     -12.548  10.718  70.561  1.00  0.00    -0.421 A  
ENDBRANCH   7  10
ENDBRANCH   5   7
ENDBRANCH   3   5
ENDBRANCH   2   3
TORSDOF 4
ENDMDL
MODEL       91
REMARK 921   NORMALIZED FREE ENERGY PREDICTED BY IDOCK:   -3.67 KCAL/MOL
REMARK 922        TOTAL FREE ENERGY PREDICTED BY IDOCK:   -4.92 KCAL/MOL
REMARK 923 INTER-LIGAND FREE ENERGY PREDICTED BY IDOCK:   -4.67 KCAL/MOL
REMARK 924 INTRA-LIGAND FREE ENERGY PREDICTED BY IDOCK:   -0.25 KCAL/MOL
REMARK 927      BINDING AFFINITY PREDICTED BY RF-SCORE:    0.00 PKD
ROOT
HETATM    1  C   UNL     1     -12.641  11.857  70.908  1.00  0.00    -0.361 C  
HETATM    2  C   UNL     1     -12.040  13.074  70.204  1.00  0.00    -0.307 C  
ENDROOT
BRANCH   2   3
HETATM    3  N   UNL     1     -12.864  14.310  70.220  1.00  0.00    -0.250 NA 
HETATM    4  C   UNL     1     -13.762  14.296  71.384  1.00  0.00    -0.311 C  
BRANCH   3   5
HETATM    5  C   UNL     1     -11.977  15.533  70.245  1.00  0.00    -0.374 C  
HETATM    6  C   UNL     1     -11.438  15.800  71.668  1.00  0.00    -0.495 C  
BRANCH   5   7
HETATM    7  C   UNL     1     -10.752  15.678  69.245  1.00  0.00    -0.239 C  
HETATM    8  H   UNL     1      -8.779  15.343  69.222  1.00  0.00     0.000 HD 
HETATM    9  O   UNL     1      -9.511  15.255  69.820  1.00  0.00    -0.218 OA 
BRANCH   7  10
HETATM   10  C   UNL     1     -10.549  16.972  68.473  1.00  0.00    -0.370 A  
HETATM   11  C   UNL     1     -10.630  16.942  67.066  1.00  0.00    -0.230 A  
HETATM   12  C   UNL     1     -10.436  18.102  66.308  1.00  0.00    -0.374 A  
HETATM   13  C   UNL     1     -10.147  19.304  66.941  1.00  0.00    -0.467 A  
HETATM   14  C   UNL     1     -10.047  19.346  68.331  1.00  0.00    -0.538 A  
HETATM   15  C   UNL     1     -10.240  18.186  69.092  1.00  0.00    -0.132 A  
ENDBRANCH   7  10
ENDBRANCH   5   7
ENDBRANCH   3   5
ENDBRANCH   2   3
TORSDOF 4
ENDMDL
MODEL       92
REMARK 921   NORMALIZED FREE ENERGY PREDICTED BY IDOCK:   -3.67 KCAL/MOL
REMARK 922        TOTAL FREE ENERGY PREDICTED BY IDOCK:   -4.92 KCAL/MOL
REMARK 923 INTER-LIGAND FREE ENERGY PREDICTED BY IDOCK:   -4.60 KCAL/MOL
REMARK 924 INTRA-LIGAND FREE ENERGY PREDICTED BY IDOCK:   -0.32 KCAL/MOL
REMARK 927      BINDING AFFINITY PREDICTED BY RF-SCORE:    0.00 PKD
ROOT
HETATM    1  C   UNL     1      -7.255  16.084  69.064  1.00  0.00    -0.182 C  
HETATM    2  C   UNL     1      -8.378  15.112  69.426  1.00  0.00    -0.195 C  
ENDROOT
BRANCH   2   3
HETATM    3  N   UNL     1      -9.150  14.554  68.285  1.00  0.00    -0.190 NA 
HETATM    4  C   UNL     1      -8.543  13.290  67.842  1.00  0.00    -0.188 C  
BRANCH   3   5
HETATM    5  C   UNL     1     -10.592  14.344  68.680  1.00  0.00    -0.252 C  
HETATM    6  C   UNL     1     -11.526  15.313  67.920  1.00  0.00    -0.325 C  
BRANCH   5   7
HETATM    7  C   UNL     1     -11.259  12.904  68.615  1.00  0.00    -0.281 C  
HETATM    8  H   UNL     1     -12.443  11.847  67.395  1.00  0.00     0.000 HD 
HETATM    9  O   UNL     1     -12.045  12.708  67.434  1.00  0.00    -0.432 OA 
BRANCH   7  10
HETATM   10  C   UNL     1     -11.996  12.351  69.823  1.00  0.00    -0.359 A  
HETATM   11  C   UNL     1     -12.229  10.962  69.900  1.00  0.00    -0.408 A  
HETATM   12  C   UNL     1     -12.916  10.405  70.983  1.00  0.00    -0.490 A  
HETATM   13  C   UNL     1     -13.391  11.225  71.999  1.00  0.00    -0.386 A  
HETATM   14  C   UNL     1     -13.183  12.602  71.930  1.00  0.00    -0.504 A  
HETATM   15  C   UNL     1     -12.497  13.163  70.846  1.00  0.00    -0.407 A  
ENDBRANCH   7  10
ENDBRANCH   5   7
ENDBRANCH   3   5
ENDBRANCH   2   3
TORSDOF 4
ENDMDL
MODEL       93
REMARK 921   NORMALIZED FREE ENERGY PREDICTED BY IDOCK:   -3.66 KCAL/MOL
REMARK 922        TOTAL FREE ENERGY PREDICTED BY IDOCK:   -4.91 KCAL/MOL
REMARK 923 INTER-LIGAND FREE ENERGY PREDICTED BY IDOCK:   -4.59 KCAL/MOL
REMARK 924 INTRA-LIGAND FREE ENERGY PREDICTED BY IDOCK:   -0.32 KCAL/MOL
REMARK 927      BINDING AFFINITY PREDICTED BY RF-SCORE:    0.00 PKD
ROOT
HETATM    1  C   UNL     1      -6.390  14.982  69.755  1.00  0.00    -0.152 C  
HETATM    2  C   UNL     1      -7.646  15.757  69.354  1.00  0.00    -0.214 C  
ENDROOT
BRANCH   2   3
HETATM    3  N   UNL     1      -8.179  15.478  67.994  1.00  0.00    -0.142 NA 
HETATM    4  C   UNL     1      -7.526  14.283  67.439  1.00  0.00    -0.149 C  
BRANCH   3   5
HETATM    5  C   UNL     1      -9.677  15.293  68.045  1.00  0.00    -0.211 C  
HETATM    6  C   UNL     1     -10.177  15.185  69.503  1.00  0.00    -0.241 C  
BRANCH   5   7
HETATM    7  C   UNL     1     -10.653  16.291  67.288  1.00  0.00    -0.298 C  
HETATM    8  H   UNL     1     -11.514  16.481  65.491  1.00  0.00     0.000 HD 
HETATM    9  O   UNL     1     -10.930  15.884  65.943  1.00  0.00    -0.264 OA 
BRANCH   7  10
HETATM   10  C   UNL     1     -10.394  17.788  67.331  1.00  0.00    -0.370 A  
HETATM   11  C   UNL     1     -10.304  18.498  66.117  1.00  0.00    -0.457 A  
HETATM   12  C   UNL     1     -10.052  19.873  66.102  1.00  0.00    -0.611 A  
HETATM   13  C   UNL     1      -9.875  20.559  67.297  1.00  0.00    -0.581 A  
HETATM   14  C   UNL     1      -9.946  19.868  68.507  1.00  0.00    -0.507 A  
HETATM   15  C   UNL     1     -10.197  18.491  68.524  1.00  0.00    -0.389 A  
ENDBRANCH   7  10
ENDBRANCH   5   7
ENDBRANCH   3   5
ENDBRANCH   2   3
TORSDOF 4
ENDMDL
MODEL       94
REMARK 921   NORMALIZED FREE ENERGY PREDICTED BY IDOCK:   -3.66 KCAL/MOL
REMARK 922        TOTAL FREE ENERGY PREDICTED BY IDOCK:   -4.91 KCAL/MOL
REMARK 923 INTER-LIGAND FREE ENERGY PREDICTED BY IDOCK:   -4.73 KCAL/MOL
REMARK 924 INTRA-LIGAND FREE ENERGY PREDICTED BY IDOCK:   -0.17 KCAL/MOL
REMARK 927      BINDING AFFINITY PREDICTED BY RF-SCORE:    0.00 PKD
ROOT
HETATM    1  C   UNL     1     -10.196  17.425  66.374  1.00  0.00    -0.339 C  
HETATM    2  C   UNL     1     -10.532  15.986  66.768  1.00  0.00    -0.308 C  
ENDROOT
BRANCH   2   3
HETATM    3  N   UNL     1     -11.202  15.164  65.726  1.00  0.00    -0.321 NA 
HETATM    4  C   UNL     1     -11.326  15.939  64.482  1.00  0.00    -0.309 C  
BRANCH   3   5
HETATM    5  C   UNL     1     -10.429  13.889  65.485  1.00  0.00    -0.323 C  
HETATM    6  C   UNL     1      -9.429  13.619  66.632  1.00  0.00    -0.285 C  
BRANCH   5   7
HETATM    7  C   UNL     1     -11.177  12.521  65.184  1.00  0.00    -0.304 C  
HETATM    8  H   UNL     1     -13.047  11.811  65.116  1.00  0.00     0.000 HD 
HETATM    9  O   UNL     1     -12.600  12.629  65.296  1.00  0.00    -0.630 OA 
BRANCH   7  10
HETATM   10  C   UNL     1     -10.703  11.234  65.839  1.00  0.00    -0.291 A  
HETATM   11  C   UNL     1      -9.879  10.360  65.102  1.00  0.00    -0.378 A  
HETATM   12  C   UNL     1      -9.429   9.156  65.654  1.00  0.00    -0.309 A  
HETATM   13  C   UNL     1      -9.804   8.801  66.944  1.00  0.00    -0.295 A  
HETATM   14  C   UNL     1     -10.632   9.647  67.680  1.00  0.00    -0.334 A  
HETATM   15  C   UNL     1     -11.085  10.853  67.129  1.00  0.00    -0.308 A  
ENDBRANCH   7  10
ENDBRANCH   5   7
ENDBRANCH   3   5
ENDBRANCH   2   3
TORSDOF 4
ENDMDL
MODEL       95
REMARK 921   NORMALIZED FREE ENERGY PREDICTED BY IDOCK:   -3.65 KCAL/MOL
REMARK 922        TOTAL FREE ENERGY PREDICTED BY IDOCK:   -4.90 KCAL/MOL
REMARK 923 INTER-LIGAND FREE ENERGY PREDICTED BY IDOCK:   -4.52 KCAL/MOL
REMARK 924 INTRA-LIGAND FREE ENERGY PREDICTED BY IDOCK:   -0.38 KCAL/MOL
REMARK 927      BINDING AFFINITY PREDICTED BY RF-SCORE:    0.00 PKD
ROOT
HETATM    1  C   UNL     1     -10.729   5.993  68.014  1.00  0.00    -0.359 C  
HETATM    2  C   UNL     1     -10.473   6.945  66.846  1.00  0.00    -0.279 C  
ENDROOT
BRANCH   2   3
HETATM    3  N   UNL     1      -9.570   8.092  67.126  1.00  0.00    -0.162 NA 
HETATM    4  C   UNL     1      -8.533   8.177  66.087  1.00  0.00    -0.136 C  
BRANCH   3   5
HETATM    5  C   UNL     1     -10.360   9.378  67.197  1.00  0.00    -0.258 C  
HETATM    6  C   UNL     1     -10.739   9.719  68.656  1.00  0.00    -0.247 C  
BRANCH   5   7
HETATM    7  C   UNL     1      -9.817  10.713  66.530  1.00  0.00    -0.204 C  
HETATM    8  H   UNL     1      -8.892  12.401  67.077  1.00  0.00     0.000 HD 
HETATM    9  O   UNL     1      -9.217  11.603  67.476  1.00  0.00    -0.167 OA 
BRANCH   7  10
HETATM   10  C   UNL     1     -10.697  11.496  65.570  1.00  0.00    -0.328 A  
HETATM   11  C   UNL     1     -10.559  11.272  64.185  1.00  0.00    -0.437 A  
HETATM   12  C   UNL     1     -11.333  11.978  63.259  1.00  0.00    -0.396 A  
HETATM   13  C   UNL     1     -12.248  12.926  63.700  1.00  0.00    -0.581 A  
HETATM   14  C   UNL     1     -12.385  13.172  65.065  1.00  0.00    -0.511 A  
HETATM   15  C   UNL     1     -11.609  12.467  65.994  1.00  0.00    -0.455 A  
ENDBRANCH   7  10
ENDBRANCH   5   7
ENDBRANCH   3   5
ENDBRANCH   2   3
TORSDOF 4
ENDMDL
MODEL       96
REMARK 921   NORMALIZED FREE ENERGY PREDICTED BY IDOCK:   -3.64 KCAL/MOL
REMARK 922        TOTAL FREE ENERGY PREDICTED BY IDOCK:   -4.89 KCAL/MOL
REMARK 923 INTER-LIGAND FREE ENERGY PREDICTED BY IDOCK:   -4.60 KCAL/MOL
REMARK 924 INTRA-LIGAND FREE ENERGY PREDICTED BY IDOCK:   -0.29 KCAL/MOL
REMARK 927      BINDING AFFINITY PREDICTED BY RF-SCORE:    0.00 PKD
ROOT
HETATM    1  C   UNL     1     -10.836   6.513  68.096  1.00  0.00    -0.370 C  
HETATM    2  C   UNL     1     -10.628   7.514  66.960  1.00  0.00    -0.339 C  
ENDROOT
BRANCH   2   3
HETATM    3  N   UNL     1     -10.650   8.950  67.343  1.00  0.00    -0.273 NA 
HETATM    4  C   UNL     1     -10.360   9.088  68.778  1.00  0.00    -0.215 C  
BRANCH   3   5
HETATM    5  C   UNL     1      -9.652   9.729  66.520  1.00  0.00    -0.194 C  
HETATM    6  C   UNL     1      -8.298   8.989  66.439  1.00  0.00    -0.117 C  
BRANCH   5   7
HETATM    7  C   UNL     1     -10.005  10.221  65.051  1.00  0.00    -0.323 C  
HETATM    8  H   UNL     1      -9.123  10.370  63.261  1.00  0.00     0.000 HD 
HETATM    9  O   UNL     1      -8.911  10.076  64.139  1.00  0.00    -0.197 OA 
BRANCH   7  10
HETATM   10  C   UNL     1     -10.679  11.567  64.841  1.00  0.00    -0.357 A  
HETATM   11  C   UNL     1     -11.496  11.747  63.706  1.00  0.00    -0.510 A  
HETATM   12  C   UNL     1     -12.126  12.970  63.458  1.00  0.00    -0.617 A  
HETATM   13  C   UNL     1     -11.941  14.035  64.331  1.00  0.00    -0.480 A  
HETATM   14  C   UNL     1     -11.123  13.878  65.449  1.00  0.00    -0.310 A  
HETATM   15  C   UNL     1     -10.490  12.654  65.699  1.00  0.00    -0.298 A  
ENDBRANCH   7  10
ENDBRANCH   5   7
ENDBRANCH   3   5
ENDBRANCH   2   3
TORSDOF 4
ENDMDL
MODEL       97
REMARK 921   NORMALIZED FREE ENERGY PREDICTED BY IDOCK:   -3.64 KCAL/MOL
REMARK 922        TOTAL FREE ENERGY PREDICTED BY IDOCK:   -4.89 KCAL/MOL
REMARK 923 INTER-LIGAND FREE ENERGY PREDICTED BY IDOCK:   -4.63 KCAL/MOL
REMARK 924 INTRA-LIGAND FREE ENERGY PREDICTED BY IDOCK:   -0.26 KCAL/MOL
REMARK 927      BINDING AFFINITY PREDICTED BY RF-SCORE:    0.00 PKD
ROOT
HETATM    1  C   UNL     1      -8.929   9.672  69.932  1.00  0.00    -0.243 C  
HETATM    2  C   UNL     1      -9.805   9.231  71.104  1.00  0.00    -0.272 C  
ENDROOT
BRANCH   2   3
HETATM    3  N   UNL     1     -11.148   9.862  71.189  1.00  0.00    -0.340 NA 
HETATM    4  C   UNL     1     -11.610  10.232  69.843  1.00  0.00    -0.256 C  
BRANCH   3   5
HETATM    5  C   UNL     1     -12.129   8.924  71.852  1.00  0.00    -0.373 C  
HETATM    6  C   UNL     1     -13.409   9.673  72.286  1.00  0.00    -0.498 C  
BRANCH   5   7
HETATM    7  C   UNL     1     -12.590   7.582  71.139  1.00  0.00    -0.260 C  
HETATM    8  H   UNL     1     -14.092   6.263  71.240  1.00  0.00     0.000 HD 
HETATM    9  O   UNL     1     -13.816   7.066  71.666  1.00  0.00    -0.346 OA 
BRANCH   7  10
HETATM   10  C   UNL     1     -11.598   6.449  70.934  1.00  0.00    -0.393 A  
HETATM   11  C   UNL     1     -11.139   5.736  72.060  1.00  0.00    -0.318 A  
HETATM   12  C   UNL     1     -10.215   4.695  71.927  1.00  0.00    -0.254 A  
HETATM   13  C   UNL     1      -9.725   4.358  70.671  1.00  0.00    -0.283 A  
HETATM   14  C   UNL     1     -10.157   5.064  69.549  1.00  0.00    -0.301 A  
HETATM   15  C   UNL     1     -11.082   6.108  69.680  1.00  0.00    -0.489 A  
ENDBRANCH   7  10
ENDBRANCH   5   7
ENDBRANCH   3   5
ENDBRANCH   2   3
TORSDOF 4
ENDMDL
MODEL       98
REMARK 921   NORMALIZED FREE ENERGY PREDICTED BY IDOCK:   -3.64 KCAL/MOL
REMARK 922        TOTAL FREE ENERGY PREDICTED BY IDOCK:   -4.89 KCAL/MOL
REMARK 923 INTER-LIGAND FREE ENERGY PREDICTED BY IDOCK:   -4.53 KCAL/MOL
REMARK 924 INTRA-LIGAND FREE ENERGY PREDICTED BY IDOCK:   -0.35 KCAL/MOL
REMARK 927      BINDING AFFINITY PREDICTED BY RF-SCORE:    0.00 PKD
ROOT
HETATM    1  C   UNL     1      -9.871  10.065  65.231  1.00  0.00    -0.388 C  
HETATM    2  C   UNL     1     -10.219   9.926  66.714  1.00  0.00    -0.236 C  
ENDROOT
BRANCH   2   3
HETATM    3  N   UNL     1      -9.161  10.338  67.673  1.00  0.00    -0.144 NA 
HETATM    4  C   UNL     1      -7.991  10.843  66.939  1.00  0.00    -0.138 C  
BRANCH   3   5
HETATM    5  C   UNL     1      -9.691  11.389  68.620  1.00  0.00    -0.176 C  
HETATM    6  C   UNL     1      -9.451  12.811  68.065  1.00  0.00    -0.213 C  
BRANCH   5   7
HETATM    7  C   UNL     1     -11.188  11.339  69.146  1.00  0.00    -0.273 C  
HETATM    8  H   UNL     1     -12.634  12.609  69.698  1.00  0.00     0.000 HD 
HETATM    9  O   UNL     1     -11.738  12.639  69.383  1.00  0.00    -0.297 OA 
BRANCH   7  10
HETATM   10  C   UNL     1     -11.564  10.404  70.284  1.00  0.00    -0.410 A  
HETATM   11  C   UNL     1     -12.855  10.499  70.844  1.00  0.00    -0.485 A  
HETATM   12  C   UNL     1     -13.245   9.673  71.903  1.00  0.00    -0.538 A  
HETATM   13  C   UNL     1     -12.350   8.748  72.426  1.00  0.00    -0.414 A  
HETATM   14  C   UNL     1     -11.065   8.652  71.894  1.00  0.00    -0.416 A  
HETATM   15  C   UNL     1     -10.672   9.479  70.835  1.00  0.00    -0.403 A  
ENDBRANCH   7  10
ENDBRANCH   5   7
ENDBRANCH   3   5
ENDBRANCH   2   3
TORSDOF 4
ENDMDL
MODEL       99
REMARK 921   NORMALIZED FREE ENERGY PREDICTED BY IDOCK:   -3.64 KCAL/MOL
REMARK 922        TOTAL FREE ENERGY PREDICTED BY IDOCK:   -4.88 KCAL/MOL
REMARK 923 INTER-LIGAND FREE ENERGY PREDICTED BY IDOCK:   -4.53 KCAL/MOL
REMARK 924 INTRA-LIGAND FREE ENERGY PREDICTED BY IDOCK:   -0.35 KCAL/MOL
REMARK 927      BINDING AFFINITY PREDICTED BY RF-SCORE:    0.00 PKD
ROOT
HETATM    1  C   UNL     1     -12.044  10.885  69.890  1.00  0.00    -0.428 C  
HETATM    2  C   UNL     1     -11.562  11.926  68.880  1.00  0.00    -0.311 C  
ENDROOT
BRANCH   2   3
HETATM    3  N   UNL     1     -10.511  11.475  67.930  1.00  0.00    -0.179 NA 
HETATM    4  C   UNL     1     -10.743  10.072  67.559  1.00  0.00    -0.281 C  
BRANCH   3   5
HETATM    5  C   UNL     1     -10.498  12.357  66.704  1.00  0.00    -0.229 C  
HETATM    6  C   UNL     1     -10.495  11.512  65.410  1.00  0.00    -0.333 C  
BRANCH   5   7
HETATM    7  C   UNL     1     -11.576  13.507  66.509  1.00  0.00    -0.359 C  
HETATM    8  H   UNL     1     -13.003  14.028  65.206  1.00  0.00     0.000 HD 
HETATM    9  O   UNL     1     -12.359  13.340  65.323  1.00  0.00    -0.423 OA 
BRANCH   7  10
HETATM   10  C   UNL     1     -11.171  14.964  66.660  1.00  0.00    -0.340 A  
HETATM   11  C   UNL     1     -10.732  15.669  65.520  1.00  0.00    -0.403 A  
HETATM   12  C   UNL     1     -10.334  17.006  65.607  1.00  0.00    -0.226 A  
HETATM   13  C   UNL     1     -10.355  17.657  66.835  1.00  0.00    -0.329 A  
HETATM   14  C   UNL     1     -10.771  16.970  67.975  1.00  0.00    -0.365 A  
HETATM   15  C   UNL     1     -11.169  15.630  67.889  1.00  0.00    -0.328 A  
ENDBRANCH   7  10
ENDBRANCH   5   7
ENDBRANCH   3   5
ENDBRANCH   2   3
TORSDOF 4
ENDMDL
MODEL      100
REMARK 921   NORMALIZED FREE ENERGY PREDICTED BY IDOCK:   -3.64 KCAL/MOL
REMARK 922        TOTAL FREE ENERGY PREDICTED BY IDOCK:   -4.88 KCAL/MOL
REMARK 923 INTER-LIGAND FREE ENERGY PREDICTED BY IDOCK:   -4.46 KCAL/MOL
REMARK 924 INTRA-LIGAND FREE ENERGY PREDICTED BY IDOCK:   -0.43 KCAL/MOL
REMARK 927      BINDING AFFINITY PREDICTED BY RF-SCORE:    0.00 PKD
ROOT
HETATM    1  C   UNL     1      -9.044   7.510  74.048  1.00  0.00    -0.295 C  
HETATM    2  C   UNL     1      -8.971   6.117  73.423  1.00  0.00    -0.125 C  
ENDROOT
BRANCH   2   3
HETATM    3  N   UNL     1      -9.209   6.047  71.957  1.00  0.00    -0.147 NA 
HETATM    4  C   UNL     1      -8.181   5.207  71.325  1.00  0.00    -0.117 C  
BRANCH   3   5
HETATM    5  C   UNL     1     -10.590   5.504  71.674  1.00  0.00    -0.231 C  
HETATM    6  C   UNL     1     -11.334   5.163  72.985  1.00  0.00    -0.381 C  
BRANCH   5   7
HETATM    7  C   UNL     1     -11.609   6.295  70.749  1.00  0.00    -0.279 C  
HETATM    8  H   UNL     1     -11.844   6.751  68.814  1.00  0.00     0.000 HD 
HETATM    9  O   UNL     1     -11.235   6.278  69.367  1.00  0.00    -0.382 OA 
BRANCH   7  10
HETATM   10  C   UNL     1     -12.069   7.690  71.142  1.00  0.00    -0.322 A  
HETATM   11  C   UNL     1     -11.211   8.782  70.898  1.00  0.00    -0.320 A  
HETATM   12  C   UNL     1     -11.581  10.083  71.254  1.00  0.00    -0.430 A  
HETATM   13  C   UNL     1     -12.805  10.312  71.870  1.00  0.00    -0.528 A  
HETATM   14  C   UNL     1     -13.658   9.240  72.133  1.00  0.00    -0.536 A  
HETATM   15  C   UNL     1     -13.290   7.936  71.778  1.00  0.00    -0.364 A  
ENDBRANCH   7  10
ENDBRANCH   5   7
ENDBRANCH   3   5
ENDBRANCH   2   3
TORSDOF 4
ENDMDL
MODEL      101
REMARK 921   NORMALIZED FREE ENERGY PREDICTED BY IDOCK:   -3.62 KCAL/MOL
REMARK 922        TOTAL FREE ENERGY PREDICTED BY IDOCK:   -4.85 KCAL/MOL
REMARK 923 INTER-LIGAND FREE ENERGY PREDICTED BY IDOCK:   -4.55 KCAL/MOL
REMARK 924 INTRA-LIGAND FREE ENERGY PREDICTED BY IDOCK:   -0.31 KCAL/MOL
REMARK 927      BINDING AFFINITY PREDICTED BY RF-SCORE:    0.00 PKD
ROOT
HETATM    1  C   UNL     1     -10.510  19.070  67.494  1.00  0.00    -0.537 C  
HETATM    2  C   UNL     1     -10.591  17.612  67.945  1.00  0.00    -0.387 C  
ENDROOT
BRANCH   2   3
HETATM    3  N   UNL     1     -10.635  16.595  66.861  1.00  0.00    -0.274 NA 
HETATM    4  C   UNL     1      -9.377  16.624  66.100  1.00  0.00    -0.284 C  
BRANCH   3   5
HETATM    5  C   UNL     1     -10.878  15.222  67.439  1.00  0.00    -0.304 C  
HETATM    6  C   UNL     1     -11.886  15.279  68.609  1.00  0.00    -0.329 C  
BRANCH   5   7
HETATM    7  C   UNL     1     -11.305  14.005  66.512  1.00  0.00    -0.336 C  
HETATM    8  H   UNL     1     -12.954  13.292  65.630  1.00  0.00     0.000 HD 
HETATM    9  O   UNL     1     -12.699  14.019  66.184  1.00  0.00    -0.450 OA 
BRANCH   7  10
HETATM   10  C   UNL     1     -10.872  12.591  66.863  1.00  0.00    -0.280 A  
HETATM   11  C   UNL     1      -9.643  12.114  66.363  1.00  0.00    -0.243 A  
HETATM   12  C   UNL     1      -9.205  10.816  66.643  1.00  0.00    -0.184 A  
HETATM   13  C   UNL     1      -9.992   9.971  67.416  1.00  0.00    -0.242 A  
HETATM   14  C   UNL     1     -11.218  10.422  67.905  1.00  0.00    -0.332 A  
HETATM   15  C   UNL     1     -11.658  11.722  67.624  1.00  0.00    -0.364 A  
ENDBRANCH   7  10
ENDBRANCH   5   7
ENDBRANCH   3   5
ENDBRANCH   2   3
TORSDOF 4
ENDMDL
MODEL      102
REMARK 921   NORMALIZED FREE ENERGY PREDICTED BY IDOCK:   -3.60 KCAL/MOL
REMARK 922        TOTAL FREE ENERGY PREDICTED BY IDOCK:   -4.84 KCAL/MOL
REMARK 923 INTER-LIGAND FREE ENERGY PREDICTED BY IDOCK:   -4.47 KCAL/MOL
REMARK 924 INTRA-LIGAND FREE ENERGY PREDICTED BY IDOCK:   -0.36 KCAL/MOL
REMARK 927      BINDING AFFINITY PREDICTED BY RF-SCORE:    0.00 PKD
ROOT
HETATM    1  C   UNL     1     -11.254   4.069  73.408  1.00  0.00    -0.313 C  
HETATM    2  C   UNL     1     -10.706   5.191  72.526  1.00  0.00    -0.229 C  
ENDROOT
BRANCH   2   3
HETATM    3  N   UNL     1     -11.017   6.577  72.966  1.00  0.00    -0.255 NA 
HETATM    4  C   UNL     1      -9.929   7.087  73.812  1.00  0.00    -0.330 C  
BRANCH   3   5
HETATM    5  C   UNL     1     -11.228   7.473  71.768  1.00  0.00    -0.246 C  
HETATM    6  C   UNL     1     -12.152   6.804  70.727  1.00  0.00    -0.402 C  
BRANCH   5   7
HETATM    7  C   UNL     1     -11.725   8.971  71.942  1.00  0.00    -0.374 C  
HETATM    8  H   UNL     1     -13.353   9.953  72.566  1.00  0.00     0.000 HD 
HETATM    9  O   UNL     1     -13.056   9.058  72.462  1.00  0.00    -0.433 OA 
BRANCH   7  10
HETATM   10  C   UNL     1     -11.547   9.969  70.810  1.00  0.00    -0.444 A  
HETATM   11  C   UNL     1     -10.348   9.947  70.068  1.00  0.00    -0.320 A  
HETATM   12  C   UNL     1     -10.128  10.854  69.026  1.00  0.00    -0.212 A  
HETATM   13  C   UNL     1     -11.096  11.803  68.717  1.00  0.00    -0.293 A  
HETATM   14  C   UNL     1     -12.280  11.847  69.451  1.00  0.00    -0.185 A  
HETATM   15  C   UNL     1     -12.501  10.941  70.496  1.00  0.00    -0.438 A  
ENDBRANCH   7  10
ENDBRANCH   5   7
ENDBRANCH   3   5
ENDBRANCH   2   3
TORSDOF 4
ENDMDL
MODEL      103
REMARK 921   NORMALIZED FREE ENERGY PREDICTED BY IDOCK:   -3.60 KCAL/MOL
REMARK 922        TOTAL FREE ENERGY PREDICTED BY IDOCK:   -4.83 KCAL/MOL
REMARK 923 INTER-LIGAND FREE ENERGY PREDICTED BY IDOCK:   -4.50 KCAL/MOL
REMARK 924 INTRA-LIGAND FREE ENERGY PREDICTED BY IDOCK:   -0.33 KCAL/MOL
REMARK 927      BINDING AFFINITY PREDICTED BY RF-SCORE:    0.00 PKD
ROOT
HETATM    1  C   UNL     1     -12.902  14.937  73.120  1.00  0.00    -0.619 C  
HETATM    2  C   UNL     1     -13.677  14.284  71.976  1.00  0.00    -0.450 C  
ENDROOT
BRANCH   2   3
HETATM    3  N   UNL     1     -13.001  14.276  70.652  1.00  0.00    -0.313 NA 
HETATM    4  C   UNL     1     -12.098  15.431  70.546  1.00  0.00    -0.371 C  
BRANCH   3   5
HETATM    5  C   UNL     1     -12.241  12.985  70.458  1.00  0.00    -0.313 C  
HETATM    6  C   UNL     1     -12.907  11.824  71.232  1.00  0.00    -0.409 C  
BRANCH   5   7
HETATM    7  C   UNL     1     -11.901  12.444  69.004  1.00  0.00    -0.300 C  
HETATM    8  H   UNL     1     -12.131  10.772  67.928  1.00  0.00     0.000 HD 
HETATM    9  O   UNL     1     -12.335  11.095  68.797  1.00  0.00    -0.539 OA 
BRANCH   7  10
HETATM   10  C   UNL     1     -10.506  12.631  68.429  1.00  0.00    -0.248 A  
HETATM   11  C   UNL     1      -9.542  11.624  68.644  1.00  0.00    -0.139 A  
HETATM   12  C   UNL     1      -8.241  11.755  68.149  1.00  0.00    -0.153 A  
HETATM   13  C   UNL     1      -7.878  12.896  67.444  1.00  0.00    -0.170 A  
HETATM   14  C   UNL     1      -8.815  13.908  67.237  1.00  0.00    -0.227 A  
HETATM   15  C   UNL     1     -10.119  13.780  67.733  1.00  0.00    -0.245 A  
ENDBRANCH   7  10
ENDBRANCH   5   7
ENDBRANCH   3   5
ENDBRANCH   2   3
TORSDOF 4
ENDMDL
MODEL      104
REMARK 921   NORMALIZED FREE ENERGY PREDICTED BY IDOCK:   -3.59 KCAL/MOL
REMARK 922        TOTAL FREE ENERGY PREDICTED BY IDOCK:   -4.82 KCAL/MOL
REMARK 923 INTER-LIGAND FREE ENERGY PREDICTED BY IDOCK:   -4.49 KCAL/MOL
REMARK 924 INTRA-LIGAND FREE ENERGY PREDICTED BY IDOCK:   -0.33 KCAL/MOL
REMARK 927      BINDING AFFINITY PREDICTED BY RF-SCORE:    0.00 PKD
ROOT
HETATM    1  C   UNL     1      -7.204  13.467  67.949  1.00  0.00    -0.139 C  
HETATM    2  C   UNL     1      -8.596  12.871  68.165  1.00  0.00    -0.188 C  
ENDROOT
BRANCH   2   3
HETATM    3  N   UNL     1      -8.972  11.751  67.263  1.00  0.00    -0.167 NA 
HETATM    4  C   UNL     1      -7.761  11.104  66.738  1.00  0.00    -0.153 C  
BRANCH   3   5
HETATM    5  C   UNL     1      -9.835  10.752  67.998  1.00  0.00    -0.165 C  
HETATM    6  C   UNL     1      -9.264  10.449  69.401  1.00  0.00    -0.177 C  
BRANCH   5   7
HETATM    7  C   UNL     1     -11.397  10.985  68.168  1.00  0.00    -0.307 C  
HETATM    8  H   UNL     1     -12.889  11.929  67.226  1.00  0.00     0.000 HD 
HETATM    9  O   UNL     1     -11.955  11.790  67.124  1.00  0.00    -0.617 OA 
BRANCH   7  10
HETATM   10  C   UNL     1     -11.960  11.418  69.511  1.00  0.00    -0.409 A  
HETATM   11  C   UNL     1     -12.490  10.437  70.374  1.00  0.00    -0.348 A  
HETATM   12  C   UNL     1     -13.034  10.785  71.614  1.00  0.00    -0.581 A  
HETATM   13  C   UNL     1     -13.069  12.117  72.007  1.00  0.00    -0.462 A  
HETATM   14  C   UNL     1     -12.564  13.102  71.158  1.00  0.00    -0.403 A  
HETATM   15  C   UNL     1     -12.019  12.756  69.915  1.00  0.00    -0.368 A  
ENDBRANCH   7  10
ENDBRANCH   5   7
ENDBRANCH   3   5
ENDBRANCH   2   3
TORSDOF 4
ENDMDL
MODEL      105
REMARK 921   NORMALIZED FREE ENERGY PREDICTED BY IDOCK:   -3.58 KCAL/MOL
REMARK 922        TOTAL FREE ENERGY PREDICTED BY IDOCK:   -4.81 KCAL/MOL
REMARK 923 INTER-LIGAND FREE ENERGY PREDICTED BY IDOCK:   -4.48 KCAL/MOL
REMARK 924 INTRA-LIGAND FREE ENERGY PREDICTED BY IDOCK:   -0.33 KCAL/MOL
REMARK 927      BINDING AFFINITY PREDICTED BY RF-SCORE:    0.00 PKD
ROOT
HETATM    1  C   UNL     1     -10.206  10.798  65.612  1.00  0.00    -0.320 C  
HETATM    2  C   UNL     1     -10.845  11.310  66.903  1.00  0.00    -0.282 C  
ENDROOT
BRANCH   2   3
HETATM    3  N   UNL     1     -11.392  10.272  67.816  1.00  0.00    -0.322 NA 
HETATM    4  C   UNL     1     -10.640   9.019  67.654  1.00  0.00    -0.231 C  
BRANCH   3   5
HETATM    5  C   UNL     1     -11.333  10.748  69.248  1.00  0.00    -0.286 C  
HETATM    6  C   UNL     1     -11.802  12.216  69.367  1.00  0.00    -0.370 C  
BRANCH   5   7
HETATM    7  C   UNL     1     -12.041   9.934  70.413  1.00  0.00    -0.153 C  
HETATM    8  H   UNL     1     -13.397  10.238  71.854  1.00  0.00     0.000 HD 
HETATM    9  O   UNL     1     -12.974  10.725  71.157  1.00  0.00    -0.369 OA 
BRANCH   7  10
HETATM   10  C   UNL     1     -11.211   9.086  71.363  1.00  0.00    -0.394 A  
HETATM   11  C   UNL     1     -11.874   8.252  72.285  1.00  0.00    -0.451 A  
HETATM   12  C   UNL     1     -11.157   7.463  73.191  1.00  0.00    -0.357 A  
HETATM   13  C   UNL     1      -9.768   7.504  73.197  1.00  0.00    -0.301 A  
HETATM   14  C   UNL     1      -9.097   8.336  72.302  1.00  0.00    -0.289 A  
HETATM   15  C   UNL     1      -9.813   9.128  71.395  1.00  0.00    -0.354 A  
ENDBRANCH   7  10
ENDBRANCH   5   7
ENDBRANCH   3   5
ENDBRANCH   2   3
TORSDOF 4
ENDMDL
MODEL      106
REMARK 921   NORMALIZED FREE ENERGY PREDICTED BY IDOCK:   -3.57 KCAL/MOL
REMARK 922        TOTAL FREE ENERGY PREDICTED BY IDOCK:   -4.80 KCAL/MOL
REMARK 923 INTER-LIGAND FREE ENERGY PREDICTED BY IDOCK:   -4.41 KCAL/MOL
REMARK 924 INTRA-LIGAND FREE ENERGY PREDICTED BY IDOCK:   -0.39 KCAL/MOL
REMARK 927      BINDING AFFINITY PREDICTED BY RF-SCORE:    0.00 PKD
ROOT
HETATM    1  C   UNL     1      -8.697   5.296  72.917  1.00  0.00    -0.118 C  
HETATM    2  C   UNL     1      -8.438   6.240  71.742  1.00  0.00    -0.129 C  
ENDROOT
BRANCH   2   3
HETATM    3  N   UNL     1      -9.104   5.884  70.461  1.00  0.00    -0.147 NA 
HETATM    4  C   UNL     1      -9.586   4.496  70.518  1.00  0.00    -0.204 C  
BRANCH   3   5
HETATM    5  C   UNL     1     -10.244   6.834  70.180  1.00  0.00    -0.195 C  
HETATM    6  C   UNL     1     -11.221   6.240  69.141  1.00  0.00    -0.439 C  
BRANCH   5   7
HETATM    7  C   UNL     1     -11.122   7.433  71.360  1.00  0.00    -0.239 C  
HETATM    8  H   UNL     1     -12.666   6.890  72.513  1.00  0.00     0.000 HD 
HETATM    9  O   UNL     1     -12.141   6.532  71.807  1.00  0.00    -0.338 OA 
BRANCH   7  10
HETATM   10  C   UNL     1     -11.688   8.839  71.250  1.00  0.00    -0.356 A  
HETATM   11  C   UNL     1     -11.084   9.746  70.356  1.00  0.00    -0.367 A  
HETATM   12  C   UNL     1     -11.557  11.056  70.228  1.00  0.00    -0.414 A  
HETATM   13  C   UNL     1     -12.632  11.484  70.998  1.00  0.00    -0.457 A  
HETATM   14  C   UNL     1     -13.230  10.603  71.899  1.00  0.00    -0.528 A  
HETATM   15  C   UNL     1     -12.757   9.291  72.029  1.00  0.00    -0.479 A  
ENDBRANCH   7  10
ENDBRANCH   5   7
ENDBRANCH   3   5
ENDBRANCH   2   3
TORSDOF 4
ENDMDL
MODEL      107
REMARK 921   NORMALIZED FREE ENERGY PREDICTED BY IDOCK:   -3.56 KCAL/MOL
REMARK 922        TOTAL FREE ENERGY PREDICTED BY IDOCK:   -4.79 KCAL/MOL
REMARK 923 INTER-LIGAND FREE ENERGY PREDICTED BY IDOCK:   -4.45 KCAL/MOL
REMARK 924 INTRA-LIGAND FREE ENERGY PREDICTED BY IDOCK:   -0.34 KCAL/MOL
REMARK 927      BINDING AFFINITY PREDICTED BY RF-SCORE:    0.00 PKD
ROOT
HETATM    1  C   UNL     1     -11.898  15.449  69.772  1.00  0.00    -0.367 C  
HETATM    2  C   UNL     1     -12.153  14.042  69.230  1.00  0.00    -0.338 C  
ENDROOT
BRANCH   2   3
HETATM    3  N   UNL     1     -11.843  12.922  70.156  1.00  0.00    -0.289 NA 
HETATM    4  C   UNL     1     -12.861  12.854  71.215  1.00  0.00    -0.270 C  
BRANCH   3   5
HETATM    5  C   UNL     1     -11.775  11.617  69.398  1.00  0.00    -0.340 C  
HETATM    6  C   UNL     1     -11.602  11.862  67.882  1.00  0.00    -0.393 C  
BRANCH   5   7
HETATM    7  C   UNL     1     -10.745  10.481  69.810  1.00  0.00    -0.264 C  
HETATM    8  H   UNL     1      -9.160   9.535  69.036  1.00  0.00     0.000 HD 
HETATM    9  O   UNL     1      -9.776  10.214  68.790  1.00  0.00    -0.159 OA 
BRANCH   7  10
HETATM   10  C   UNL     1     -11.247   9.174  70.400  1.00  0.00    -0.279 A  
HETATM   11  C   UNL     1     -11.969   9.209  71.611  1.00  0.00    -0.437 A  
HETATM   12  C   UNL     1     -12.440   8.034  72.204  1.00  0.00    -0.335 A  
HETATM   13  C   UNL     1     -12.188   6.806  71.605  1.00  0.00    -0.410 A  
HETATM   14  C   UNL     1     -11.462   6.753  70.416  1.00  0.00    -0.419 A  
HETATM   15  C   UNL     1     -10.988   7.929  69.821  1.00  0.00    -0.148 A  
ENDBRANCH   7  10
ENDBRANCH   5   7
ENDBRANCH   3   5
ENDBRANCH   2   3
TORSDOF 4
ENDMDL
MODEL      108
REMARK 921   NORMALIZED FREE ENERGY PREDICTED BY IDOCK:   -3.56 KCAL/MOL
REMARK 922        TOTAL FREE ENERGY PREDICTED BY IDOCK:   -4.79 KCAL/MOL
REMARK 923 INTER-LIGAND FREE ENERGY PREDICTED BY IDOCK:   -4.53 KCAL/MOL
REMARK 924 INTRA-LIGAND FREE ENERGY PREDICTED BY IDOCK:   -0.26 KCAL/MOL
REMARK 927      BINDING AFFINITY PREDICTED BY RF-SCORE:    0.00 PKD
ROOT
HETATM    1  C   UNL     1     -10.423  11.011  64.259  1.00  0.00    -0.427 C  
HETATM    2  C   UNL     1      -9.680  11.086  65.593  1.00  0.00    -0.232 C  
ENDROOT
BRANCH   2   3
HETATM    3  N   UNL     1     -10.439  11.666  66.731  1.00  0.00    -0.222 NA 
HETATM    4  C   UNL     1     -11.710  12.226  66.249  1.00  0.00    -0.366 C  
BRANCH   3   5
HETATM    5  C   UNL     1     -10.685  10.615  67.788  1.00  0.00    -0.257 C  
HETATM    6  C   UNL     1     -10.057   9.262  67.386  1.00  0.00    -0.280 C  
BRANCH   5   7
HETATM    7  C   UNL     1     -10.304  10.875  69.308  1.00  0.00    -0.187 C  
HETATM    8  H   UNL     1      -8.741  10.623  70.532  1.00  0.00     0.000 HD 
HETATM    9  O   UNL     1      -8.969  10.468  69.623  1.00  0.00    -0.103 OA 
BRANCH   7  10
HETATM   10  C   UNL     1     -11.251  10.442  70.415  1.00  0.00    -0.399 A  
HETATM   11  C   UNL     1     -11.218   9.102  70.852  1.00  0.00    -0.359 A  
HETATM   12  C   UNL     1     -12.079   8.649  71.857  1.00  0.00    -0.422 A  
HETATM   13  C   UNL     1     -12.993   9.523  72.432  1.00  0.00    -0.396 A  
HETATM   14  C   UNL     1     -13.050  10.848  72.000  1.00  0.00    -0.462 A  
HETATM   15  C   UNL     1     -12.189  11.303  70.993  1.00  0.00    -0.417 A  
ENDBRANCH   7  10
ENDBRANCH   5   7
ENDBRANCH   3   5
ENDBRANCH   2   3
TORSDOF 4
ENDMDL
MODEL      109
REMARK 921   NORMALIZED FREE ENERGY PREDICTED BY IDOCK:   -3.56 KCAL/MOL
REMARK 922        TOTAL FREE ENERGY PREDICTED BY IDOCK:   -4.79 KCAL/MOL
REMARK 923 INTER-LIGAND FREE ENERGY PREDICTED BY IDOCK:   -4.51 KCAL/MOL
REMARK 924 INTRA-LIGAND FREE ENERGY PREDICTED BY IDOCK:   -0.28 KCAL/MOL
REMARK 927      BINDING AFFINITY PREDICTED BY RF-SCORE:    0.00 PKD
ROOT
HETATM    1  C   UNL     1      -8.834   8.238  66.751  1.00  0.00    -0.158 C  
HETATM    2  C   UNL     1      -9.073   9.273  67.850  1.00  0.00    -0.127 C  
ENDROOT
BRANCH   2   3
HETATM    3  N   UNL     1      -8.697  10.673  67.521  1.00  0.00    -0.125 NA 
HETATM    4  C   UNL     1      -8.692  10.858  66.062  1.00  0.00    -0.186 C  
BRANCH   3   5
HETATM    5  C   UNL     1      -9.651  11.641  68.178  1.00  0.00    -0.190 C  
HETATM    6  C   UNL     1      -9.566  13.039  67.524  1.00  0.00    -0.204 C  
BRANCH   5   7
HETATM    7  C   UNL     1     -11.192  11.293  68.339  1.00  0.00    -0.262 C  
HETATM    8  H   UNL     1     -12.902  11.530  67.326  1.00  0.00     0.000 HD 
HETATM    9  O   UNL     1     -11.981  11.738  67.230  1.00  0.00    -0.618 OA 
BRANCH   7  10
HETATM   10  C   UNL     1     -11.911  11.604  69.642  1.00  0.00    -0.390 A  
HETATM   11  C   UNL     1     -11.979  12.943  70.078  1.00  0.00    -0.380 A  
HETATM   12  C   UNL     1     -12.616  13.280  71.277  1.00  0.00    -0.398 A  
HETATM   13  C   UNL     1     -13.183  12.285  72.063  1.00  0.00    -0.508 A  
HETATM   14  C   UNL     1     -13.111  10.954  71.654  1.00  0.00    -0.538 A  
HETATM   15  C   UNL     1     -12.473  10.615  70.454  1.00  0.00    -0.421 A  
ENDBRANCH   7  10
ENDBRANCH   5   7
ENDBRANCH   3   5
ENDBRANCH   2   3
TORSDOF 4
ENDMDL
MODEL      110
REMARK 921   NORMALIZED FREE ENERGY PREDICTED BY IDOCK:   -3.55 KCAL/MOL
REMARK 922        TOTAL FREE ENERGY PREDICTED BY IDOCK:   -4.78 KCAL/MOL
REMARK 923 INTER-LIGAND FREE ENERGY PREDICTED BY IDOCK:   -4.41 KCAL/MOL
REMARK 924 INTRA-LIGAND FREE ENERGY PREDICTED BY IDOCK:   -0.37 KCAL/MOL
REMARK 927      BINDING AFFINITY PREDICTED BY RF-SCORE:    0.00 PKD
ROOT
HETATM    1  C   UNL     1      -7.190   8.102  73.259  1.00  0.00    -0.163 C  
HETATM    2  C   UNL     1      -8.669   7.930  73.605  1.00  0.00    -0.269 C  
ENDROOT
BRANCH   2   3
HETATM    3  N   UNL     1      -9.314   6.686  73.110  1.00  0.00    -0.131 NA 
HETATM    4  C   UNL     1     -10.410   6.300  74.012  1.00  0.00    -0.309 C  
BRANCH   3   5
HETATM    5  C   UNL     1      -9.825   6.883  71.703  1.00  0.00    -0.168 C  
HETATM    6  C   UNL     1      -9.506   5.657  70.817  1.00  0.00    -0.203 C  
BRANCH   5   7
HETATM    7  C   UNL     1     -11.338   7.279  71.427  1.00  0.00    -0.255 C  
HETATM    8  H   UNL     1     -12.856   6.701  70.258  1.00  0.00     0.000 HD 
HETATM    9  O   UNL     1     -11.952   6.464  70.423  1.00  0.00    -0.349 OA 
BRANCH   7  10
HETATM   10  C   UNL     1     -11.717   8.736  71.213  1.00  0.00    -0.356 A  
HETATM   11  C   UNL     1     -12.770   9.282  71.973  1.00  0.00    -0.479 A  
HETATM   12  C   UNL     1     -13.168  10.612  71.803  1.00  0.00    -0.526 A  
HETATM   13  C   UNL     1     -12.529  11.413  70.865  1.00  0.00    -0.478 A  
HETATM   14  C   UNL     1     -11.495  10.882  70.093  1.00  0.00    -0.405 A  
HETATM   15  C   UNL     1     -11.096   9.550  70.261  1.00  0.00    -0.317 A  
ENDBRANCH   7  10
ENDBRANCH   5   7
ENDBRANCH   3   5
ENDBRANCH   2   3
TORSDOF 4
ENDMDL
MODEL      111
REMARK 921   NORMALIZED FREE ENERGY PREDICTED BY IDOCK:   -3.55 KCAL/MOL
REMARK 922        TOTAL FREE ENERGY PREDICTED BY IDOCK:   -4.78 KCAL/MOL
REMARK 923 INTER-LIGAND FREE ENERGY PREDICTED BY IDOCK:   -4.39 KCAL/MOL
REMARK 924 INTRA-LIGAND FREE ENERGY PREDICTED BY IDOCK:   -0.39 KCAL/MOL
REMARK 927      BINDING AFFINITY PREDICTED BY RF-SCORE:    0.00 PKD
ROOT
HETATM    1  C   UNL     1      -6.968   8.704  63.494  1.00  0.00    -0.089 C  
HETATM    2  C   UNL     1      -8.366   8.930  64.070  1.00  0.00    -0.164 C  
ENDROOT
BRANCH   2   3
HETATM    3  N   UNL     1      -8.446   9.078  65.547  1.00  0.00    -0.135 NA 
HETATM    4  C   UNL     1      -7.556  10.162  65.989  1.00  0.00    -0.118 C  
BRANCH   3   5
HETATM    5  C   UNL     1      -9.870   9.351  65.971  1.00  0.00    -0.296 C  
HETATM    6  C   UNL     1     -10.368   8.285  66.972  1.00  0.00    -0.393 C  
BRANCH   5   7
HETATM    7  C   UNL     1     -10.298  10.769  66.545  1.00  0.00    -0.244 C  
HETATM    8  H   UNL     1     -11.219  11.526  68.153  1.00  0.00     0.000 HD 
HETATM    9  O   UNL     1     -10.963  10.679  67.810  1.00  0.00    -0.262 OA 
BRANCH   7  10
HETATM   10  C   UNL     1     -11.018  11.766  65.653  1.00  0.00    -0.348 A  
HETATM   11  C   UNL     1     -11.809  12.767  66.253  1.00  0.00    -0.485 A  
HETATM   12  C   UNL     1     -12.504  13.699  65.476  1.00  0.00    -0.544 A  
HETATM   13  C   UNL     1     -12.429  13.640  64.090  1.00  0.00    -0.292 A  
HETATM   14  C   UNL     1     -11.664  12.646  63.481  1.00  0.00    -0.604 A  
HETATM   15  C   UNL     1     -10.968  11.711  64.257  1.00  0.00    -0.418 A  
ENDBRANCH   7  10
ENDBRANCH   5   7
ENDBRANCH   3   5
ENDBRANCH   2   3
TORSDOF 4
ENDMDL
MODEL      112
REMARK 921   NORMALIZED FREE ENERGY PREDICTED BY IDOCK:   -3.54 KCAL/MOL
REMARK 922        TOTAL FREE ENERGY PREDICTED BY IDOCK:   -4.76 KCAL/MOL
REMARK 923 INTER-LIGAND FREE ENERGY PREDICTED BY IDOCK:   -4.40 KCAL/MOL
REMARK 924 INTRA-LIGAND FREE ENERGY PREDICTED BY IDOCK:   -0.37 KCAL/MOL
REMARK 927      BINDING AFFINITY PREDICTED BY RF-SCORE:    0.00 PKD
ROOT
HETATM    1  C   UNL     1      -6.738  19.810  68.753  1.00  0.00    -0.353 C  
HETATM    2  C   UNL     1      -7.806  18.729  68.591  1.00  0.00    -0.328 C  
ENDROOT
BRANCH   2   3
HETATM    3  N   UNL     1      -7.539  17.699  67.552  1.00  0.00    -0.197 NA 
HETATM    4  C   UNL     1      -6.195  17.134  67.744  1.00  0.00    -0.141 C  
BRANCH   3   5
HETATM    5  C   UNL     1      -8.588  16.613  67.608  1.00  0.00    -0.200 C  
HETATM    6  C   UNL     1      -9.793  17.046  68.473  1.00  0.00    -0.290 C  
BRANCH   5   7
HETATM    7  C   UNL     1      -9.173  15.969  66.279  1.00  0.00    -0.333 C  
HETATM    8  H   UNL     1     -10.240  16.525  64.680  1.00  0.00     0.000 HD 
HETATM    9  O   UNL     1      -9.891  16.910  65.474  1.00  0.00    -0.559 OA 
BRANCH   7  10
HETATM   10  C   UNL     1      -9.935  14.655  66.342  1.00  0.00    -0.296 A  
HETATM   11  C   UNL     1     -11.215  14.585  65.757  1.00  0.00    -0.334 A  
HETATM   12  C   UNL     1     -11.964  13.404  65.800  1.00  0.00    -0.447 A  
HETATM   13  C   UNL     1     -11.452  12.281  66.437  1.00  0.00    -0.434 A  
HETATM   14  C   UNL     1     -10.193  12.340  67.035  1.00  0.00    -0.230 A  
HETATM   15  C   UNL     1      -9.442  13.521  66.994  1.00  0.00    -0.251 A  
ENDBRANCH   7  10
ENDBRANCH   5   7
ENDBRANCH   3   5
ENDBRANCH   2   3
TORSDOF 4
ENDMDL
MODEL      113
REMARK 921   NORMALIZED FREE ENERGY PREDICTED BY IDOCK:   -3.52 KCAL/MOL
REMARK 922        TOTAL FREE ENERGY PREDICTED BY IDOCK:   -4.73 KCAL/MOL
REMARK 923 INTER-LIGAND FREE ENERGY PREDICTED BY IDOCK:   -4.48 KCAL/MOL
REMARK 924 INTRA-LIGAND FREE ENERGY PREDICTED BY IDOCK:   -0.25 KCAL/MOL
REMARK 927      BINDING AFFINITY PREDICTED BY RF-SCORE:    0.00 PKD
ROOT
HETATM    1  C   UNL     1      -9.947   9.511  66.873  1.00  0.00    -0.278 C  
HETATM    2  C   UNL     1     -10.400  10.686  67.740  1.00  0.00    -0.204 C  
ENDROOT
BRANCH   2   3
HETATM    3  N   UNL     1     -10.491  12.004  67.057  1.00  0.00    -0.218 NA 
HETATM    4  C   UNL     1     -10.500  11.810  65.600  1.00  0.00    -0.265 C  
BRANCH   3   5
HETATM    5  C   UNL     1     -11.729  12.743  67.505  1.00  0.00    -0.364 C  
HETATM    6  C   UNL     1     -11.814  12.806  69.047  1.00  0.00    -0.344 C  
BRANCH   5   7
HETATM    7  C   UNL     1     -12.059  14.197  66.958  1.00  0.00    -0.414 C  
HETATM    8  H   UNL     1     -12.873  15.047  65.340  1.00  0.00     0.000 HD 
HETATM    9  O   UNL     1     -12.676  14.178  65.666  1.00  0.00    -0.514 OA 
BRANCH   7  10
HETATM   10  C   UNL     1     -11.002  15.288  67.010  1.00  0.00    -0.324 A  
HETATM   11  C   UNL     1     -11.044  16.225  68.062  1.00  0.00    -0.299 A  
HETATM   12  C   UNL     1     -10.105  17.258  68.147  1.00  0.00    -0.325 A  
HETATM   13  C   UNL     1      -9.117  17.378  67.177  1.00  0.00    -0.242 A  
HETATM   14  C   UNL     1      -9.072  16.468  66.121  1.00  0.00    -0.342 A  
HETATM   15  C   UNL     1     -10.013  15.435  66.033  1.00  0.00    -0.350 A  
ENDBRANCH   7  10
ENDBRANCH   5   7
ENDBRANCH   3   5
ENDBRANCH   2   3
TORSDOF 4
ENDMDL
MODEL      114
REMARK 921   NORMALIZED FREE ENERGY PREDICTED BY IDOCK:   -3.51 KCAL/MOL
REMARK 922        TOTAL FREE ENERGY PREDICTED BY IDOCK:   -4.73 KCAL/MOL
REMARK 923 INTER-LIGAND FREE ENERGY PREDICTED BY IDOCK:   -4.32 KCAL/MOL
REMARK 924 INTRA-LIGAND FREE ENERGY PREDICTED BY IDOCK:   -0.41 KCAL/MOL
REMARK 927      BINDING AFFINITY PREDICTED BY RF-SCORE:    0.00 PKD
ROOT
HETATM    1  C   UNL     1     -10.015   9.181  66.545  1.00  0.00    -0.359 C  
HETATM    2  C   UNL     1      -9.500  10.584  66.871  1.00  0.00    -0.165 C  
ENDROOT
BRANCH   2   3
HETATM    3  N   UNL     1      -9.836  11.647  65.888  1.00  0.00    -0.226 NA 
HETATM    4  C   UNL     1     -10.352  11.038  64.652  1.00  0.00    -0.345 C  
BRANCH   3   5
HETATM    5  C   UNL     1     -10.847  12.604  66.474  1.00  0.00    -0.258 C  
HETATM    6  C   UNL     1     -12.154  12.609  65.649  1.00  0.00    -0.502 C  
BRANCH   5   7
HETATM    7  C   UNL     1     -11.260  12.524  68.005  1.00  0.00    -0.270 C  
HETATM    8  H   UNL     1     -12.738  11.774  69.129  1.00  0.00     0.000 HD 
HETATM    9  O   UNL     1     -12.491  11.821  68.213  1.00  0.00    -0.201 OA 
BRANCH   7  10
HETATM   10  C   UNL     1     -11.227  13.774  68.869  1.00  0.00    -0.309 A  
HETATM   11  C   UNL     1     -12.346  14.074  69.673  1.00  0.00    -0.309 A  
HETATM   12  C   UNL     1     -12.371  15.220  70.474  1.00  0.00    -0.434 A  
HETATM   13  C   UNL     1     -11.287  16.089  70.477  1.00  0.00    -0.420 A  
HETATM   14  C   UNL     1     -10.179  15.814  69.675  1.00  0.00    -0.289 A  
HETATM   15  C   UNL     1     -10.152  14.668  68.871  1.00  0.00    -0.234 A  
ENDBRANCH   7  10
ENDBRANCH   5   7
ENDBRANCH   3   5
ENDBRANCH   2   3
TORSDOF 4
ENDMDL
MODEL      115
REMARK 921   NORMALIZED FREE ENERGY PREDICTED BY IDOCK:   -3.51 KCAL/MOL
REMARK 922        TOTAL FREE ENERGY PREDICTED BY IDOCK:   -4.72 KCAL/MOL
REMARK 923 INTER-LIGAND FREE ENERGY PREDICTED BY IDOCK:   -4.36 KCAL/MOL
REMARK 924 INTRA-LIGAND FREE ENERGY PREDICTED BY IDOCK:   -0.36 KCAL/MOL
REMARK 927      BINDING AFFINITY PREDICTED BY RF-SCORE:    0.00 PKD
ROOT
HETATM    1  C   UNL     1      -7.331  11.124  66.585  1.00  0.00    -0.145 C  
HETATM    2  C   UNL     1      -8.721  11.760  66.594  1.00  0.00    -0.186 C  
ENDROOT
BRANCH   2   3
HETATM    3  N   UNL     1      -9.178  12.309  67.898  1.00  0.00    -0.183 NA 
HETATM    4  C   UNL     1      -9.626  13.699  67.724  1.00  0.00    -0.224 C  
BRANCH   3   5
HETATM    5  C   UNL     1     -10.288  11.458  68.467  1.00  0.00    -0.205 C  
HETATM    6  C   UNL     1     -11.125  10.808  67.341  1.00  0.00    -0.363 C  
BRANCH   5   7
HETATM    7  C   UNL     1      -9.987  10.326  69.539  1.00  0.00    -0.228 C  
HETATM    8  H   UNL     1      -9.218   8.479  69.603  1.00  0.00     0.000 HD 
HETATM    9  O   UNL     1      -9.398   9.156  68.962  1.00  0.00    -0.148 OA 
BRANCH   7  10
HETATM   10  C   UNL     1     -11.055   9.925  70.543  1.00  0.00    -0.398 A  
HETATM   11  C   UNL     1     -12.169  10.770  70.725  1.00  0.00    -0.480 A  
HETATM   12  C   UNL     1     -13.171  10.455  71.648  1.00  0.00    -0.502 A  
HETATM   13  C   UNL     1     -13.072   9.298  72.411  1.00  0.00    -0.481 A  
HETATM   14  C   UNL     1     -11.969   8.459  72.254  1.00  0.00    -0.455 A  
HETATM   15  C   UNL     1     -10.963   8.774  71.332  1.00  0.00    -0.360 A  
ENDBRANCH   7  10
ENDBRANCH   5   7
ENDBRANCH   3   5
ENDBRANCH   2   3
TORSDOF 4
ENDMDL
MODEL      116
REMARK 921   NORMALIZED FREE ENERGY PREDICTED BY IDOCK:   -3.50 KCAL/MOL
REMARK 922        TOTAL FREE ENERGY PREDICTED BY IDOCK:   -4.71 KCAL/MOL
REMARK 923 INTER-LIGAND FREE ENERGY PREDICTED BY IDOCK:   -4.36 KCAL/MOL
REMARK 924 INTRA-LIGAND FREE ENERGY PREDICTED BY IDOCK:   -0.35 KCAL/MOL
REMARK 927      BINDING AFFINITY PREDICTED BY RF-SCORE:    0.00 PKD
ROOT
HETATM    1  C   UNL     1     -12.030  14.444  64.847  1.00  0.00    -0.430 C  
HETATM    2  C   UNL     1     -11.571  13.909  66.203  1.00  0.00    -0.359 C  
ENDROOT
BRANCH   2   3
HETATM    3  N   UNL     1     -11.323  12.445  66.277  1.00  0.00    -0.321 NA 
HETATM    4  C   UNL     1     -10.378  12.045  65.224  1.00  0.00    -0.275 C  
BRANCH   3   5
HETATM    5  C   UNL     1     -10.794  12.070  67.640  1.00  0.00    -0.231 C  
HETATM    6  C   UNL     1     -10.731  13.301  68.572  1.00  0.00    -0.280 C  
BRANCH   5   7
HETATM    7  C   UNL     1     -11.441  10.884  68.474  1.00  0.00    -0.310 C  
HETATM    8  H   UNL     1     -13.116  10.507  69.504  1.00  0.00     0.000 HD 
HETATM    9  O   UNL     1     -12.729  11.216  69.005  1.00  0.00    -0.237 OA 
BRANCH   7  10
HETATM   10  C   UNL     1     -10.621  10.156  69.526  1.00  0.00    -0.269 A  
HETATM   11  C   UNL     1     -11.257   9.734  70.712  1.00  0.00    -0.419 A  
HETATM   12  C   UNL     1     -10.543   9.074  71.718  1.00  0.00    -0.426 A  
HETATM   13  C   UNL     1      -9.184   8.835  71.561  1.00  0.00    -0.332 A  
HETATM   14  C   UNL     1      -8.537   9.260  70.401  1.00  0.00    -0.250 A  
HETATM   15  C   UNL     1      -9.249   9.923  69.393  1.00  0.00    -0.225 A  
ENDBRANCH   7  10
ENDBRANCH   5   7
ENDBRANCH   3   5
ENDBRANCH   2   3
TORSDOF 4
ENDMDL
MODEL      117
REMARK 921   NORMALIZED FREE ENERGY PREDICTED BY IDOCK:   -3.49 KCAL/MOL
REMARK 922        TOTAL FREE ENERGY PREDICTED BY IDOCK:   -4.70 KCAL/MOL
REMARK 923 INTER-LIGAND FREE ENERGY PREDICTED BY IDOCK:   -4.80 KCAL/MOL
REMARK 924 INTRA-LIGAND FREE ENERGY PREDICTED BY IDOCK:    0.10 KCAL/MOL
REMARK 927      BINDING AFFINITY PREDICTED BY RF-SCORE:    0.00 PKD
ROOT
HETATM    1  C   UNL     1      -6.980  19.936  65.464  1.00  0.00    -0.336 C  
HETATM    2  C   UNL     1      -8.343  19.714  66.121  1.00  0.00    -0.335 C  
ENDROOT
BRANCH   2   3
HETATM    3  N   UNL     1      -8.634  18.327  66.567  1.00  0.00    -0.277 NA 
HETATM    4  C   UNL     1      -7.393  17.676  67.012  1.00  0.00    -0.191 C  
BRANCH   3   5
HETATM    5  C   UNL     1      -9.660  18.335  67.675  1.00  0.00    -0.282 C  
HETATM    6  C   UNL     1     -10.782  19.359  67.388  1.00  0.00    -0.594 C  
BRANCH   5   7
HETATM    7  C   UNL     1     -10.361  16.993  68.154  1.00  0.00    -0.347 C  
HETATM    8  H   UNL     1     -10.028  15.498  69.442  1.00  0.00     0.000 HD 
HETATM    9  O   UNL     1      -9.609  16.300  69.156  1.00  0.00    -0.244 OA 
BRANCH   7  10
HETATM   10  C   UNL     1     -10.893  16.004  67.130  1.00  0.00    -0.239 A  
HETATM   11  C   UNL     1     -10.625  16.230  65.765  1.00  0.00    -0.336 A  
HETATM   12  C   UNL     1     -11.104  15.359  64.781  1.00  0.00    -0.416 A  
HETATM   13  C   UNL     1     -11.867  14.256  65.145  1.00  0.00    -0.384 A  
HETATM   14  C   UNL     1     -12.154  14.027  66.490  1.00  0.00    -0.488 A  
HETATM   15  C   UNL     1     -11.676  14.899  67.476  1.00  0.00    -0.328 A  
ENDBRANCH   7  10
ENDBRANCH   5   7
ENDBRANCH   3   5
ENDBRANCH   2   3
TORSDOF 4
ENDMDL
MODEL      118
REMARK 921   NORMALIZED FREE ENERGY PREDICTED BY IDOCK:   -3.48 KCAL/MOL
REMARK 922        TOTAL FREE ENERGY PREDICTED BY IDOCK:   -4.68 KCAL/MOL
REMARK 923 INTER-LIGAND FREE ENERGY PREDICTED BY IDOCK:   -4.27 KCAL/MOL
REMARK 924 INTRA-LIGAND FREE ENERGY PREDICTED BY IDOCK:   -0.41 KCAL/MOL
REMARK 927      BINDING AFFINITY PREDICTED BY RF-SCORE:    0.00 PKD
ROOT
HETATM    1  C   UNL     1      -9.156   6.240  66.233  1.00  0.00    -0.166 C  
HETATM    2  C   UNL     1     -10.343   6.905  66.931  1.00  0.00    -0.262 C  
ENDROOT
BRANCH   2   3
HETATM    3  N   UNL     1     -10.117   7.331  68.337  1.00  0.00    -0.166 NA 
HETATM    4  C   UNL     1      -9.075   6.495  68.950  1.00  0.00    -0.131 C  
BRANCH   3   5
HETATM    5  C   UNL     1      -9.730   8.790  68.387  1.00  0.00    -0.162 C  
HETATM    6  C   UNL     1     -10.486   9.605  67.314  1.00  0.00    -0.323 C  
BRANCH   5   7
HETATM    7  C   UNL     1      -9.808   9.614  69.743  1.00  0.00    -0.229 C  
HETATM    8  H   UNL     1      -8.628  10.084  71.289  1.00  0.00     0.000 HD 
HETATM    9  O   UNL     1      -8.581   9.591  70.479  1.00  0.00    -0.213 OA 
BRANCH   7  10
HETATM   10  C   UNL     1     -10.981   9.414  70.688  1.00  0.00    -0.352 A  
HETATM   11  C   UNL     1     -12.018  10.370  70.696  1.00  0.00    -0.448 A  
HETATM   12  C   UNL     1     -13.111  10.241  71.558  1.00  0.00    -0.534 A  
HETATM   13  C   UNL     1     -13.182   9.163  72.432  1.00  0.00    -0.512 A  
HETATM   14  C   UNL     1     -12.157   8.217  72.447  1.00  0.00    -0.430 A  
HETATM   15  C   UNL     1     -11.060   8.345  71.586  1.00  0.00    -0.344 A  
ENDBRANCH   7  10
ENDBRANCH   5   7
ENDBRANCH   3   5
ENDBRANCH   2   3
TORSDOF 4
ENDMDL
MODEL      119
REMARK 921   NORMALIZED FREE ENERGY PREDICTED BY IDOCK:   -3.47 KCAL/MOL
REMARK 922        TOTAL FREE ENERGY PREDICTED BY IDOCK:   -4.67 KCAL/MOL
REMARK 923 INTER-LIGAND FREE ENERGY PREDICTED BY IDOCK:   -4.33 KCAL/MOL
REMARK 924 INTRA-LIGAND FREE ENERGY PREDICTED BY IDOCK:   -0.34 KCAL/MOL
REMARK 927      BINDING AFFINITY PREDICTED BY RF-SCORE:    0.00 PKD
ROOT
HETATM    1  C   UNL     1      -6.875  16.598  66.905  1.00  0.00    -0.253 C  
HETATM    2  C   UNL     1      -8.376  16.845  67.061  1.00  0.00    -0.200 C  
ENDROOT
BRANCH   2   3
HETATM    3  N   UNL     1      -9.209  15.646  67.341  1.00  0.00    -0.196 NA 
HETATM    4  C   UNL     1      -9.202  15.360  68.783  1.00  0.00    -0.206 C  
BRANCH   3   5
HETATM    5  C   UNL     1     -10.619  15.859  66.846  1.00  0.00    -0.309 C  
HETATM    6  C   UNL     1     -10.641  16.771  65.598  1.00  0.00    -0.258 C  
BRANCH   5   7
HETATM    7  C   UNL     1     -11.577  14.629  66.543  1.00  0.00    -0.344 C  
HETATM    8  H   UNL     1     -12.726  13.333  67.547  1.00  0.00     0.000 HD 
HETATM    9  O   UNL     1     -12.153  14.069  67.728  1.00  0.00    -0.371 OA 
BRANCH   7  10
HETATM   10  C   UNL     1     -11.118  13.516  65.616  1.00  0.00    -0.299 A  
HETATM   11  C   UNL     1     -10.163  12.591  66.086  1.00  0.00    -0.269 A  
HETATM   12  C   UNL     1      -9.696  11.558  65.267  1.00  0.00    -0.268 A  
HETATM   13  C   UNL     1     -10.165  11.439  63.965  1.00  0.00    -0.398 A  
HETATM   14  C   UNL     1     -11.097  12.356  63.479  1.00  0.00    -0.521 A  
HETATM   15  C   UNL     1     -11.565  13.392  64.297  1.00  0.00    -0.442 A  
ENDBRANCH   7  10
ENDBRANCH   5   7
ENDBRANCH   3   5
ENDBRANCH   2   3
TORSDOF 4
ENDMDL
MODEL      120
REMARK 921   NORMALIZED FREE ENERGY PREDICTED BY IDOCK:   -3.47 KCAL/MOL
REMARK 922        TOTAL FREE ENERGY PREDICTED BY IDOCK:   -4.67 KCAL/MOL
REMARK 923 INTER-LIGAND FREE ENERGY PREDICTED BY IDOCK:   -4.56 KCAL/MOL
REMARK 924 INTRA-LIGAND FREE ENERGY PREDICTED BY IDOCK:   -0.11 KCAL/MOL
REMARK 927      BINDING AFFINITY PREDICTED BY RF-SCORE:    0.00 PKD
ROOT
HETATM    1  C   UNL     1      -6.997  20.601  66.793  1.00  0.00    -0.343 C  
HETATM    2  C   UNL     1      -7.916  19.468  66.334  1.00  0.00    -0.312 C  
ENDROOT
BRANCH   2   3
HETATM    3  N   UNL     1      -9.179  19.303  67.100  1.00  0.00    -0.295 NA 
HETATM    4  C   UNL     1     -10.286  19.953  66.382  1.00  0.00    -0.500 C  
BRANCH   3   5
HETATM    5  C   UNL     1      -9.473  17.838  67.320  1.00  0.00    -0.255 C  
HETATM    6  C   UNL     1     -10.784  17.645  68.114  1.00  0.00    -0.312 C  
BRANCH   5   7
HETATM    7  C   UNL     1      -9.507  16.817  66.104  1.00  0.00    -0.264 C  
HETATM    8  H   UNL     1     -10.466  16.581  64.363  1.00  0.00     0.000 HD 
HETATM    9  O   UNL     1     -10.446  17.191  65.090  1.00  0.00    -0.666 OA 
BRANCH   7  10
HETATM   10  C   UNL     1      -9.598  15.323  66.366  1.00  0.00    -0.317 A  
HETATM   11  C   UNL     1     -10.735  14.622  65.914  1.00  0.00    -0.312 A  
HETATM   12  C   UNL     1     -10.875  13.250  66.144  1.00  0.00    -0.290 A  
HETATM   13  C   UNL     1      -9.889  12.559  66.838  1.00  0.00    -0.229 A  
HETATM   14  C   UNL     1      -8.767  13.241  67.306  1.00  0.00    -0.214 A  
HETATM   15  C   UNL     1      -8.625  14.615  67.078  1.00  0.00    -0.249 A  
ENDBRANCH   7  10
ENDBRANCH   5   7
ENDBRANCH   3   5
ENDBRANCH   2   3
TORSDOF 4
ENDMDL
MODEL      121
REMARK 921   NORMALIZED FREE ENERGY PREDICTED BY IDOCK:   -3.46 KCAL/MOL
REMARK 922        TOTAL FREE ENERGY PREDICTED BY IDOCK:   -4.67 KCAL/MOL
REMARK 923 INTER-LIGAND FREE ENERGY PREDICTED BY IDOCK:   -4.13 KCAL/MOL
REMARK 924 INTRA-LIGAND FREE ENERGY PREDICTED BY IDOCK:   -0.54 KCAL/MOL
REMARK 927      BINDING AFFINITY PREDICTED BY RF-SCORE:    0.00 PKD
ROOT
HETATM    1  C   UNL     1     -10.458  11.023  68.001  1.00  0.00    -0.219 C  
HETATM    2  C   UNL     1      -8.989  10.603  68.013  1.00  0.00    -0.140 C  
ENDROOT
BRANCH   2   3
HETATM    3  N   UNL     1      -8.673   9.354  68.755  1.00  0.00    -0.130 NA 
HETATM    4  C   UNL     1      -8.069   9.685  70.054  1.00  0.00    -0.178 C  
BRANCH   3   5
HETATM    5  C   UNL     1      -9.922   8.525  68.942  1.00  0.00    -0.190 C  
HETATM    6  C   UNL     1      -9.974   7.359  67.930  1.00  0.00    -0.201 C  
BRANCH   5   7
HETATM    7  C   UNL     1     -10.305   7.929  70.364  1.00  0.00    -0.212 C  
HETATM    8  H   UNL     1     -10.321   6.160  71.300  1.00  0.00     0.000 HD 
HETATM    9  O   UNL     1     -10.092   6.516  70.450  1.00  0.00    -0.181 OA 
BRANCH   7  10
HETATM   10  C   UNL     1     -11.632   8.292  71.009  1.00  0.00    -0.301 A  
HETATM   11  C   UNL     1     -12.575   7.270  71.244  1.00  0.00    -0.402 A  
HETATM   12  C   UNL     1     -13.817   7.553  71.820  1.00  0.00    -0.438 A  
HETATM   13  C   UNL     1     -14.142   8.861  72.161  1.00  0.00    -0.497 A  
HETATM   14  C   UNL     1     -13.226   9.885  71.921  1.00  0.00    -0.558 A  
HETATM   15  C   UNL     1     -11.982   9.604  71.342  1.00  0.00    -0.480 A  
ENDBRANCH   7  10
ENDBRANCH   5   7
ENDBRANCH   3   5
ENDBRANCH   2   3
TORSDOF 4
ENDMDL
MODEL      122
REMARK 921   NORMALIZED FREE ENERGY PREDICTED BY IDOCK:   -3.46 KCAL/MOL
REMARK 922        TOTAL FREE ENERGY PREDICTED BY IDOCK:   -4.66 KCAL/MOL
REMARK 923 INTER-LIGAND FREE ENERGY PREDICTED BY IDOCK:   -4.33 KCAL/MOL
REMARK 924 INTRA-LIGAND FREE ENERGY PREDICTED BY IDOCK:   -0.34 KCAL/MOL
REMARK 927      BINDING AFFINITY PREDICTED BY RF-SCORE:    0.00 PKD
ROOT
HETATM    1  C   UNL     1     -10.587   7.588  71.110  1.00  0.00    -0.234 C  
HETATM    2  C   UNL     1     -10.374   9.027  71.578  1.00  0.00    -0.342 C  
ENDROOT
BRANCH   2   3
HETATM    3  N   UNL     1     -10.323  10.060  70.510  1.00  0.00    -0.228 NA 
HETATM    4  C   UNL     1      -9.402   9.632  69.447  1.00  0.00    -0.193 C  
BRANCH   3   5
HETATM    5  C   UNL     1     -11.705  10.307  69.952  1.00  0.00    -0.225 C  
HETATM    6  C   UNL     1     -12.742  10.475  71.085  1.00  0.00    -0.518 C  
BRANCH   5   7
HETATM    7  C   UNL     1     -11.969  11.466  68.899  1.00  0.00    -0.304 C  
HETATM    8  H   UNL     1     -11.963  11.728  66.915  1.00  0.00     0.000 HD 
HETATM    9  O   UNL     1     -11.805  11.034  67.544  1.00  0.00    -0.571 OA 
BRANCH   7  10
HETATM   10  C   UNL     1     -11.324  12.829  69.089  1.00  0.00    -0.337 A  
HETATM   11  C   UNL     1     -12.026  13.819  69.805  1.00  0.00    -0.406 A  
HETATM   12  C   UNL     1     -11.484  15.094  69.995  1.00  0.00    -0.315 A  
HETATM   13  C   UNL     1     -10.238  15.403  69.463  1.00  0.00    -0.273 A  
HETATM   14  C   UNL     1      -9.538  14.440  68.737  1.00  0.00    -0.177 A  
HETATM   15  C   UNL     1     -10.080  13.163  68.545  1.00  0.00    -0.203 A  
ENDBRANCH   7  10
ENDBRANCH   5   7
ENDBRANCH   3   5
ENDBRANCH   2   3
TORSDOF 4
ENDMDL
MODEL      123
REMARK 921   NORMALIZED FREE ENERGY PREDICTED BY IDOCK:   -3.43 KCAL/MOL
REMARK 922        TOTAL FREE ENERGY PREDICTED BY IDOCK:   -4.63 KCAL/MOL
REMARK 923 INTER-LIGAND FREE ENERGY PREDICTED BY IDOCK:   -4.33 KCAL/MOL
REMARK 924 INTRA-LIGAND FREE ENERGY PREDICTED BY IDOCK:   -0.30 KCAL/MOL
REMARK 927      BINDING AFFINITY PREDICTED BY RF-SCORE:    0.00 PKD
ROOT
HETATM    1  C   UNL     1      -8.191   5.477  66.981  1.00  0.00    -0.105 C  
HETATM    2  C   UNL     1      -8.540   6.347  68.189  1.00  0.00    -0.117 C  
ENDROOT
BRANCH   2   3
HETATM    3  N   UNL     1      -9.871   7.008  68.154  1.00  0.00    -0.137 NA 
HETATM    4  C   UNL     1     -10.670   6.461  67.048  1.00  0.00    -0.363 C  
BRANCH   3   5
HETATM    5  C   UNL     1     -10.584   6.822  69.472  1.00  0.00    -0.232 C  
HETATM    6  C   UNL     1     -10.409   5.381  70.002  1.00  0.00    -0.366 C  
BRANCH   5   7
HETATM    7  C   UNL     1     -10.324   7.804  70.692  1.00  0.00    -0.202 C  
HETATM    8  H   UNL     1      -9.689   7.715  72.588  1.00  0.00     0.000 HD 
HETATM    9  O   UNL     1      -9.844   7.127  71.858  1.00  0.00    -0.161 OA 
BRANCH   7  10
HETATM   10  C   UNL     1     -11.379   8.826  71.085  1.00  0.00    -0.345 A  
HETATM   11  C   UNL     1     -11.337  10.106  70.496  1.00  0.00    -0.416 A  
HETATM   12  C   UNL     1     -12.275  11.087  70.835  1.00  0.00    -0.471 A  
HETATM   13  C   UNL     1     -13.260  10.809  71.774  1.00  0.00    -0.523 A  
HETATM   14  C   UNL     1     -13.305   9.553  72.377  1.00  0.00    -0.469 A  
HETATM   15  C   UNL     1     -12.367   8.570  72.041  1.00  0.00    -0.423 A  
ENDBRANCH   7  10
ENDBRANCH   5   7
ENDBRANCH   3   5
ENDBRANCH   2   3
TORSDOF 4
ENDMDL
MODEL      124
REMARK 921   NORMALIZED FREE ENERGY PREDICTED BY IDOCK:   -3.43 KCAL/MOL
REMARK 922        TOTAL FREE ENERGY PREDICTED BY IDOCK:   -4.62 KCAL/MOL
REMARK 923 INTER-LIGAND FREE ENERGY PREDICTED BY IDOCK:   -4.25 KCAL/MOL
REMARK 924 INTRA-LIGAND FREE ENERGY PREDICTED BY IDOCK:   -0.37 KCAL/MOL
REMARK 927      BINDING AFFINITY PREDICTED BY RF-SCORE:    0.00 PKD
ROOT
HETATM    1  C   UNL     1      -7.990   7.490  69.773  1.00  0.00    -0.124 C  
HETATM    2  C   UNL     1      -8.861   8.746  69.747  1.00  0.00    -0.142 C  
ENDROOT
BRANCH   2   3
HETATM    3  N   UNL     1      -9.273   9.226  68.401  1.00  0.00    -0.132 NA 
HETATM    4  C   UNL     1     -10.399   8.420  67.907  1.00  0.00    -0.221 C  
BRANCH   3   5
HETATM    5  C   UNL     1      -9.646  10.688  68.457  1.00  0.00    -0.175 C  
HETATM    6  C   UNL     1      -8.899  11.496  67.373  1.00  0.00    -0.157 C  
BRANCH   5   7
HETATM    7  C   UNL     1     -11.166  11.148  68.420  1.00  0.00    -0.262 C  
HETATM    8  H   UNL     1     -12.355  12.328  67.325  1.00  0.00     0.000 HD 
HETATM    9  O   UNL     1     -11.447  12.053  67.347  1.00  0.00    -0.306 OA 
BRANCH   7  10
HETATM   10  C   UNL     1     -11.847  11.628  69.692  1.00  0.00    -0.419 A  
HETATM   11  C   UNL     1     -12.376  10.670  70.581  1.00  0.00    -0.462 A  
HETATM   12  C   UNL     1     -13.026  11.060  71.757  1.00  0.00    -0.544 A  
HETATM   13  C   UNL     1     -13.169  12.409  72.056  1.00  0.00    -0.514 A  
HETATM   14  C   UNL     1     -12.665  13.369  71.179  1.00  0.00    -0.411 A  
HETATM   15  C   UNL     1     -12.015  12.981  70.000  1.00  0.00    -0.383 A  
ENDBRANCH   7  10
ENDBRANCH   5   7
ENDBRANCH   3   5
ENDBRANCH   2   3
TORSDOF 4
ENDMDL
MODEL      125
REMARK 921   NORMALIZED FREE ENERGY PREDICTED BY IDOCK:   -3.42 KCAL/MOL
REMARK 922        TOTAL FREE ENERGY PREDICTED BY IDOCK:   -4.61 KCAL/MOL
REMARK 923 INTER-LIGAND FREE ENERGY PREDICTED BY IDOCK:   -4.44 KCAL/MOL
REMARK 924 INTRA-LIGAND FREE ENERGY PREDICTED BY IDOCK:   -0.18 KCAL/MOL
REMARK 927      BINDING AFFINITY PREDICTED BY RF-SCORE:    0.00 PKD
ROOT
HETATM    1  C   UNL     1      -5.968  19.010  69.150  1.00  0.00    -0.251 C  
HETATM    2  C   UNL     1      -7.362  19.318  68.605  1.00  0.00    -0.338 C  
ENDROOT
BRANCH   2   3
HETATM    3  N   UNL     1      -8.193  18.141  68.237  1.00  0.00    -0.283 NA 
HETATM    4  C   UNL     1      -7.584  16.914  68.772  1.00  0.00    -0.243 C  
BRANCH   3   5
HETATM    5  C   UNL     1      -9.601  18.309  68.757  1.00  0.00    -0.300 C  
HETATM    6  C   UNL     1     -10.254  19.591  68.194  1.00  0.00    -0.556 C  
BRANCH   5   7
HETATM    7  C   UNL     1     -10.669  17.141  68.623  1.00  0.00    -0.306 C  
HETATM    8  H   UNL     1     -11.365  15.607  69.704  1.00  0.00     0.000 HD 
HETATM    9  O   UNL     1     -10.726  16.305  69.784  1.00  0.00    -0.317 OA 
BRANCH   7  10
HETATM   10  C   UNL     1     -10.710  16.286  67.368  1.00  0.00    -0.287 A  
HETATM   11  C   UNL     1     -10.760  14.883  67.502  1.00  0.00    -0.276 A  
HETATM   12  C   UNL     1     -10.783  14.051  66.378  1.00  0.00    -0.278 A  
HETATM   13  C   UNL     1     -10.745  14.605  65.105  1.00  0.00    -0.430 A  
HETATM   14  C   UNL     1     -10.679  15.990  64.955  1.00  0.00    -0.339 A  
HETATM   15  C   UNL     1     -10.654  16.825  66.079  1.00  0.00    -0.232 A  
ENDBRANCH   7  10
ENDBRANCH   5   7
ENDBRANCH   3   5
ENDBRANCH   2   3
TORSDOF 4
ENDMDL
MODEL      126
REMARK 921   NORMALIZED FREE ENERGY PREDICTED BY IDOCK:   -3.42 KCAL/MOL
REMARK 922        TOTAL FREE ENERGY PREDICTED BY IDOCK:   -4.61 KCAL/MOL
REMARK 923 INTER-LIGAND FREE ENERGY PREDICTED BY IDOCK:   -4.20 KCAL/MOL
REMARK 924 INTRA-LIGAND FREE ENERGY PREDICTED BY IDOCK:   -0.41 KCAL/MOL
REMARK 927      BINDING AFFINITY PREDICTED BY RF-SCORE:    0.00 PKD
ROOT
HETATM    1  C   UNL     1     -10.847   6.158  67.564  1.00  0.00    -0.422 C  
HETATM    2  C   UNL     1     -10.123   7.261  68.336  1.00  0.00    -0.171 C  
ENDROOT
BRANCH   2   3
HETATM    3  N   UNL     1     -10.166   7.156  69.818  1.00  0.00    -0.202 NA 
HETATM    4  C   UNL     1      -8.955   7.758  70.396  1.00  0.00    -0.147 C  
BRANCH   3   5
HETATM    5  C   UNL     1     -11.406   7.830  70.357  1.00  0.00    -0.207 C  
HETATM    6  C   UNL     1     -12.252   6.849  71.198  1.00  0.00    -0.428 C  
BRANCH   5   7
HETATM    7  C   UNL     1     -11.312   9.189  71.174  1.00  0.00    -0.322 C  
HETATM    8  H   UNL     1     -12.103  10.015  72.816  1.00  0.00     0.000 HD 
HETATM    9  O   UNL     1     -12.160   9.203  72.328  1.00  0.00    -0.330 OA 
BRANCH   7  10
HETATM   10  C   UNL     1     -11.403  10.522  70.449  1.00  0.00    -0.411 A  
HETATM   11  C   UNL     1     -12.270  11.512  70.956  1.00  0.00    -0.368 A  
HETATM   12  C   UNL     1     -12.402  12.749  70.317  1.00  0.00    -0.277 A  
HETATM   13  C   UNL     1     -11.682  13.012  69.159  1.00  0.00    -0.378 A  
HETATM   14  C   UNL     1     -10.832  12.038  68.637  1.00  0.00    -0.273 A  
HETATM   15  C   UNL     1     -10.699  10.797  69.273  1.00  0.00    -0.268 A  
ENDBRANCH   7  10
ENDBRANCH   5   7
ENDBRANCH   3   5
ENDBRANCH   2   3
TORSDOF 4
ENDMDL
MODEL      127
REMARK 921   NORMALIZED FREE ENERGY PREDICTED BY IDOCK:   -3.41 KCAL/MOL
REMARK 922        TOTAL FREE ENERGY PREDICTED BY IDOCK:   -4.61 KCAL/MOL
REMARK 923 INTER-LIGAND FREE ENERGY PREDICTED BY IDOCK:   -4.04 KCAL/MOL
REMARK 924 INTRA-LIGAND FREE ENERGY PREDICTED BY IDOCK:   -0.56 KCAL/MOL
REMARK 927      BINDING AFFINITY PREDICTED BY RF-SCORE:    0.00 PKD
ROOT
HETATM    1  C   UNL     1     -13.154   7.716  71.659  1.00  0.00    -0.392 C  
HETATM    2  C   UNL     1     -12.253   6.532  71.306  1.00  0.00    -0.228 C  
ENDROOT
BRANCH   2   3
HETATM    3  N   UNL     1     -10.866   6.587  71.838  1.00  0.00    -0.230 NA 
HETATM    4  C   UNL     1      -9.963   5.835  70.955  1.00  0.00    -0.189 C  
BRANCH   3   5
HETATM    5  C   UNL     1     -10.411   8.021  71.972  1.00  0.00    -0.246 C  
HETATM    6  C   UNL     1      -9.538   8.213  73.233  1.00  0.00    -0.261 C  
BRANCH   5   7
HETATM    7  C   UNL     1      -9.677   8.763  70.776  1.00  0.00    -0.208 C  
HETATM    8  H   UNL     1      -7.992   9.794  70.452  1.00  0.00     0.000 HD 
HETATM    9  O   UNL     1      -8.431   9.350  71.167  1.00  0.00    -0.303 OA 
BRANCH   7  10
HETATM   10  C   UNL     1     -10.448   9.730  69.892  1.00  0.00    -0.298 A  
HETATM   11  C   UNL     1     -10.244   9.686  68.498  1.00  0.00    -0.216 A  
HETATM   12  C   UNL     1     -10.917  10.564  67.642  1.00  0.00    -0.375 A  
HETATM   13  C   UNL     1     -11.794  11.506  68.166  1.00  0.00    -0.306 A  
HETATM   14  C   UNL     1     -11.994  11.574  69.544  1.00  0.00    -0.402 A  
HETATM   15  C   UNL     1     -11.320  10.696  70.403  1.00  0.00    -0.389 A  
ENDBRANCH   7  10
ENDBRANCH   5   7
ENDBRANCH   3   5
ENDBRANCH   2   3
TORSDOF 4
ENDMDL
MODEL      128
REMARK 921   NORMALIZED FREE ENERGY PREDICTED BY IDOCK:   -3.41 KCAL/MOL
REMARK 922        TOTAL FREE ENERGY PREDICTED BY IDOCK:   -4.60 KCAL/MOL
REMARK 923 INTER-LIGAND FREE ENERGY PREDICTED BY IDOCK:   -4.21 KCAL/MOL
REMARK 924 INTRA-LIGAND FREE ENERGY PREDICTED BY IDOCK:   -0.39 KCAL/MOL
REMARK 927      BINDING AFFINITY PREDICTED BY RF-SCORE:    0.00 PKD
ROOT
HETATM    1  C   UNL     1     -10.731   6.212  67.161  1.00  0.00    -0.422 C  
HETATM    2  C   UNL     1     -10.056   5.834  68.479  1.00  0.00    -0.178 C  
ENDROOT
BRANCH   2   3
HETATM    3  N   UNL     1     -10.425   6.657  69.660  1.00  0.00    -0.200 NA 
HETATM    4  C   UNL     1     -11.097   5.818  70.663  1.00  0.00    -0.202 C  
BRANCH   3   5
HETATM    5  C   UNL     1      -9.197   7.311  70.249  1.00  0.00    -0.155 C  
HETATM    6  C   UNL     1      -8.002   7.233  69.272  1.00  0.00    -0.118 C  
BRANCH   5   7
HETATM    7  C   UNL     1      -9.247   8.796  70.810  1.00  0.00    -0.198 C  
HETATM    8  H   UNL     1      -8.736   9.798  72.465  1.00  0.00     0.000 HD 
HETATM    9  O   UNL     1      -8.706   8.910  72.130  1.00  0.00    -0.386 OA 
BRANCH   7  10
HETATM   10  C   UNL     1     -10.529   9.607  70.705  1.00  0.00    -0.379 A  
HETATM   11  C   UNL     1     -11.524   9.433  71.688  1.00  0.00    -0.463 A  
HETATM   12  C   UNL     1     -12.728  10.143  71.629  1.00  0.00    -0.549 A  
HETATM   13  C   UNL     1     -12.961  11.027  70.583  1.00  0.00    -0.213 A  
HETATM   14  C   UNL     1     -11.993  11.198  69.593  1.00  0.00    -0.429 A  
HETATM   15  C   UNL     1     -10.788  10.487  69.650  1.00  0.00    -0.320 A  
ENDBRANCH   7  10
ENDBRANCH   5   7
ENDBRANCH   3   5
ENDBRANCH   2   3
TORSDOF 4
ENDMDL
MODEL      129
REMARK 921   NORMALIZED FREE ENERGY PREDICTED BY IDOCK:   -3.40 KCAL/MOL
REMARK 922        TOTAL FREE ENERGY PREDICTED BY IDOCK:   -4.59 KCAL/MOL
REMARK 923 INTER-LIGAND FREE ENERGY PREDICTED BY IDOCK:   -4.19 KCAL/MOL
REMARK 924 INTRA-LIGAND FREE ENERGY PREDICTED BY IDOCK:   -0.40 KCAL/MOL
REMARK 927      BINDING AFFINITY PREDICTED BY RF-SCORE:    0.00 PKD
ROOT
HETATM    1  C   UNL     1     -10.505  11.383  63.554  1.00  0.00    -0.477 C  
HETATM    2  C   UNL     1     -11.462  12.258  64.364  1.00  0.00    -0.354 C  
ENDROOT
BRANCH   2   3
HETATM    3  N   UNL     1     -10.854  13.428  65.049  1.00  0.00    -0.311 NA 
HETATM    4  C   UNL     1     -11.588  14.652  64.693  1.00  0.00    -0.402 C  
BRANCH   3   5
HETATM    5  C   UNL     1     -10.858  13.221  66.545  1.00  0.00    -0.281 C  
HETATM    6  C   UNL     1     -11.967  14.058  67.221  1.00  0.00    -0.448 C  
BRANCH   5   7
HETATM    7  C   UNL     1     -10.924  11.763  67.172  1.00  0.00    -0.276 C  
HETATM    8  H   UNL     1     -12.191  10.639  68.239  1.00  0.00     0.000 HD 
HETATM    9  O   UNL     1     -12.151  11.511  67.864  1.00  0.00    -0.630 OA 
BRANCH   7  10
HETATM   10  C   UNL     1      -9.754  11.228  67.981  1.00  0.00    -0.185 A  
HETATM   11  C   UNL     1      -8.444  11.555  67.579  1.00  0.00    -0.143 A  
HETATM   12  C   UNL     1      -7.333  11.076  68.280  1.00  0.00    -0.088 A  
HETATM   13  C   UNL     1      -7.513  10.254  69.386  1.00  0.00    -0.128 A  
HETATM   14  C   UNL     1      -8.803   9.908  69.788  1.00  0.00    -0.229 A  
HETATM   15  C   UNL     1      -9.916  10.386  69.086  1.00  0.00    -0.237 A  
ENDBRANCH   7  10
ENDBRANCH   5   7
ENDBRANCH   3   5
ENDBRANCH   2   3
TORSDOF 4
ENDMDL
MODEL      130
REMARK 921   NORMALIZED FREE ENERGY PREDICTED BY IDOCK:   -3.40 KCAL/MOL
REMARK 922        TOTAL FREE ENERGY PREDICTED BY IDOCK:   -4.58 KCAL/MOL
REMARK 923 INTER-LIGAND FREE ENERGY PREDICTED BY IDOCK:   -4.16 KCAL/MOL
REMARK 924 INTRA-LIGAND FREE ENERGY PREDICTED BY IDOCK:   -0.42 KCAL/MOL
REMARK 927      BINDING AFFINITY PREDICTED BY RF-SCORE:    0.00 PKD
ROOT
HETATM    1  C   UNL     1     -11.401   7.830  71.991  1.00  0.00    -0.332 C  
HETATM    2  C   UNL     1     -11.657   7.709  70.488  1.00  0.00    -0.175 C  
ENDROOT
BRANCH   2   3
HETATM    3  N   UNL     1     -10.473   7.384  69.649  1.00  0.00    -0.227 NA 
HETATM    4  C   UNL     1     -10.834   6.367  68.651  1.00  0.00    -0.314 C  
BRANCH   3   5
HETATM    5  C   UNL     1      -9.949   8.631  68.975  1.00  0.00    -0.192 C  
HETATM    6  C   UNL     1      -8.524   8.408  68.422  1.00  0.00    -0.135 C  
BRANCH   5   7
HETATM    7  C   UNL     1     -10.784   9.362  67.839  1.00  0.00    -0.210 C  
HETATM    8  H   UNL     1     -10.741   9.591  65.851  1.00  0.00     0.000 HD 
HETATM    9  O   UNL     1     -10.242   9.154  66.530  1.00  0.00    -0.278 OA 
BRANCH   7  10
HETATM   10  C   UNL     1     -11.186  10.818  68.007  1.00  0.00    -0.372 A  
HETATM   11  C   UNL     1     -11.441  11.307  69.304  1.00  0.00    -0.369 A  
HETATM   12  C   UNL     1     -11.829  12.635  69.511  1.00  0.00    -0.376 A  
HETATM   13  C   UNL     1     -11.978  13.490  68.426  1.00  0.00    -0.378 A  
HETATM   14  C   UNL     1     -11.744  13.018  67.135  1.00  0.00    -0.439 A  
HETATM   15  C   UNL     1     -11.358  11.688  66.926  1.00  0.00    -0.364 A  
ENDBRANCH   7  10
ENDBRANCH   5   7
ENDBRANCH   3   5
ENDBRANCH   2   3
TORSDOF 4
ENDMDL
MODEL      131
REMARK 921   NORMALIZED FREE ENERGY PREDICTED BY IDOCK:   -3.39 KCAL/MOL
REMARK 922        TOTAL FREE ENERGY PREDICTED BY IDOCK:   -4.58 KCAL/MOL
REMARK 923 INTER-LIGAND FREE ENERGY PREDICTED BY IDOCK:   -4.19 KCAL/MOL
REMARK 924 INTRA-LIGAND FREE ENERGY PREDICTED BY IDOCK:   -0.39 KCAL/MOL
REMARK 927      BINDING AFFINITY PREDICTED BY RF-SCORE:    0.00 PKD
ROOT
HETATM    1  C   UNL     1      -6.250  14.739  70.342  1.00  0.00    -0.152 C  
HETATM    2  C   UNL     1      -7.374  14.841  69.311  1.00  0.00    -0.168 C  
ENDROOT
BRANCH   2   3
HETATM    3  N   UNL     1      -7.945  16.197  69.100  1.00  0.00    -0.236 NA 
HETATM    4  C   UNL     1      -6.860  17.168  68.893  1.00  0.00    -0.221 C  
BRANCH   3   5
HETATM    5  C   UNL     1      -8.888  16.192  67.920  1.00  0.00    -0.182 C  
HETATM    6  C   UNL     1      -8.672  14.941  67.039  1.00  0.00    -0.263 C  
BRANCH   5   7
HETATM    7  C   UNL     1     -10.454  16.358  68.122  1.00  0.00    -0.302 C  
HETATM    8  H   UNL     1     -11.818  17.822  68.177  1.00  0.00     0.000 HD 
HETATM    9  O   UNL     1     -10.882  17.723  68.056  1.00  0.00    -0.354 OA 
BRANCH   7  10
HETATM   10  C   UNL     1     -11.153  15.653  69.273  1.00  0.00    -0.293 A  
HETATM   11  C   UNL     1     -11.177  16.276  70.537  1.00  0.00    -0.327 A  
HETATM   12  C   UNL     1     -11.794  15.663  71.632  1.00  0.00    -0.504 A  
HETATM   13  C   UNL     1     -12.384  14.414  71.485  1.00  0.00    -0.427 A  
HETATM   14  C   UNL     1     -12.355  13.777  70.245  1.00  0.00    -0.407 A  
HETATM   15  C   UNL     1     -11.737  14.389  69.147  1.00  0.00    -0.354 A  
ENDBRANCH   7  10
ENDBRANCH   5   7
ENDBRANCH   3   5
ENDBRANCH   2   3
TORSDOF 4
ENDMDL
MODEL      132
REMARK 921   NORMALIZED FREE ENERGY PREDICTED BY IDOCK:   -3.39 KCAL/MOL
REMARK 922        TOTAL FREE ENERGY PREDICTED BY IDOCK:   -4.58 KCAL/MOL
REMARK 923 INTER-LIGAND FREE ENERGY PREDICTED BY IDOCK:   -4.23 KCAL/MOL
REMARK 924 INTRA-LIGAND FREE ENERGY PREDICTED BY IDOCK:   -0.35 KCAL/MOL
REMARK 927      BINDING AFFINITY PREDICTED BY RF-SCORE:    0.00 PKD
ROOT
HETATM    1  C   UNL     1      -9.113   8.970  65.733  1.00  0.00    -0.272 C  
HETATM    2  C   UNL     1      -9.184   9.626  67.112  1.00  0.00    -0.134 C  
ENDROOT
BRANCH   2   3
HETATM    3  N   UNL     1     -10.036   8.939  68.117  1.00  0.00    -0.169 NA 
HETATM    4  C   UNL     1     -10.434   7.616  67.614  1.00  0.00    -0.244 C  
BRANCH   3   5
HETATM    5  C   UNL     1      -9.299   8.811  69.430  1.00  0.00    -0.157 C  
HETATM    6  C   UNL     1      -7.879   9.413  69.333  1.00  0.00    -0.087 C  
BRANCH   5   7
HETATM    7  C   UNL     1      -9.940   9.337  70.785  1.00  0.00    -0.290 C  
HETATM    8  H   UNL     1      -9.488   9.412  72.733  1.00  0.00     0.000 HD 
HETATM    9  O   UNL     1      -9.105   9.098  71.923  1.00  0.00    -0.354 OA 
BRANCH   7  10
HETATM   10  C   UNL     1     -11.383   9.004  71.124  1.00  0.00    -0.375 A  
HETATM   11  C   UNL     1     -11.802   7.659  71.070  1.00  0.00    -0.306 A  
HETATM   12  C   UNL     1     -13.123   7.303  71.358  1.00  0.00    -0.412 A  
HETATM   13  C   UNL     1     -14.049   8.283  71.692  1.00  0.00    -0.489 A  
HETATM   14  C   UNL     1     -13.655   9.620  71.733  1.00  0.00    -0.424 A  
HETATM   15  C   UNL     1     -12.333   9.980  71.444  1.00  0.00    -0.512 A  
ENDBRANCH   7  10
ENDBRANCH   5   7
ENDBRANCH   3   5
ENDBRANCH   2   3
TORSDOF 4
ENDMDL
MODEL      133
REMARK 921   NORMALIZED FREE ENERGY PREDICTED BY IDOCK:   -3.38 KCAL/MOL
REMARK 922        TOTAL FREE ENERGY PREDICTED BY IDOCK:   -4.56 KCAL/MOL
REMARK 923 INTER-LIGAND FREE ENERGY PREDICTED BY IDOCK:   -4.47 KCAL/MOL
REMARK 924 INTRA-LIGAND FREE ENERGY PREDICTED BY IDOCK:   -0.09 KCAL/MOL
REMARK 927      BINDING AFFINITY PREDICTED BY RF-SCORE:    0.00 PKD
ROOT
HETATM    1  C   UNL     1      -7.346  11.862  67.152  1.00  0.00    -0.142 C  
HETATM    2  C   UNL     1      -8.788  11.613  67.596  1.00  0.00    -0.159 C  
ENDROOT
BRANCH   2   3
HETATM    3  N   UNL     1      -9.495  12.774  68.196  1.00  0.00    -0.216 NA 
HETATM    4  C   UNL     1      -9.090  14.012  67.515  1.00  0.00    -0.196 C  
BRANCH   3   5
HETATM    5  C   UNL     1     -10.991  12.582  68.107  1.00  0.00    -0.228 C  
HETATM    6  C   UNL     1     -11.346  11.396  67.181  1.00  0.00    -0.327 C  
BRANCH   5   7
HETATM    7  C   UNL     1     -11.879  12.436  69.416  1.00  0.00    -0.304 C  
HETATM    8  H   UNL     1     -12.325  13.491  71.057  1.00  0.00     0.000 HD 
HETATM    9  O   UNL     1     -11.795  13.579  70.275  1.00  0.00    -0.309 OA 
BRANCH   7  10
HETATM   10  C   UNL     1     -11.814  11.162  70.242  1.00  0.00    -0.455 A  
HETATM   11  C   UNL     1     -12.885  10.858  71.107  1.00  0.00    -0.508 A  
HETATM   12  C   UNL     1     -12.867   9.706  71.900  1.00  0.00    -0.515 A  
HETATM   13  C   UNL     1     -11.775   8.848  71.852  1.00  0.00    -0.439 A  
HETATM   14  C   UNL     1     -10.700   9.144  71.014  1.00  0.00    -0.363 A  
HETATM   15  C   UNL     1     -10.716  10.297  70.220  1.00  0.00    -0.310 A  
ENDBRANCH   7  10
ENDBRANCH   5   7
ENDBRANCH   3   5
ENDBRANCH   2   3
TORSDOF 4
ENDMDL
MODEL      134
REMARK 921   NORMALIZED FREE ENERGY PREDICTED BY IDOCK:   -3.36 KCAL/MOL
REMARK 922        TOTAL FREE ENERGY PREDICTED BY IDOCK:   -4.54 KCAL/MOL
REMARK 923 INTER-LIGAND FREE ENERGY PREDICTED BY IDOCK:   -4.16 KCAL/MOL
REMARK 924 INTRA-LIGAND FREE ENERGY PREDICTED BY IDOCK:   -0.38 KCAL/MOL
REMARK 927      BINDING AFFINITY PREDICTED BY RF-SCORE:    0.00 PKD
ROOT
HETATM    1  C   UNL     1     -12.599  10.203  71.229  1.00  0.00    -0.508 C  
HETATM    2  C   UNL     1     -11.705  10.814  70.150  1.00  0.00    -0.339 C  
ENDROOT
BRANCH   2   3
HETATM    3  N   UNL     1     -10.268  10.438  70.203  1.00  0.00    -0.106 NA 
HETATM    4  C   UNL     1     -10.111   9.172  70.935  1.00  0.00    -0.287 C  
BRANCH   3   5
HETATM    5  C   UNL     1      -9.704  10.321  68.807  1.00  0.00    -0.177 C  
HETATM    6  C   UNL     1      -8.444   9.426  68.788  1.00  0.00    -0.122 C  
BRANCH   5   7
HETATM    7  C   UNL     1     -10.617   9.871  67.588  1.00  0.00    -0.270 C  
HETATM    8  H   UNL     1     -11.285   8.179  66.753  1.00  0.00     0.000 HD 
HETATM    9  O   UNL     1     -10.739   8.448  67.481  1.00  0.00    -0.240 OA 
BRANCH   7  10
HETATM   10  C   UNL     1     -10.401  10.475  66.211  1.00  0.00    -0.276 A  
HETATM   11  C   UNL     1     -10.917  11.760  65.944  1.00  0.00    -0.354 A  
HETATM   12  C   UNL     1     -10.759  12.355  64.689  1.00  0.00    -0.339 A  
HETATM   13  C   UNL     1     -10.095  11.673  63.677  1.00  0.00    -0.435 A  
HETATM   14  C   UNL     1      -9.592  10.395  63.919  1.00  0.00    -0.370 A  
HETATM   15  C   UNL     1      -9.750   9.797  65.176  1.00  0.00    -0.338 A  
ENDBRANCH   7  10
ENDBRANCH   5   7
ENDBRANCH   3   5
ENDBRANCH   2   3
TORSDOF 4
ENDMDL
MODEL      135
REMARK 921   NORMALIZED FREE ENERGY PREDICTED BY IDOCK:   -3.36 KCAL/MOL
REMARK 922        TOTAL FREE ENERGY PREDICTED BY IDOCK:   -4.54 KCAL/MOL
REMARK 923 INTER-LIGAND FREE ENERGY PREDICTED BY IDOCK:   -4.19 KCAL/MOL
REMARK 924 INTRA-LIGAND FREE ENERGY PREDICTED BY IDOCK:   -0.35 KCAL/MOL
REMARK 927      BINDING AFFINITY PREDICTED BY RF-SCORE:    0.00 PKD
ROOT
HETATM    1  C   UNL     1      -7.457   9.903  70.107  1.00  0.00    -0.178 C  
HETATM    2  C   UNL     1      -7.764   8.620  70.880  1.00  0.00    -0.097 C  
ENDROOT
BRANCH   2   3
HETATM    3  N   UNL     1      -8.884   7.795  70.356  1.00  0.00    -0.145 NA 
HETATM    4  C   UNL     1      -8.351   6.612  69.665  1.00  0.00    -0.132 C  
BRANCH   3   5
HETATM    5  C   UNL     1      -9.806   7.385  71.481  1.00  0.00    -0.173 C  
HETATM    6  C   UNL     1      -9.294   7.911  72.840  1.00  0.00    -0.309 C  
BRANCH   5   7
HETATM    7  C   UNL     1     -11.363   7.689  71.417  1.00  0.00    -0.258 C  
HETATM    8  H   UNL     1     -12.996   6.992  70.493  1.00  0.00     0.000 HD 
HETATM    9  O   UNL     1     -12.065   6.810  70.531  1.00  0.00    -0.386 OA 
BRANCH   7  10
HETATM   10  C   UNL     1     -11.854   9.115  71.226  1.00  0.00    -0.396 A  
HETATM   11  C   UNL     1     -11.255   9.911  70.229  1.00  0.00    -0.364 A  
HETATM   12  C   UNL     1     -11.659  11.234  70.023  1.00  0.00    -0.404 A  
HETATM   13  C   UNL     1     -12.657  11.786  70.816  1.00  0.00    -0.344 A  
HETATM   14  C   UNL     1     -13.249  11.016  71.818  1.00  0.00    -0.505 A  
HETATM   15  C   UNL     1     -12.844   9.691  72.026  1.00  0.00    -0.497 A  
ENDBRANCH   7  10
ENDBRANCH   5   7
ENDBRANCH   3   5
ENDBRANCH   2   3
TORSDOF 4
ENDMDL
MODEL      136
REMARK 921   NORMALIZED FREE ENERGY PREDICTED BY IDOCK:   -3.32 KCAL/MOL
REMARK 922        TOTAL FREE ENERGY PREDICTED BY IDOCK:   -4.49 KCAL/MOL
REMARK 923 INTER-LIGAND FREE ENERGY PREDICTED BY IDOCK:   -4.19 KCAL/MOL
REMARK 924 INTRA-LIGAND FREE ENERGY PREDICTED BY IDOCK:   -0.30 KCAL/MOL
REMARK 927      BINDING AFFINITY PREDICTED BY RF-SCORE:    0.00 PKD
ROOT
HETATM    1  C   UNL     1     -10.294   8.591  66.869  1.00  0.00    -0.367 C  
HETATM    2  C   UNL     1     -10.517  10.103  66.853  1.00  0.00    -0.222 C  
ENDROOT
BRANCH   2   3
HETATM    3  N   UNL     1      -9.630  10.884  65.951  1.00  0.00    -0.206 NA 
HETATM    4  C   UNL     1      -9.465  10.172  64.675  1.00  0.00    -0.297 C  
BRANCH   3   5
HETATM    5  C   UNL     1     -10.198  12.265  65.722  1.00  0.00    -0.255 C  
HETATM    6  C   UNL     1     -11.741  12.227  65.643  1.00  0.00    -0.440 C  
BRANCH   5   7
HETATM    7  C   UNL     1      -9.807  13.480  66.666  1.00  0.00    -0.279 C  
HETATM    8  H   UNL     1      -8.205  14.168  67.649  1.00  0.00     0.000 HD 
HETATM    9  O   UNL     1      -8.438  13.441  67.084  1.00  0.00    -0.199 OA 
BRANCH   7  10
HETATM   10  C   UNL     1     -10.696  13.846  67.843  1.00  0.00    -0.248 A  
HETATM   11  C   UNL     1     -11.206  15.158  67.927  1.00  0.00    -0.334 A  
HETATM   12  C   UNL     1     -12.016  15.550  68.997  1.00  0.00    -0.323 A  
HETATM   13  C   UNL     1     -12.320  14.644  70.006  1.00  0.00    -0.365 A  
HETATM   14  C   UNL     1     -11.810  13.347  69.946  1.00  0.00    -0.385 A  
HETATM   15  C   UNL     1     -10.998  12.952  68.875  1.00  0.00    -0.271 A  
ENDBRANCH   7  10
ENDBRANCH   5   7
ENDBRANCH   3   5
ENDBRANCH   2   3
TORSDOF 4
ENDMDL
MODEL      137
REMARK 921   NORMALIZED FREE ENERGY PREDICTED BY IDOCK:   -3.31 KCAL/MOL
REMARK 922        TOTAL FREE ENERGY PREDICTED BY IDOCK:   -4.47 KCAL/MOL
REMARK 923 INTER-LIGAND FREE ENERGY PREDICTED BY IDOCK:   -4.13 KCAL/MOL
REMARK 924 INTRA-LIGAND FREE ENERGY PREDICTED BY IDOCK:   -0.34 KCAL/MOL
REMARK 927      BINDING AFFINITY PREDICTED BY RF-SCORE:    0.00 PKD
ROOT
HETATM    1  C   UNL     1     -11.215   7.926  72.810  1.00  0.00    -0.466 C  
HETATM    2  C   UNL     1     -10.879   7.891  71.319  1.00  0.00    -0.235 C  
ENDROOT
BRANCH   2   3
HETATM    3  N   UNL     1     -11.467   8.977  70.493  1.00  0.00    -0.245 NA 
HETATM    4  C   UNL     1     -11.940  10.065  71.362  1.00  0.00    -0.383 C  
BRANCH   3   5
HETATM    5  C   UNL     1     -10.451   9.491  69.500  1.00  0.00    -0.220 C  
HETATM    6  C   UNL     1      -9.031   9.501  70.110  1.00  0.00    -0.269 C  
BRANCH   5   7
HETATM    7  C   UNL     1     -10.332   8.861  68.047  1.00  0.00    -0.219 C  
HETATM    8  H   UNL     1      -9.225   7.500  67.083  1.00  0.00     0.000 HD 
HETATM    9  O   UNL     1      -9.296   7.877  67.952  1.00  0.00    -0.140 OA 
BRANCH   7  10
HETATM   10  C   UNL     1     -10.301   9.764  66.825  1.00  0.00    -0.289 A  
HETATM   11  C   UNL     1      -9.538   9.369  65.708  1.00  0.00    -0.340 A  
HETATM   12  C   UNL     1      -9.464  10.171  64.564  1.00  0.00    -0.364 A  
HETATM   13  C   UNL     1     -10.140  11.384  64.524  1.00  0.00    -0.337 A  
HETATM   14  C   UNL     1     -10.885  11.798  65.628  1.00  0.00    -0.342 A  
HETATM   15  C   UNL     1     -10.960  10.996  66.774  1.00  0.00    -0.279 A  
ENDBRANCH   7  10
ENDBRANCH   5   7
ENDBRANCH   3   5
ENDBRANCH   2   3
TORSDOF 4
ENDMDL
MODEL      138
REMARK 921   NORMALIZED FREE ENERGY PREDICTED BY IDOCK:   -3.29 KCAL/MOL
REMARK 922        TOTAL FREE ENERGY PREDICTED BY IDOCK:   -4.45 KCAL/MOL
REMARK 923 INTER-LIGAND FREE ENERGY PREDICTED BY IDOCK:   -3.95 KCAL/MOL
REMARK 924 INTRA-LIGAND FREE ENERGY PREDICTED BY IDOCK:   -0.50 KCAL/MOL
REMARK 927      BINDING AFFINITY PREDICTED BY RF-SCORE:    0.00 PKD
ROOT
HETATM    1  C   UNL     1     -11.994  12.975  68.854  1.00  0.00    -0.303 C  
HETATM    2  C   UNL     1     -11.664  13.818  67.622  1.00  0.00    -0.367 C  
ENDROOT
BRANCH   2   3
HETATM    3  N   UNL     1     -11.661  13.099  66.321  1.00  0.00    -0.339 NA 
HETATM    4  C   UNL     1     -12.592  13.751  65.389  1.00  0.00    -0.497 C  
BRANCH   3   5
HETATM    5  C   UNL     1     -10.266  13.063  65.744  1.00  0.00    -0.290 C  
HETATM    6  C   UNL     1      -9.337  14.062  66.470  1.00  0.00    -0.274 C  
BRANCH   5   7
HETATM    7  C   UNL     1      -9.469  11.696  65.609  1.00  0.00    -0.209 C  
HETATM    8  H   UNL     1      -8.992  10.366  64.192  1.00  0.00     0.000 HD 
HETATM    9  O   UNL     1      -9.468  11.183  64.273  1.00  0.00    -0.226 OA 
BRANCH   7  10
HETATM   10  C   UNL     1      -9.719  10.568  66.596  1.00  0.00    -0.232 A  
HETATM   11  C   UNL     1      -9.448  10.787  67.962  1.00  0.00    -0.166 A  
HETATM   12  C   UNL     1      -9.647   9.777  68.908  1.00  0.00    -0.167 A  
HETATM   13  C   UNL     1     -10.108   8.530  68.504  1.00  0.00    -0.214 A  
HETATM   14  C   UNL     1     -10.366   8.292  67.155  1.00  0.00    -0.387 A  
HETATM   15  C   UNL     1     -10.166   9.302  66.205  1.00  0.00    -0.273 A  
ENDBRANCH   7  10
ENDBRANCH   5   7
ENDBRANCH   3   5
ENDBRANCH   2   3
TORSDOF 4
ENDMDL
MODEL      139
REMARK 921   NORMALIZED FREE ENERGY PREDICTED BY IDOCK:   -3.25 KCAL/MOL
REMARK 922        TOTAL FREE ENERGY PREDICTED BY IDOCK:   -4.41 KCAL/MOL
REMARK 923 INTER-LIGAND FREE ENERGY PREDICTED BY IDOCK:   -4.70 KCAL/MOL
REMARK 924 INTRA-LIGAND FREE ENERGY PREDICTED BY IDOCK:    0.29 KCAL/MOL
REMARK 927      BINDING AFFINITY PREDICTED BY RF-SCORE:    0.00 PKD
ROOT
HETATM    1  C   UNL     1     -11.558  14.626  71.145  1.00  0.00    -0.275 C  
HETATM    2  C   UNL     1     -12.486  15.039  70.003  1.00  0.00    -0.275 C  
ENDROOT
BRANCH   2   3
HETATM    3  N   UNL     1     -11.910  14.963  68.634  1.00  0.00    -0.320 NA 
HETATM    4  C   UNL     1     -11.204  16.213  68.320  1.00  0.00    -0.343 C  
BRANCH   3   5
HETATM    5  C   UNL     1     -10.977  13.780  68.523  1.00  0.00    -0.262 C  
HETATM    6  C   UNL     1     -11.713  12.458  68.837  1.00  0.00    -0.372 C  
BRANCH   5   7
HETATM    7  C   UNL     1     -10.116  13.536  67.211  1.00  0.00    -0.235 C  
HETATM    8  H   UNL     1      -8.658  14.439  66.178  1.00  0.00     0.000 HD 
HETATM    9  O   UNL     1      -9.173  14.585  66.962  1.00  0.00    -0.218 OA 
BRANCH   7  10
HETATM   10  C   UNL     1     -10.800  13.138  65.914  1.00  0.00    -0.288 A  
HETATM   11  C   UNL     1     -10.560  11.852  65.387  1.00  0.00    -0.315 A  
HETATM   12  C   UNL     1     -11.153  11.442  64.188  1.00  0.00    -0.382 A  
HETATM   13  C   UNL     1     -11.983  12.312  63.492  1.00  0.00    -0.625 A  
HETATM   14  C   UNL     1     -12.217  13.593  63.992  1.00  0.00    -0.443 A  
HETATM   15  C   UNL     1     -11.624  14.006  65.191  1.00  0.00    -0.344 A  
ENDBRANCH   7  10
ENDBRANCH   5   7
ENDBRANCH   3   5
ENDBRANCH   2   3
TORSDOF 4
ENDMDL
MODEL      140
REMARK 921   NORMALIZED FREE ENERGY PREDICTED BY IDOCK:   -3.25 KCAL/MOL
REMARK 922        TOTAL FREE ENERGY PREDICTED BY IDOCK:   -4.40 KCAL/MOL
REMARK 923 INTER-LIGAND FREE ENERGY PREDICTED BY IDOCK:   -4.05 KCAL/MOL
REMARK 924 INTRA-LIGAND FREE ENERGY PREDICTED BY IDOCK:   -0.35 KCAL/MOL
REMARK 927      BINDING AFFINITY PREDICTED BY RF-SCORE:    0.00 PKD
ROOT
HETATM    1  C   UNL     1      -9.105  19.097  68.533  1.00  0.00    -0.416 C  
HETATM    2  C   UNL     1      -9.723  17.699  68.483  1.00  0.00    -0.328 C  
ENDROOT
BRANCH   2   3
HETATM    3  N   UNL     1     -10.695  17.455  67.385  1.00  0.00    -0.301 NA 
HETATM    4  C   UNL     1     -10.264  18.162  66.171  1.00  0.00    -0.367 C  
BRANCH   3   5
HETATM    5  C   UNL     1     -10.827  15.973  67.122  1.00  0.00    -0.239 C  
HETATM    6  C   UNL     1     -10.892  15.681  65.606  1.00  0.00    -0.336 C  
BRANCH   5   7
HETATM    7  C   UNL     1      -9.809  14.933  67.757  1.00  0.00    -0.217 C  
HETATM    8  H   UNL     1      -7.993  14.181  67.379  1.00  0.00     0.000 HD 
HETATM    9  O   UNL     1      -8.601  14.804  66.999  1.00  0.00    -0.215 OA 
BRANCH   7  10
HETATM   10  C   UNL     1     -10.296  13.560  68.191  1.00  0.00    -0.247 A  
HETATM   11  C   UNL     1      -9.475  12.440  67.947  1.00  0.00    -0.198 A  
HETATM   12  C   UNL     1      -9.883  11.153  68.313  1.00  0.00    -0.195 A  
HETATM   13  C   UNL     1     -11.120  10.963  68.917  1.00  0.00    -0.307 A  
HETATM   14  C   UNL     1     -11.950  12.059  69.151  1.00  0.00    -0.326 A  
HETATM   15  C   UNL     1     -11.544  13.348  68.784  1.00  0.00    -0.363 A  
ENDBRANCH   7  10
ENDBRANCH   5   7
ENDBRANCH   3   5
ENDBRANCH   2   3
TORSDOF 4
ENDMDL
MODEL      141
REMARK 921   NORMALIZED FREE ENERGY PREDICTED BY IDOCK:   -3.24 KCAL/MOL
REMARK 922        TOTAL FREE ENERGY PREDICTED BY IDOCK:   -4.39 KCAL/MOL
REMARK 923 INTER-LIGAND FREE ENERGY PREDICTED BY IDOCK:   -3.90 KCAL/MOL
REMARK 924 INTRA-LIGAND FREE ENERGY PREDICTED BY IDOCK:   -0.49 KCAL/MOL
REMARK 927      BINDING AFFINITY PREDICTED BY RF-SCORE:    0.00 PKD
ROOT
HETATM    1  C   UNL     1      -7.395  15.088  67.425  1.00  0.00    -0.231 C  
HETATM    2  C   UNL     1      -8.375  16.025  66.718  1.00  0.00    -0.270 C  
ENDROOT
BRANCH   2   3
HETATM    3  N   UNL     1      -9.512  16.518  67.538  1.00  0.00    -0.223 NA 
HETATM    4  C   UNL     1      -9.482  17.987  67.600  1.00  0.00    -0.264 C  
BRANCH   3   5
HETATM    5  C   UNL     1     -10.823  16.036  66.962  1.00  0.00    -0.227 C  
HETATM    6  C   UNL     1     -10.719  15.830  65.434  1.00  0.00    -0.420 C  
BRANCH   5   7
HETATM    7  C   UNL     1     -11.560  14.761  67.557  1.00  0.00    -0.361 C  
HETATM    8  H   UNL     1     -12.428  14.185  69.266  1.00  0.00     0.000 HD 
HETATM    9  O   UNL     1     -11.987  14.947  68.911  1.00  0.00    -0.305 OA 
BRANCH   7  10
HETATM   10  C   UNL     1     -10.945  13.381  67.394  1.00  0.00    -0.287 A  
HETATM   11  C   UNL     1     -11.453  12.525  66.396  1.00  0.00    -0.418 A  
HETATM   12  C   UNL     1     -10.933  11.239  66.215  1.00  0.00    -0.265 A  
HETATM   13  C   UNL     1      -9.907  10.785  67.035  1.00  0.00    -0.221 A  
HETATM   14  C   UNL     1      -9.405  11.613  68.038  1.00  0.00    -0.178 A  
HETATM   15  C   UNL     1      -9.925  12.901  68.221  1.00  0.00    -0.234 A  
ENDBRANCH   7  10
ENDBRANCH   5   7
ENDBRANCH   3   5
ENDBRANCH   2   3
TORSDOF 4
ENDMDL
MODEL      142
REMARK 921   NORMALIZED FREE ENERGY PREDICTED BY IDOCK:   -3.24 KCAL/MOL
REMARK 922        TOTAL FREE ENERGY PREDICTED BY IDOCK:   -4.39 KCAL/MOL
REMARK 923 INTER-LIGAND FREE ENERGY PREDICTED BY IDOCK:   -3.66 KCAL/MOL
REMARK 924 INTRA-LIGAND FREE ENERGY PREDICTED BY IDOCK:   -0.73 KCAL/MOL
REMARK 927      BINDING AFFINITY PREDICTED BY RF-SCORE:    0.00 PKD
ROOT
HETATM    1  C   UNL     1     -10.306   7.967  66.831  1.00  0.00    -0.400 C  
HETATM    2  C   UNL     1      -9.943   7.084  68.025  1.00  0.00    -0.154 C  
ENDROOT
BRANCH   2   3
HETATM    3  N   UNL     1     -10.760   7.277  69.252  1.00  0.00    -0.219 NA 
HETATM    4  C   UNL     1     -11.217   5.974  69.757  1.00  0.00    -0.369 C  
BRANCH   3   5
HETATM    5  C   UNL     1      -9.961   8.007  70.306  1.00  0.00    -0.189 C  
HETATM    6  C   UNL     1      -8.446   7.754  70.132  1.00  0.00    -0.134 C  
BRANCH   5   7
HETATM    7  C   UNL     1     -10.151   9.566  70.545  1.00  0.00    -0.285 C  
HETATM    8  H   UNL     1     -11.332  10.794  71.595  1.00  0.00     0.000 HD 
HETATM    9  O   UNL     1     -11.218   9.863  71.452  1.00  0.00    -0.348 OA 
BRANCH   7  10
HETATM   10  C   UNL     1     -10.198  10.518  69.362  1.00  0.00    -0.245 A  
HETATM   11  C   UNL     1     -11.453  10.886  68.836  1.00  0.00    -0.369 A  
HETATM   12  C   UNL     1     -11.551  11.747  67.738  1.00  0.00    -0.374 A  
HETATM   13  C   UNL     1     -10.398  12.244  67.142  1.00  0.00    -0.234 A  
HETATM   14  C   UNL     1      -9.149  11.878  67.641  1.00  0.00    -0.179 A  
HETATM   15  C   UNL     1      -9.049  11.014  68.739  1.00  0.00    -0.161 A  
ENDBRANCH   7  10
ENDBRANCH   5   7
ENDBRANCH   3   5
ENDBRANCH   2   3
TORSDOF 4
ENDMDL
MODEL      143
REMARK 921   NORMALIZED FREE ENERGY PREDICTED BY IDOCK:   -3.23 KCAL/MOL
REMARK 922        TOTAL FREE ENERGY PREDICTED BY IDOCK:   -4.38 KCAL/MOL
REMARK 923 INTER-LIGAND FREE ENERGY PREDICTED BY IDOCK:   -4.08 KCAL/MOL
REMARK 924 INTRA-LIGAND FREE ENERGY PREDICTED BY IDOCK:   -0.30 KCAL/MOL
REMARK 927      BINDING AFFINITY PREDICTED BY RF-SCORE:    0.00 PKD
ROOT
HETATM    1  C   UNL     1      -9.636  15.754  66.048  1.00  0.00    -0.388 C  
HETATM    2  C   UNL     1      -9.966  14.388  65.446  1.00  0.00    -0.311 C  
ENDROOT
BRANCH   2   3
HETATM    3  N   UNL     1     -11.410  14.058  65.328  1.00  0.00    -0.311 NA 
HETATM    4  C   UNL     1     -12.008  14.823  64.223  1.00  0.00    -0.368 C  
BRANCH   3   5
HETATM    5  C   UNL     1     -11.594  12.575  65.112  1.00  0.00    -0.353 C  
HETATM    6  C   UNL     1     -12.419  12.296  63.835  1.00  0.00    -0.586 C  
BRANCH   5   7
HETATM    7  C   UNL     1     -10.350  11.588  65.091  1.00  0.00    -0.278 C  
HETATM    8  H   UNL     1      -9.654  10.067  63.992  1.00  0.00     0.000 HD 
HETATM    9  O   UNL     1     -10.398  10.657  64.004  1.00  0.00    -0.339 OA 
BRANCH   7  10
HETATM   10  C   UNL     1      -9.922  10.876  66.363  1.00  0.00    -0.266 A  
HETATM   11  C   UNL     1      -8.580  10.981  66.782  1.00  0.00    -0.152 A  
HETATM   12  C   UNL     1      -8.131  10.332  67.937  1.00  0.00    -0.102 A  
HETATM   13  C   UNL     1      -9.011   9.560  68.684  1.00  0.00    -0.132 A  
HETATM   14  C   UNL     1     -10.338   9.432  68.275  1.00  0.00    -0.251 A  
HETATM   15  C   UNL     1     -10.789  10.080  67.118  1.00  0.00    -0.240 A  
ENDBRANCH   7  10
ENDBRANCH   5   7
ENDBRANCH   3   5
ENDBRANCH   2   3
TORSDOF 4
ENDMDL
MODEL      144
REMARK 921   NORMALIZED FREE ENERGY PREDICTED BY IDOCK:   -3.22 KCAL/MOL
REMARK 922        TOTAL FREE ENERGY PREDICTED BY IDOCK:   -4.36 KCAL/MOL
REMARK 923 INTER-LIGAND FREE ENERGY PREDICTED BY IDOCK:   -3.71 KCAL/MOL
REMARK 924 INTRA-LIGAND FREE ENERGY PREDICTED BY IDOCK:   -0.65 KCAL/MOL
REMARK 927      BINDING AFFINITY PREDICTED BY RF-SCORE:    0.00 PKD
ROOT
HETATM    1  C   UNL     1      -7.364   7.848  70.588  1.00  0.00    -0.061 C  
HETATM    2  C   UNL     1      -8.423   8.531  71.452  1.00  0.00    -0.172 C  
ENDROOT
BRANCH   2   3
HETATM    3  N   UNL     1      -9.132   7.661  72.427  1.00  0.00    -0.135 NA 
HETATM    4  C   UNL     1      -8.766   8.046  73.798  1.00  0.00    -0.265 C  
BRANCH   3   5
HETATM    5  C   UNL     1     -10.626   7.755  72.227  1.00  0.00    -0.259 C  
HETATM    6  C   UNL     1     -11.015   9.093  71.558  1.00  0.00    -0.434 C  
BRANCH   5   7
HETATM    7  C   UNL     1     -11.428   6.607  71.479  1.00  0.00    -0.297 C  
HETATM    8  H   UNL     1     -12.514   4.988  71.933  1.00  0.00     0.000 HD 
HETATM    9  O   UNL     1     -12.035   5.675  72.380  1.00  0.00    -0.235 OA 
BRANCH   7  10
HETATM   10  C   UNL     1     -10.787   5.861  70.319  1.00  0.00    -0.391 A  
HETATM   11  C   UNL     1     -11.030   6.310  69.005  1.00  0.00    -0.437 A  
HETATM   12  C   UNL     1     -10.477   5.650  67.903  1.00  0.00    -0.274 A  
HETATM   13  C   UNL     1      -9.683   4.527  68.095  1.00  0.00    -0.188 A  
HETATM   14  C   UNL     1      -9.445   4.060  69.388  1.00  0.00    -0.259 A  
HETATM   15  C   UNL     1     -10.000   4.719  70.493  1.00  0.00    -0.306 A  
ENDBRANCH   7  10
ENDBRANCH   5   7
ENDBRANCH   3   5
ENDBRANCH   2   3
TORSDOF 4
ENDMDL
MODEL      145
REMARK 921   NORMALIZED FREE ENERGY PREDICTED BY IDOCK:   -3.21 KCAL/MOL
REMARK 922        TOTAL FREE ENERGY PREDICTED BY IDOCK:   -4.36 KCAL/MOL
REMARK 923 INTER-LIGAND FREE ENERGY PREDICTED BY IDOCK:   -4.54 KCAL/MOL
REMARK 924 INTRA-LIGAND FREE ENERGY PREDICTED BY IDOCK:    0.18 KCAL/MOL
REMARK 927      BINDING AFFINITY PREDICTED BY RF-SCORE:    0.00 PKD
ROOT
HETATM    1  C   UNL     1      -7.555  16.271  69.194  1.00  0.00    -0.227 C  
HETATM    2  C   UNL     1      -8.982  15.753  69.016  1.00  0.00    -0.246 C  
ENDROOT
BRANCH   2   3
HETATM    3  N   UNL     1      -9.660  16.130  67.748  1.00  0.00    -0.222 NA 
HETATM    4  C   UNL     1      -9.518  17.576  67.518  1.00  0.00    -0.255 C  
BRANCH   3   5
HETATM    5  C   UNL     1      -9.085  15.347  66.592  1.00  0.00    -0.279 C  
HETATM    6  C   UNL     1      -8.799  13.883  66.997  1.00  0.00    -0.231 C  
BRANCH   5   7
HETATM    7  C   UNL     1      -9.817  15.308  65.183  1.00  0.00    -0.129 C  
HETATM    8  H   UNL     1     -10.874  16.530  64.001  1.00  0.00     0.000 HD 
HETATM    9  O   UNL     1     -10.436  16.553  64.844  1.00  0.00    -0.653 OA 
BRANCH   7  10
HETATM   10  C   UNL     1     -10.749  14.157  64.840  1.00  0.00    -0.444 A  
HETATM   11  C   UNL     1     -12.104  14.246  65.218  1.00  0.00    -0.400 A  
HETATM   12  C   UNL     1     -13.000  13.208  64.940  1.00  0.00    -0.213 A  
HETATM   13  C   UNL     1     -12.553  12.062  64.293  1.00  0.00    -0.359 A  
HETATM   14  C   UNL     1     -11.212  11.952  63.927  1.00  0.00    -0.497 A  
HETATM   15  C   UNL     1     -10.314  12.990  64.205  1.00  0.00    -0.385 A  
ENDBRANCH   7  10
ENDBRANCH   5   7
ENDBRANCH   3   5
ENDBRANCH   2   3
TORSDOF 4
ENDMDL
MODEL      146
REMARK 921   NORMALIZED FREE ENERGY PREDICTED BY IDOCK:   -3.20 KCAL/MOL
REMARK 922        TOTAL FREE ENERGY PREDICTED BY IDOCK:   -4.35 KCAL/MOL
REMARK 923 INTER-LIGAND FREE ENERGY PREDICTED BY IDOCK:   -4.01 KCAL/MOL
REMARK 924 INTRA-LIGAND FREE ENERGY PREDICTED BY IDOCK:   -0.33 KCAL/MOL
REMARK 927      BINDING AFFINITY PREDICTED BY RF-SCORE:    0.00 PKD
ROOT
HETATM    1  C   UNL     1      -9.145   9.273  70.434  1.00  0.00    -0.288 C  
HETATM    2  C   UNL     1      -8.924  10.224  69.257  1.00  0.00    -0.179 C  
ENDROOT
BRANCH   2   3
HETATM    3  N   UNL     1     -10.095  10.446  68.369  1.00  0.00    -0.158 NA 
HETATM    4  C   UNL     1     -11.086  11.289  69.053  1.00  0.00    -0.244 C  
BRANCH   3   5
HETATM    5  C   UNL     1      -9.656  11.083  67.072  1.00  0.00    -0.177 C  
HETATM    6  C   UNL     1      -8.660  10.177  66.314  1.00  0.00    -0.138 C  
BRANCH   5   7
HETATM    7  C   UNL     1     -10.719  11.600  66.011  1.00  0.00    -0.280 C  
HETATM    8  H   UNL     1     -11.371  11.125  64.179  1.00  0.00     0.000 HD 
HETATM    9  O   UNL     1     -10.736  10.816  64.813  1.00  0.00    -0.270 OA 
BRANCH   7  10
HETATM   10  C   UNL     1     -10.791  13.077  65.662  1.00  0.00    -0.293 A  
HETATM   11  C   UNL     1     -11.829  13.527  64.821  1.00  0.00    -0.412 A  
HETATM   12  C   UNL     1     -11.931  14.874  64.458  1.00  0.00    -0.420 A  
HETATM   13  C   UNL     1     -10.992  15.789  64.918  1.00  0.00    -0.443 A  
HETATM   14  C   UNL     1      -9.949  15.357  65.737  1.00  0.00    -0.393 A  
HETATM   15  C   UNL     1      -9.845  14.009  66.101  1.00  0.00    -0.319 A  
ENDBRANCH   7  10
ENDBRANCH   5   7
ENDBRANCH   3   5
ENDBRANCH   2   3
TORSDOF 4
ENDMDL
MODEL      147
REMARK 921   NORMALIZED FREE ENERGY PREDICTED BY IDOCK:   -3.19 KCAL/MOL
REMARK 922        TOTAL FREE ENERGY PREDICTED BY IDOCK:   -4.32 KCAL/MOL
REMARK 923 INTER-LIGAND FREE ENERGY PREDICTED BY IDOCK:   -3.82 KCAL/MOL
REMARK 924 INTRA-LIGAND FREE ENERGY PREDICTED BY IDOCK:   -0.50 KCAL/MOL
REMARK 927      BINDING AFFINITY PREDICTED BY RF-SCORE:    0.00 PKD
ROOT
HETATM    1  C   UNL     1     -10.636  18.263  67.508  1.00  0.00    -0.432 C  
HETATM    2  C   UNL     1     -10.530  17.095  68.489  1.00  0.00    -0.377 C  
ENDROOT
BRANCH   2   3
HETATM    3  N   UNL     1      -9.559  16.029  68.131  1.00  0.00    -0.208 NA 
HETATM    4  C   UNL     1      -9.768  15.611  66.737  1.00  0.00    -0.241 C  
BRANCH   3   5
HETATM    5  C   UNL     1      -8.144  16.517  68.335  1.00  0.00    -0.196 C  
HETATM    6  C   UNL     1      -7.303  15.480  69.112  1.00  0.00    -0.177 C  
BRANCH   5   7
HETATM    7  C   UNL     1      -7.262  17.013  67.110  1.00  0.00    -0.172 C  
HETATM    8  H   UNL     1      -5.580  16.493  66.159  1.00  0.00     0.000 HD 
HETATM    9  O   UNL     1      -6.107  16.196  66.891  1.00  0.00    -0.321 OA 
BRANCH   7  10
HETATM   10  C   UNL     1      -6.889  18.481  66.985  1.00  0.00    -0.209 A  
HETATM   11  C   UNL     1      -6.362  19.146  68.111  1.00  0.00    -0.238 A  
HETATM   12  C   UNL     1      -6.017  20.500  68.053  1.00  0.00    -0.302 A  
HETATM   13  C   UNL     1      -6.204  21.213  66.875  1.00  0.00    -0.390 A  
HETATM   14  C   UNL     1      -6.739  20.573  65.757  1.00  0.00    -0.254 A  
HETATM   15  C   UNL     1      -7.086  19.218  65.814  1.00  0.00    -0.306 A  
ENDBRANCH   7  10
ENDBRANCH   5   7
ENDBRANCH   3   5
ENDBRANCH   2   3
TORSDOF 4
ENDMDL
MODEL      148
REMARK 921   NORMALIZED FREE ENERGY PREDICTED BY IDOCK:   -3.18 KCAL/MOL
REMARK 922        TOTAL FREE ENERGY PREDICTED BY IDOCK:   -4.31 KCAL/MOL
REMARK 923 INTER-LIGAND FREE ENERGY PREDICTED BY IDOCK:   -3.86 KCAL/MOL
REMARK 924 INTRA-LIGAND FREE ENERGY PREDICTED BY IDOCK:   -0.46 KCAL/MOL
REMARK 927      BINDING AFFINITY PREDICTED BY RF-SCORE:    0.00 PKD
ROOT
HETATM    1  C   UNL     1     -11.545   5.463  72.710  1.00  0.00    -0.293 C  
HETATM    2  C   UNL     1     -12.269   6.569  71.942  1.00  0.00    -0.324 C  
ENDROOT
BRANCH   2   3
HETATM    3  N   UNL     1     -11.733   7.944  72.119  1.00  0.00    -0.313 NA 
HETATM    4  C   UNL     1     -10.417   7.887  72.771  1.00  0.00    -0.346 C  
BRANCH   3   5
HETATM    5  C   UNL     1     -11.637   8.646  70.785  1.00  0.00    -0.242 C  
HETATM    6  C   UNL     1     -11.843  10.170  70.940  1.00  0.00    -0.468 C  
BRANCH   5   7
HETATM    7  C   UNL     1     -10.381   8.437  69.836  1.00  0.00    -0.210 C  
HETATM    8  H   UNL     1      -9.267   9.500  68.557  1.00  0.00     0.000 HD 
HETATM    9  O   UNL     1     -10.018   9.625  69.124  1.00  0.00    -0.170 OA 
BRANCH   7  10
HETATM   10  C   UNL     1     -10.320   7.238  68.905  1.00  0.00    -0.207 A  
HETATM   11  C   UNL     1      -9.764   6.034  69.382  1.00  0.00    -0.176 A  
HETATM   12  C   UNL     1      -9.672   4.906  68.561  1.00  0.00    -0.218 A  
HETATM   13  C   UNL     1     -10.121   4.966  67.247  1.00  0.00    -0.212 A  
HETATM   14  C   UNL     1     -10.659   6.155  66.755  1.00  0.00    -0.351 A  
HETATM   15  C   UNL     1     -10.752   7.286  67.576  1.00  0.00    -0.326 A  
ENDBRANCH   7  10
ENDBRANCH   5   7
ENDBRANCH   3   5
ENDBRANCH   2   3
TORSDOF 4
ENDMDL
MODEL      149
REMARK 921   NORMALIZED FREE ENERGY PREDICTED BY IDOCK:   -3.17 KCAL/MOL
REMARK 922        TOTAL FREE ENERGY PREDICTED BY IDOCK:   -4.31 KCAL/MOL
REMARK 923 INTER-LIGAND FREE ENERGY PREDICTED BY IDOCK:   -3.89 KCAL/MOL
REMARK 924 INTRA-LIGAND FREE ENERGY PREDICTED BY IDOCK:   -0.42 KCAL/MOL
REMARK 927      BINDING AFFINITY PREDICTED BY RF-SCORE:    0.00 PKD
ROOT
HETATM    1  C   UNL     1     -10.264   8.727  67.785  1.00  0.00    -0.285 C  
HETATM    2  C   UNL     1      -9.381   9.944  67.507  1.00  0.00    -0.140 C  
ENDROOT
BRANCH   2   3
HETATM    3  N   UNL     1      -8.176   9.698  66.673  1.00  0.00    -0.119 NA 
HETATM    4  C   UNL     1      -8.007   8.254  66.454  1.00  0.00    -0.096 C  
BRANCH   3   5
HETATM    5  C   UNL     1      -8.292  10.428  65.355  1.00  0.00    -0.165 C  
HETATM    6  C   UNL     1      -7.155  10.022  64.391  1.00  0.00    -0.135 C  
BRANCH   5   7
HETATM    7  C   UNL     1      -9.644  10.406  64.522  1.00  0.00    -0.309 C  
HETATM    8  H   UNL     1     -10.312   9.742  62.756  1.00  0.00     0.000 HD 
HETATM    9  O   UNL     1      -9.504   9.755  63.254  1.00  0.00    -0.213 OA 
BRANCH   7  10
HETATM   10  C   UNL     1     -10.461  11.677  64.362  1.00  0.00    -0.374 A  
HETATM   11  C   UNL     1     -10.284  12.720  65.295  1.00  0.00    -0.296 A  
HETATM   12  C   UNL     1     -11.023  13.904  65.202  1.00  0.00    -0.352 A  
HETATM   13  C   UNL     1     -11.956  14.060  64.184  1.00  0.00    -0.439 A  
HETATM   14  C   UNL     1     -12.154  13.032  63.264  1.00  0.00    -0.499 A  
HETATM   15  C   UNL     1     -11.417  11.845  63.356  1.00  0.00    -0.470 A  
ENDBRANCH   7  10
ENDBRANCH   5   7
ENDBRANCH   3   5
ENDBRANCH   2   3
TORSDOF 4
ENDMDL
MODEL      150
REMARK 921   NORMALIZED FREE ENERGY PREDICTED BY IDOCK:   -3.17 KCAL/MOL
REMARK 922        TOTAL FREE ENERGY PREDICTED BY IDOCK:   -4.30 KCAL/MOL
REMARK 923 INTER-LIGAND FREE ENERGY PREDICTED BY IDOCK:   -3.91 KCAL/MOL
REMARK 924 INTRA-LIGAND FREE ENERGY PREDICTED BY IDOCK:   -0.40 KCAL/MOL
REMARK 927      BINDING AFFINITY PREDICTED BY RF-SCORE:    0.00 PKD
ROOT
HETATM    1  C   UNL     1      -6.387  16.433  69.300  1.00  0.00    -0.186 C  
HETATM    2  C   UNL     1      -7.837  15.964  69.422  1.00  0.00    -0.191 C  
ENDROOT
BRANCH   2   3
HETATM    3  N   UNL     1      -8.593  15.842  68.148  1.00  0.00    -0.167 NA 
HETATM    4  C   UNL     1      -9.370  14.594  68.146  1.00  0.00    -0.197 C  
BRANCH   3   5
HETATM    5  C   UNL     1      -9.499  17.036  67.959  1.00  0.00    -0.256 C  
HETATM    6  C   UNL     1     -10.870  16.807  68.635  1.00  0.00    -0.336 C  
BRANCH   5   7
HETATM    7  C   UNL     1      -9.021  18.499  68.351  1.00  0.00    -0.322 C  
HETATM    8  H   UNL     1      -9.819  20.227  68.970  1.00  0.00     0.000 HD 
HETATM    9  O   UNL     1     -10.105  19.352  68.736  1.00  0.00    -0.432 OA 
BRANCH   7  10
HETATM   10  C   UNL     1      -8.063  19.255  67.446  1.00  0.00    -0.306 A  
HETATM   11  C   UNL     1      -7.508  20.467  67.906  1.00  0.00    -0.262 A  
HETATM   12  C   UNL     1      -6.634  21.209  67.106  1.00  0.00    -0.424 A  
HETATM   13  C   UNL     1      -6.310  20.760  65.832  1.00  0.00    -0.272 A  
HETATM   14  C   UNL     1      -6.863  19.572  65.356  1.00  0.00    -0.284 A  
HETATM   15  C   UNL     1      -7.740  18.828  66.155  1.00  0.00    -0.274 A  
ENDBRANCH   7  10
ENDBRANCH   5   7
ENDBRANCH   3   5
ENDBRANCH   2   3
TORSDOF 4
ENDMDL
MODEL      151
REMARK 921   NORMALIZED FREE ENERGY PREDICTED BY IDOCK:   -3.16 KCAL/MOL
REMARK 922        TOTAL FREE ENERGY PREDICTED BY IDOCK:   -4.30 KCAL/MOL
REMARK 923 INTER-LIGAND FREE ENERGY PREDICTED BY IDOCK:   -3.96 KCAL/MOL
REMARK 924 INTRA-LIGAND FREE ENERGY PREDICTED BY IDOCK:   -0.33 KCAL/MOL
REMARK 927      BINDING AFFINITY PREDICTED BY RF-SCORE:    0.00 PKD
ROOT
HETATM    1  C   UNL     1     -12.488  13.687  63.608  1.00  0.00    -0.230 C  
HETATM    2  C   UNL     1     -11.879  13.296  64.955  1.00  0.00    -0.362 C  
ENDROOT
BRANCH   2   3
HETATM    3  N   UNL     1     -11.189  11.980  65.001  1.00  0.00    -0.322 NA 
HETATM    4  C   UNL     1     -10.174  11.912  63.939  1.00  0.00    -0.389 C  
BRANCH   3   5
HETATM    5  C   UNL     1     -10.558  11.765  66.356  1.00  0.00    -0.255 C  
HETATM    6  C   UNL     1     -10.042  13.096  66.948  1.00  0.00    -0.245 C  
BRANCH   5   7
HETATM    7  C   UNL     1     -11.339  11.009  67.514  1.00  0.00    -0.257 C  
HETATM    8  H   UNL     1     -12.609  11.435  69.001  1.00  0.00     0.000 HD 
HETATM    9  O   UNL     1     -12.142  11.888  68.309  1.00  0.00    -0.485 OA 
BRANCH   7  10
HETATM   10  C   UNL     1     -10.604  10.027  68.412  1.00  0.00    -0.253 A  
HETATM   11  C   UNL     1     -10.062   8.858  67.840  1.00  0.00    -0.255 A  
HETATM   12  C   UNL     1      -9.391   7.915  68.624  1.00  0.00    -0.145 A  
HETATM   13  C   UNL     1      -9.261   8.118  69.993  1.00  0.00    -0.155 A  
HETATM   14  C   UNL     1      -9.805   9.261  70.577  1.00  0.00    -0.310 A  
HETATM   15  C   UNL     1     -10.479  10.206  69.793  1.00  0.00    -0.301 A  
ENDBRANCH   7  10
ENDBRANCH   5   7
ENDBRANCH   3   5
ENDBRANCH   2   3
TORSDOF 4
ENDMDL
MODEL      152
REMARK 921   NORMALIZED FREE ENERGY PREDICTED BY IDOCK:   -3.16 KCAL/MOL
REMARK 922        TOTAL FREE ENERGY PREDICTED BY IDOCK:   -4.29 KCAL/MOL
REMARK 923 INTER-LIGAND FREE ENERGY PREDICTED BY IDOCK:   -4.14 KCAL/MOL
REMARK 924 INTRA-LIGAND FREE ENERGY PREDICTED BY IDOCK:   -0.15 KCAL/MOL
REMARK 927      BINDING AFFINITY PREDICTED BY RF-SCORE:    0.00 PKD
ROOT
HETATM    1  C   UNL     1     -11.618  15.614  71.852  1.00  0.00    -0.547 C  
HETATM    2  C   UNL     1     -12.224  15.584  70.449  1.00  0.00    -0.406 C  
ENDROOT
BRANCH   2   3
HETATM    3  N   UNL     1     -11.460  14.824  69.425  1.00  0.00    -0.283 NA 
HETATM    4  C   UNL     1     -12.018  13.470  69.289  1.00  0.00    -0.330 C  
BRANCH   3   5
HETATM    5  C   UNL     1     -11.491  15.549  68.101  1.00  0.00    -0.326 C  
HETATM    6  C   UNL     1     -10.794  16.925  68.202  1.00  0.00    -0.351 C  
BRANCH   5   7
HETATM    7  C   UNL     1     -10.967  14.855  66.772  1.00  0.00    -0.326 C  
HETATM    8  H   UNL     1     -11.713  13.932  65.160  1.00  0.00     0.000 HD 
HETATM    9  O   UNL     1     -12.027  14.347  65.954  1.00  0.00    -0.377 OA 
BRANCH   7  10
HETATM   10  C   UNL     1      -9.835  13.843  66.838  1.00  0.00    -0.268 A  
HETATM   11  C   UNL     1      -8.573  14.264  67.305  1.00  0.00    -0.229 A  
HETATM   12  C   UNL     1      -7.495  13.376  67.370  1.00  0.00    -0.134 A  
HETATM   13  C   UNL     1      -7.656  12.058  66.960  1.00  0.00    -0.111 A  
HETATM   14  C   UNL     1      -8.893  11.630  66.480  1.00  0.00    -0.188 A  
HETATM   15  C   UNL     1      -9.974  12.518  66.413  1.00  0.00    -0.262 A  
ENDBRANCH   7  10
ENDBRANCH   5   7
ENDBRANCH   3   5
ENDBRANCH   2   3
TORSDOF 4
ENDMDL
MODEL      153
REMARK 921   NORMALIZED FREE ENERGY PREDICTED BY IDOCK:   -3.15 KCAL/MOL
REMARK 922        TOTAL FREE ENERGY PREDICTED BY IDOCK:   -4.28 KCAL/MOL
REMARK 923 INTER-LIGAND FREE ENERGY PREDICTED BY IDOCK:   -3.85 KCAL/MOL
REMARK 924 INTRA-LIGAND FREE ENERGY PREDICTED BY IDOCK:   -0.43 KCAL/MOL
REMARK 927      BINDING AFFINITY PREDICTED BY RF-SCORE:    0.00 PKD
ROOT
HETATM    1  C   UNL     1      -7.209  13.090  68.651  1.00  0.00    -0.101 C  
HETATM    2  C   UNL     1      -7.775  14.414  68.137  1.00  0.00    -0.131 C  
ENDROOT
BRANCH   2   3
HETATM    3  N   UNL     1      -8.155  15.408  69.175  1.00  0.00    -0.215 NA 
HETATM    4  C   UNL     1      -7.209  16.533  69.159  1.00  0.00    -0.226 C  
BRANCH   3   5
HETATM    5  C   UNL     1      -9.567  15.893  68.945  1.00  0.00    -0.230 C  
HETATM    6  C   UNL     1      -9.583  17.157  68.056  1.00  0.00    -0.267 C  
BRANCH   5   7
HETATM    7  C   UNL     1     -10.690  14.917  68.391  1.00  0.00    -0.245 C  
HETATM    8  H   UNL     1     -12.386  15.020  67.333  1.00  0.00     0.000 HD 
HETATM    9  O   UNL     1     -11.714  15.604  67.664  1.00  0.00    -0.182 OA 
BRANCH   7  10
HETATM   10  C   UNL     1     -11.315  13.878  69.307  1.00  0.00    -0.321 A  
HETATM   11  C   UNL     1     -11.276  12.522  68.923  1.00  0.00    -0.330 A  
HETATM   12  C   UNL     1     -11.850  11.529  69.722  1.00  0.00    -0.429 A  
HETATM   13  C   UNL     1     -12.482  11.874  70.911  1.00  0.00    -0.397 A  
HETATM   14  C   UNL     1     -12.543  13.213  71.297  1.00  0.00    -0.382 A  
HETATM   15  C   UNL     1     -11.970  14.209  70.497  1.00  0.00    -0.393 A  
ENDBRANCH   7  10
ENDBRANCH   5   7
ENDBRANCH   3   5
ENDBRANCH   2   3
TORSDOF 4
ENDMDL
MODEL      154
REMARK 921   NORMALIZED FREE ENERGY PREDICTED BY IDOCK:   -3.13 KCAL/MOL
REMARK 922        TOTAL FREE ENERGY PREDICTED BY IDOCK:   -4.26 KCAL/MOL
REMARK 923 INTER-LIGAND FREE ENERGY PREDICTED BY IDOCK:   -3.83 KCAL/MOL
REMARK 924 INTRA-LIGAND FREE ENERGY PREDICTED BY IDOCK:   -0.43 KCAL/MOL
REMARK 927      BINDING AFFINITY PREDICTED BY RF-SCORE:    0.00 PKD
ROOT
HETATM    1  C   UNL     1      -9.720  16.264  66.276  1.00  0.00    -0.329 C  
HETATM    2  C   UNL     1     -10.958  15.512  66.765  1.00  0.00    -0.257 C  
ENDROOT
BRANCH   2   3
HETATM    3  N   UNL     1     -10.820  14.802  68.063  1.00  0.00    -0.254 NA 
HETATM    4  C   UNL     1     -11.820  15.305  69.016  1.00  0.00    -0.318 C  
BRANCH   3   5
HETATM    5  C   UNL     1     -10.973  13.312  67.866  1.00  0.00    -0.249 C  
HETATM    6  C   UNL     1     -11.889  13.000  66.661  1.00  0.00    -0.455 C  
BRANCH   5   7
HETATM    7  C   UNL     1      -9.704  12.365  67.747  1.00  0.00    -0.201 C  
HETATM    8  H   UNL     1      -7.940  12.325  66.802  1.00  0.00     0.000 HD 
HETATM    9  O   UNL     1      -8.698  12.891  66.873  1.00  0.00    -0.209 OA 
BRANCH   7  10
HETATM   10  C   UNL     1      -9.884  10.878  67.490  1.00  0.00    -0.192 A  
HETATM   11  C   UNL     1      -9.452  10.343  66.260  1.00  0.00    -0.215 A  
HETATM   12  C   UNL     1      -9.609   8.985  65.968  1.00  0.00    -0.342 A  
HETATM   13  C   UNL     1     -10.210   8.142  66.895  1.00  0.00    -0.387 A  
HETATM   14  C   UNL     1     -10.658   8.658  68.110  1.00  0.00    -0.189 A  
HETATM   15  C   UNL     1     -10.503  10.019  68.403  1.00  0.00    -0.235 A  
ENDBRANCH   7  10
ENDBRANCH   5   7
ENDBRANCH   3   5
ENDBRANCH   2   3
TORSDOF 4
ENDMDL
MODEL      155
REMARK 921   NORMALIZED FREE ENERGY PREDICTED BY IDOCK:   -3.12 KCAL/MOL
REMARK 922        TOTAL FREE ENERGY PREDICTED BY IDOCK:   -4.25 KCAL/MOL
REMARK 923 INTER-LIGAND FREE ENERGY PREDICTED BY IDOCK:   -3.81 KCAL/MOL
REMARK 924 INTRA-LIGAND FREE ENERGY PREDICTED BY IDOCK:   -0.44 KCAL/MOL
REMARK 927      BINDING AFFINITY PREDICTED BY RF-SCORE:    0.00 PKD
ROOT
HETATM    1  C   UNL     1      -5.518  14.862  70.919  1.00  0.00    -0.134 C  
HETATM    2  C   UNL     1      -6.665  14.978  69.915  1.00  0.00    -0.170 C  
ENDROOT
BRANCH   2   3
HETATM    3  N   UNL     1      -6.713  16.234  69.121  1.00  0.00    -0.183 NA 
HETATM    4  C   UNL     1      -5.585  17.101  69.491  1.00  0.00    -0.199 C  
BRANCH   3   5
HETATM    5  C   UNL     1      -6.684  15.922  67.644  1.00  0.00    -0.170 C  
HETATM    6  C   UNL     1      -7.452  14.617  67.334  1.00  0.00    -0.212 C  
BRANCH   5   7
HETATM    7  C   UNL     1      -7.140  17.000  66.569  1.00  0.00    -0.271 C  
HETATM    8  H   UNL     1      -6.308  18.287  65.283  1.00  0.00     0.000 HD 
HETATM    9  O   UNL     1      -6.035  17.643  65.925  1.00  0.00    -0.191 OA 
BRANCH   7  10
HETATM   10  C   UNL     1      -8.201  18.028  66.925  1.00  0.00    -0.259 A  
HETATM   11  C   UNL     1      -9.554  17.632  66.934  1.00  0.00    -0.286 A  
HETATM   12  C   UNL     1     -10.570  18.544  67.239  1.00  0.00    -0.453 A  
HETATM   13  C   UNL     1     -10.253  19.865  67.528  1.00  0.00    -0.562 A  
HETATM   14  C   UNL     1      -8.920  20.276  67.507  1.00  0.00    -0.435 A  
HETATM   15  C   UNL     1      -7.901  19.365  67.201  1.00  0.00    -0.279 A  
ENDBRANCH   7  10
ENDBRANCH   5   7
ENDBRANCH   3   5
ENDBRANCH   2   3
TORSDOF 4
ENDMDL
MODEL      156
REMARK 921   NORMALIZED FREE ENERGY PREDICTED BY IDOCK:   -3.12 KCAL/MOL
REMARK 922        TOTAL FREE ENERGY PREDICTED BY IDOCK:   -4.24 KCAL/MOL
REMARK 923 INTER-LIGAND FREE ENERGY PREDICTED BY IDOCK:   -4.08 KCAL/MOL
REMARK 924 INTRA-LIGAND FREE ENERGY PREDICTED BY IDOCK:   -0.16 KCAL/MOL
REMARK 927      BINDING AFFINITY PREDICTED BY RF-SCORE:    0.00 PKD
ROOT
HETATM    1  C   UNL     1      -7.731  15.468  67.363  1.00  0.00    -0.222 C  
HETATM    2  C   UNL     1      -9.152  15.913  67.016  1.00  0.00    -0.217 C  
ENDROOT
BRANCH   2   3
HETATM    3  N   UNL     1     -10.121  15.936  68.143  1.00  0.00    -0.226 NA 
HETATM    4  C   UNL     1     -10.433  17.327  68.503  1.00  0.00    -0.375 C  
BRANCH   3   5
HETATM    5  C   UNL     1     -11.379  15.187  67.769  1.00  0.00    -0.328 C  
HETATM    6  C   UNL     1     -11.256  14.557  66.364  1.00  0.00    -0.341 C  
BRANCH   5   7
HETATM    7  C   UNL     1     -11.988  14.077  68.728  1.00  0.00    -0.347 C  
HETATM    8  H   UNL     1     -12.770  13.940  70.565  1.00  0.00     0.000 HD 
HETATM    9  O   UNL     1     -12.406  14.604  69.992  1.00  0.00    -0.319 OA 
BRANCH   7  10
HETATM   10  C   UNL     1     -11.253  12.762  68.934  1.00  0.00    -0.332 A  
HETATM   11  C   UNL     1     -11.887  11.738  69.666  1.00  0.00    -0.407 A  
HETATM   12  C   UNL     1     -11.249  10.515  69.897  1.00  0.00    -0.374 A  
HETATM   13  C   UNL     1      -9.965  10.301  69.410  1.00  0.00    -0.254 A  
HETATM   14  C   UNL     1      -9.318  11.310  68.698  1.00  0.00    -0.167 A  
HETATM   15  C   UNL     1      -9.955  12.536  68.467  1.00  0.00    -0.170 A  
ENDBRANCH   7  10
ENDBRANCH   5   7
ENDBRANCH   3   5
ENDBRANCH   2   3
TORSDOF 4
ENDMDL
MODEL      157
REMARK 921   NORMALIZED FREE ENERGY PREDICTED BY IDOCK:   -3.12 KCAL/MOL
REMARK 922        TOTAL FREE ENERGY PREDICTED BY IDOCK:   -4.24 KCAL/MOL
REMARK 923 INTER-LIGAND FREE ENERGY PREDICTED BY IDOCK:   -3.94 KCAL/MOL
REMARK 924 INTRA-LIGAND FREE ENERGY PREDICTED BY IDOCK:   -0.30 KCAL/MOL
REMARK 927      BINDING AFFINITY PREDICTED BY RF-SCORE:    0.00 PKD
ROOT
HETATM    1  C   UNL     1     -10.536   8.488  67.299  1.00  0.00    -0.366 C  
HETATM    2  C   UNL     1      -9.720   9.276  66.274  1.00  0.00    -0.271 C  
ENDROOT
BRANCH   2   3
HETATM    3  N   UNL     1      -8.448   9.866  66.767  1.00  0.00    -0.124 NA 
HETATM    4  C   UNL     1      -7.495   9.998  65.655  1.00  0.00    -0.137 C  
BRANCH   3   5
HETATM    5  C   UNL     1      -8.706  11.208  67.411  1.00  0.00    -0.133 C  
HETATM    6  C   UNL     1      -7.618  11.544  68.455  1.00  0.00    -0.125 C  
BRANCH   5   7
HETATM    7  C   UNL     1      -8.929  12.511  66.530  1.00  0.00    -0.132 C  
HETATM    8  H   UNL     1      -8.865  14.500  66.743  1.00  0.00     0.000 HD 
HETATM    9  O   UNL     1      -8.732  13.721  67.269  1.00  0.00    -0.199 OA 
BRANCH   7  10
HETATM   10  C   UNL     1     -10.164  12.636  65.654  1.00  0.00    -0.290 A  
HETATM   11  C   UNL     1     -10.071  12.275  64.294  1.00  0.00    -0.311 A  
HETATM   12  C   UNL     1     -11.174  12.386  63.441  1.00  0.00    -0.492 A  
HETATM   13  C   UNL     1     -12.382  12.869  63.929  1.00  0.00    -0.476 A  
HETATM   14  C   UNL     1     -12.486  13.245  65.268  1.00  0.00    -0.543 A  
HETATM   15  C   UNL     1     -11.382  13.136  66.123  1.00  0.00    -0.343 A  
ENDBRANCH   7  10
ENDBRANCH   5   7
ENDBRANCH   3   5
ENDBRANCH   2   3
TORSDOF 4
ENDMDL
MODEL      158
REMARK 921   NORMALIZED FREE ENERGY PREDICTED BY IDOCK:   -3.11 KCAL/MOL
REMARK 922        TOTAL FREE ENERGY PREDICTED BY IDOCK:   -4.23 KCAL/MOL
REMARK 923 INTER-LIGAND FREE ENERGY PREDICTED BY IDOCK:   -3.61 KCAL/MOL
REMARK 924 INTRA-LIGAND FREE ENERGY PREDICTED BY IDOCK:   -0.62 KCAL/MOL
REMARK 927      BINDING AFFINITY PREDICTED BY RF-SCORE:    0.00 PKD
ROOT
HETATM    1  C   UNL     1     -11.125  15.580  69.845  1.00  0.00    -0.318 C  
HETATM    2  C   UNL     1     -12.035  15.207  68.675  1.00  0.00    -0.240 C  
ENDROOT
BRANCH   2   3
HETATM    3  N   UNL     1     -11.716  13.932  67.980  1.00  0.00    -0.333 NA 
HETATM    4  C   UNL     1     -12.055  14.043  66.554  1.00  0.00    -0.459 C  
BRANCH   3   5
HETATM    5  C   UNL     1     -10.255  13.591  68.156  1.00  0.00    -0.249 C  
HETATM    6  C   UNL     1     -10.072  12.104  68.534  1.00  0.00    -0.192 C  
BRANCH   5   7
HETATM    7  C   UNL     1      -9.193  13.920  67.022  1.00  0.00    -0.250 C  
HETATM    8  H   UNL     1      -7.579  13.086  66.183  1.00  0.00     0.000 HD 
HETATM    9  O   UNL     1      -8.213  12.889  66.861  1.00  0.00    -0.124 OA 
BRANCH   7  10
HETATM   10  C   UNL     1      -8.521  15.282  66.980  1.00  0.00    -0.258 A  
HETATM   11  C   UNL     1      -7.147  15.372  67.284  1.00  0.00    -0.206 A  
HETATM   12  C   UNL     1      -6.485  16.603  67.275  1.00  0.00    -0.215 A  
HETATM   13  C   UNL     1      -7.185  17.765  66.975  1.00  0.00    -0.209 A  
HETATM   14  C   UNL     1      -8.548  17.696  66.687  1.00  0.00    -0.282 A  
HETATM   15  C   UNL     1      -9.213  16.463  66.697  1.00  0.00    -0.279 A  
ENDBRANCH   7  10
ENDBRANCH   5   7
ENDBRANCH   3   5
ENDBRANCH   2   3
TORSDOF 4
ENDMDL
MODEL      159
REMARK 921   NORMALIZED FREE ENERGY PREDICTED BY IDOCK:   -3.09 KCAL/MOL
REMARK 922        TOTAL FREE ENERGY PREDICTED BY IDOCK:   -4.21 KCAL/MOL
REMARK 923 INTER-LIGAND FREE ENERGY PREDICTED BY IDOCK:   -3.82 KCAL/MOL
REMARK 924 INTRA-LIGAND FREE ENERGY PREDICTED BY IDOCK:   -0.39 KCAL/MOL
REMARK 927      BINDING AFFINITY PREDICTED BY RF-SCORE:    0.00 PKD
ROOT
HETATM    1  C   UNL     1      -7.336   7.037  68.445  1.00  0.00    -0.100 C  
HETATM    2  C   UNL     1      -8.125   8.294  68.076  1.00  0.00    -0.127 C  
ENDROOT
BRANCH   2   3
HETATM    3  N   UNL     1      -8.168   8.635  66.630  1.00  0.00    -0.106 NA 
HETATM    4  C   UNL     1      -8.111   7.406  65.825  1.00  0.00    -0.129 C  
BRANCH   3   5
HETATM    5  C   UNL     1      -9.417   9.423  66.313  1.00  0.00    -0.214 C  
HETATM    6  C   UNL     1     -10.503   9.202  67.390  1.00  0.00    -0.339 C  
BRANCH   5   7
HETATM    7  C   UNL     1      -9.353  10.983  66.026  1.00  0.00    -0.201 C  
HETATM    8  H   UNL     1      -8.888  12.674  66.991  1.00  0.00     0.000 HD 
HETATM    9  O   UNL     1      -8.926  11.741  67.163  1.00  0.00    -0.166 OA 
BRANCH   7  10
HETATM   10  C   UNL     1     -10.520  11.682  65.348  1.00  0.00    -0.324 A  
HETATM   11  C   UNL     1     -11.251  12.644  66.074  1.00  0.00    -0.345 A  
HETATM   12  C   UNL     1     -12.343  13.304  65.502  1.00  0.00    -0.533 A  
HETATM   13  C   UNL     1     -12.729  13.006  64.201  1.00  0.00    -0.203 A  
HETATM   14  C   UNL     1     -12.026  12.045  63.474  1.00  0.00    -0.605 A  
HETATM   15  C   UNL     1     -10.933  11.382  64.046  1.00  0.00    -0.428 A  
ENDBRANCH   7  10
ENDBRANCH   5   7
ENDBRANCH   3   5
ENDBRANCH   2   3
TORSDOF 4
ENDMDL
MODEL      160
REMARK 921   NORMALIZED FREE ENERGY PREDICTED BY IDOCK:   -3.09 KCAL/MOL
REMARK 922        TOTAL FREE ENERGY PREDICTED BY IDOCK:   -4.20 KCAL/MOL
REMARK 923 INTER-LIGAND FREE ENERGY PREDICTED BY IDOCK:   -4.31 KCAL/MOL
REMARK 924 INTRA-LIGAND FREE ENERGY PREDICTED BY IDOCK:    0.11 KCAL/MOL
REMARK 927      BINDING AFFINITY PREDICTED BY RF-SCORE:    0.00 PKD
ROOT
HETATM    1  C   UNL     1     -11.450  15.031  70.772  1.00  0.00    -0.335 C  
HETATM    2  C   UNL     1     -12.003  15.190  69.355  1.00  0.00    -0.307 C  
ENDROOT
BRANCH   2   3
HETATM    3  N   UNL     1     -11.057  14.888  68.249  1.00  0.00    -0.270 NA 
HETATM    4  C   UNL     1      -9.958  15.865  68.253  1.00  0.00    -0.222 C  
BRANCH   3   5
HETATM    5  C   UNL     1     -10.522  13.482  68.384  1.00  0.00    -0.246 C  
HETATM    6  C   UNL     1     -11.671  12.461  68.540  1.00  0.00    -0.373 C  
BRANCH   5   7
HETATM    7  C   UNL     1      -9.507  12.885  67.319  1.00  0.00    -0.216 C  
HETATM    8  H   UNL     1      -7.707  13.309  66.552  1.00  0.00     0.000 HD 
HETATM    9  O   UNL     1      -8.314  13.666  67.189  1.00  0.00    -0.186 OA 
BRANCH   7  10
HETATM   10  C   UNL     1     -10.003  12.468  65.944  1.00  0.00    -0.269 A  
HETATM   11  C   UNL     1     -10.644  13.426  65.134  1.00  0.00    -0.353 A  
HETATM   12  C   UNL     1     -11.133  13.089  63.867  1.00  0.00    -0.411 A  
HETATM   13  C   UNL     1     -10.999  11.789  63.396  1.00  0.00    -0.458 A  
HETATM   14  C   UNL     1     -10.382  10.825  64.192  1.00  0.00    -0.382 A  
HETATM   15  C   UNL     1      -9.893  11.160  65.461  1.00  0.00    -0.281 A  
ENDBRANCH   7  10
ENDBRANCH   5   7
ENDBRANCH   3   5
ENDBRANCH   2   3
TORSDOF 4
ENDMDL
MODEL      161
REMARK 921   NORMALIZED FREE ENERGY PREDICTED BY IDOCK:   -3.08 KCAL/MOL
REMARK 922        TOTAL FREE ENERGY PREDICTED BY IDOCK:   -4.19 KCAL/MOL
REMARK 923 INTER-LIGAND FREE ENERGY PREDICTED BY IDOCK:   -3.92 KCAL/MOL
REMARK 924 INTRA-LIGAND FREE ENERGY PREDICTED BY IDOCK:   -0.27 KCAL/MOL
REMARK 927      BINDING AFFINITY PREDICTED BY RF-SCORE:    0.00 PKD
ROOT
HETATM    1  C   UNL     1      -6.420   9.831  67.049  1.00  0.00    -0.066 C  
HETATM    2  C   UNL     1      -7.668   9.154  67.616  1.00  0.00    -0.089 C  
ENDROOT
BRANCH   2   3
HETATM    3  N   UNL     1      -8.962   9.826  67.329  1.00  0.00    -0.135 NA 
HETATM    4  C   UNL     1      -9.169   9.912  65.875  1.00  0.00    -0.176 C  
BRANCH   3   5
HETATM    5  C   UNL     1     -10.099   9.080  67.986  1.00  0.00    -0.190 C  
HETATM    6  C   UNL     1     -10.451   7.797  67.201  1.00  0.00    -0.413 C  
BRANCH   5   7
HETATM    7  C   UNL     1     -10.042   8.687  69.524  1.00  0.00    -0.203 C  
HETATM    8  H   UNL     1      -9.573   7.105  70.657  1.00  0.00     0.000 HD 
HETATM    9  O   UNL     1      -9.607   7.340  69.737  1.00  0.00    -0.163 OA 
BRANCH   7  10
HETATM   10  C   UNL     1     -11.218   9.001  70.434  1.00  0.00    -0.275 A  
HETATM   11  C   UNL     1     -11.597  10.346  70.615  1.00  0.00    -0.440 A  
HETATM   12  C   UNL     1     -12.662  10.689  71.454  1.00  0.00    -0.545 A  
HETATM   13  C   UNL     1     -13.357   9.696  72.134  1.00  0.00    -0.545 A  
HETATM   14  C   UNL     1     -12.984   8.362  71.978  1.00  0.00    -0.388 A  
HETATM   15  C   UNL     1     -11.917   8.016  71.139  1.00  0.00    -0.297 A  
ENDBRANCH   7  10
ENDBRANCH   5   7
ENDBRANCH   3   5
ENDBRANCH   2   3
TORSDOF 4
ENDMDL
MODEL      162
REMARK 921   NORMALIZED FREE ENERGY PREDICTED BY IDOCK:   -3.08 KCAL/MOL
REMARK 922        TOTAL FREE ENERGY PREDICTED BY IDOCK:   -4.19 KCAL/MOL
REMARK 923 INTER-LIGAND FREE ENERGY PREDICTED BY IDOCK:   -3.77 KCAL/MOL
REMARK 924 INTRA-LIGAND FREE ENERGY PREDICTED BY IDOCK:   -0.42 KCAL/MOL
REMARK 927      BINDING AFFINITY PREDICTED BY RF-SCORE:    0.00 PKD
ROOT
HETATM    1  C   UNL     1      -8.476  16.408  68.421  1.00  0.00    -0.204 C  
HETATM    2  C   UNL     1      -9.248  15.807  67.246  1.00  0.00    -0.207 C  
ENDROOT
BRANCH   2   3
HETATM    3  N   UNL     1     -10.624  15.330  67.546  1.00  0.00    -0.267 NA 
HETATM    4  C   UNL     1     -11.402  16.411  68.168  1.00  0.00    -0.205 C  
BRANCH   3   5
HETATM    5  C   UNL     1     -11.298  14.845  66.284  1.00  0.00    -0.306 C  
HETATM    6  C   UNL     1     -10.839  15.664  65.057  1.00  0.00    -0.468 C  
BRANCH   5   7
HETATM    7  C   UNL     1     -11.254  13.313  65.867  1.00  0.00    -0.290 C  
HETATM    8  H   UNL     1     -12.527  11.854  65.362  1.00  0.00     0.000 HD 
HETATM    9  O   UNL     1     -12.553  12.770  65.611  1.00  0.00    -0.596 OA 
BRANCH   7  10
HETATM   10  C   UNL     1     -10.432  12.326  66.680  1.00  0.00    -0.247 A  
HETATM   11  C   UNL     1     -11.057  11.627  67.733  1.00  0.00    -0.309 A  
HETATM   12  C   UNL     1     -10.341  10.719  68.520  1.00  0.00    -0.202 A  
HETATM   13  C   UNL     1      -8.991  10.504  68.277  1.00  0.00    -0.139 A  
HETATM   14  C   UNL     1      -8.354  11.200  67.249  1.00  0.00    -0.135 A  
HETATM   15  C   UNL     1      -9.068  12.110  66.460  1.00  0.00    -0.199 A  
ENDBRANCH   7  10
ENDBRANCH   5   7
ENDBRANCH   3   5
ENDBRANCH   2   3
TORSDOF 4
ENDMDL
MODEL      163
REMARK 921   NORMALIZED FREE ENERGY PREDICTED BY IDOCK:   -3.08 KCAL/MOL
REMARK 922        TOTAL FREE ENERGY PREDICTED BY IDOCK:   -4.19 KCAL/MOL
REMARK 923 INTER-LIGAND FREE ENERGY PREDICTED BY IDOCK:   -3.86 KCAL/MOL
REMARK 924 INTRA-LIGAND FREE ENERGY PREDICTED BY IDOCK:   -0.33 KCAL/MOL
REMARK 927      BINDING AFFINITY PREDICTED BY RF-SCORE:    0.00 PKD
ROOT
HETATM    1  C   UNL     1     -10.927   7.805  72.195  1.00  0.00    -0.318 C  
HETATM    2  C   UNL     1     -10.478   8.256  70.805  1.00  0.00    -0.196 C  
ENDROOT
BRANCH   2   3
HETATM    3  N   UNL     1     -11.176   9.444  70.248  1.00  0.00    -0.250 NA 
HETATM    4  C   UNL     1     -11.480  10.395  71.327  1.00  0.00    -0.032 C  
BRANCH   3   5
HETATM    5  C   UNL     1     -10.328  10.099  69.182  1.00  0.00    -0.219 C  
HETATM    6  C   UNL     1      -8.879   9.563  69.216  1.00  0.00    -0.153 C  
BRANCH   5   7
HETATM    7  C   UNL     1     -10.788  10.113  67.662  1.00  0.00    -0.290 C  
HETATM    8  H   UNL     1     -10.317   9.209  65.939  1.00  0.00     0.000 HD 
HETATM    9  O   UNL     1     -10.043   9.201  66.848  1.00  0.00    -0.215 OA 
BRANCH   7  10
HETATM   10  C   UNL     1     -10.962  11.434  66.931  1.00  0.00    -0.355 A  
HETATM   11  C   UNL     1     -11.710  12.457  67.547  1.00  0.00    -0.425 A  
HETATM   12  C   UNL     1     -11.913  13.686  66.911  1.00  0.00    -0.454 A  
HETATM   13  C   UNL     1     -11.382  13.907  65.646  1.00  0.00    -0.310 A  
HETATM   14  C   UNL     1     -10.653  12.899  65.016  1.00  0.00    -0.333 A  
HETATM   15  C   UNL     1     -10.450  11.667  65.651  1.00  0.00    -0.314 A  
ENDBRANCH   7  10
ENDBRANCH   5   7
ENDBRANCH   3   5
ENDBRANCH   2   3
TORSDOF 4
ENDMDL
MODEL      164
REMARK 921   NORMALIZED FREE ENERGY PREDICTED BY IDOCK:   -3.08 KCAL/MOL
REMARK 922        TOTAL FREE ENERGY PREDICTED BY IDOCK:   -4.19 KCAL/MOL
REMARK 923 INTER-LIGAND FREE ENERGY PREDICTED BY IDOCK:   -3.87 KCAL/MOL
REMARK 924 INTRA-LIGAND FREE ENERGY PREDICTED BY IDOCK:   -0.32 KCAL/MOL
REMARK 927      BINDING AFFINITY PREDICTED BY RF-SCORE:    0.00 PKD
ROOT
HETATM    1  C   UNL     1     -12.185  12.896  63.383  1.00  0.00    -0.574 C  
HETATM    2  C   UNL     1     -12.484  12.600  64.853  1.00  0.00    -0.494 C  
ENDROOT
BRANCH   2   3
HETATM    3  N   UNL     1     -11.325  12.175  65.681  1.00  0.00    -0.340 NA 
HETATM    4  C   UNL     1     -10.217  11.754  64.810  1.00  0.00    -0.282 C  
BRANCH   3   5
HETATM    5  C   UNL     1     -10.890  13.298  66.592  1.00  0.00    -0.281 C  
HETATM    6  C   UNL     1     -12.081  14.213  66.956  1.00  0.00    -0.449 C  
BRANCH   5   7
HETATM    7  C   UNL     1     -10.098  13.003  67.937  1.00  0.00    -0.235 C  
HETATM    8  H   UNL     1     -10.488  12.674  69.872  1.00  0.00     0.000 HD 
HETATM    9  O   UNL     1     -10.962  12.850  69.068  1.00  0.00    -0.246 OA 
BRANCH   7  10
HETATM   10  C   UNL     1      -8.897  13.855  68.316  1.00  0.00    -0.185 A  
HETATM   11  C   UNL     1      -7.604  13.328  68.126  1.00  0.00    -0.141 A  
HETATM   12  C   UNL     1      -6.467  14.064  68.472  1.00  0.00    -0.093 A  
HETATM   13  C   UNL     1      -6.603  15.332  69.024  1.00  0.00    -0.118 A  
HETATM   14  C   UNL     1      -7.876  15.862  69.233  1.00  0.00    -0.226 A  
HETATM   15  C   UNL     1      -9.017  15.125  68.888  1.00  0.00    -0.206 A  
ENDBRANCH   7  10
ENDBRANCH   5   7
ENDBRANCH   3   5
ENDBRANCH   2   3
TORSDOF 4
ENDMDL
MODEL      165
REMARK 921   NORMALIZED FREE ENERGY PREDICTED BY IDOCK:   -3.07 KCAL/MOL
REMARK 922        TOTAL FREE ENERGY PREDICTED BY IDOCK:   -4.18 KCAL/MOL
REMARK 923 INTER-LIGAND FREE ENERGY PREDICTED BY IDOCK:   -4.49 KCAL/MOL
REMARK 924 INTRA-LIGAND FREE ENERGY PREDICTED BY IDOCK:    0.31 KCAL/MOL
REMARK 927      BINDING AFFINITY PREDICTED BY RF-SCORE:    0.00 PKD
ROOT
HETATM    1  C   UNL     1     -11.888  13.048  69.408  1.00  0.00    -0.380 C  
HETATM    2  C   UNL     1     -11.968  13.906  68.146  1.00  0.00    -0.350 C  
ENDROOT
BRANCH   2   3
HETATM    3  N   UNL     1     -11.849  13.180  66.855  1.00  0.00    -0.383 NA 
HETATM    4  C   UNL     1     -12.671  13.843  65.832  1.00  0.00    -0.421 C  
BRANCH   3   5
HETATM    5  C   UNL     1     -10.404  13.116  66.419  1.00  0.00    -0.287 C  
HETATM    6  C   UNL     1     -10.288  13.049  64.880  1.00  0.00    -0.343 C  
BRANCH   5   7
HETATM    7  C   UNL     1      -9.348  14.190  66.922  1.00  0.00    -0.264 C  
HETATM    8  H   UNL     1      -8.015  14.414  68.398  1.00  0.00     0.000 HD 
HETATM    9  O   UNL     1      -8.646  13.772  68.098  1.00  0.00    -0.160 OA 
BRANCH   7  10
HETATM   10  C   UNL     1      -9.750  15.650  67.053  1.00  0.00    -0.234 A  
HETATM   11  C   UNL     1     -10.044  16.381  65.884  1.00  0.00    -0.370 A  
HETATM   12  C   UNL     1     -10.403  17.731  65.949  1.00  0.00    -0.257 A  
HETATM   13  C   UNL     1     -10.464  18.374  67.179  1.00  0.00    -0.434 A  
HETATM   14  C   UNL     1     -10.161  17.669  68.344  1.00  0.00    -0.381 A  
HETATM   15  C   UNL     1      -9.799  16.318  68.281  1.00  0.00    -0.227 A  
ENDBRANCH   7  10
ENDBRANCH   5   7
ENDBRANCH   3   5
ENDBRANCH   2   3
TORSDOF 4
ENDMDL
MODEL      166
REMARK 921   NORMALIZED FREE ENERGY PREDICTED BY IDOCK:   -3.06 KCAL/MOL
REMARK 922        TOTAL FREE ENERGY PREDICTED BY IDOCK:   -4.17 KCAL/MOL
REMARK 923 INTER-LIGAND FREE ENERGY PREDICTED BY IDOCK:   -3.84 KCAL/MOL
REMARK 924 INTRA-LIGAND FREE ENERGY PREDICTED BY IDOCK:   -0.34 KCAL/MOL
REMARK 927      BINDING AFFINITY PREDICTED BY RF-SCORE:    0.00 PKD
ROOT
HETATM    1  C   UNL     1     -11.069  13.378  64.770  1.00  0.00    -0.363 C  
HETATM    2  C   UNL     1     -11.494  14.681  65.448  1.00  0.00    -0.352 C  
ENDROOT
BRANCH   2   3
HETATM    3  N   UNL     1     -10.612  15.164  66.542  1.00  0.00    -0.298 NA 
HETATM    4  C   UNL     1      -9.536  14.191  66.782  1.00  0.00    -0.279 C  
BRANCH   3   5
HETATM    5  C   UNL     1     -10.039  16.519  66.196  1.00  0.00    -0.348 C  
HETATM    6  C   UNL     1     -10.743  17.122  64.960  1.00  0.00     0.091 C  
BRANCH   5   7
HETATM    7  C   UNL     1      -9.939  17.670  67.286  1.00  0.00    -0.322 C  
HETATM    8  H   UNL     1     -11.042  19.191  67.974  1.00  0.00     0.000 HD 
HETATM    9  O   UNL     1     -11.102  18.503  67.323  1.00  0.00    -0.260 OA 
BRANCH   7  10
HETATM   10  C   UNL     1      -8.686  18.527  67.375  1.00  0.00    -0.270 A  
HETATM   11  C   UNL     1      -7.442  17.893  67.569  1.00  0.00    -0.213 A  
HETATM   12  C   UNL     1      -6.262  18.637  67.673  1.00  0.00    -0.191 A  
HETATM   13  C   UNL     1      -6.308  20.023  67.597  1.00  0.00    -0.249 A  
HETATM   14  C   UNL     1      -7.533  20.666  67.421  1.00  0.00    -0.384 A  
HETATM   15  C   UNL     1      -8.716  19.923  67.318  1.00  0.00    -0.399 A  
ENDBRANCH   7  10
ENDBRANCH   5   7
ENDBRANCH   3   5
ENDBRANCH   2   3
TORSDOF 4
ENDMDL
MODEL      167
REMARK 921   NORMALIZED FREE ENERGY PREDICTED BY IDOCK:   -3.06 KCAL/MOL
REMARK 922        TOTAL FREE ENERGY PREDICTED BY IDOCK:   -4.17 KCAL/MOL
REMARK 923 INTER-LIGAND FREE ENERGY PREDICTED BY IDOCK:   -3.76 KCAL/MOL
REMARK 924 INTRA-LIGAND FREE ENERGY PREDICTED BY IDOCK:   -0.41 KCAL/MOL
REMARK 927      BINDING AFFINITY PREDICTED BY RF-SCORE:    0.00 PKD
ROOT
HETATM    1  C   UNL     1      -7.990   7.384  67.796  1.00  0.00    -0.118 C  
HETATM    2  C   UNL     1      -8.977   8.545  67.916  1.00  0.00    -0.137 C  
ENDROOT
BRANCH   2   3
HETATM    3  N   UNL     1     -10.358   8.187  68.333  1.00  0.00    -0.208 NA 
HETATM    4  C   UNL     1     -10.759   6.923  67.696  1.00  0.00    -0.274 C  
BRANCH   3   5
HETATM    5  C   UNL     1     -10.441   8.076  69.837  1.00  0.00    -0.233 C  
HETATM    6  C   UNL     1     -10.509   9.473  70.495  1.00  0.00    -0.358 C  
BRANCH   5   7
HETATM    7  C   UNL     1     -11.549   7.176  70.533  1.00  0.00    -0.290 C  
HETATM    8  H   UNL     1     -13.212   7.409  71.622  1.00  0.00     0.000 HD 
HETATM    9  O   UNL     1     -12.550   7.947  71.206  1.00  0.00    -0.304 OA 
BRANCH   7  10
HETATM   10  C   UNL     1     -11.137   5.996  71.399  1.00  0.00    -0.336 A  
HETATM   11  C   UNL     1     -10.245   5.043  70.867  1.00  0.00    -0.287 A  
HETATM   12  C   UNL     1      -9.847   3.931  71.617  1.00  0.00    -0.247 A  
HETATM   13  C   UNL     1     -10.342   3.748  72.902  1.00  0.00    -0.241 A  
HETATM   14  C   UNL     1     -11.238   4.674  73.436  1.00  0.00    -0.423 A  
HETATM   15  C   UNL     1     -11.639   5.787  72.687  1.00  0.00    -0.304 A  
ENDBRANCH   7  10
ENDBRANCH   5   7
ENDBRANCH   3   5
ENDBRANCH   2   3
TORSDOF 4
ENDMDL
MODEL      168
REMARK 921   NORMALIZED FREE ENERGY PREDICTED BY IDOCK:   -3.04 KCAL/MOL
REMARK 922        TOTAL FREE ENERGY PREDICTED BY IDOCK:   -4.15 KCAL/MOL
REMARK 923 INTER-LIGAND FREE ENERGY PREDICTED BY IDOCK:   -3.79 KCAL/MOL
REMARK 924 INTRA-LIGAND FREE ENERGY PREDICTED BY IDOCK:   -0.36 KCAL/MOL
REMARK 927      BINDING AFFINITY PREDICTED BY RF-SCORE:    0.00 PKD
ROOT
HETATM    1  C   UNL     1      -8.610   7.272  73.176  1.00  0.00    -0.163 C  
HETATM    2  C   UNL     1      -9.392   7.389  71.867  1.00  0.00    -0.136 C  
ENDROOT
BRANCH   2   3
HETATM    3  N   UNL     1      -9.308   8.700  71.172  1.00  0.00    -0.195 NA 
HETATM    4  C   UNL     1      -8.248   8.658  70.154  1.00  0.00    -0.123 C  
BRANCH   3   5
HETATM    5  C   UNL     1     -10.638   9.047  70.544  1.00  0.00    -0.227 C  
HETATM    6  C   UNL     1     -11.796   8.302  71.244  1.00  0.00    -0.319 C  
BRANCH   5   7
HETATM    7  C   UNL     1     -11.092  10.559  70.368  1.00  0.00    -0.244 C  
HETATM    8  H   UNL     1     -12.525  11.787  71.032  1.00  0.00     0.000 HD 
HETATM    9  O   UNL     1     -12.254  10.884  71.138  1.00  0.00    -0.352 OA 
BRANCH   7  10
HETATM   10  C   UNL     1     -11.209  11.162  68.977  1.00  0.00    -0.318 A  
HETATM   11  C   UNL     1     -10.565  10.517  67.901  1.00  0.00    -0.271 A  
HETATM   12  C   UNL     1     -10.629  11.039  66.605  1.00  0.00    -0.315 A  
HETATM   13  C   UNL     1     -11.326  12.217  66.366  1.00  0.00    -0.405 A  
HETATM   14  C   UNL     1     -11.954  12.875  67.422  1.00  0.00    -0.360 A  
HETATM   15  C   UNL     1     -11.890  12.355  68.721  1.00  0.00    -0.358 A  
ENDBRANCH   7  10
ENDBRANCH   5   7
ENDBRANCH   3   5
ENDBRANCH   2   3
TORSDOF 4
ENDMDL
MODEL      169
REMARK 921   NORMALIZED FREE ENERGY PREDICTED BY IDOCK:   -3.03 KCAL/MOL
REMARK 922        TOTAL FREE ENERGY PREDICTED BY IDOCK:   -4.14 KCAL/MOL
REMARK 923 INTER-LIGAND FREE ENERGY PREDICTED BY IDOCK:   -4.25 KCAL/MOL
REMARK 924 INTRA-LIGAND FREE ENERGY PREDICTED BY IDOCK:    0.11 KCAL/MOL
REMARK 927      BINDING AFFINITY PREDICTED BY RF-SCORE:    0.00 PKD
ROOT
HETATM    1  C   UNL     1     -10.725  14.913  64.856  1.00  0.00    -0.426 C  
HETATM    2  C   UNL     1     -11.201  14.814  66.305  1.00  0.00    -0.343 C  
ENDROOT
BRANCH   2   3
HETATM    3  N   UNL     1     -10.606  13.718  67.113  1.00  0.00    -0.275 NA 
HETATM    4  C   UNL     1     -10.213  12.607  66.234  1.00  0.00    -0.251 C  
BRANCH   3   5
HETATM    5  C   UNL     1      -9.418  14.227  67.895  1.00  0.00    -0.212 C  
HETATM    6  C   UNL     1      -8.289  14.694  66.949  1.00  0.00    -0.159 C  
BRANCH   5   7
HETATM    7  C   UNL     1      -9.587  15.344  69.011  1.00  0.00    -0.236 C  
HETATM    8  H   UNL     1     -10.849  15.813  70.492  1.00  0.00     0.000 HD 
HETATM    9  O   UNL     1     -10.748  15.145  69.825  1.00  0.00    -0.259 OA 
BRANCH   7  10
HETATM   10  C   UNL     1      -9.460  16.813  68.643  1.00  0.00    -0.255 A  
HETATM   11  C   UNL     1      -8.209  17.445  68.792  1.00  0.00    -0.226 A  
HETATM   12  C   UNL     1      -8.042  18.798  68.482  1.00  0.00    -0.379 A  
HETATM   13  C   UNL     1      -9.124  19.544  68.031  1.00  0.00    -0.386 A  
HETATM   14  C   UNL     1     -10.373  18.938  67.893  1.00  0.00    -0.473 A  
HETATM   15  C   UNL     1     -10.542  17.583  68.204  1.00  0.00    -0.366 A  
ENDBRANCH   7  10
ENDBRANCH   5   7
ENDBRANCH   3   5
ENDBRANCH   2   3
TORSDOF 4
ENDMDL
MODEL      170
REMARK 921   NORMALIZED FREE ENERGY PREDICTED BY IDOCK:   -3.03 KCAL/MOL
REMARK 922        TOTAL FREE ENERGY PREDICTED BY IDOCK:   -4.13 KCAL/MOL
REMARK 923 INTER-LIGAND FREE ENERGY PREDICTED BY IDOCK:   -3.69 KCAL/MOL
REMARK 924 INTRA-LIGAND FREE ENERGY PREDICTED BY IDOCK:   -0.44 KCAL/MOL
REMARK 927      BINDING AFFINITY PREDICTED BY RF-SCORE:    0.00 PKD
ROOT
HETATM    1  C   UNL     1      -6.949  13.213  68.841  1.00  0.00    -0.093 C  
HETATM    2  C   UNL     1      -7.519  11.823  68.554  1.00  0.00    -0.110 C  
ENDROOT
BRANCH   2   3
HETATM    3  N   UNL     1      -8.257  11.673  67.273  1.00  0.00    -0.152 NA 
HETATM    4  C   UNL     1      -7.557  10.715  66.404  1.00  0.00    -0.138 C  
BRANCH   3   5
HETATM    5  C   UNL     1      -9.674  11.220  67.533  1.00  0.00    -0.177 C  
HETATM    6  C   UNL     1      -9.754  10.340  68.800  1.00  0.00    -0.178 C  
BRANCH   5   7
HETATM    7  C   UNL     1     -10.868  12.265  67.612  1.00  0.00    -0.225 C  
HETATM    8  H   UNL     1     -12.869  12.264  67.656  1.00  0.00     0.000 HD 
HETATM    9  O   UNL     1     -12.155  11.639  67.608  1.00  0.00    -0.615 OA 
BRANCH   7  10
HETATM   10  C   UNL     1     -10.880  13.478  66.697  1.00  0.00    -0.283 A  
HETATM   11  C   UNL     1     -10.300  14.679  67.153  1.00  0.00    -0.265 A  
HETATM   12  C   UNL     1     -10.299  15.828  66.356  1.00  0.00    -0.306 A  
HETATM   13  C   UNL     1     -10.886  15.799  65.097  1.00  0.00    -0.444 A  
HETATM   14  C   UNL     1     -11.478  14.623  64.637  1.00  0.00    -0.389 A  
HETATM   15  C   UNL     1     -11.481  13.472  65.435  1.00  0.00    -0.318 A  
ENDBRANCH   7  10
ENDBRANCH   5   7
ENDBRANCH   3   5
ENDBRANCH   2   3
TORSDOF 4
ENDMDL
MODEL      171
REMARK 921   NORMALIZED FREE ENERGY PREDICTED BY IDOCK:   -3.02 KCAL/MOL
REMARK 922        TOTAL FREE ENERGY PREDICTED BY IDOCK:   -4.12 KCAL/MOL
REMARK 923 INTER-LIGAND FREE ENERGY PREDICTED BY IDOCK:   -3.67 KCAL/MOL
REMARK 924 INTRA-LIGAND FREE ENERGY PREDICTED BY IDOCK:   -0.45 KCAL/MOL
REMARK 927      BINDING AFFINITY PREDICTED BY RF-SCORE:    0.00 PKD
ROOT
HETATM    1  C   UNL     1     -10.387   8.314  66.835  1.00  0.00    -0.391 C  
HETATM    2  C   UNL     1      -9.343   9.378  67.174  1.00  0.00    -0.139 C  
ENDROOT
BRANCH   2   3
HETATM    3  N   UNL     1      -7.960   8.883  67.404  1.00  0.00    -0.101 NA 
HETATM    4  C   UNL     1      -6.988   9.878  66.926  1.00  0.00    -0.088 C  
BRANCH   3   5
HETATM    5  C   UNL     1      -7.744   8.589  68.870  1.00  0.00    -0.100 C  
HETATM    6  C   UNL     1      -6.261   8.273  69.163  1.00  0.00    -0.039 C  
BRANCH   5   7
HETATM    7  C   UNL     1      -8.238   9.600  69.991  1.00  0.00    -0.184 C  
HETATM    8  H   UNL     1      -7.465  10.687  71.483  1.00  0.00     0.000 HD 
HETATM    9  O   UNL     1      -7.170  10.083  70.813  1.00  0.00    -0.328 OA 
BRANCH   7  10
HETATM   10  C   UNL     1      -9.439   9.253  70.855  1.00  0.00    -0.330 A  
HETATM   11  C   UNL     1     -10.665   9.903  70.607  1.00  0.00    -0.372 A  
HETATM   12  C   UNL     1     -11.796   9.630  71.384  1.00  0.00    -0.484 A  
HETATM   13  C   UNL     1     -11.717   8.714  72.425  1.00  0.00    -0.393 A  
HETATM   14  C   UNL     1     -10.508   8.074  72.693  1.00  0.00    -0.408 A  
HETATM   15  C   UNL     1      -9.374   8.346  71.917  1.00  0.00    -0.313 A  
ENDBRANCH   7  10
ENDBRANCH   5   7
ENDBRANCH   3   5
ENDBRANCH   2   3
TORSDOF 4
ENDMDL
MODEL      172
REMARK 921   NORMALIZED FREE ENERGY PREDICTED BY IDOCK:   -3.02 KCAL/MOL
REMARK 922        TOTAL FREE ENERGY PREDICTED BY IDOCK:   -4.12 KCAL/MOL
REMARK 923 INTER-LIGAND FREE ENERGY PREDICTED BY IDOCK:   -3.87 KCAL/MOL
REMARK 924 INTRA-LIGAND FREE ENERGY PREDICTED BY IDOCK:   -0.24 KCAL/MOL
REMARK 927      BINDING AFFINITY PREDICTED BY RF-SCORE:    0.00 PKD
ROOT
HETATM    1  C   UNL     1      -6.728  19.767  65.319  1.00  0.00    -0.317 C  
HETATM    2  C   UNL     1      -7.692  19.870  66.501  1.00  0.00    -0.295 C  
ENDROOT
BRANCH   2   3
HETATM    3  N   UNL     1      -7.321  19.094  67.714  1.00  0.00    -0.245 NA 
HETATM    4  C   UNL     1      -6.655  19.975  68.685  1.00  0.00    -0.306 C  
BRANCH   3   5
HETATM    5  C   UNL     1      -8.547  18.457  68.324  1.00  0.00    -0.303 C  
HETATM    6  C   UNL     1      -9.772  18.602  67.394  1.00  0.00    -0.330 C  
BRANCH   5   7
HETATM    7  C   UNL     1      -8.522  16.953  68.835  1.00  0.00    -0.202 C  
HETATM    8  H   UNL     1      -7.426  15.297  68.585  1.00  0.00     0.000 HD 
HETATM    9  O   UNL     1      -7.441  16.196  68.280  1.00  0.00    -0.138 OA 
BRANCH   7  10
HETATM   10  C   UNL     1      -9.795  16.123  68.821  1.00  0.00    -0.230 A  
HETATM   11  C   UNL     1     -10.641  16.158  69.948  1.00  0.00    -0.302 A  
HETATM   12  C   UNL     1     -11.816  15.401  69.992  1.00  0.00    -0.368 A  
HETATM   13  C   UNL     1     -12.158  14.589  68.917  1.00  0.00    -0.272 A  
HETATM   14  C   UNL     1     -11.323  14.531  67.802  1.00  0.00    -0.335 A  
HETATM   15  C   UNL     1     -10.145  15.287  67.757  1.00  0.00    -0.230 A  
ENDBRANCH   7  10
ENDBRANCH   5   7
ENDBRANCH   3   5
ENDBRANCH   2   3
TORSDOF 4
ENDMDL
MODEL      173
REMARK 921   NORMALIZED FREE ENERGY PREDICTED BY IDOCK:   -3.01 KCAL/MOL
REMARK 922        TOTAL FREE ENERGY PREDICTED BY IDOCK:   -4.11 KCAL/MOL
REMARK 923 INTER-LIGAND FREE ENERGY PREDICTED BY IDOCK:   -3.78 KCAL/MOL
REMARK 924 INTRA-LIGAND FREE ENERGY PREDICTED BY IDOCK:   -0.33 KCAL/MOL
REMARK 927      BINDING AFFINITY PREDICTED BY RF-SCORE:    0.00 PKD
ROOT
HETATM    1  C   UNL     1     -11.781  11.743  63.638  1.00  0.00    -0.517 C  
HETATM    2  C   UNL     1     -10.259  11.610  63.695  1.00  0.00    -0.412 C  
ENDROOT
BRANCH   2   3
HETATM    3  N   UNL     1      -9.736  10.313  64.198  1.00  0.00    -0.310 NA 
HETATM    4  C   UNL     1      -9.003   9.622  63.127  1.00  0.00    -0.232 C  
BRANCH   3   5
HETATM    5  C   UNL     1      -8.845  10.536  65.397  1.00  0.00    -0.187 C  
HETATM    6  C   UNL     1      -9.517  11.474  66.424  1.00  0.00    -0.230 C  
BRANCH   5   7
HETATM    7  C   UNL     1      -8.239   9.312  66.207  1.00  0.00    -0.107 C  
HETATM    8  H   UNL     1      -6.551   8.238  66.273  1.00  0.00     0.000 HD 
HETATM    9  O   UNL     1      -6.913   8.970  65.788  1.00  0.00    -0.078 OA 
BRANCH   7  10
HETATM   10  C   UNL     1      -9.060   8.048  66.405  1.00  0.00    -0.226 A  
HETATM   11  C   UNL     1      -8.563   6.829  65.899  1.00  0.00    -0.153 A  
HETATM   12  C   UNL     1      -9.287   5.641  66.041  1.00  0.00    -0.150 A  
HETATM   13  C   UNL     1     -10.521   5.653  66.679  1.00  0.00    -0.340 A  
HETATM   14  C   UNL     1     -11.034   6.853  67.170  1.00  0.00    -0.427 A  
HETATM   15  C   UNL     1     -10.311   8.045  67.028  1.00  0.00    -0.414 A  
ENDBRANCH   7  10
ENDBRANCH   5   7
ENDBRANCH   3   5
ENDBRANCH   2   3
TORSDOF 4
ENDMDL
MODEL      174
REMARK 921   NORMALIZED FREE ENERGY PREDICTED BY IDOCK:   -3.01 KCAL/MOL
REMARK 922        TOTAL FREE ENERGY PREDICTED BY IDOCK:   -4.11 KCAL/MOL
REMARK 923 INTER-LIGAND FREE ENERGY PREDICTED BY IDOCK:   -3.78 KCAL/MOL
REMARK 924 INTRA-LIGAND FREE ENERGY PREDICTED BY IDOCK:   -0.33 KCAL/MOL
REMARK 927      BINDING AFFINITY PREDICTED BY RF-SCORE:    0.00 PKD
ROOT
HETATM    1  C   UNL     1     -11.093  12.553  64.924  1.00  0.00    -0.336 C  
HETATM    2  C   UNL     1     -12.048  13.281  65.871  1.00  0.00    -0.441 C  
ENDROOT
BRANCH   2   3
HETATM    3  N   UNL     1     -11.691  13.244  67.313  1.00  0.00    -0.358 NA 
HETATM    4  C   UNL     1     -10.498  12.407  67.510  1.00  0.00    -0.215 C  
BRANCH   3   5
HETATM    5  C   UNL     1     -11.452  14.642  67.831  1.00  0.00    -0.329 C  
HETATM    6  C   UNL     1     -12.408  14.975  68.999  1.00  0.00    -0.056 C  
BRANCH   5   7
HETATM    7  C   UNL     1     -10.001  15.121  68.264  1.00  0.00    -0.223 C  
HETATM    8  H   UNL     1      -8.985  15.520  69.942  1.00  0.00     0.000 HD 
HETATM    9  O   UNL     1      -9.853  15.234  69.683  1.00  0.00    -0.252 OA 
BRANCH   7  10
HETATM   10  C   UNL     1      -9.358  16.316  67.580  1.00  0.00    -0.218 A  
HETATM   11  C   UNL     1      -7.958  16.333  67.417  1.00  0.00    -0.179 A  
HETATM   12  C   UNL     1      -7.315  17.416  66.808  1.00  0.00    -0.250 A  
HETATM   13  C   UNL     1      -8.059  18.503  66.365  1.00  0.00    -0.295 A  
HETATM   14  C   UNL     1      -9.443  18.509  66.534  1.00  0.00    -0.322 A  
HETATM   15  C   UNL     1     -10.088  17.426  67.144  1.00  0.00    -0.307 A  
ENDBRANCH   7  10
ENDBRANCH   5   7
ENDBRANCH   3   5
ENDBRANCH   2   3
TORSDOF 4
ENDMDL
MODEL      175
REMARK 921   NORMALIZED FREE ENERGY PREDICTED BY IDOCK:   -3.00 KCAL/MOL
REMARK 922        TOTAL FREE ENERGY PREDICTED BY IDOCK:   -4.09 KCAL/MOL
REMARK 923 INTER-LIGAND FREE ENERGY PREDICTED BY IDOCK:   -3.73 KCAL/MOL
REMARK 924 INTRA-LIGAND FREE ENERGY PREDICTED BY IDOCK:   -0.37 KCAL/MOL
REMARK 927      BINDING AFFINITY PREDICTED BY RF-SCORE:    0.00 PKD
ROOT
HETATM    1  C   UNL     1     -10.646  10.886  65.281  1.00  0.00    -0.259 C  
HETATM    2  C   UNL     1     -10.694  12.344  65.739  1.00  0.00    -0.267 C  
ENDROOT
BRANCH   2   3
HETATM    3  N   UNL     1     -10.500  13.367  64.679  1.00  0.00    -0.407 NA 
HETATM    4  C   UNL     1     -11.699  13.438  63.830  1.00  0.00    -0.376 C  
BRANCH   3   5
HETATM    5  C   UNL     1     -10.203  14.713  65.296  1.00  0.00    -0.391 C  
HETATM    6  C   UNL     1     -11.150  15.802  64.742  1.00  0.00    -0.413 C  
BRANCH   5   7
HETATM    7  C   UNL     1     -10.148  14.899  66.872  1.00  0.00    -0.242 C  
HETATM    8  H   UNL     1     -11.055  15.976  68.294  1.00  0.00     0.000 HD 
HETATM    9  O   UNL     1     -11.089  15.865  67.352  1.00  0.00    -0.301 OA 
BRANCH   7  10
HETATM   10  C   UNL     1      -8.811  15.089  67.570  1.00  0.00    -0.193 A  
HETATM   11  C   UNL     1      -8.650  16.185  68.443  1.00  0.00    -0.189 A  
HETATM   12  C   UNL     1      -7.436  16.414  69.097  1.00  0.00    -0.228 A  
HETATM   13  C   UNL     1      -6.361  15.560  68.882  1.00  0.00    -0.108 A  
HETATM   14  C   UNL     1      -6.498  14.481  68.010  1.00  0.00    -0.158 A  
HETATM   15  C   UNL     1      -7.713  14.251  67.352  1.00  0.00    -0.194 A  
ENDBRANCH   7  10
ENDBRANCH   5   7
ENDBRANCH   3   5
ENDBRANCH   2   3
TORSDOF 4
ENDMDL
MODEL      176
REMARK 921   NORMALIZED FREE ENERGY PREDICTED BY IDOCK:   -2.99 KCAL/MOL
REMARK 922        TOTAL FREE ENERGY PREDICTED BY IDOCK:   -4.08 KCAL/MOL
REMARK 923 INTER-LIGAND FREE ENERGY PREDICTED BY IDOCK:   -3.97 KCAL/MOL
REMARK 924 INTRA-LIGAND FREE ENERGY PREDICTED BY IDOCK:   -0.12 KCAL/MOL
REMARK 927      BINDING AFFINITY PREDICTED BY RF-SCORE:    0.00 PKD
ROOT
HETATM    1  C   UNL     1      -8.736   7.382  71.974  1.00  0.00    -0.125 C  
HETATM    2  C   UNL     1     -10.240   7.486  71.721  1.00  0.00    -0.187 C  
ENDROOT
BRANCH   2   3
HETATM    3  N   UNL     1     -10.663   7.483  70.296  1.00  0.00    -0.234 NA 
HETATM    4  C   UNL     1     -11.750   6.512  70.101  1.00  0.00    -0.353 C  
BRANCH   3   5
HETATM    5  C   UNL     1     -11.100   8.866  69.874  1.00  0.00    -0.136 C  
HETATM    6  C   UNL     1     -11.558   9.701  71.091  1.00  0.00    -0.456 C  
BRANCH   5   7
HETATM    7  C   UNL     1     -10.154   9.794  68.999  1.00  0.00    -0.187 C  
HETATM    8  H   UNL     1      -8.418  10.773  69.181  1.00  0.00     0.000 HD 
HETATM    9  O   UNL     1      -8.983  10.218  69.705  1.00  0.00    -0.190 OA 
BRANCH   7  10
HETATM   10  C   UNL     1     -10.741  10.961  68.222  1.00  0.00    -0.244 A  
HETATM   11  C   UNL     1     -11.245  12.068  68.936  1.00  0.00    -0.315 A  
HETATM   12  C   UNL     1     -11.808  13.160  68.270  1.00  0.00    -0.384 A  
HETATM   13  C   UNL     1     -11.888  13.161  66.883  1.00  0.00    -0.444 A  
HETATM   14  C   UNL     1     -11.408  12.067  66.162  1.00  0.00    -0.407 A  
HETATM   15  C   UNL     1     -10.845  10.971  66.828  1.00  0.00    -0.307 A  
ENDBRANCH   7  10
ENDBRANCH   5   7
ENDBRANCH   3   5
ENDBRANCH   2   3
TORSDOF 4
ENDMDL
MODEL      177
REMARK 921   NORMALIZED FREE ENERGY PREDICTED BY IDOCK:   -2.98 KCAL/MOL
REMARK 922        TOTAL FREE ENERGY PREDICTED BY IDOCK:   -4.07 KCAL/MOL
REMARK 923 INTER-LIGAND FREE ENERGY PREDICTED BY IDOCK:   -4.35 KCAL/MOL
REMARK 924 INTRA-LIGAND FREE ENERGY PREDICTED BY IDOCK:    0.28 KCAL/MOL
REMARK 927      BINDING AFFINITY PREDICTED BY RF-SCORE:    0.00 PKD
ROOT
HETATM    1  C   UNL     1      -7.785  14.763  69.269  1.00  0.00    -0.129 C  
HETATM    2  C   UNL     1      -8.875  15.269  68.324  1.00  0.00    -0.171 C  
ENDROOT
BRANCH   2   3
HETATM    3  N   UNL     1      -8.943  14.609  66.994  1.00  0.00    -0.228 NA 
HETATM    4  C   UNL     1      -8.521  13.205  67.111  1.00  0.00    -0.169 C  
BRANCH   3   5
HETATM    5  C   UNL     1     -10.343  14.700  66.434  1.00  0.00    -0.289 C  
HETATM    6  C   UNL     1     -10.568  13.651  65.322  1.00  0.00    -0.354 C  
BRANCH   5   7
HETATM    7  C   UNL     1     -11.612  14.653  67.386  1.00  0.00    -0.389 C  
HETATM    8  H   UNL     1     -12.607  15.865  68.630  1.00  0.00     0.000 HD 
HETATM    9  O   UNL     1     -11.848  15.894  68.061  1.00  0.00    -0.170 OA 
BRANCH   7  10
HETATM   10  C   UNL     1     -11.795  13.496  68.355  1.00  0.00    -0.408 A  
HETATM   11  C   UNL     1     -12.036  13.780  69.714  1.00  0.00    -0.400 A  
HETATM   12  C   UNL     1     -12.196  12.751  70.649  1.00  0.00    -0.374 A  
HETATM   13  C   UNL     1     -12.107  11.426  70.242  1.00  0.00    -0.459 A  
HETATM   14  C   UNL     1     -11.853  11.128  68.904  1.00  0.00    -0.406 A  
HETATM   15  C   UNL     1     -11.691  12.157  67.967  1.00  0.00    -0.409 A  
ENDBRANCH   7  10
ENDBRANCH   5   7
ENDBRANCH   3   5
ENDBRANCH   2   3
TORSDOF 4
ENDMDL
MODEL      178
REMARK 921   NORMALIZED FREE ENERGY PREDICTED BY IDOCK:   -2.98 KCAL/MOL
REMARK 922        TOTAL FREE ENERGY PREDICTED BY IDOCK:   -4.07 KCAL/MOL
REMARK 923 INTER-LIGAND FREE ENERGY PREDICTED BY IDOCK:   -3.71 KCAL/MOL
REMARK 924 INTRA-LIGAND FREE ENERGY PREDICTED BY IDOCK:   -0.36 KCAL/MOL
REMARK 927      BINDING AFFINITY PREDICTED BY RF-SCORE:    0.00 PKD
ROOT
HETATM    1  C   UNL     1     -10.161  10.296  65.513  1.00  0.00    -0.308 C  
HETATM    2  C   UNL     1     -10.891  11.634  65.390  1.00  0.00    -0.280 C  
ENDROOT
BRANCH   2   3
HETATM    3  N   UNL     1     -10.428  12.716  66.299  1.00  0.00    -0.248 NA 
HETATM    4  C   UNL     1      -9.165  12.321  66.941  1.00  0.00    -0.209 C  
BRANCH   3   5
HETATM    5  C   UNL     1     -10.256  14.007  65.534  1.00  0.00    -0.343 C  
HETATM    6  C   UNL     1     -11.252  14.093  64.355  1.00  0.00    -0.290 C  
BRANCH   5   7
HETATM    7  C   UNL     1     -10.287  15.410  66.276  1.00  0.00    -0.294 C  
HETATM    8  H   UNL     1      -9.157  17.054  66.434  1.00  0.00     0.000 HD 
HETATM    9  O   UNL     1      -9.138  16.215  65.990  1.00  0.00    -0.329 OA 
BRANCH   7  10
HETATM   10  C   UNL     1     -10.610  15.480  67.759  1.00  0.00    -0.281 A  
HETATM   11  C   UNL     1      -9.548  15.542  68.684  1.00  0.00    -0.203 A  
HETATM   12  C   UNL     1      -9.792  15.593  70.060  1.00  0.00    -0.092 A  
HETATM   13  C   UNL     1     -11.097  15.570  70.534  1.00  0.00    -0.369 A  
HETATM   14  C   UNL     1     -12.159  15.493  69.633  1.00  0.00    -0.352 A  
HETATM   15  C   UNL     1     -11.917  15.441  68.255  1.00  0.00    -0.109 A  
ENDBRANCH   7  10
ENDBRANCH   5   7
ENDBRANCH   3   5
ENDBRANCH   2   3
TORSDOF 4
ENDMDL
MODEL      179
REMARK 921   NORMALIZED FREE ENERGY PREDICTED BY IDOCK:   -2.96 KCAL/MOL
REMARK 922        TOTAL FREE ENERGY PREDICTED BY IDOCK:   -4.04 KCAL/MOL
REMARK 923 INTER-LIGAND FREE ENERGY PREDICTED BY IDOCK:   -3.65 KCAL/MOL
REMARK 924 INTRA-LIGAND FREE ENERGY PREDICTED BY IDOCK:   -0.40 KCAL/MOL
REMARK 927      BINDING AFFINITY PREDICTED BY RF-SCORE:    0.00 PKD
ROOT
HETATM    1  C   UNL     1      -6.943  13.847  67.706  1.00  0.00    -0.181 C  
HETATM    2  C   UNL     1      -7.060  15.306  67.265  1.00  0.00    -0.152 C  
ENDROOT
BRANCH   2   3
HETATM    3  N   UNL     1      -7.627  16.246  68.267  1.00  0.00    -0.148 NA 
HETATM    4  C   UNL     1      -6.581  17.170  68.731  1.00  0.00    -0.191 C  
BRANCH   3   5
HETATM    5  C   UNL     1      -8.787  17.009  67.673  1.00  0.00    -0.220 C  
HETATM    6  C   UNL     1      -8.308  18.309  66.988  1.00  0.00    -0.256 C  
BRANCH   5   7
HETATM    7  C   UNL     1      -9.809  16.307  66.680  1.00  0.00    -0.253 C  
HETATM    8  H   UNL     1     -11.329  16.810  65.480  1.00  0.00     0.000 HD 
HETATM    9  O   UNL     1     -10.719  17.230  66.073  1.00  0.00    -0.249 OA 
BRANCH   7  10
HETATM   10  C   UNL     1     -10.556  15.057  67.115  1.00  0.00    -0.295 A  
HETATM   11  C   UNL     1     -11.135  14.233  66.129  1.00  0.00    -0.324 A  
HETATM   12  C   UNL     1     -11.846  13.080  66.477  1.00  0.00    -0.464 A  
HETATM   13  C   UNL     1     -11.999  12.738  67.815  1.00  0.00    -0.316 A  
HETATM   14  C   UNL     1     -11.446  13.551  68.804  1.00  0.00    -0.349 A  
HETATM   15  C   UNL     1     -10.735  14.707  68.457  1.00  0.00    -0.248 A  
ENDBRANCH   7  10
ENDBRANCH   5   7
ENDBRANCH   3   5
ENDBRANCH   2   3
TORSDOF 4
ENDMDL
MODEL      180
REMARK 921   NORMALIZED FREE ENERGY PREDICTED BY IDOCK:   -2.95 KCAL/MOL
REMARK 922        TOTAL FREE ENERGY PREDICTED BY IDOCK:   -4.04 KCAL/MOL
REMARK 923 INTER-LIGAND FREE ENERGY PREDICTED BY IDOCK:   -3.93 KCAL/MOL
REMARK 924 INTRA-LIGAND FREE ENERGY PREDICTED BY IDOCK:   -0.10 KCAL/MOL
REMARK 927      BINDING AFFINITY PREDICTED BY RF-SCORE:    0.00 PKD
ROOT
HETATM    1  C   UNL     1      -6.518  20.499  64.826  1.00  0.00    -0.337 C  
HETATM    2  C   UNL     1      -7.243  19.575  65.806  1.00  0.00    -0.295 C  
ENDROOT
BRANCH   2   3
HETATM    3  N   UNL     1      -6.779  18.163  65.835  1.00  0.00    -0.271 NA 
HETATM    4  C   UNL     1      -5.388  18.085  65.365  1.00  0.00    -0.124 C  
BRANCH   3   5
HETATM    5  C   UNL     1      -6.903  17.599  67.231  1.00  0.00    -0.162 C  
HETATM    6  C   UNL     1      -7.753  18.523  68.132  1.00  0.00    -0.302 C  
BRANCH   5   7
HETATM    7  C   UNL     1      -7.410  16.114  67.473  1.00  0.00    -0.159 C  
HETATM    8  H   UNL     1      -6.669  14.254  67.490  1.00  0.00     0.000 HD 
HETATM    9  O   UNL     1      -6.366  15.142  67.346  1.00  0.00    -0.297 OA 
BRANCH   7  10
HETATM   10  C   UNL     1      -8.667  15.615  66.779  1.00  0.00    -0.306 A  
HETATM   11  C   UNL     1      -9.018  14.256  66.904  1.00  0.00    -0.255 A  
HETATM   12  C   UNL     1     -10.156  13.743  66.272  1.00  0.00    -0.304 A  
HETATM   13  C   UNL     1     -10.953  14.577  65.497  1.00  0.00    -0.337 A  
HETATM   14  C   UNL     1     -10.610  15.920  65.350  1.00  0.00    -0.439 A  
HETATM   15  C   UNL     1      -9.470  16.435  65.981  1.00  0.00    -0.345 A  
ENDBRANCH   7  10
ENDBRANCH   5   7
ENDBRANCH   3   5
ENDBRANCH   2   3
TORSDOF 4
ENDMDL
MODEL      181
REMARK 921   NORMALIZED FREE ENERGY PREDICTED BY IDOCK:   -2.95 KCAL/MOL
REMARK 922        TOTAL FREE ENERGY PREDICTED BY IDOCK:   -4.03 KCAL/MOL
REMARK 923 INTER-LIGAND FREE ENERGY PREDICTED BY IDOCK:   -3.66 KCAL/MOL
REMARK 924 INTRA-LIGAND FREE ENERGY PREDICTED BY IDOCK:   -0.37 KCAL/MOL
REMARK 927      BINDING AFFINITY PREDICTED BY RF-SCORE:    0.00 PKD
ROOT
HETATM    1  C   UNL     1      -9.048  15.413  66.751  1.00  0.00    -0.286 C  
HETATM    2  C   UNL     1     -10.361  14.839  67.285  1.00  0.00    -0.247 C  
ENDROOT
BRANCH   2   3
HETATM    3  N   UNL     1     -10.285  14.153  68.602  1.00  0.00    -0.238 NA 
HETATM    4  C   UNL     1     -11.097  14.880  69.589  1.00  0.00    -0.276 C  
BRANCH   3   5
HETATM    5  C   UNL     1     -10.751  12.722  68.477  1.00  0.00    -0.253 C  
HETATM    6  C   UNL     1     -11.580  12.517  67.189  1.00  0.00    -0.437 C  
BRANCH   5   7
HETATM    7  C   UNL     1      -9.725  11.514  68.570  1.00  0.00    -0.189 C  
HETATM    8  H   UNL     1      -8.433  10.541  67.391  1.00  0.00     0.000 HD 
HETATM    9  O   UNL     1      -9.046  11.264  67.334  1.00  0.00    -0.149 OA 
BRANCH   7  10
HETATM   10  C   UNL     1     -10.152  10.199  69.200  1.00  0.00    -0.226 A  
HETATM   11  C   UNL     1      -9.895   8.998  68.508  1.00  0.00    -0.184 A  
HETATM   12  C   UNL     1     -10.282   7.763  69.037  1.00  0.00    -0.213 A  
HETATM   13  C   UNL     1     -10.941   7.708  70.258  1.00  0.00    -0.261 A  
HETATM   14  C   UNL     1     -11.217   8.887  70.949  1.00  0.00    -0.334 A  
HETATM   15  C   UNL     1     -10.832  10.126  70.420  1.00  0.00    -0.365 A  
ENDBRANCH   7  10
ENDBRANCH   5   7
ENDBRANCH   3   5
ENDBRANCH   2   3
TORSDOF 4
ENDMDL
MODEL      182
REMARK 921   NORMALIZED FREE ENERGY PREDICTED BY IDOCK:   -2.94 KCAL/MOL
REMARK 922        TOTAL FREE ENERGY PREDICTED BY IDOCK:   -4.03 KCAL/MOL
REMARK 923 INTER-LIGAND FREE ENERGY PREDICTED BY IDOCK:   -3.72 KCAL/MOL
REMARK 924 INTRA-LIGAND FREE ENERGY PREDICTED BY IDOCK:   -0.31 KCAL/MOL
REMARK 927      BINDING AFFINITY PREDICTED BY RF-SCORE:    0.00 PKD
ROOT
HETATM    1  C   UNL     1      -7.517   6.844  65.556  1.00  0.00    -0.086 C  
HETATM    2  C   UNL     1      -8.081   8.212  65.943  1.00  0.00    -0.115 C  
ENDROOT
BRANCH   2   3
HETATM    3  N   UNL     1      -8.046   8.545  67.391  1.00  0.00    -0.105 NA 
HETATM    4  C   UNL     1      -7.118   9.662  67.622  1.00  0.00    -0.088 C  
BRANCH   3   5
HETATM    5  C   UNL     1      -9.431   8.892  67.883  1.00  0.00    -0.142 C  
HETATM    6  C   UNL     1     -10.505   8.512  66.840  1.00  0.00    -0.345 C  
BRANCH   5   7
HETATM    7  C   UNL     1      -9.950   8.384  69.296  1.00  0.00    -0.195 C  
HETATM    8  H   UNL     1     -10.720   6.725  70.109  1.00  0.00     0.000 HD 
HETATM    9  O   UNL     1     -10.410   7.028  69.264  1.00  0.00    -0.187 OA 
BRANCH   7  10
HETATM   10  C   UNL     1     -10.912   9.237  70.105  1.00  0.00    -0.278 A  
HETATM   11  C   UNL     1     -11.657   8.629  71.137  1.00  0.00    -0.330 A  
HETATM   12  C   UNL     1     -12.567   9.366  71.901  1.00  0.00    -0.481 A  
HETATM   13  C   UNL     1     -12.757  10.718  71.639  1.00  0.00    -0.520 A  
HETATM   14  C   UNL     1     -12.040  11.330  70.612  1.00  0.00    -0.480 A  
HETATM   15  C   UNL     1     -11.129  10.594  69.845  1.00  0.00    -0.364 A  
ENDBRANCH   7  10
ENDBRANCH   5   7
ENDBRANCH   3   5
ENDBRANCH   2   3
TORSDOF 4
ENDMDL
MODEL      183
REMARK 921   NORMALIZED FREE ENERGY PREDICTED BY IDOCK:   -2.94 KCAL/MOL
REMARK 922        TOTAL FREE ENERGY PREDICTED BY IDOCK:   -4.03 KCAL/MOL
REMARK 923 INTER-LIGAND FREE ENERGY PREDICTED BY IDOCK:   -3.69 KCAL/MOL
REMARK 924 INTRA-LIGAND FREE ENERGY PREDICTED BY IDOCK:   -0.34 KCAL/MOL
REMARK 927      BINDING AFFINITY PREDICTED BY RF-SCORE:    0.00 PKD
ROOT
HETATM    1  C   UNL     1     -10.086   9.690  66.409  1.00  0.00    -0.317 C  
HETATM    2  C   UNL     1      -9.127   8.743  67.130  1.00  0.00    -0.132 C  
ENDROOT
BRANCH   2   3
HETATM    3  N   UNL     1      -9.194   7.314  66.726  1.00  0.00    -0.149 NA 
HETATM    4  C   UNL     1      -7.888   6.674  66.937  1.00  0.00    -0.108 C  
BRANCH   3   5
HETATM    5  C   UNL     1     -10.272   6.598  67.505  1.00  0.00    -0.181 C  
HETATM    6  C   UNL     1     -10.597   5.225  66.875  1.00  0.00    -0.283 C  
BRANCH   5   7
HETATM    7  C   UNL     1     -10.140   6.374  69.072  1.00  0.00    -0.165 C  
HETATM    8  H   UNL     1     -10.173   4.864  70.385  1.00  0.00     0.000 HD 
HETATM    9  O   UNL     1     -10.252   4.998  69.448  1.00  0.00    -0.228 OA 
BRANCH   7  10
HETATM   10  C   UNL     1     -10.936   7.240  70.034  1.00  0.00    -0.273 A  
HETATM   11  C   UNL     1     -11.871   6.621  70.890  1.00  0.00    -0.434 A  
HETATM   12  C   UNL     1     -12.640   7.374  71.783  1.00  0.00    -0.367 A  
HETATM   13  C   UNL     1     -12.497   8.755  71.827  1.00  0.00    -0.407 A  
HETATM   14  C   UNL     1     -11.588   9.384  70.977  1.00  0.00    -0.400 A  
HETATM   15  C   UNL     1     -10.818   8.632  70.081  1.00  0.00    -0.242 A  
ENDBRANCH   7  10
ENDBRANCH   5   7
ENDBRANCH   3   5
ENDBRANCH   2   3
TORSDOF 4
ENDMDL
MODEL      184
REMARK 921   NORMALIZED FREE ENERGY PREDICTED BY IDOCK:   -2.94 KCAL/MOL
REMARK 922        TOTAL FREE ENERGY PREDICTED BY IDOCK:   -4.02 KCAL/MOL
REMARK 923 INTER-LIGAND FREE ENERGY PREDICTED BY IDOCK:   -3.48 KCAL/MOL
REMARK 924 INTRA-LIGAND FREE ENERGY PREDICTED BY IDOCK:   -0.54 KCAL/MOL
REMARK 927      BINDING AFFINITY PREDICTED BY RF-SCORE:    0.00 PKD
ROOT
HETATM    1  C   UNL     1      -7.121   8.389  67.372  1.00  0.00    -0.080 C  
HETATM    2  C   UNL     1      -6.791   9.877  67.260  1.00  0.00    -0.083 C  
ENDROOT
BRANCH   2   3
HETATM    3  N   UNL     1      -7.855  10.740  66.683  1.00  0.00    -0.134 NA 
HETATM    4  C   UNL     1      -8.263  10.217  65.370  1.00  0.00    -0.156 C  
BRANCH   3   5
HETATM    5  C   UNL     1      -9.038  10.812  67.619  1.00  0.00    -0.147 C  
HETATM    6  C   UNL     1      -9.429  12.278  67.911  1.00  0.00    -0.200 C  
BRANCH   5   7
HETATM    7  C   UNL     1     -10.380  10.022  67.308  1.00  0.00    -0.237 C  
HETATM    8  H   UNL     1     -12.357  10.319  67.402  1.00  0.00     0.000 HD 
HETATM    9  O   UNL     1     -11.555  10.792  67.588  1.00  0.00    -0.523 OA 
BRANCH   7  10
HETATM   10  C   UNL     1     -10.561   8.600  67.814  1.00  0.00    -0.249 A  
HETATM   11  C   UNL     1     -10.477   8.356  69.199  1.00  0.00    -0.218 A  
HETATM   12  C   UNL     1     -10.621   7.064  69.714  1.00  0.00    -0.253 A  
HETATM   13  C   UNL     1     -10.840   5.995  68.854  1.00  0.00    -0.400 A  
HETATM   14  C   UNL     1     -10.910   6.218  67.479  1.00  0.00    -0.436 A  
HETATM   15  C   UNL     1     -10.765   7.511  66.961  1.00  0.00    -0.367 A  
ENDBRANCH   7  10
ENDBRANCH   5   7
ENDBRANCH   3   5
ENDBRANCH   2   3
TORSDOF 4
ENDMDL
MODEL      185
REMARK 921   NORMALIZED FREE ENERGY PREDICTED BY IDOCK:   -2.93 KCAL/MOL
REMARK 922        TOTAL FREE ENERGY PREDICTED BY IDOCK:   -4.01 KCAL/MOL
REMARK 923 INTER-LIGAND FREE ENERGY PREDICTED BY IDOCK:   -3.42 KCAL/MOL
REMARK 924 INTRA-LIGAND FREE ENERGY PREDICTED BY IDOCK:   -0.59 KCAL/MOL
REMARK 927      BINDING AFFINITY PREDICTED BY RF-SCORE:    0.00 PKD
ROOT
HETATM    1  C   UNL     1      -7.032   8.519  70.416  1.00  0.00    -0.038 C  
HETATM    2  C   UNL     1      -7.343   7.684  71.658  1.00  0.00    -0.068 C  
ENDROOT
BRANCH   2   3
HETATM    3  N   UNL     1      -8.318   6.577  71.472  1.00  0.00    -0.120 NA 
HETATM    4  C   UNL     1      -7.771   5.332  72.031  1.00  0.00    -0.100 C  
BRANCH   3   5
HETATM    5  C   UNL     1      -9.634   6.922  72.127  1.00  0.00    -0.144 C  
HETATM    6  C   UNL     1      -9.465   8.066  73.151  1.00  0.00    -0.349 C  
BRANCH   5   7
HETATM    7  C   UNL     1     -10.919   7.259  71.257  1.00  0.00    -0.243 C  
HETATM    8  H   UNL     1     -12.821   6.660  71.086  1.00  0.00     0.000 HD 
HETATM    9  O   UNL     1     -12.053   6.458  71.606  1.00  0.00    -0.332 OA 
BRANCH   7  10
HETATM   10  C   UNL     1     -10.809   7.366  69.745  1.00  0.00    -0.246 A  
HETATM   11  C   UNL     1     -11.008   6.208  68.966  1.00  0.00    -0.436 A  
HETATM   12  C   UNL     1     -10.902   6.250  67.572  1.00  0.00    -0.436 A  
HETATM   13  C   UNL     1     -10.585   7.443  66.936  1.00  0.00    -0.375 A  
HETATM   14  C   UNL     1     -10.369   8.594  67.693  1.00  0.00    -0.317 A  
HETATM   15  C   UNL     1     -10.473   8.555  69.089  1.00  0.00    -0.217 A  
ENDBRANCH   7  10
ENDBRANCH   5   7
ENDBRANCH   3   5
ENDBRANCH   2   3
TORSDOF 4
ENDMDL
MODEL      186
REMARK 921   NORMALIZED FREE ENERGY PREDICTED BY IDOCK:   -2.93 KCAL/MOL
REMARK 922        TOTAL FREE ENERGY PREDICTED BY IDOCK:   -4.00 KCAL/MOL
REMARK 923 INTER-LIGAND FREE ENERGY PREDICTED BY IDOCK:   -3.64 KCAL/MOL
REMARK 924 INTRA-LIGAND FREE ENERGY PREDICTED BY IDOCK:   -0.36 KCAL/MOL
REMARK 927      BINDING AFFINITY PREDICTED BY RF-SCORE:    0.00 PKD
ROOT
HETATM    1  C   UNL     1     -10.818   6.603  69.121  1.00  0.00    -0.329 C  
HETATM    2  C   UNL     1     -10.512   7.768  68.179  1.00  0.00    -0.176 C  
ENDROOT
BRANCH   2   3
HETATM    3  N   UNL     1      -9.605   8.818  68.713  1.00  0.00    -0.156 NA 
HETATM    4  C   UNL     1      -8.205   8.404  68.537  1.00  0.00    -0.124 C  
BRANCH   3   5
HETATM    5  C   UNL     1      -9.862  10.136  68.022  1.00  0.00    -0.148 C  
HETATM    6  C   UNL     1     -10.347   9.919  66.571  1.00  0.00    -0.259 C  
BRANCH   5   7
HETATM    7  C   UNL     1     -10.809  11.232  68.673  1.00  0.00    -0.204 C  
HETATM    8  H   UNL     1     -12.758  11.523  69.021  1.00  0.00     0.000 HD 
HETATM    9  O   UNL     1     -12.193  10.867  68.632  1.00  0.00    -0.533 OA 
BRANCH   7  10
HETATM   10  C   UNL     1     -10.649  12.696  68.297  1.00  0.00    -0.250 A  
HETATM   11  C   UNL     1     -11.806  13.480  68.113  1.00  0.00    -0.400 A  
HETATM   12  C   UNL     1     -11.714  14.828  67.752  1.00  0.00    -0.368 A  
HETATM   13  C   UNL     1     -10.468  15.410  67.558  1.00  0.00    -0.275 A  
HETATM   14  C   UNL     1      -9.314  14.644  67.721  1.00  0.00    -0.197 A  
HETATM   15  C   UNL     1      -9.404  13.294  68.081  1.00  0.00    -0.220 A  
ENDBRANCH   7  10
ENDBRANCH   5   7
ENDBRANCH   3   5
ENDBRANCH   2   3
TORSDOF 4
ENDMDL
MODEL      187
REMARK 921   NORMALIZED FREE ENERGY PREDICTED BY IDOCK:   -2.92 KCAL/MOL
REMARK 922        TOTAL FREE ENERGY PREDICTED BY IDOCK:   -4.00 KCAL/MOL
REMARK 923 INTER-LIGAND FREE ENERGY PREDICTED BY IDOCK:   -3.67 KCAL/MOL
REMARK 924 INTRA-LIGAND FREE ENERGY PREDICTED BY IDOCK:   -0.33 KCAL/MOL
REMARK 927      BINDING AFFINITY PREDICTED BY RF-SCORE:    0.00 PKD
ROOT
HETATM    1  C   UNL     1     -11.795  14.105  69.587  1.00  0.00    -0.379 C  
HETATM    2  C   UNL     1     -12.064  12.633  69.272  1.00  0.00    -0.166 C  
ENDROOT
BRANCH   2   3
HETATM    3  N   UNL     1     -11.674  11.659  70.325  1.00  0.00    -0.308 NA 
HETATM    4  C   UNL     1     -12.780  11.488  71.279  1.00  0.00    -0.364 C  
BRANCH   3   5
HETATM    5  C   UNL     1     -11.297  10.336  69.702  1.00  0.00    -0.257 C  
HETATM    6  C   UNL     1     -11.061  10.482  68.182  1.00  0.00    -0.346 C  
BRANCH   5   7
HETATM    7  C   UNL     1     -10.098   9.470  70.281  1.00  0.00    -0.262 C  
HETATM    8  H   UNL     1      -8.115   9.311  70.066  1.00  0.00     0.000 HD 
HETATM    9  O   UNL     1      -8.831   9.830  69.720  1.00  0.00    -0.193 OA 
BRANCH   7  10
HETATM   10  C   UNL     1     -10.219   7.956  70.355  1.00  0.00    -0.197 A  
HETATM   11  C   UNL     1      -9.431   7.169  69.491  1.00  0.00    -0.151 A  
HETATM   12  C   UNL     1      -9.516   5.773  69.509  1.00  0.00    -0.168 A  
HETATM   13  C   UNL     1     -10.396   5.143  70.380  1.00  0.00    -0.326 A  
HETATM   14  C   UNL     1     -11.194   5.908  71.230  1.00  0.00    -0.280 A  
HETATM   15  C   UNL     1     -11.111   7.306  71.213  1.00  0.00    -0.270 A  
ENDBRANCH   7  10
ENDBRANCH   5   7
ENDBRANCH   3   5
ENDBRANCH   2   3
TORSDOF 4
ENDMDL
MODEL      188
REMARK 921   NORMALIZED FREE ENERGY PREDICTED BY IDOCK:   -2.89 KCAL/MOL
REMARK 922        TOTAL FREE ENERGY PREDICTED BY IDOCK:   -3.96 KCAL/MOL
REMARK 923 INTER-LIGAND FREE ENERGY PREDICTED BY IDOCK:   -4.15 KCAL/MOL
REMARK 924 INTRA-LIGAND FREE ENERGY PREDICTED BY IDOCK:    0.19 KCAL/MOL
REMARK 927      BINDING AFFINITY PREDICTED BY RF-SCORE:    0.00 PKD
ROOT
HETATM    1  C   UNL     1     -10.368  11.803  65.043  1.00  0.00    -0.325 C  
HETATM    2  C   UNL     1     -10.317  11.383  66.512  1.00  0.00    -0.236 C  
ENDROOT
BRANCH   2   3
HETATM    3  N   UNL     1     -10.231   9.922  66.770  1.00  0.00    -0.233 NA 
HETATM    4  C   UNL     1      -9.599   9.250  65.626  1.00  0.00    -0.254 C  
BRANCH   3   5
HETATM    5  C   UNL     1      -9.456   9.658  68.039  1.00  0.00    -0.132 C  
HETATM    6  C   UNL     1      -8.972  10.977  68.682  1.00  0.00    -0.167 C  
BRANCH   5   7
HETATM    7  C   UNL     1     -10.067   8.766  69.203  1.00  0.00    -0.198 C  
HETATM    8  H   UNL     1     -10.833   6.934  69.451  1.00  0.00     0.000 HD 
HETATM    9  O   UNL     1     -10.468   7.466  68.755  1.00  0.00    -0.203 OA 
BRANCH   7  10
HETATM   10  C   UNL     1     -11.125   9.342  70.129  1.00  0.00    -0.277 A  
HETATM   11  C   UNL     1     -11.689  10.597  69.818  1.00  0.00    -0.385 A  
HETATM   12  C   UNL     1     -12.655  11.178  70.645  1.00  0.00    -0.408 A  
HETATM   13  C   UNL     1     -13.064  10.523  71.800  1.00  0.00    -0.570 A  
HETATM   14  C   UNL     1     -12.504   9.289  72.130  1.00  0.00    -0.421 A  
HETATM   15  C   UNL     1     -11.536   8.706  71.304  1.00  0.00    -0.341 A  
ENDBRANCH   7  10
ENDBRANCH   5   7
ENDBRANCH   3   5
ENDBRANCH   2   3
TORSDOF 4
ENDMDL
MODEL      189
REMARK 921   NORMALIZED FREE ENERGY PREDICTED BY IDOCK:   -2.87 KCAL/MOL
REMARK 922        TOTAL FREE ENERGY PREDICTED BY IDOCK:   -3.93 KCAL/MOL
REMARK 923 INTER-LIGAND FREE ENERGY PREDICTED BY IDOCK:   -3.53 KCAL/MOL
REMARK 924 INTRA-LIGAND FREE ENERGY PREDICTED BY IDOCK:   -0.40 KCAL/MOL
REMARK 927      BINDING AFFINITY PREDICTED BY RF-SCORE:    0.00 PKD
ROOT
HETATM    1  C   UNL     1     -10.471   8.804  68.000  1.00  0.00    -0.260 C  
HETATM    2  C   UNL     1     -10.110  10.119  68.692  1.00  0.00    -0.172 C  
ENDROOT
BRANCH   2   3
HETATM    3  N   UNL     1     -10.141  10.104  70.178  1.00  0.00    -0.211 NA 
HETATM    4  C   UNL     1     -11.511   9.850  70.646  1.00  0.00    -0.334 C  
BRANCH   3   5
HETATM    5  C   UNL     1      -9.192   9.057  70.712  1.00  0.00    -0.245 C  
HETATM    6  C   UNL     1      -7.722   9.512  70.571  1.00  0.00    -0.177 C  
BRANCH   5   7
HETATM    7  C   UNL     1      -9.361   8.468  72.178  1.00  0.00    -0.283 C  
HETATM    8  H   UNL     1      -8.389   8.484  73.927  1.00  0.00     0.000 HD 
HETATM    9  O   UNL     1      -8.288   8.836  73.052  1.00  0.00    -0.412 OA 
BRANCH   7  10
HETATM   10  C   UNL     1      -9.707   7.001  72.374  1.00  0.00    -0.171 A  
HETATM   11  C   UNL     1      -9.134   6.047  71.508  1.00  0.00    -0.148 A  
HETATM   12  C   UNL     1      -9.432   4.686  71.637  1.00  0.00    -0.210 A  
HETATM   13  C   UNL     1     -10.314   4.259  72.622  1.00  0.00    -0.243 A  
HETATM   14  C   UNL     1     -10.901   5.193  73.475  1.00  0.00    -0.360 A  
HETATM   15  C   UNL     1     -10.605   6.556  73.348  1.00  0.00    -0.309 A  
ENDBRANCH   7  10
ENDBRANCH   5   7
ENDBRANCH   3   5
ENDBRANCH   2   3
TORSDOF 4
ENDMDL
MODEL      190
REMARK 921   NORMALIZED FREE ENERGY PREDICTED BY IDOCK:   -2.86 KCAL/MOL
REMARK 922        TOTAL FREE ENERGY PREDICTED BY IDOCK:   -3.92 KCAL/MOL
REMARK 923 INTER-LIGAND FREE ENERGY PREDICTED BY IDOCK:   -3.72 KCAL/MOL
REMARK 924 INTRA-LIGAND FREE ENERGY PREDICTED BY IDOCK:   -0.20 KCAL/MOL
REMARK 927      BINDING AFFINITY PREDICTED BY RF-SCORE:    0.00 PKD
ROOT
HETATM    1  C   UNL     1     -11.878  12.389  65.943  1.00  0.00    -0.467 C  
HETATM    2  C   UNL     1     -12.064  13.907  65.956  1.00  0.00    -0.437 C  
ENDROOT
BRANCH   2   3
HETATM    3  N   UNL     1     -11.722  14.595  67.229  1.00  0.00    -0.392 NA 
HETATM    4  C   UNL     1     -12.159  13.777  68.370  1.00  0.00    -0.289 C  
BRANCH   3   5
HETATM    5  C   UNL     1     -10.237  14.860  67.299  1.00  0.00    -0.241 C  
HETATM    6  C   UNL     1      -9.618  14.946  65.886  1.00  0.00    -0.343 C  
BRANCH   5   7
HETATM    7  C   UNL     1      -9.660  16.079  68.138  1.00  0.00    -0.209 C  
HETATM    8  H   UNL     1      -9.527  18.071  68.001  1.00  0.00     0.000 HD 
HETATM    9  O   UNL     1      -9.872  17.342  67.499  1.00  0.00    -0.264 OA 
BRANCH   7  10
HETATM   10  C   UNL     1      -8.251  16.015  68.703  1.00  0.00    -0.193 A  
HETATM   11  C   UNL     1      -7.545  17.219  68.905  1.00  0.00    -0.235 A  
HETATM   12  C   UNL     1      -6.240  17.214  69.408  1.00  0.00    -0.234 A  
HETATM   13  C   UNL     1      -5.616  16.009  69.706  1.00  0.00    -0.144 A  
HETATM   14  C   UNL     1      -6.295  14.809  69.497  1.00  0.00    -0.127 A  
HETATM   15  C   UNL     1      -7.601  14.811  68.992  1.00  0.00    -0.141 A  
ENDBRANCH   7  10
ENDBRANCH   5   7
ENDBRANCH   3   5
ENDBRANCH   2   3
TORSDOF 4
ENDMDL
MODEL      191
REMARK 921   NORMALIZED FREE ENERGY PREDICTED BY IDOCK:   -2.85 KCAL/MOL
REMARK 922        TOTAL FREE ENERGY PREDICTED BY IDOCK:   -3.91 KCAL/MOL
REMARK 923 INTER-LIGAND FREE ENERGY PREDICTED BY IDOCK:   -3.56 KCAL/MOL
REMARK 924 INTRA-LIGAND FREE ENERGY PREDICTED BY IDOCK:   -0.35 KCAL/MOL
REMARK 927      BINDING AFFINITY PREDICTED BY RF-SCORE:    0.00 PKD
ROOT
HETATM    1  C   UNL     1     -10.831   6.361  67.979  1.00  0.00    -0.396 C  
HETATM    2  C   UNL     1     -10.833   7.645  67.149  1.00  0.00    -0.188 C  
ENDROOT
BRANCH   2   3
HETATM    3  N   UNL     1      -9.603   8.476  67.229  1.00  0.00    -0.161 NA 
HETATM    4  C   UNL     1      -9.177   8.868  65.878  1.00  0.00    -0.229 C  
BRANCH   3   5
HETATM    5  C   UNL     1      -9.848   9.695  68.086  1.00  0.00    -0.150 C  
HETATM    6  C   UNL     1      -9.405   9.448  69.546  1.00  0.00    -0.187 C  
BRANCH   5   7
HETATM    7  C   UNL     1      -9.291  11.121  67.663  1.00  0.00    -0.165 C  
HETATM    8  H   UNL     1      -7.772  12.341  68.122  1.00  0.00     0.000 HD 
HETATM    9  O   UNL     1      -8.105  11.488  68.375  1.00  0.00    -0.136 OA 
BRANCH   7  10
HETATM   10  C   UNL     1     -10.232  12.312  67.579  1.00  0.00    -0.212 A  
HETATM   11  C   UNL     1     -10.216  13.110  66.417  1.00  0.00    -0.286 A  
HETATM   12  C   UNL     1     -11.050  14.225  66.296  1.00  0.00    -0.323 A  
HETATM   13  C   UNL     1     -11.905  14.567  67.336  1.00  0.00    -0.416 A  
HETATM   14  C   UNL     1     -11.922  13.798  68.499  1.00  0.00    -0.402 A  
HETATM   15  C   UNL     1     -11.086  12.681  68.623  1.00  0.00    -0.305 A  
ENDBRANCH   7  10
ENDBRANCH   5   7
ENDBRANCH   3   5
ENDBRANCH   2   3
TORSDOF 4
ENDMDL
MODEL      192
REMARK 921   NORMALIZED FREE ENERGY PREDICTED BY IDOCK:   -2.83 KCAL/MOL
REMARK 922        TOTAL FREE ENERGY PREDICTED BY IDOCK:   -3.89 KCAL/MOL
REMARK 923 INTER-LIGAND FREE ENERGY PREDICTED BY IDOCK:   -3.48 KCAL/MOL
REMARK 924 INTRA-LIGAND FREE ENERGY PREDICTED BY IDOCK:   -0.41 KCAL/MOL
REMARK 927      BINDING AFFINITY PREDICTED BY RF-SCORE:    0.00 PKD
ROOT
HETATM    1  C   UNL     1     -10.892  10.131  67.761  1.00  0.00    -0.346 C  
HETATM    2  C   UNL     1      -9.879   9.054  68.148  1.00  0.00    -0.166 C  
ENDROOT
BRANCH   2   3
HETATM    3  N   UNL     1      -9.692   7.952  67.167  1.00  0.00    -0.174 NA 
HETATM    4  C   UNL     1      -8.261   7.647  67.027  1.00  0.00    -0.117 C  
BRANCH   3   5
HETATM    5  C   UNL     1     -10.459   6.726  67.603  1.00  0.00    -0.229 C  
HETATM    6  C   UNL     1     -10.880   5.870  66.387  1.00  0.00    -0.110 C  
BRANCH   5   7
HETATM    7  C   UNL     1      -9.869   5.733  68.692  1.00  0.00    -0.138 C  
HETATM    8  H   UNL     1      -9.368   3.802  68.855  1.00  0.00     0.000 HD 
HETATM    9  O   UNL     1      -9.721   4.396  68.203  1.00  0.00    -0.159 OA 
BRANCH   7  10
HETATM   10  C   UNL     1     -10.451   5.709  70.096  1.00  0.00    -0.366 A  
HETATM   11  C   UNL     1      -9.885   4.840  71.051  1.00  0.00    -0.267 A  
HETATM   12  C   UNL     1     -10.394   4.768  72.352  1.00  0.00    -0.261 A  
HETATM   13  C   UNL     1     -11.482   5.553  72.715  1.00  0.00    -0.339 A  
HETATM   14  C   UNL     1     -12.063   6.406  71.777  1.00  0.00    -0.351 A  
HETATM   15  C   UNL     1     -11.555   6.478  70.474  1.00  0.00    -0.455 A  
ENDBRANCH   7  10
ENDBRANCH   5   7
ENDBRANCH   3   5
ENDBRANCH   2   3
TORSDOF 4
ENDMDL
MODEL      193
REMARK 921   NORMALIZED FREE ENERGY PREDICTED BY IDOCK:   -2.83 KCAL/MOL
REMARK 922        TOTAL FREE ENERGY PREDICTED BY IDOCK:   -3.89 KCAL/MOL
REMARK 923 INTER-LIGAND FREE ENERGY PREDICTED BY IDOCK:   -3.56 KCAL/MOL
REMARK 924 INTRA-LIGAND FREE ENERGY PREDICTED BY IDOCK:   -0.33 KCAL/MOL
REMARK 927      BINDING AFFINITY PREDICTED BY RF-SCORE:    0.00 PKD
ROOT
HETATM    1  C   UNL     1     -10.025   8.245  70.727  1.00  0.00    -0.217 C  
HETATM    2  C   UNL     1     -10.965   8.854  69.685  1.00  0.00    -0.123 C  
ENDROOT
BRANCH   2   3
HETATM    3  N   UNL     1     -10.382   9.086  68.338  1.00  0.00    -0.202 NA 
HETATM    4  C   UNL     1     -10.670   7.938  67.465  1.00  0.00    -0.181 C  
BRANCH   3   5
HETATM    5  C   UNL     1     -10.930  10.361  67.741  1.00  0.00    -0.309 C  
HETATM    6  C   UNL     1     -11.796  11.128  68.766  1.00  0.00    -0.388 C  
BRANCH   5   7
HETATM    7  C   UNL     1      -9.972  11.422  67.050  1.00  0.00    -0.201 C  
HETATM    8  H   UNL     1      -9.753  13.409  66.945  1.00  0.00     0.000 HD 
HETATM    9  O   UNL     1     -10.326  12.774  67.358  1.00  0.00    -0.220 OA 
BRANCH   7  10
HETATM   10  C   UNL     1      -9.639  11.299  65.572  1.00  0.00    -0.259 A  
HETATM   11  C   UNL     1     -10.438  11.987  64.637  1.00  0.00    -0.338 A  
HETATM   12  C   UNL     1     -10.184  11.895  63.265  1.00  0.00    -0.428 A  
HETATM   13  C   UNL     1      -9.137  11.105  62.805  1.00  0.00    -0.353 A  
HETATM   14  C   UNL     1      -8.347  10.406  63.717  1.00  0.00    -0.149 A  
HETATM   15  C   UNL     1      -8.601  10.496  65.091  1.00  0.00    -0.187 A  
ENDBRANCH   7  10
ENDBRANCH   5   7
ENDBRANCH   3   5
ENDBRANCH   2   3
TORSDOF 4
ENDMDL
MODEL      194
REMARK 921   NORMALIZED FREE ENERGY PREDICTED BY IDOCK:   -2.81 KCAL/MOL
REMARK 922        TOTAL FREE ENERGY PREDICTED BY IDOCK:   -3.86 KCAL/MOL
REMARK 923 INTER-LIGAND FREE ENERGY PREDICTED BY IDOCK:   -3.45 KCAL/MOL
REMARK 924 INTRA-LIGAND FREE ENERGY PREDICTED BY IDOCK:   -0.41 KCAL/MOL
REMARK 927      BINDING AFFINITY PREDICTED BY RF-SCORE:    0.00 PKD
ROOT
HETATM    1  C   UNL     1     -11.877  11.663  68.678  1.00  0.00    -0.370 C  
HETATM    2  C   UNL     1     -10.519  11.016  68.951  1.00  0.00    -0.204 C  
ENDROOT
BRANCH   2   3
HETATM    3  N   UNL     1     -10.019  10.084  67.905  1.00  0.00    -0.150 NA 
HETATM    4  C   UNL     1      -8.563  10.228  67.764  1.00  0.00    -0.118 C  
BRANCH   3   5
HETATM    5  C   UNL     1     -10.384   8.660  68.253  1.00  0.00    -0.207 C  
HETATM    6  C   UNL     1     -10.593   7.811  66.979  1.00  0.00    -0.396 C  
BRANCH   5   7
HETATM    7  C   UNL     1      -9.488   7.803  69.245  1.00  0.00    -0.155 C  
HETATM    8  H   UNL     1      -8.398   6.125  69.220  1.00  0.00     0.000 HD 
HETATM    9  O   UNL     1      -8.933   6.637  68.627  1.00  0.00    -0.125 OA 
BRANCH   7  10
HETATM   10  C   UNL     1     -10.005   7.456  70.632  1.00  0.00    -0.186 A  
HETATM   11  C   UNL     1     -10.364   6.121  70.908  1.00  0.00    -0.267 A  
HETATM   12  C   UNL     1     -10.861   5.752  72.163  1.00  0.00    -0.296 A  
HETATM   13  C   UNL     1     -11.016   6.711  73.156  1.00  0.00    -0.263 A  
HETATM   14  C   UNL     1     -10.681   8.039  72.893  1.00  0.00    -0.403 A  
HETATM   15  C   UNL     1     -10.185   8.411  71.637  1.00  0.00    -0.310 A  
ENDBRANCH   7  10
ENDBRANCH   5   7
ENDBRANCH   3   5
ENDBRANCH   2   3
TORSDOF 4
ENDMDL
MODEL      195
REMARK 921   NORMALIZED FREE ENERGY PREDICTED BY IDOCK:   -2.81 KCAL/MOL
REMARK 922        TOTAL FREE ENERGY PREDICTED BY IDOCK:   -3.85 KCAL/MOL
REMARK 923 INTER-LIGAND FREE ENERGY PREDICTED BY IDOCK:   -3.61 KCAL/MOL
REMARK 924 INTRA-LIGAND FREE ENERGY PREDICTED BY IDOCK:   -0.24 KCAL/MOL
REMARK 927      BINDING AFFINITY PREDICTED BY RF-SCORE:    0.00 PKD
ROOT
HETATM    1  C   UNL     1     -10.188  10.724  65.176  1.00  0.00    -0.365 C  
HETATM    2  C   UNL     1      -9.656  10.869  66.602  1.00  0.00    -0.185 C  
ENDROOT
BRANCH   2   3
HETATM    3  N   UNL     1      -9.929   9.731  67.518  1.00  0.00    -0.174 NA 
HETATM    4  C   UNL     1     -10.127   8.500  66.739  1.00  0.00    -0.299 C  
BRANCH   3   5
HETATM    5  C   UNL     1      -8.794   9.565  68.501  1.00  0.00    -0.124 C  
HETATM    6  C   UNL     1      -7.557  10.383  68.068  1.00  0.00    -0.091 C  
BRANCH   5   7
HETATM    7  C   UNL     1      -9.007   9.825  70.053  1.00  0.00    -0.222 C  
HETATM    8  H   UNL     1      -7.910  10.242  71.674  1.00  0.00     0.000 HD 
HETATM    9  O   UNL     1      -7.782  10.087  70.746  1.00  0.00    -0.233 OA 
BRANCH   7  10
HETATM   10  C   UNL     1      -9.872   8.880  70.871  1.00  0.00    -0.304 A  
HETATM   11  C   UNL     1      -9.442   8.512  72.162  1.00  0.00    -0.375 A  
HETATM   12  C   UNL     1     -10.193   7.634  72.950  1.00  0.00    -0.356 A  
HETATM   13  C   UNL     1     -11.378   7.102  72.457  1.00  0.00    -0.318 A  
HETATM   14  C   UNL     1     -11.809   7.443  71.176  1.00  0.00    -0.330 A  
HETATM   15  C   UNL     1     -11.058   8.321  70.385  1.00  0.00    -0.238 A  
ENDBRANCH   7  10
ENDBRANCH   5   7
ENDBRANCH   3   5
ENDBRANCH   2   3
TORSDOF 4
ENDMDL
MODEL      196
REMARK 921   NORMALIZED FREE ENERGY PREDICTED BY IDOCK:   -2.80 KCAL/MOL
REMARK 922        TOTAL FREE ENERGY PREDICTED BY IDOCK:   -3.85 KCAL/MOL
REMARK 923 INTER-LIGAND FREE ENERGY PREDICTED BY IDOCK:   -4.18 KCAL/MOL
REMARK 924 INTRA-LIGAND FREE ENERGY PREDICTED BY IDOCK:    0.33 KCAL/MOL
REMARK 927      BINDING AFFINITY PREDICTED BY RF-SCORE:    0.00 PKD
ROOT
HETATM    1  C   UNL     1     -11.888  15.481  70.808  1.00  0.00    -0.406 C  
HETATM    2  C   UNL     1     -11.837  15.300  69.291  1.00  0.00    -0.329 C  
ENDROOT
BRANCH   2   3
HETATM    3  N   UNL     1     -10.480  15.239  68.687  1.00  0.00    -0.230 NA 
HETATM    4  C   UNL     1     -10.580  15.345  67.224  1.00  0.00    -0.294 C  
BRANCH   3   5
HETATM    5  C   UNL     1      -9.608  16.340  69.244  1.00  0.00    -0.220 C  
HETATM    6  C   UNL     1      -8.114  15.951  69.185  1.00  0.00    -0.239 C  
BRANCH   5   7
HETATM    7  C   UNL     1      -9.725  17.830  68.706  1.00  0.00    -0.314 C  
HETATM    8  H   UNL     1     -10.975  18.939  67.604  1.00  0.00     0.000 HD 
HETATM    9  O   UNL     1     -10.905  18.048  67.925  1.00  0.00    -0.367 OA 
BRANCH   7  10
HETATM   10  C   UNL     1      -8.533  18.495  68.038  1.00  0.00    -0.302 A  
HETATM   11  C   UNL     1      -7.727  19.366  68.798  1.00  0.00    -0.397 A  
HETATM   12  C   UNL     1      -6.627  20.014  68.226  1.00  0.00    -0.322 A  
HETATM   13  C   UNL     1      -6.324  19.812  66.885  1.00  0.00    -0.198 A  
HETATM   14  C   UNL     1      -7.121  18.966  66.115  1.00  0.00    -0.284 A  
HETATM   15  C   UNL     1      -8.223  18.316  66.686  1.00  0.00    -0.282 A  
ENDBRANCH   7  10
ENDBRANCH   5   7
ENDBRANCH   3   5
ENDBRANCH   2   3
TORSDOF 4
ENDMDL
MODEL      197
REMARK 921   NORMALIZED FREE ENERGY PREDICTED BY IDOCK:   -2.80 KCAL/MOL
REMARK 922        TOTAL FREE ENERGY PREDICTED BY IDOCK:   -3.85 KCAL/MOL
REMARK 923 INTER-LIGAND FREE ENERGY PREDICTED BY IDOCK:   -4.13 KCAL/MOL
REMARK 924 INTRA-LIGAND FREE ENERGY PREDICTED BY IDOCK:    0.28 KCAL/MOL
REMARK 927      BINDING AFFINITY PREDICTED BY RF-SCORE:    0.00 PKD
ROOT
HETATM    1  C   UNL     1      -7.133   9.593  68.445  1.00  0.00    -0.070 C  
HETATM    2  C   UNL     1      -8.249  10.331  67.704  1.00  0.00    -0.114 C  
ENDROOT
BRANCH   2   3
HETATM    3  N   UNL     1      -8.571  11.694  68.201  1.00  0.00    -0.152 NA 
HETATM    4  C   UNL     1      -8.104  12.701  67.237  1.00  0.00    -0.178 C  
BRANCH   3   5
HETATM    5  C   UNL     1     -10.057  11.829  68.437  1.00  0.00    -0.201 C  
HETATM    6  C   UNL     1     -10.462  13.311  68.607  1.00  0.00    -0.242 C  
BRANCH   5   7
HETATM    7  C   UNL     1     -11.108  11.167  67.447  1.00  0.00    -0.307 C  
HETATM    8  H   UNL     1     -11.646   9.344  66.823  1.00  0.00     0.000 HD 
HETATM    9  O   UNL     1     -11.017   9.739  67.414  1.00  0.00    -0.259 OA 
BRANCH   7  10
HETATM   10  C   UNL     1     -11.269  11.707  66.035  1.00  0.00    -0.299 A  
HETATM   11  C   UNL     1     -12.164  12.773  65.814  1.00  0.00    -0.469 A  
HETATM   12  C   UNL     1     -12.361  13.296  64.532  1.00  0.00    -0.428 A  
HETATM   13  C   UNL     1     -11.676  12.755  63.450  1.00  0.00    -0.556 A  
HETATM   14  C   UNL     1     -10.799  11.690  63.650  1.00  0.00    -0.503 A  
HETATM   15  C   UNL     1     -10.602  11.164  64.933  1.00  0.00    -0.356 A  
ENDBRANCH   7  10
ENDBRANCH   5   7
ENDBRANCH   3   5
ENDBRANCH   2   3
TORSDOF 4
ENDMDL
MODEL      198
REMARK 921   NORMALIZED FREE ENERGY PREDICTED BY IDOCK:   -2.80 KCAL/MOL
REMARK 922        TOTAL FREE ENERGY PREDICTED BY IDOCK:   -3.85 KCAL/MOL
REMARK 923 INTER-LIGAND FREE ENERGY PREDICTED BY IDOCK:   -3.30 KCAL/MOL
REMARK 924 INTRA-LIGAND FREE ENERGY PREDICTED BY IDOCK:   -0.55 KCAL/MOL
REMARK 927      BINDING AFFINITY PREDICTED BY RF-SCORE:    0.00 PKD
ROOT
HETATM    1  C   UNL     1      -7.901   5.627  70.646  1.00  0.00    -0.100 C  
HETATM    2  C   UNL     1      -7.640   4.905  69.324  1.00  0.00    -0.060 C  
ENDROOT
BRANCH   2   3
HETATM    3  N   UNL     1      -8.296   5.485  68.123  1.00  0.00    -0.099 NA 
HETATM    4  C   UNL     1      -9.433   4.644  67.721  1.00  0.00    -0.152 C  
BRANCH   3   5
HETATM    5  C   UNL     1      -8.751   6.898  68.404  1.00  0.00    -0.124 C  
HETATM    6  C   UNL     1      -8.138   7.893  67.393  1.00  0.00    -0.123 C  
BRANCH   5   7
HETATM    7  C   UNL     1     -10.294   7.252  68.534  1.00  0.00    -0.189 C  
HETATM    8  H   UNL     1     -11.665   8.372  67.599  1.00  0.00     0.000 HD 
HETATM    9  O   UNL     1     -10.742   8.160  67.522  1.00  0.00    -0.242 OA 
BRANCH   7  10
HETATM   10  C   UNL     1     -10.873   7.653  69.881  1.00  0.00    -0.241 A  
HETATM   11  C   UNL     1     -11.680   6.730  70.575  1.00  0.00    -0.430 A  
HETATM   12  C   UNL     1     -12.249   7.055  71.811  1.00  0.00    -0.387 A  
HETATM   13  C   UNL     1     -12.032   8.310  72.365  1.00  0.00    -0.447 A  
HETATM   14  C   UNL     1     -11.249   9.241  71.683  1.00  0.00    -0.449 A  
HETATM   15  C   UNL     1     -10.679   8.918  70.445  1.00  0.00    -0.261 A  
ENDBRANCH   7  10
ENDBRANCH   5   7
ENDBRANCH   3   5
ENDBRANCH   2   3
TORSDOF 4
ENDMDL
MODEL      199
REMARK 921   NORMALIZED FREE ENERGY PREDICTED BY IDOCK:   -2.79 KCAL/MOL
REMARK 922        TOTAL FREE ENERGY PREDICTED BY IDOCK:   -3.83 KCAL/MOL
REMARK 923 INTER-LIGAND FREE ENERGY PREDICTED BY IDOCK:   -3.66 KCAL/MOL
REMARK 924 INTRA-LIGAND FREE ENERGY PREDICTED BY IDOCK:   -0.17 KCAL/MOL
REMARK 927      BINDING AFFINITY PREDICTED BY RF-SCORE:    0.00 PKD
ROOT
HETATM    1  C   UNL     1     -12.602  11.683  70.953  1.00  0.00    -0.409 C  
HETATM    2  C   UNL     1     -11.943  12.765  70.098  1.00  0.00    -0.296 C  
ENDROOT
BRANCH   2   3
HETATM    3  N   UNL     1     -12.731  14.010  69.900  1.00  0.00    -0.141 NA 
HETATM    4  C   UNL     1     -13.424  14.365  71.148  1.00  0.00    -0.306 C  
BRANCH   3   5
HETATM    5  C   UNL     1     -11.830  15.136  69.452  1.00  0.00    -0.330 C  
HETATM    6  C   UNL     1     -10.751  15.443  70.514  1.00  0.00    -0.290 C  
BRANCH   5   7
HETATM    7  C   UNL     1     -11.101  15.091  68.042  1.00  0.00    -0.300 C  
HETATM    8  H   UNL     1     -11.496  14.535  66.160  1.00  0.00     0.000 HD 
HETATM    9  O   UNL     1     -11.932  14.562  67.003  1.00  0.00    -0.404 OA 
BRANCH   7  10
HETATM   10  C   UNL     1      -9.700  14.514  67.927  1.00  0.00    -0.218 A  
HETATM   11  C   UNL     1      -8.623  15.389  67.681  1.00  0.00    -0.176 A  
HETATM   12  C   UNL     1      -7.316  14.907  67.552  1.00  0.00    -0.229 A  
HETATM   13  C   UNL     1      -7.067  13.544  67.654  1.00  0.00    -0.176 A  
HETATM   14  C   UNL     1      -8.124  12.663  67.881  1.00  0.00    -0.165 A  
HETATM   15  C   UNL     1      -9.433  13.144  68.009  1.00  0.00    -0.220 A  
ENDBRANCH   7  10
ENDBRANCH   5   7
ENDBRANCH   3   5
ENDBRANCH   2   3
TORSDOF 4
ENDMDL
MODEL      200
REMARK 921   NORMALIZED FREE ENERGY PREDICTED BY IDOCK:   -2.78 KCAL/MOL
REMARK 922        TOTAL FREE ENERGY PREDICTED BY IDOCK:   -3.82 KCAL/MOL
REMARK 923 INTER-LIGAND FREE ENERGY PREDICTED BY IDOCK:   -3.53 KCAL/MOL
REMARK 924 INTRA-LIGAND FREE ENERGY PREDICTED BY IDOCK:   -0.29 KCAL/MOL
REMARK 927      BINDING AFFINITY PREDICTED BY RF-SCORE:    0.00 PKD
ROOT
HETATM    1  C   UNL     1     -11.752  14.547  68.602  1.00  0.00    -0.364 C  
HETATM    2  C   UNL     1     -11.678  13.297  67.725  1.00  0.00    -0.358 C  
ENDROOT
BRANCH   2   3
HETATM    3  N   UNL     1     -11.137  12.075  68.375  1.00  0.00    -0.226 NA 
HETATM    4  C   UNL     1     -12.016  11.669  69.482  1.00  0.00    -0.317 C  
BRANCH   3   5
HETATM    5  C   UNL     1     -11.001  10.959  67.366  1.00  0.00    -0.293 C  
HETATM    6  C   UNL     1     -10.928  11.516  65.926  1.00  0.00    -0.301 C  
BRANCH   5   7
HETATM    7  C   UNL     1      -9.859   9.864  67.503  1.00  0.00    -0.169 C  
HETATM    8  H   UNL     1      -9.131   8.311  66.471  1.00  0.00     0.000 HD 
HETATM    9  O   UNL     1      -9.814   8.966  66.389  1.00  0.00    -0.244 OA 
BRANCH   7  10
HETATM   10  C   UNL     1      -9.700   9.088  68.800  1.00  0.00    -0.165 A  
HETATM   11  C   UNL     1     -10.407   7.878  68.958  1.00  0.00    -0.223 A  
HETATM   12  C   UNL     1     -10.307   7.134  70.138  1.00  0.00    -0.218 A  
HETATM   13  C   UNL     1      -9.511   7.590  71.181  1.00  0.00    -0.163 A  
HETATM   14  C   UNL     1      -8.817   8.793  71.046  1.00  0.00    -0.260 A  
HETATM   15  C   UNL     1      -8.916   9.540  69.866  1.00  0.00    -0.231 A  
ENDBRANCH   7  10
ENDBRANCH   5   7
ENDBRANCH   3   5
ENDBRANCH   2   3
TORSDOF 4
ENDMDL
MODEL      201
REMARK 921   NORMALIZED FREE ENERGY PREDICTED BY IDOCK:   -2.78 KCAL/MOL
REMARK 922        TOTAL FREE ENERGY PREDICTED BY IDOCK:   -3.82 KCAL/MOL
REMARK 923 INTER-LIGAND FREE ENERGY PREDICTED BY IDOCK:   -3.47 KCAL/MOL
REMARK 924 INTRA-LIGAND FREE ENERGY PREDICTED BY IDOCK:   -0.35 KCAL/MOL
REMARK 927      BINDING AFFINITY PREDICTED BY RF-SCORE:    0.00 PKD
ROOT
HETATM    1  C   UNL     1     -10.252   8.318  70.219  1.00  0.00    -0.199 C  
HETATM    2  C   UNL     1     -10.365   9.835  70.376  1.00  0.00    -0.293 C  
ENDROOT
BRANCH   2   3
HETATM    3  N   UNL     1     -11.142  10.542  69.324  1.00  0.00    -0.230 NA 
HETATM    4  C   UNL     1     -12.370  11.105  69.906  1.00  0.00    -0.261 C  
BRANCH   3   5
HETATM    5  C   UNL     1     -10.303  11.629  68.694  1.00  0.00    -0.215 C  
HETATM    6  C   UNL     1      -9.167  11.030  67.835  1.00  0.00    -0.155 C  
BRANCH   5   7
HETATM    7  C   UNL     1     -10.972  12.791  67.842  1.00  0.00    -0.234 C  
HETATM    8  H   UNL     1     -11.070  13.394  65.936  1.00  0.00     0.000 HD 
HETATM    9  O   UNL     1     -10.671  12.699  66.445  1.00  0.00    -0.250 OA 
BRANCH   7  10
HETATM   10  C   UNL     1     -10.857  14.235  68.301  1.00  0.00    -0.256 A  
HETATM   11  C   UNL     1     -11.736  14.702  69.301  1.00  0.00    -0.348 A  
HETATM   12  C   UNL     1     -11.682  16.026  69.747  1.00  0.00    -0.267 A  
HETATM   13  C   UNL     1     -10.760  16.907  69.196  1.00  0.00    -0.298 A  
HETATM   14  C   UNL     1      -9.895  16.465  68.196  1.00  0.00    -0.238 A  
HETATM   15  C   UNL     1      -9.948  15.140  67.746  1.00  0.00    -0.225 A  
ENDBRANCH   7  10
ENDBRANCH   5   7
ENDBRANCH   3   5
ENDBRANCH   2   3
TORSDOF 4
ENDMDL
MODEL      202
REMARK 921   NORMALIZED FREE ENERGY PREDICTED BY IDOCK:   -2.76 KCAL/MOL
REMARK 922        TOTAL FREE ENERGY PREDICTED BY IDOCK:   -3.80 KCAL/MOL
REMARK 923 INTER-LIGAND FREE ENERGY PREDICTED BY IDOCK:   -3.45 KCAL/MOL
REMARK 924 INTRA-LIGAND FREE ENERGY PREDICTED BY IDOCK:   -0.34 KCAL/MOL
REMARK 927      BINDING AFFINITY PREDICTED BY RF-SCORE:    0.00 PKD
ROOT
HETATM    1  C   UNL     1      -8.497   8.389  66.924  1.00  0.00    -0.117 C  
HETATM    2  C   UNL     1      -8.568   9.688  67.726  1.00  0.00    -0.125 C  
ENDROOT
BRANCH   2   3
HETATM    3  N   UNL     1      -9.483  10.733  67.196  1.00  0.00    -0.159 NA 
HETATM    4  C   UNL     1     -10.868  10.241  67.219  1.00  0.00    -0.250 C  
BRANCH   3   5
HETATM    5  C   UNL     1      -9.354  12.003  68.003  1.00  0.00    -0.196 C  
HETATM    6  C   UNL     1      -7.870  12.374  68.226  1.00  0.00    -0.150 C  
BRANCH   5   7
HETATM    7  C   UNL     1     -10.108  13.331  67.568  1.00  0.00    -0.223 C  
HETATM    8  H   UNL     1      -9.746  14.990  66.507  1.00  0.00     0.000 HD 
HETATM    9  O   UNL     1      -9.295  14.196  66.767  1.00  0.00    -0.261 OA 
BRANCH   7  10
HETATM   10  C   UNL     1     -10.868  14.148  68.600  1.00  0.00    -0.268 A  
HETATM   11  C   UNL     1     -11.962  13.556  69.264  1.00  0.00    -0.378 A  
HETATM   12  C   UNL     1     -12.704  14.269  70.210  1.00  0.00    -0.305 A  
HETATM   13  C   UNL     1     -12.373  15.587  70.501  1.00  0.00    -0.461 A  
HETATM   14  C   UNL     1     -11.304  16.193  69.841  1.00  0.00    -0.318 A  
HETATM   15  C   UNL     1     -10.560  15.480  68.892  1.00  0.00    -0.240 A  
ENDBRANCH   7  10
ENDBRANCH   5   7
ENDBRANCH   3   5
ENDBRANCH   2   3
TORSDOF 4
ENDMDL
MODEL      203
REMARK 921   NORMALIZED FREE ENERGY PREDICTED BY IDOCK:   -2.75 KCAL/MOL
REMARK 922        TOTAL FREE ENERGY PREDICTED BY IDOCK:   -3.79 KCAL/MOL
REMARK 923 INTER-LIGAND FREE ENERGY PREDICTED BY IDOCK:   -3.35 KCAL/MOL
REMARK 924 INTRA-LIGAND FREE ENERGY PREDICTED BY IDOCK:   -0.43 KCAL/MOL
REMARK 927      BINDING AFFINITY PREDICTED BY RF-SCORE:    0.00 PKD
ROOT
HETATM    1  C   UNL     1     -10.657  11.176  66.278  1.00  0.00    -0.309 C  
HETATM    2  C   UNL     1      -9.842  10.509  67.386  1.00  0.00    -0.174 C  
ENDROOT
BRANCH   2   3
HETATM    3  N   UNL     1      -9.632   9.044  67.250  1.00  0.00    -0.152 NA 
HETATM    4  C   UNL     1      -9.408   8.701  65.837  1.00  0.00    -0.195 C  
BRANCH   3   5
HETATM    5  C   UNL     1      -8.464   8.600  68.098  1.00  0.00    -0.131 C  
HETATM    6  C   UNL     1      -7.562   9.796  68.476  1.00  0.00    -0.080 C  
BRANCH   5   7
HETATM    7  C   UNL     1      -8.688   7.746  69.419  1.00  0.00    -0.135 C  
HETATM    8  H   UNL     1      -8.527   5.847  70.029  1.00  0.00     0.000 HD 
HETATM    9  O   UNL     1      -8.394   6.357  69.239  1.00  0.00    -0.119 OA 
BRANCH   7  10
HETATM   10  C   UNL     1      -9.970   7.904  70.219  1.00  0.00    -0.189 A  
HETATM   11  C   UNL     1     -10.949   6.892  70.140  1.00  0.00    -0.322 A  
HETATM   12  C   UNL     1     -12.152   6.996  70.844  1.00  0.00    -0.403 A  
HETATM   13  C   UNL     1     -12.402   8.115  71.629  1.00  0.00    -0.347 A  
HETATM   14  C   UNL     1     -11.450   9.132  71.706  1.00  0.00    -0.452 A  
HETATM   15  C   UNL     1     -10.245   9.031  71.000  1.00  0.00    -0.347 A  
ENDBRANCH   7  10
ENDBRANCH   5   7
ENDBRANCH   3   5
ENDBRANCH   2   3
TORSDOF 4
ENDMDL
MODEL      204
REMARK 921   NORMALIZED FREE ENERGY PREDICTED BY IDOCK:   -2.74 KCAL/MOL
REMARK 922        TOTAL FREE ENERGY PREDICTED BY IDOCK:   -3.78 KCAL/MOL
REMARK 923 INTER-LIGAND FREE ENERGY PREDICTED BY IDOCK:   -3.46 KCAL/MOL
REMARK 924 INTRA-LIGAND FREE ENERGY PREDICTED BY IDOCK:   -0.32 KCAL/MOL
REMARK 927      BINDING AFFINITY PREDICTED BY RF-SCORE:    0.00 PKD
ROOT
HETATM    1  C   UNL     1      -7.676   6.079  67.339  1.00  0.00    -0.097 C  
HETATM    2  C   UNL     1      -8.508   6.738  68.439  1.00  0.00    -0.122 C  
ENDROOT
BRANCH   2   3
HETATM    3  N   UNL     1      -8.379   8.214  68.558  1.00  0.00    -0.125 NA 
HETATM    4  C   UNL     1      -7.374   8.706  67.605  1.00  0.00    -0.089 C  
BRANCH   3   5
HETATM    5  C   UNL     1      -9.714   8.879  68.317  1.00  0.00    -0.157 C  
HETATM    6  C   UNL     1     -10.553   8.087  67.288  1.00  0.00    -0.360 C  
BRANCH   5   7
HETATM    7  C   UNL     1     -10.678   9.246  69.524  1.00  0.00    -0.222 C  
HETATM    8  H   UNL     1     -11.140  10.834  70.652  1.00  0.00     0.000 HD 
HETATM    9  O   UNL     1     -10.563  10.614  69.930  1.00  0.00    -0.238 OA 
BRANCH   7  10
HETATM   10  C   UNL     1     -10.742   8.347  70.748  1.00  0.00    -0.244 A  
HETATM   11  C   UNL     1     -10.025   8.720  71.903  1.00  0.00    -0.401 A  
HETATM   12  C   UNL     1     -10.038   7.920  73.050  1.00  0.00    -0.384 A  
HETATM   13  C   UNL     1     -10.758   6.732  73.058  1.00  0.00    -0.315 A  
HETATM   14  C   UNL     1     -11.461   6.341  71.918  1.00  0.00    -0.360 A  
HETATM   15  C   UNL     1     -11.447   7.140  70.768  1.00  0.00    -0.342 A  
ENDBRANCH   7  10
ENDBRANCH   5   7
ENDBRANCH   3   5
ENDBRANCH   2   3
TORSDOF 4
ENDMDL
MODEL      205
REMARK 921   NORMALIZED FREE ENERGY PREDICTED BY IDOCK:   -2.74 KCAL/MOL
REMARK 922        TOTAL FREE ENERGY PREDICTED BY IDOCK:   -3.78 KCAL/MOL
REMARK 923 INTER-LIGAND FREE ENERGY PREDICTED BY IDOCK:   -3.59 KCAL/MOL
REMARK 924 INTRA-LIGAND FREE ENERGY PREDICTED BY IDOCK:   -0.18 KCAL/MOL
REMARK 927      BINDING AFFINITY PREDICTED BY RF-SCORE:    0.00 PKD
ROOT
HETATM    1  C   UNL     1     -10.425  10.861  64.126  1.00  0.00    -0.397 C  
HETATM    2  C   UNL     1      -9.456  11.035  65.295  1.00  0.00    -0.223 C  
ENDROOT
BRANCH   2   3
HETATM    3  N   UNL     1     -10.023  11.642  66.528  1.00  0.00    -0.199 NA 
HETATM    4  C   UNL     1     -11.460  11.895  66.343  1.00  0.00    -0.304 C  
BRANCH   3   5
HETATM    5  C   UNL     1      -9.790  10.736  67.714  1.00  0.00    -0.166 C  
HETATM    6  C   UNL     1      -8.580  11.213  68.549  1.00  0.00    -0.157 C  
BRANCH   5   7
HETATM    7  C   UNL     1     -10.960  10.401  68.733  1.00  0.00    -0.245 C  
HETATM    8  H   UNL     1     -12.078  11.339  70.104  1.00  0.00     0.000 HD 
HETATM    9  O   UNL     1     -11.378  11.540  69.494  1.00  0.00    -0.256 OA 
BRANCH   7  10
HETATM   10  C   UNL     1     -10.856   9.185  69.639  1.00  0.00    -0.210 A  
HETATM   11  C   UNL     1     -10.920   9.370  71.035  1.00  0.00    -0.409 A  
HETATM   12  C   UNL     1     -10.814   8.286  71.912  1.00  0.00    -0.350 A  
HETATM   13  C   UNL     1     -10.632   7.003  71.410  1.00  0.00    -0.236 A  
HETATM   14  C   UNL     1     -10.550   6.805  70.032  1.00  0.00    -0.256 A  
HETATM   15  C   UNL     1     -10.655   7.890  69.152  1.00  0.00    -0.184 A  
ENDBRANCH   7  10
ENDBRANCH   5   7
ENDBRANCH   3   5
ENDBRANCH   2   3
TORSDOF 4
ENDMDL
MODEL      206
REMARK 921   NORMALIZED FREE ENERGY PREDICTED BY IDOCK:   -2.74 KCAL/MOL
REMARK 922        TOTAL FREE ENERGY PREDICTED BY IDOCK:   -3.77 KCAL/MOL
REMARK 923 INTER-LIGAND FREE ENERGY PREDICTED BY IDOCK:   -3.34 KCAL/MOL
REMARK 924 INTRA-LIGAND FREE ENERGY PREDICTED BY IDOCK:   -0.43 KCAL/MOL
REMARK 927      BINDING AFFINITY PREDICTED BY RF-SCORE:    0.00 PKD
ROOT
HETATM    1  C   UNL     1     -10.079   6.349  68.086  1.00  0.00    -0.167 C  
HETATM    2  C   UNL     1      -9.815   6.648  66.610  1.00  0.00    -0.149 C  
ENDROOT
BRANCH   2   3
HETATM    3  N   UNL     1      -8.583   7.424  66.312  1.00  0.00    -0.135 NA 
HETATM    4  C   UNL     1      -8.248   7.300  64.886  1.00  0.00    -0.073 C  
BRANCH   3   5
HETATM    5  C   UNL     1      -8.770   8.873  66.692  1.00  0.00    -0.127 C  
HETATM    6  C   UNL     1      -7.492   9.694  66.407  1.00  0.00    -0.094 C  
BRANCH   5   7
HETATM    7  C   UNL     1      -9.999   9.714  66.140  1.00  0.00    -0.276 C  
HETATM    8  H   UNL     1     -10.465  10.829  64.544  1.00  0.00     0.000 HD 
HETATM    9  O   UNL     1      -9.730  10.326  64.874  1.00  0.00    -0.273 OA 
BRANCH   7  10
HETATM   10  C   UNL     1     -10.718  10.699  67.047  1.00  0.00    -0.317 A  
HETATM   11  C   UNL     1     -11.194  11.907  66.497  1.00  0.00    -0.383 A  
HETATM   12  C   UNL     1     -11.848  12.853  67.293  1.00  0.00    -0.416 A  
HETATM   13  C   UNL     1     -12.026  12.614  68.650  1.00  0.00    -0.264 A  
HETATM   14  C   UNL     1     -11.546  11.432  69.212  1.00  0.00    -0.384 A  
HETATM   15  C   UNL     1     -10.890  10.483  68.418  1.00  0.00    -0.284 A  
ENDBRANCH   7  10
ENDBRANCH   5   7
ENDBRANCH   3   5
ENDBRANCH   2   3
TORSDOF 4
ENDMDL
MODEL      207
REMARK 921   NORMALIZED FREE ENERGY PREDICTED BY IDOCK:   -2.73 KCAL/MOL
REMARK 922        TOTAL FREE ENERGY PREDICTED BY IDOCK:   -3.77 KCAL/MOL
REMARK 923 INTER-LIGAND FREE ENERGY PREDICTED BY IDOCK:   -3.46 KCAL/MOL
REMARK 924 INTRA-LIGAND FREE ENERGY PREDICTED BY IDOCK:   -0.31 KCAL/MOL
REMARK 927      BINDING AFFINITY PREDICTED BY RF-SCORE:    0.00 PKD
ROOT
HETATM    1  C   UNL     1      -6.806  15.322  69.761  1.00  0.00    -0.172 C  
HETATM    2  C   UNL     1      -7.826  14.641  68.849  1.00  0.00    -0.148 C  
ENDROOT
BRANCH   2   3
HETATM    3  N   UNL     1      -7.271  13.930  67.667  1.00  0.00    -0.165 NA 
HETATM    4  C   UNL     1      -5.810  13.824  67.789  1.00  0.00    -0.095 C  
BRANCH   3   5
HETATM    5  C   UNL     1      -7.897  12.561  67.536  1.00  0.00    -0.168 C  
HETATM    6  C   UNL     1      -7.358  11.597  68.617  1.00  0.00    -0.111 C  
BRANCH   5   7
HETATM    7  C   UNL     1      -9.474  12.381  67.492  1.00  0.00    -0.187 C  
HETATM    8  H   UNL     1     -10.889  11.284  68.386  1.00  0.00     0.000 HD 
HETATM    9  O   UNL     1      -9.947  11.392  68.413  1.00  0.00    -0.190 OA 
BRANCH   7  10
HETATM   10  C   UNL     1     -10.185  12.226  66.157  1.00  0.00    -0.263 A  
HETATM   11  C   UNL     1      -9.883  11.108  65.352  1.00  0.00    -0.289 A  
HETATM   12  C   UNL     1     -10.498  10.927  64.109  1.00  0.00    -0.397 A  
HETATM   13  C   UNL     1     -11.414  11.864  63.646  1.00  0.00    -0.551 A  
HETATM   14  C   UNL     1     -11.712  12.983  64.423  1.00  0.00    -0.426 A  
HETATM   15  C   UNL     1     -11.096  13.167  65.668  1.00  0.00    -0.296 A  
ENDBRANCH   7  10
ENDBRANCH   5   7
ENDBRANCH   3   5
ENDBRANCH   2   3
TORSDOF 4
ENDMDL
MODEL      208
REMARK 921   NORMALIZED FREE ENERGY PREDICTED BY IDOCK:   -2.73 KCAL/MOL
REMARK 922        TOTAL FREE ENERGY PREDICTED BY IDOCK:   -3.76 KCAL/MOL
REMARK 923 INTER-LIGAND FREE ENERGY PREDICTED BY IDOCK:   -3.53 KCAL/MOL
REMARK 924 INTRA-LIGAND FREE ENERGY PREDICTED BY IDOCK:   -0.22 KCAL/MOL
REMARK 927      BINDING AFFINITY PREDICTED BY RF-SCORE:    0.00 PKD
ROOT
HETATM    1  C   UNL     1      -6.415  10.433  66.170  1.00  0.00    -0.111 C  
HETATM    2  C   UNL     1      -7.668   9.686  66.628  1.00  0.00    -0.098 C  
ENDROOT
BRANCH   2   3
HETATM    3  N   UNL     1      -8.923  10.482  66.671  1.00  0.00    -0.141 NA 
HETATM    4  C   UNL     1      -9.681  10.284  65.427  1.00  0.00    -0.278 C  
BRANCH   3   5
HETATM    5  C   UNL     1      -9.753  10.089  67.870  1.00  0.00    -0.146 C  
HETATM    6  C   UNL     1     -11.171  10.699  67.791  1.00  0.00    -0.383 C  
BRANCH   5   7
HETATM    7  C   UNL     1      -9.921   8.566  68.288  1.00  0.00    -0.184 C  
HETATM    8  H   UNL     1     -10.715   6.882  67.553  1.00  0.00     0.000 HD 
HETATM    9  O   UNL     1     -10.614   7.792  67.303  1.00  0.00    -0.295 OA 
BRANCH   7  10
HETATM   10  C   UNL     1     -10.429   8.209  69.676  1.00  0.00    -0.224 A  
HETATM   11  C   UNL     1     -10.038   9.009  70.769  1.00  0.00    -0.303 A  
HETATM   12  C   UNL     1     -10.465   8.714  72.068  1.00  0.00    -0.422 A  
HETATM   13  C   UNL     1     -11.277   7.611  72.297  1.00  0.00    -0.343 A  
HETATM   14  C   UNL     1     -11.660   6.800  71.228  1.00  0.00    -0.366 A  
HETATM   15  C   UNL     1     -11.233   7.093  69.927  1.00  0.00    -0.241 A  
ENDBRANCH   7  10
ENDBRANCH   5   7
ENDBRANCH   3   5
ENDBRANCH   2   3
TORSDOF 4
ENDMDL
MODEL      209
REMARK 921   NORMALIZED FREE ENERGY PREDICTED BY IDOCK:   -2.72 KCAL/MOL
REMARK 922        TOTAL FREE ENERGY PREDICTED BY IDOCK:   -3.74 KCAL/MOL
REMARK 923 INTER-LIGAND FREE ENERGY PREDICTED BY IDOCK:   -3.78 KCAL/MOL
REMARK 924 INTRA-LIGAND FREE ENERGY PREDICTED BY IDOCK:    0.03 KCAL/MOL
REMARK 927      BINDING AFFINITY PREDICTED BY RF-SCORE:    0.00 PKD
ROOT
HETATM    1  C   UNL     1     -10.258  11.412  63.938  1.00  0.00    -0.415 C  
HETATM    2  C   UNL     1      -9.272  11.302  65.101  1.00  0.00    -0.149 C  
ENDROOT
BRANCH   2   3
HETATM    3  N   UNL     1      -9.675  10.403  66.214  1.00  0.00    -0.195 NA 
HETATM    4  C   UNL     1      -8.796   9.225  66.247  1.00  0.00    -0.146 C  
BRANCH   3   5
HETATM    5  C   UNL     1      -9.625  11.143  67.530  1.00  0.00    -0.168 C  
HETATM    6  C   UNL     1      -8.177  11.549  67.887  1.00  0.00    -0.134 C  
BRANCH   5   7
HETATM    7  C   UNL     1     -10.546  12.410  67.795  1.00  0.00    -0.217 C  
HETATM    8  H   UNL     1     -12.490  12.885  67.792  1.00  0.00     0.000 HD 
HETATM    9  O   UNL     1     -11.940  12.127  67.634  1.00  0.00    -0.529 OA 
BRANCH   7  10
HETATM   10  C   UNL     1     -10.211  13.743  67.146  1.00  0.00    -0.244 A  
HETATM   11  C   UNL     1     -11.116  14.291  66.214  1.00  0.00    -0.323 A  
HETATM   12  C   UNL     1     -10.848  15.507  65.578  1.00  0.00    -0.372 A  
HETATM   13  C   UNL     1      -9.668  16.188  65.853  1.00  0.00    -0.374 A  
HETATM   14  C   UNL     1      -8.755  15.652  66.760  1.00  0.00    -0.306 A  
HETATM   15  C   UNL     1      -9.021  14.433  67.397  1.00  0.00    -0.204 A  
ENDBRANCH   7  10
ENDBRANCH   5   7
ENDBRANCH   3   5
ENDBRANCH   2   3
TORSDOF 4
ENDMDL
MODEL      210
REMARK 921   NORMALIZED FREE ENERGY PREDICTED BY IDOCK:   -2.71 KCAL/MOL
REMARK 922        TOTAL FREE ENERGY PREDICTED BY IDOCK:   -3.74 KCAL/MOL
REMARK 923 INTER-LIGAND FREE ENERGY PREDICTED BY IDOCK:   -3.63 KCAL/MOL
REMARK 924 INTRA-LIGAND FREE ENERGY PREDICTED BY IDOCK:   -0.11 KCAL/MOL
REMARK 927      BINDING AFFINITY PREDICTED BY RF-SCORE:    0.00 PKD
ROOT
HETATM    1  C   UNL     1      -5.924  15.211  70.191  1.00  0.00    -0.145 C  
HETATM    2  C   UNL     1      -7.177  14.761  69.439  1.00  0.00    -0.168 C  
ENDROOT
BRANCH   2   3
HETATM    3  N   UNL     1      -6.961  14.245  68.062  1.00  0.00    -0.126 NA 
HETATM    4  C   UNL     1      -5.791  13.356  68.040  1.00  0.00    -0.124 C  
BRANCH   3   5
HETATM    5  C   UNL     1      -8.192  13.519  67.574  1.00  0.00    -0.183 C  
HETATM    6  C   UNL     1      -8.364  12.165  68.297  1.00  0.00    -0.172 C  
BRANCH   5   7
HETATM    7  C   UNL     1      -9.613  14.228  67.565  1.00  0.00    -0.216 C  
HETATM    8  H   UNL     1     -11.117  14.603  68.831  1.00  0.00     0.000 HD 
HETATM    9  O   UNL     1     -10.268  14.179  68.837  1.00  0.00    -0.230 OA 
BRANCH   7  10
HETATM   10  C   UNL     1     -10.610  13.922  66.459  1.00  0.00    -0.279 A  
HETATM   11  C   UNL     1     -10.889  14.918  65.501  1.00  0.00    -0.365 A  
HETATM   12  C   UNL     1     -11.809  14.692  64.472  1.00  0.00    -0.442 A  
HETATM   13  C   UNL     1     -12.474  13.474  64.392  1.00  0.00    -0.324 A  
HETATM   14  C   UNL     1     -12.222  12.485  65.342  1.00  0.00    -0.475 A  
HETATM   15  C   UNL     1     -11.301  12.710  66.373  1.00  0.00    -0.381 A  
ENDBRANCH   7  10
ENDBRANCH   5   7
ENDBRANCH   3   5
ENDBRANCH   2   3
TORSDOF 4
ENDMDL
MODEL      211
REMARK 921   NORMALIZED FREE ENERGY PREDICTED BY IDOCK:   -2.70 KCAL/MOL
REMARK 922        TOTAL FREE ENERGY PREDICTED BY IDOCK:   -3.72 KCAL/MOL
REMARK 923 INTER-LIGAND FREE ENERGY PREDICTED BY IDOCK:   -4.05 KCAL/MOL
REMARK 924 INTRA-LIGAND FREE ENERGY PREDICTED BY IDOCK:    0.33 KCAL/MOL
REMARK 927      BINDING AFFINITY PREDICTED BY RF-SCORE:    0.00 PKD
ROOT
HETATM    1  C   UNL     1     -11.435  15.399  71.243  1.00  0.00    -0.444 C  
HETATM    2  C   UNL     1     -12.274  15.347  69.966  1.00  0.00    -0.361 C  
ENDROOT
BRANCH   2   3
HETATM    3  N   UNL     1     -11.517  15.355  68.687  1.00  0.00    -0.329 NA 
HETATM    4  C   UNL     1     -10.080  15.200  68.957  1.00  0.00    -0.244 C  
BRANCH   3   5
HETATM    5  C   UNL     1     -12.011  14.254  67.778  1.00  0.00    -0.349 C  
HETATM    6  C   UNL     1     -11.681  14.562  66.300  1.00  0.00    -0.364 C  
BRANCH   5   7
HETATM    7  C   UNL     1     -11.620  12.737  68.039  1.00  0.00    -0.341 C  
HETATM    8  H   UNL     1     -11.309  11.508  69.587  1.00  0.00     0.000 HD 
HETATM    9  O   UNL     1     -11.543  12.415  69.431  1.00  0.00    -0.282 OA 
BRANCH   7  10
HETATM   10  C   UNL     1     -10.447  12.115  67.299  1.00  0.00    -0.238 A  
HETATM   11  C   UNL     1     -10.701  11.356  66.139  1.00  0.00    -0.320 A  
HETATM   12  C   UNL     1      -9.658  10.750  65.431  1.00  0.00    -0.272 A  
HETATM   13  C   UNL     1      -8.349  10.883  65.876  1.00  0.00    -0.149 A  
HETATM   14  C   UNL     1      -8.082  11.617  67.031  1.00  0.00    -0.164 A  
HETATM   15  C   UNL     1      -9.125  12.224  67.742  1.00  0.00    -0.191 A  
ENDBRANCH   7  10
ENDBRANCH   5   7
ENDBRANCH   3   5
ENDBRANCH   2   3
TORSDOF 4
ENDMDL
MODEL      212
REMARK 921   NORMALIZED FREE ENERGY PREDICTED BY IDOCK:   -2.68 KCAL/MOL
REMARK 922        TOTAL FREE ENERGY PREDICTED BY IDOCK:   -3.70 KCAL/MOL
REMARK 923 INTER-LIGAND FREE ENERGY PREDICTED BY IDOCK:   -3.39 KCAL/MOL
REMARK 924 INTRA-LIGAND FREE ENERGY PREDICTED BY IDOCK:   -0.31 KCAL/MOL
REMARK 927      BINDING AFFINITY PREDICTED BY RF-SCORE:    0.00 PKD
ROOT
HETATM    1  C   UNL     1      -8.923   3.041  66.191  1.00  0.00    -0.150 C  
HETATM    2  C   UNL     1      -8.027   3.961  67.021  1.00  0.00    -0.095 C  
ENDROOT
BRANCH   2   3
HETATM    3  N   UNL     1      -8.122   5.412  66.715  1.00  0.00    -0.105 NA 
HETATM    4  C   UNL     1      -8.851   5.609  65.453  1.00  0.00    -0.106 C  
BRANCH   3   5
HETATM    5  C   UNL     1      -8.806   6.144  67.845  1.00  0.00    -0.111 C  
HETATM    6  C   UNL     1      -8.732   7.674  67.645  1.00  0.00    -0.122 C  
BRANCH   5   7
HETATM    7  C   UNL     1     -10.299   5.798  68.262  1.00  0.00    -0.212 C  
HETATM    8  H   UNL     1     -12.163   6.309  67.744  1.00  0.00     0.000 HD 
HETATM    9  O   UNL     1     -11.271   6.516  67.494  1.00  0.00    -0.343 OA 
BRANCH   7  10
HETATM   10  C   UNL     1     -10.699   5.795  69.729  1.00  0.00    -0.418 A  
HETATM   11  C   UNL     1     -10.049   4.905  70.608  1.00  0.00    -0.306 A  
HETATM   12  C   UNL     1     -10.391   4.853  71.963  1.00  0.00    -0.263 A  
HETATM   13  C   UNL     1     -11.393   5.678  72.458  1.00  0.00    -0.349 A  
HETATM   14  C   UNL     1     -12.057   6.552  71.598  1.00  0.00    -0.381 A  
HETATM   15  C   UNL     1     -11.717   6.606  70.240  1.00  0.00    -0.432 A  
ENDBRANCH   7  10
ENDBRANCH   5   7
ENDBRANCH   3   5
ENDBRANCH   2   3
TORSDOF 4
ENDMDL
MODEL      213
REMARK 921   NORMALIZED FREE ENERGY PREDICTED BY IDOCK:   -2.68 KCAL/MOL
REMARK 922        TOTAL FREE ENERGY PREDICTED BY IDOCK:   -3.70 KCAL/MOL
REMARK 923 INTER-LIGAND FREE ENERGY PREDICTED BY IDOCK:   -3.40 KCAL/MOL
REMARK 924 INTRA-LIGAND FREE ENERGY PREDICTED BY IDOCK:   -0.30 KCAL/MOL
REMARK 927      BINDING AFFINITY PREDICTED BY RF-SCORE:    0.00 PKD
ROOT
HETATM    1  C   UNL     1      -6.879  19.133  69.490  1.00  0.00    -0.243 C  
HETATM    2  C   UNL     1      -6.898  18.150  68.320  1.00  0.00    -0.229 C  
ENDROOT
BRANCH   2   3
HETATM    3  N   UNL     1      -7.968  18.361  67.309  1.00  0.00    -0.233 NA 
HETATM    4  C   UNL     1      -7.373  18.463  65.968  1.00  0.00    -0.238 C  
BRANCH   3   5
HETATM    5  C   UNL     1      -8.971  17.233  67.363  1.00  0.00    -0.222 C  
HETATM    6  C   UNL     1      -9.600  16.980  65.975  1.00  0.00    -0.215 C  
BRANCH   5   7
HETATM    7  C   UNL     1      -8.581  15.817  67.966  1.00  0.00    -0.163 C  
HETATM    8  H   UNL     1      -7.319  14.312  67.581  1.00  0.00     0.000 HD 
HETATM    9  O   UNL     1      -7.552  15.159  67.220  1.00  0.00    -0.189 OA 
BRANCH   7  10
HETATM   10  C   UNL     1      -9.669  14.821  68.335  1.00  0.00    -0.214 A  
HETATM   11  C   UNL     1     -10.722  15.244  69.170  1.00  0.00    -0.251 A  
HETATM   12  C   UNL     1     -11.739  14.362  69.552  1.00  0.00    -0.362 A  
HETATM   13  C   UNL     1     -11.713  13.044  69.115  1.00  0.00    -0.378 A  
HETATM   14  C   UNL     1     -10.669  12.605  68.301  1.00  0.00    -0.248 A  
HETATM   15  C   UNL     1      -9.650  13.486  67.919  1.00  0.00    -0.218 A  
ENDBRANCH   7  10
ENDBRANCH   5   7
ENDBRANCH   3   5
ENDBRANCH   2   3
TORSDOF 4
ENDMDL
MODEL      214
REMARK 921   NORMALIZED FREE ENERGY PREDICTED BY IDOCK:   -2.68 KCAL/MOL
REMARK 922        TOTAL FREE ENERGY PREDICTED BY IDOCK:   -3.70 KCAL/MOL
REMARK 923 INTER-LIGAND FREE ENERGY PREDICTED BY IDOCK:   -3.28 KCAL/MOL
REMARK 924 INTRA-LIGAND FREE ENERGY PREDICTED BY IDOCK:   -0.42 KCAL/MOL
REMARK 927      BINDING AFFINITY PREDICTED BY RF-SCORE:    0.00 PKD
ROOT
HETATM    1  C   UNL     1      -8.906  16.494  66.325  1.00  0.00    -0.364 C  
HETATM    2  C   UNL     1      -9.673  15.216  65.982  1.00  0.00    -0.330 C  
ENDROOT
BRANCH   2   3
HETATM    3  N   UNL     1     -11.147  15.354  65.857  1.00  0.00    -0.292 NA 
HETATM    4  C   UNL     1     -11.507  15.606  64.454  1.00  0.00    -0.262 C  
BRANCH   3   5
HETATM    5  C   UNL     1     -11.836  14.111  66.370  1.00  0.00    -0.423 C  
HETATM    6  C   UNL     1     -11.618  12.918  65.412  1.00  0.00    -0.386 C  
BRANCH   5   7
HETATM    7  C   UNL     1     -11.581  13.581  67.845  1.00  0.00    -0.342 C  
HETATM    8  H   UNL     1     -12.036  11.991  68.972  1.00  0.00     0.000 HD 
HETATM    9  O   UNL     1     -12.188  12.308  68.090  1.00  0.00    -0.349 OA 
BRANCH   7  10
HETATM   10  C   UNL     1     -11.808  14.499  69.034  1.00  0.00    -0.354 A  
HETATM   11  C   UNL     1     -10.688  15.019  69.715  1.00  0.00    -0.260 A  
HETATM   12  C   UNL     1     -10.842  15.856  70.824  1.00  0.00    -0.171 A  
HETATM   13  C   UNL     1     -12.115  16.178  71.278  1.00  0.00    -0.332 A  
HETATM   14  C   UNL     1     -13.234  15.659  70.626  1.00  0.00    -0.162 A  
HETATM   15  C   UNL     1     -13.081  14.820  69.515  1.00  0.00     0.748 A  
ENDBRANCH   7  10
ENDBRANCH   5   7
ENDBRANCH   3   5
ENDBRANCH   2   3
TORSDOF 4
ENDMDL
MODEL      215
REMARK 921   NORMALIZED FREE ENERGY PREDICTED BY IDOCK:   -2.67 KCAL/MOL
REMARK 922        TOTAL FREE ENERGY PREDICTED BY IDOCK:   -3.69 KCAL/MOL
REMARK 923 INTER-LIGAND FREE ENERGY PREDICTED BY IDOCK:   -3.32 KCAL/MOL
REMARK 924 INTRA-LIGAND FREE ENERGY PREDICTED BY IDOCK:   -0.37 KCAL/MOL
REMARK 927      BINDING AFFINITY PREDICTED BY RF-SCORE:    0.00 PKD
ROOT
HETATM    1  C   UNL     1      -7.195  19.158  67.205  1.00  0.00    -0.231 C  
HETATM    2  C   UNL     1      -8.470  18.480  66.704  1.00  0.00    -0.278 C  
ENDROOT
BRANCH   2   3
HETATM    3  N   UNL     1      -9.534  18.259  67.718  1.00  0.00    -0.272 NA 
HETATM    4  C   UNL     1     -10.774  18.925  67.294  1.00  0.00    -0.449 C  
BRANCH   3   5
HETATM    5  C   UNL     1      -9.765  16.781  67.924  1.00  0.00    -0.245 C  
HETATM    6  C   UNL     1     -11.227  16.497  68.335  1.00  0.00    -0.280 C  
BRANCH   5   7
HETATM    7  C   UNL     1      -9.381  15.727  66.799  1.00  0.00    -0.242 C  
HETATM    8  H   UNL     1     -10.144  14.994  65.100  1.00  0.00     0.000 HD 
HETATM    9  O   UNL     1     -10.373  15.625  65.772  1.00  0.00    -0.315 OA 
BRANCH   7  10
HETATM   10  C   UNL     1      -8.897  14.340  67.189  1.00  0.00    -0.243 A  
HETATM   11  C   UNL     1      -7.511  14.113  67.307  1.00  0.00    -0.068 A  
HETATM   12  C   UNL     1      -7.013  12.851  67.647  1.00  0.00    -0.152 A  
HETATM   13  C   UNL     1      -7.889  11.795  67.864  1.00  0.00    -0.135 A  
HETATM   14  C   UNL     1      -9.263  11.999  67.736  1.00  0.00    -0.190 A  
HETATM   15  C   UNL     1      -9.763  13.262  67.394  1.00  0.00    -0.221 A  
ENDBRANCH   7  10
ENDBRANCH   5   7
ENDBRANCH   3   5
ENDBRANCH   2   3
TORSDOF 4
ENDMDL
MODEL      216
REMARK 921   NORMALIZED FREE ENERGY PREDICTED BY IDOCK:   -2.67 KCAL/MOL
REMARK 922        TOTAL FREE ENERGY PREDICTED BY IDOCK:   -3.69 KCAL/MOL
REMARK 923 INTER-LIGAND FREE ENERGY PREDICTED BY IDOCK:   -3.64 KCAL/MOL
REMARK 924 INTRA-LIGAND FREE ENERGY PREDICTED BY IDOCK:   -0.04 KCAL/MOL
REMARK 927      BINDING AFFINITY PREDICTED BY RF-SCORE:    0.00 PKD
ROOT
HETATM    1  C   UNL     1      -7.547  11.182  66.733  1.00  0.00    -0.146 C  
HETATM    2  C   UNL     1      -8.993  11.637  66.933  1.00  0.00    -0.191 C  
ENDROOT
BRANCH   2   3
HETATM    3  N   UNL     1      -9.320  12.200  68.269  1.00  0.00    -0.203 NA 
HETATM    4  C   UNL     1      -9.884  13.549  68.117  1.00  0.00    -0.237 C  
BRANCH   3   5
HETATM    5  C   UNL     1     -10.287  11.296  68.997  1.00  0.00    -0.166 C  
HETATM    6  C   UNL     1     -11.533  11.000  68.132  1.00  0.00    -0.374 C  
BRANCH   5   7
HETATM    7  C   UNL     1      -9.810   9.915  69.619  1.00  0.00    -0.232 C  
HETATM    8  H   UNL     1      -8.130   9.078  70.315  1.00  0.00     0.000 HD 
HETATM    9  O   UNL     1      -8.415   9.904  69.944  1.00  0.00    -0.186 OA 
BRANCH   7  10
HETATM   10  C   UNL     1     -10.195   8.606  68.951  1.00  0.00    -0.221 A  
HETATM   11  C   UNL     1      -9.979   8.460  67.566  1.00  0.00    -0.259 A  
HETATM   12  C   UNL     1     -10.331   7.282  66.900  1.00  0.00    -0.358 A  
HETATM   13  C   UNL     1     -10.913   6.235  67.605  1.00  0.00    -0.438 A  
HETATM   14  C   UNL     1     -11.148   6.369  68.973  1.00  0.00    -0.424 A  
HETATM   15  C   UNL     1     -10.798   7.549  69.641  1.00  0.00    -0.210 A  
ENDBRANCH   7  10
ENDBRANCH   5   7
ENDBRANCH   3   5
ENDBRANCH   2   3
TORSDOF 4
ENDMDL
MODEL      217
REMARK 921   NORMALIZED FREE ENERGY PREDICTED BY IDOCK:   -2.66 KCAL/MOL
REMARK 922        TOTAL FREE ENERGY PREDICTED BY IDOCK:   -3.68 KCAL/MOL
REMARK 923 INTER-LIGAND FREE ENERGY PREDICTED BY IDOCK:   -3.35 KCAL/MOL
REMARK 924 INTRA-LIGAND FREE ENERGY PREDICTED BY IDOCK:   -0.33 KCAL/MOL
REMARK 927      BINDING AFFINITY PREDICTED BY RF-SCORE:    0.00 PKD
ROOT
HETATM    1  C   UNL     1      -9.537  10.233  65.512  1.00  0.00    -0.299 C  
HETATM    2  C   UNL     1     -10.074  11.650  65.717  1.00  0.00    -0.240 C  
ENDROOT
BRANCH   2   3
HETATM    3  N   UNL     1      -9.581  12.366  66.922  1.00  0.00    -0.213 NA 
HETATM    4  C   UNL     1      -8.164  12.044  67.149  1.00  0.00    -0.181 C  
BRANCH   3   5
HETATM    5  C   UNL     1      -9.771  13.856  66.762  1.00  0.00    -0.279 C  
HETATM    6  C   UNL     1     -10.938  14.169  65.798  1.00  0.00    -0.301 C  
BRANCH   5   7
HETATM    7  C   UNL     1      -9.940  14.802  68.026  1.00  0.00    -0.218 C  
HETATM    8  H   UNL     1     -11.316  16.018  68.822  1.00  0.00     0.000 HD 
HETATM    9  O   UNL     1     -11.215  15.453  68.066  1.00  0.00    -0.303 OA 
BRANCH   7  10
HETATM   10  C   UNL     1      -8.844  15.791  68.389  1.00  0.00    -0.185 A  
HETATM   11  C   UNL     1      -8.851  17.065  67.786  1.00  0.00    -0.223 A  
HETATM   12  C   UNL     1      -7.856  18.005  68.074  1.00  0.00    -0.257 A  
HETATM   13  C   UNL     1      -6.835  17.684  68.960  1.00  0.00    -0.240 A  
HETATM   14  C   UNL     1      -6.805  16.423  69.553  1.00  0.00    -0.187 A  
HETATM   15  C   UNL     1      -7.799  15.479  69.265  1.00  0.00    -0.227 A  
ENDBRANCH   7  10
ENDBRANCH   5   7
ENDBRANCH   3   5
ENDBRANCH   2   3
TORSDOF 4
ENDMDL
MODEL      218
REMARK 921   NORMALIZED FREE ENERGY PREDICTED BY IDOCK:   -2.66 KCAL/MOL
REMARK 922        TOTAL FREE ENERGY PREDICTED BY IDOCK:   -3.67 KCAL/MOL
REMARK 923 INTER-LIGAND FREE ENERGY PREDICTED BY IDOCK:   -3.02 KCAL/MOL
REMARK 924 INTRA-LIGAND FREE ENERGY PREDICTED BY IDOCK:   -0.66 KCAL/MOL
REMARK 927      BINDING AFFINITY PREDICTED BY RF-SCORE:    0.00 PKD
ROOT
HETATM    1  C   UNL     1      -8.167   8.840  71.243  1.00  0.00    -0.212 C  
HETATM    2  C   UNL     1      -7.100   8.052  72.002  1.00  0.00    -0.080 C  
ENDROOT
BRANCH   2   3
HETATM    3  N   UNL     1      -7.252   6.573  71.994  1.00  0.00    -0.084 NA 
HETATM    4  C   UNL     1      -5.953   5.940  71.723  1.00  0.00    -0.035 C  
BRANCH   3   5
HETATM    5  C   UNL     1      -7.814   6.095  73.312  1.00  0.00    -0.100 C  
HETATM    6  C   UNL     1      -7.491   7.091  74.449  1.00  0.00    -0.124 C  
BRANCH   5   7
HETATM    7  C   UNL     1      -9.345   5.701  73.456  1.00  0.00    -0.138 C  
HETATM    8  H   UNL     1     -10.480   4.052  73.471  1.00  0.00     0.000 HD 
HETATM    9  O   UNL     1      -9.564   4.288  73.386  1.00  0.00    -0.119 OA 
BRANCH   7  10
HETATM   10  C   UNL     1     -10.399   6.429  72.638  1.00  0.00    -0.216 A  
HETATM   11  C   UNL     1     -10.823   5.863  71.418  1.00  0.00    -0.332 A  
HETATM   12  C   UNL     1     -11.778   6.500  70.620  1.00  0.00    -0.436 A  
HETATM   13  C   UNL     1     -12.317   7.716  71.021  1.00  0.00    -0.234 A  
HETATM   14  C   UNL     1     -11.897   8.297  72.218  1.00  0.00    -0.451 A  
HETATM   15  C   UNL     1     -10.939   7.661  73.017  1.00  0.00    -0.457 A  
ENDBRANCH   7  10
ENDBRANCH   5   7
ENDBRANCH   3   5
ENDBRANCH   2   3
TORSDOF 4
ENDMDL
MODEL      219
REMARK 921   NORMALIZED FREE ENERGY PREDICTED BY IDOCK:   -2.64 KCAL/MOL
REMARK 922        TOTAL FREE ENERGY PREDICTED BY IDOCK:   -3.65 KCAL/MOL
REMARK 923 INTER-LIGAND FREE ENERGY PREDICTED BY IDOCK:   -3.34 KCAL/MOL
REMARK 924 INTRA-LIGAND FREE ENERGY PREDICTED BY IDOCK:   -0.31 KCAL/MOL
REMARK 927      BINDING AFFINITY PREDICTED BY RF-SCORE:    0.00 PKD
ROOT
HETATM    1  C   UNL     1      -7.426   5.925  65.743  1.00  0.00    -0.081 C  
HETATM    2  C   UNL     1      -8.319   7.165  65.803  1.00  0.00    -0.143 C  
ENDROOT
BRANCH   2   3
HETATM    3  N   UNL     1      -8.112   8.062  66.970  1.00  0.00    -0.114 NA 
HETATM    4  C   UNL     1      -7.477   9.313  66.530  1.00  0.00    -0.093 C  
BRANCH   3   5
HETATM    5  C   UNL     1      -9.428   8.345  67.655  1.00  0.00    -0.149 C  
HETATM    6  C   UNL     1     -10.396   9.098  66.715  1.00  0.00    -0.308 C  
BRANCH   5   7
HETATM    7  C   UNL     1     -10.259   7.182  68.347  1.00  0.00    -0.174 C  
HETATM    8  H   UNL     1     -11.831   6.009  67.945  1.00  0.00     0.000 HD 
HETATM    9  O   UNL     1     -11.334   6.705  67.531  1.00  0.00    -0.271 OA 
BRANCH   7  10
HETATM   10  C   UNL     1     -10.730   7.334  69.785  1.00  0.00    -0.253 A  
HETATM   11  C   UNL     1     -10.947   8.630  70.295  1.00  0.00    -0.251 A  
HETATM   12  C   UNL     1     -11.366   8.825  71.615  1.00  0.00    -0.390 A  
HETATM   13  C   UNL     1     -11.562   7.731  72.448  1.00  0.00    -0.410 A  
HETATM   14  C   UNL     1     -11.336   6.443  71.964  1.00  0.00    -0.338 A  
HETATM   15  C   UNL     1     -10.916   6.246  70.643  1.00  0.00    -0.370 A  
ENDBRANCH   7  10
ENDBRANCH   5   7
ENDBRANCH   3   5
ENDBRANCH   2   3
TORSDOF 4
ENDMDL
MODEL      220
REMARK 921   NORMALIZED FREE ENERGY PREDICTED BY IDOCK:   -2.64 KCAL/MOL
REMARK 922        TOTAL FREE ENERGY PREDICTED BY IDOCK:   -3.65 KCAL/MOL
REMARK 923 INTER-LIGAND FREE ENERGY PREDICTED BY IDOCK:   -3.33 KCAL/MOL
REMARK 924 INTRA-LIGAND FREE ENERGY PREDICTED BY IDOCK:   -0.32 KCAL/MOL
REMARK 927      BINDING AFFINITY PREDICTED BY RF-SCORE:    0.00 PKD
ROOT
HETATM    1  C   UNL     1      -6.406   8.029  72.133  1.00  0.00    -0.051 C  
HETATM    2  C   UNL     1      -7.915   7.984  71.894  1.00  0.00    -0.115 C  
ENDROOT
BRANCH   2   3
HETATM    3  N   UNL     1      -8.737   7.453  73.013  1.00  0.00    -0.131 NA 
HETATM    4  C   UNL     1      -8.397   8.156  74.259  1.00  0.00    -0.190 C  
BRANCH   3   5
HETATM    5  C   UNL     1     -10.207   7.601  72.701  1.00  0.00    -0.265 C  
HETATM    6  C   UNL     1     -10.501   8.964  72.035  1.00  0.00    -0.383 C  
BRANCH   5   7
HETATM    7  C   UNL     1     -10.984   6.495  71.868  1.00  0.00    -0.250 C  
HETATM    8  H   UNL     1     -12.858   6.077  71.302  1.00  0.00     0.000 HD 
HETATM    9  O   UNL     1     -12.394   6.738  71.800  1.00  0.00    -0.341 OA 
BRANCH   7  10
HETATM   10  C   UNL     1     -10.727   5.020  72.134  1.00  0.00    -0.227 A  
HETATM   11  C   UNL     1     -11.197   4.455  73.337  1.00  0.00    -0.386 A  
HETATM   12  C   UNL     1     -10.973   3.108  73.637  1.00  0.00    -0.327 A  
HETATM   13  C   UNL     1     -10.268   2.307  72.747  1.00  0.00    -0.225 A  
HETATM   14  C   UNL     1      -9.782   2.855  71.560  1.00  0.00    -0.224 A  
HETATM   15  C   UNL     1     -10.004   4.205  71.258  1.00  0.00    -0.216 A  
ENDBRANCH   7  10
ENDBRANCH   5   7
ENDBRANCH   3   5
ENDBRANCH   2   3
TORSDOF 4
ENDMDL
MODEL      221
REMARK 921   NORMALIZED FREE ENERGY PREDICTED BY IDOCK:   -2.60 KCAL/MOL
REMARK 922        TOTAL FREE ENERGY PREDICTED BY IDOCK:   -3.60 KCAL/MOL
REMARK 923 INTER-LIGAND FREE ENERGY PREDICTED BY IDOCK:   -3.09 KCAL/MOL
REMARK 924 INTRA-LIGAND FREE ENERGY PREDICTED BY IDOCK:   -0.51 KCAL/MOL
REMARK 927      BINDING AFFINITY PREDICTED BY RF-SCORE:    0.00 PKD
ROOT
HETATM    1  C   UNL     1      -8.819   5.679  70.885  1.00  0.00    -0.147 C  
HETATM    2  C   UNL     1      -9.546   5.413  72.203  1.00  0.00    -0.154 C  
ENDROOT
BRANCH   2   3
HETATM    3  N   UNL     1     -10.503   6.462  72.643  1.00  0.00    -0.203 NA 
HETATM    4  C   UNL     1      -9.856   7.348  73.622  1.00  0.00    -0.315 C  
BRANCH   3   5
HETATM    5  C   UNL     1     -10.999   7.252  71.455  1.00  0.00    -0.233 C  
HETATM    6  C   UNL     1     -12.543   7.236  71.382  1.00  0.00    -0.423 C  
BRANCH   5   7
HETATM    7  C   UNL     1     -10.534   8.751  71.214  1.00  0.00    -0.256 C  
HETATM    8  H   UNL     1     -11.313  10.594  71.254  1.00  0.00     0.000 HD 
HETATM    9  O   UNL     1     -11.592   9.698  71.398  1.00  0.00    -0.358 OA 
BRANCH   7  10
HETATM   10  C   UNL     1      -9.730   9.108  69.975  1.00  0.00    -0.217 A  
HETATM   11  C   UNL     1     -10.083   8.520  68.743  1.00  0.00    -0.210 A  
HETATM   12  C   UNL     1      -9.366   8.804  67.576  1.00  0.00    -0.161 A  
HETATM   13  C   UNL     1      -8.280   9.669  67.623  1.00  0.00    -0.114 A  
HETATM   14  C   UNL     1      -7.908  10.247  68.837  1.00  0.00    -0.106 A  
HETATM   15  C   UNL     1      -8.624   9.963  70.007  1.00  0.00    -0.196 A  
ENDBRANCH   7  10
ENDBRANCH   5   7
ENDBRANCH   3   5
ENDBRANCH   2   3
TORSDOF 4
ENDMDL
MODEL      222
REMARK 921   NORMALIZED FREE ENERGY PREDICTED BY IDOCK:   -2.57 KCAL/MOL
REMARK 922        TOTAL FREE ENERGY PREDICTED BY IDOCK:   -3.56 KCAL/MOL
REMARK 923 INTER-LIGAND FREE ENERGY PREDICTED BY IDOCK:   -3.25 KCAL/MOL
REMARK 924 INTRA-LIGAND FREE ENERGY PREDICTED BY IDOCK:   -0.32 KCAL/MOL
REMARK 927      BINDING AFFINITY PREDICTED BY RF-SCORE:    0.00 PKD
ROOT
HETATM    1  C   UNL     1     -10.241   4.592  72.520  1.00  0.00    -0.243 C  
HETATM    2  C   UNL     1     -10.611   5.513  71.358  1.00  0.00    -0.243 C  
ENDROOT
BRANCH   2   3
HETATM    3  N   UNL     1     -10.056   6.891  71.414  1.00  0.00    -0.186 NA 
HETATM    4  C   UNL     1      -8.982   6.955  72.417  1.00  0.00    -0.133 C  
BRANCH   3   5
HETATM    5  C   UNL     1      -9.543   7.306  70.056  1.00  0.00    -0.167 C  
HETATM    6  C   UNL     1      -8.452   6.335  69.551  1.00  0.00    -0.129 C  
BRANCH   5   7
HETATM    7  C   UNL     1     -10.539   7.562  68.846  1.00  0.00    -0.169 C  
HETATM    8  H   UNL     1     -11.360   6.544  67.331  1.00  0.00     0.000 HD 
HETATM    9  O   UNL     1     -10.764   6.391  68.054  1.00  0.00    -0.229 OA 
BRANCH   7  10
HETATM   10  C   UNL     1     -10.344   8.768  67.940  1.00  0.00    -0.281 A  
HETATM   11  C   UNL     1     -10.033   8.554  66.582  1.00  0.00    -0.363 A  
HETATM   12  C   UNL     1      -9.828   9.629  65.711  1.00  0.00    -0.373 A  
HETATM   13  C   UNL     1      -9.920  10.932  66.184  1.00  0.00    -0.282 A  
HETATM   14  C   UNL     1     -10.212  11.160  67.529  1.00  0.00    -0.216 A  
HETATM   15  C   UNL     1     -10.415  10.085  68.403  1.00  0.00    -0.235 A  
ENDBRANCH   7  10
ENDBRANCH   5   7
ENDBRANCH   3   5
ENDBRANCH   2   3
TORSDOF 4
ENDMDL
MODEL      223
REMARK 921   NORMALIZED FREE ENERGY PREDICTED BY IDOCK:   -2.57 KCAL/MOL
REMARK 922        TOTAL FREE ENERGY PREDICTED BY IDOCK:   -3.56 KCAL/MOL
REMARK 923 INTER-LIGAND FREE ENERGY PREDICTED BY IDOCK:   -3.26 KCAL/MOL
REMARK 924 INTRA-LIGAND FREE ENERGY PREDICTED BY IDOCK:   -0.30 KCAL/MOL
REMARK 927      BINDING AFFINITY PREDICTED BY RF-SCORE:    0.00 PKD
ROOT
HETATM    1  C   UNL     1      -9.566   3.789  67.786  1.00  0.00    -0.193 C  
HETATM    2  C   UNL     1      -9.034   4.920  68.667  1.00  0.00    -0.105 C  
ENDROOT
BRANCH   2   3
HETATM    3  N   UNL     1      -8.987   6.268  68.040  1.00  0.00    -0.115 NA 
HETATM    4  C   UNL     1      -9.355   6.171  66.620  1.00  0.00    -0.146 C  
BRANCH   3   5
HETATM    5  C   UNL     1      -9.909   7.217  68.767  1.00  0.00    -0.161 C  
HETATM    6  C   UNL     1     -10.564   6.533  69.989  1.00  0.00    -0.280 C  
BRANCH   5   7
HETATM    7  C   UNL     1      -9.405   8.646  69.245  1.00  0.00    -0.153 C  
HETATM    8  H   UNL     1      -8.319   9.441  70.725  1.00  0.00     0.000 HD 
HETATM    9  O   UNL     1      -8.620   8.587  70.440  1.00  0.00    -0.130 OA 
BRANCH   7  10
HETATM   10  C   UNL     1     -10.380   9.810  69.323  1.00  0.00    -0.230 A  
HETATM   11  C   UNL     1     -10.579  10.607  68.177  1.00  0.00    -0.237 A  
HETATM   12  C   UNL     1     -11.453  11.699  68.201  1.00  0.00    -0.382 A  
HETATM   13  C   UNL     1     -12.131  12.018  69.371  1.00  0.00    -0.261 A  
HETATM   14  C   UNL     1     -11.932  11.250  70.518  1.00  0.00    -0.467 A  
HETATM   15  C   UNL     1     -11.057  10.157  70.496  1.00  0.00    -0.400 A  
ENDBRANCH   7  10
ENDBRANCH   5   7
ENDBRANCH   3   5
ENDBRANCH   2   3
TORSDOF 4
ENDMDL
MODEL      224
REMARK 921   NORMALIZED FREE ENERGY PREDICTED BY IDOCK:   -2.53 KCAL/MOL
REMARK 922        TOTAL FREE ENERGY PREDICTED BY IDOCK:   -3.52 KCAL/MOL
REMARK 923 INTER-LIGAND FREE ENERGY PREDICTED BY IDOCK:   -3.62 KCAL/MOL
REMARK 924 INTRA-LIGAND FREE ENERGY PREDICTED BY IDOCK:    0.10 KCAL/MOL
REMARK 927      BINDING AFFINITY PREDICTED BY RF-SCORE:    0.00 PKD
ROOT
HETATM    1  C   UNL     1      -9.927   8.100  66.845  1.00  0.00    -0.343 C  
HETATM    2  C   UNL     1     -10.416   9.443  67.388  1.00  0.00    -0.278 C  
ENDROOT
BRANCH   2   3
HETATM    3  N   UNL     1      -9.374  10.483  67.591  1.00  0.00    -0.148 NA 
HETATM    4  C   UNL     1      -8.235  10.229  66.696  1.00  0.00    -0.125 C  
BRANCH   3   5
HETATM    5  C   UNL     1      -9.949  11.858  67.346  1.00  0.00    -0.190 C  
HETATM    6  C   UNL     1     -10.657  11.929  65.974  1.00  0.00    -0.304 C  
BRANCH   5   7
HETATM    7  C   UNL     1     -10.911  12.546  68.406  1.00  0.00    -0.243 C  
HETATM    8  H   UNL     1     -12.801  12.393  69.044  1.00  0.00     0.000 HD 
HETATM    9  O   UNL     1     -12.227  11.982  68.411  1.00  0.00    -0.373 OA 
BRANCH   7  10
HETATM   10  C   UNL     1     -10.998  14.061  68.483  1.00  0.00    -0.274 A  
HETATM   11  C   UNL     1     -10.875  14.811  67.296  1.00  0.00    -0.309 A  
HETATM   12  C   UNL     1     -10.933  16.208  67.315  1.00  0.00    -0.175 A  
HETATM   13  C   UNL     1     -11.103  16.878  68.520  1.00  0.00    -0.213 A  
HETATM   14  C   UNL     1     -11.211  16.152  69.706  1.00  0.00    -0.343 A  
HETATM   15  C   UNL     1     -11.151  14.753  69.689  1.00  0.00    -0.299 A  
ENDBRANCH   7  10
ENDBRANCH   5   7
ENDBRANCH   3   5
ENDBRANCH   2   3
TORSDOF 4
ENDMDL
MODEL      225
REMARK 921   NORMALIZED FREE ENERGY PREDICTED BY IDOCK:   -2.53 KCAL/MOL
REMARK 922        TOTAL FREE ENERGY PREDICTED BY IDOCK:   -3.51 KCAL/MOL
REMARK 923 INTER-LIGAND FREE ENERGY PREDICTED BY IDOCK:   -3.16 KCAL/MOL
REMARK 924 INTRA-LIGAND FREE ENERGY PREDICTED BY IDOCK:   -0.35 KCAL/MOL
REMARK 927      BINDING AFFINITY PREDICTED BY RF-SCORE:    0.00 PKD
ROOT
HETATM    1  C   UNL     1     -11.192  10.149  71.063  1.00  0.00    -0.322 C  
HETATM    2  C   UNL     1     -11.258   8.662  70.712  1.00  0.00    -0.261 C  
ENDROOT
BRANCH   2   3
HETATM    3  N   UNL     1     -11.834   7.772  71.754  1.00  0.00    -0.279 NA 
HETATM    4  C   UNL     1     -13.291   7.959  71.820  1.00  0.00    -0.328 C  
BRANCH   3   5
HETATM    5  C   UNL     1     -11.494   6.330  71.458  1.00  0.00    -0.293 C  
HETATM    6  C   UNL     1     -10.968   6.166  70.014  1.00  0.00    -0.441 C  
BRANCH   5   7
HETATM    7  C   UNL     1     -10.524   5.504  72.406  1.00  0.00    -0.214 C  
HETATM    8  H   UNL     1     -10.584   4.570  74.176  1.00  0.00     0.000 HD 
HETATM    9  O   UNL     1     -11.165   5.064  73.609  1.00  0.00    -0.315 OA 
BRANCH   7  10
HETATM   10  C   UNL     1      -9.137   6.036  72.725  1.00  0.00    -0.129 A  
HETATM   11  C   UNL     1      -8.029   5.177  72.579  1.00  0.00    -0.102 A  
HETATM   12  C   UNL     1      -6.733   5.612  72.874  1.00  0.00    -0.073 A  
HETATM   13  C   UNL     1      -6.525   6.908  73.331  1.00  0.00    -0.066 A  
HETATM   14  C   UNL     1      -7.612   7.766  73.497  1.00  0.00    -0.166 A  
HETATM   15  C   UNL     1      -8.910   7.331  73.203  1.00  0.00    -0.175 A  
ENDBRANCH   7  10
ENDBRANCH   5   7
ENDBRANCH   3   5
ENDBRANCH   2   3
TORSDOF 4
ENDMDL
MODEL      226
REMARK 921   NORMALIZED FREE ENERGY PREDICTED BY IDOCK:   -2.50 KCAL/MOL
REMARK 922        TOTAL FREE ENERGY PREDICTED BY IDOCK:   -3.48 KCAL/MOL
REMARK 923 INTER-LIGAND FREE ENERGY PREDICTED BY IDOCK:   -3.21 KCAL/MOL
REMARK 924 INTRA-LIGAND FREE ENERGY PREDICTED BY IDOCK:   -0.27 KCAL/MOL
REMARK 927      BINDING AFFINITY PREDICTED BY RF-SCORE:    0.00 PKD
ROOT
HETATM    1  C   UNL     1      -9.087   3.959  69.460  1.00  0.00    -0.196 C  
HETATM    2  C   UNL     1      -9.080   5.430  69.041  1.00  0.00    -0.115 C  
ENDROOT
BRANCH   2   3
HETATM    3  N   UNL     1      -8.625   5.710  67.654  1.00  0.00    -0.109 NA 
HETATM    4  C   UNL     1      -8.772   4.503  66.827  1.00  0.00    -0.111 C  
BRANCH   3   5
HETATM    5  C   UNL     1      -9.410   6.859  67.066  1.00  0.00    -0.145 C  
HETATM    6  C   UNL     1     -10.883   6.824  67.532  1.00  0.00    -0.388 C  
BRANCH   5   7
HETATM    7  C   UNL     1      -8.907   8.358  67.216  1.00  0.00    -0.130 C  
HETATM    8  H   UNL     1      -8.136   9.553  68.624  1.00  0.00     0.000 HD 
HETATM    9  O   UNL     1      -8.436   8.657  68.534  1.00  0.00    -0.128 OA 
BRANCH   7  10
HETATM   10  C   UNL     1      -9.763   9.503  66.701  1.00  0.00    -0.270 A  
HETATM   11  C   UNL     1      -9.759   9.787  65.320  1.00  0.00    -0.371 A  
HETATM   12  C   UNL     1     -10.517  10.840  64.797  1.00  0.00    -0.335 A  
HETATM   13  C   UNL     1     -11.281  11.632  65.645  1.00  0.00    -0.275 A  
HETATM   14  C   UNL     1     -11.283  11.375  67.016  1.00  0.00    -0.350 A  
HETATM   15  C   UNL     1     -10.524  10.322  67.542  1.00  0.00    -0.293 A  
ENDBRANCH   7  10
ENDBRANCH   5   7
ENDBRANCH   3   5
ENDBRANCH   2   3
TORSDOF 4
ENDMDL
MODEL      227
REMARK 921   NORMALIZED FREE ENERGY PREDICTED BY IDOCK:   -2.50 KCAL/MOL
REMARK 922        TOTAL FREE ENERGY PREDICTED BY IDOCK:   -3.48 KCAL/MOL
REMARK 923 INTER-LIGAND FREE ENERGY PREDICTED BY IDOCK:   -3.26 KCAL/MOL
REMARK 924 INTRA-LIGAND FREE ENERGY PREDICTED BY IDOCK:   -0.22 KCAL/MOL
REMARK 927      BINDING AFFINITY PREDICTED BY RF-SCORE:    0.00 PKD
ROOT
HETATM    1  C   UNL     1     -10.382   9.356  67.149  1.00  0.00    -0.326 C  
HETATM    2  C   UNL     1     -10.489  10.873  66.996  1.00  0.00    -0.244 C  
ENDROOT
BRANCH   2   3
HETATM    3  N   UNL     1     -10.260  11.408  65.628  1.00  0.00    -0.241 NA 
HETATM    4  C   UNL     1     -11.144  10.726  64.671  1.00  0.00     0.383 C  
BRANCH   3   5
HETATM    5  C   UNL     1     -10.495  12.900  65.602  1.00  0.00    -0.277 C  
HETATM    6  C   UNL     1     -11.920  13.231  65.104  1.00  0.00    -0.413 C  
BRANCH   5   7
HETATM    7  C   UNL     1     -10.228  13.796  66.886  1.00  0.00    -0.261 C  
HETATM    8  H   UNL     1     -11.232  14.490  68.472  1.00  0.00     0.000 HD 
HETATM    9  O   UNL     1     -11.392  13.955  67.705  1.00  0.00    -0.283 OA 
BRANCH   7  10
HETATM   10  C   UNL     1      -9.506  15.126  66.750  1.00  0.00    -0.260 A  
HETATM   11  C   UNL     1      -8.105  15.157  66.902  1.00  0.00    -0.194 A  
HETATM   12  C   UNL     1      -7.395  16.358  66.802  1.00  0.00    -0.261 A  
HETATM   13  C   UNL     1      -8.073  17.546  66.560  1.00  0.00    -0.305 A  
HETATM   14  C   UNL     1      -9.461  17.535  66.423  1.00  0.00    -0.276 A  
HETATM   15  C   UNL     1     -10.174  16.333  66.524  1.00  0.00    -0.307 A  
ENDBRANCH   7  10
ENDBRANCH   5   7
ENDBRANCH   3   5
ENDBRANCH   2   3
TORSDOF 4
ENDMDL
MODEL      228
REMARK 921   NORMALIZED FREE ENERGY PREDICTED BY IDOCK:   -2.50 KCAL/MOL
REMARK 922        TOTAL FREE ENERGY PREDICTED BY IDOCK:   -3.48 KCAL/MOL
REMARK 923 INTER-LIGAND FREE ENERGY PREDICTED BY IDOCK:   -3.15 KCAL/MOL
REMARK 924 INTRA-LIGAND FREE ENERGY PREDICTED BY IDOCK:   -0.33 KCAL/MOL
REMARK 927      BINDING AFFINITY PREDICTED BY RF-SCORE:    0.00 PKD
ROOT
HETATM    1  C   UNL     1      -7.339   7.372  73.487  1.00  0.00    -0.103 C  
HETATM    2  C   UNL     1      -7.469   6.631  72.156  1.00  0.00    -0.094 C  
ENDROOT
BRANCH   2   3
HETATM    3  N   UNL     1      -8.294   7.298  71.116  1.00  0.00    -0.111 NA 
HETATM    4  C   UNL     1      -7.444   7.692  69.982  1.00  0.00    -0.082 C  
BRANCH   3   5
HETATM    5  C   UNL     1      -9.404   6.382  70.657  1.00  0.00    -0.162 C  
HETATM    6  C   UNL     1      -9.527   5.150  71.582  1.00  0.00    -0.193 C  
BRANCH   5   7
HETATM    7  C   UNL     1     -10.873   6.932  70.412  1.00  0.00    -0.261 C  
HETATM    8  H   UNL     1     -12.511   6.441  69.372  1.00  0.00     0.000 HD 
HETATM    9  O   UNL     1     -11.633   6.111  69.518  1.00  0.00    -0.396 OA 
BRANCH   7  10
HETATM   10  C   UNL     1     -11.092   8.399  70.078  1.00  0.00    -0.148 A  
HETATM   11  C   UNL     1     -10.679   8.877  68.818  1.00  0.00    -0.123 A  
HETATM   12  C   UNL     1     -10.843  10.221  68.467  1.00  0.00    -0.281 A  
HETATM   13  C   UNL     1     -11.410  11.110  69.372  1.00  0.00    -0.352 A  
HETATM   14  C   UNL     1     -11.809  10.656  70.628  1.00  0.00    -0.463 A  
HETATM   15  C   UNL     1     -11.644   9.311  70.982  1.00  0.00    -0.380 A  
ENDBRANCH   7  10
ENDBRANCH   5   7
ENDBRANCH   3   5
ENDBRANCH   2   3
TORSDOF 4
ENDMDL
MODEL      229
REMARK 921   NORMALIZED FREE ENERGY PREDICTED BY IDOCK:   -2.49 KCAL/MOL
REMARK 922        TOTAL FREE ENERGY PREDICTED BY IDOCK:   -3.47 KCAL/MOL
REMARK 923 INTER-LIGAND FREE ENERGY PREDICTED BY IDOCK:   -3.57 KCAL/MOL
REMARK 924 INTRA-LIGAND FREE ENERGY PREDICTED BY IDOCK:    0.10 KCAL/MOL
REMARK 927      BINDING AFFINITY PREDICTED BY RF-SCORE:    0.00 PKD
ROOT
HETATM    1  C   UNL     1      -8.042   8.211  74.209  1.00  0.00    -0.309 C  
HETATM    2  C   UNL     1      -9.086   8.202  73.093  1.00  0.00    -0.265 C  
ENDROOT
BRANCH   2   3
HETATM    3  N   UNL     1     -10.315   7.407  73.355  1.00  0.00    -0.346 NA 
HETATM    4  C   UNL     1     -11.436   7.949  72.573  1.00  0.00    -0.398 C  
BRANCH   3   5
HETATM    5  C   UNL     1     -10.082   5.954  73.017  1.00  0.00    -0.181 C  
HETATM    6  C   UNL     1     -11.404   5.154  73.055  1.00  0.00    -0.381 C  
BRANCH   5   7
HETATM    7  C   UNL     1      -9.318   5.532  71.691  1.00  0.00    -0.146 C  
HETATM    8  H   UNL     1      -7.440   5.235  71.065  1.00  0.00     0.000 HD 
HETATM    9  O   UNL     1      -7.896   5.487  71.858  1.00  0.00    -0.105 OA 
BRANCH   7  10
HETATM   10  C   UNL     1      -9.661   6.199  70.369  1.00  0.00    -0.199 A  
HETATM   11  C   UNL     1      -8.737   7.100  69.802  1.00  0.00    -0.142 A  
HETATM   12  C   UNL     1      -9.012   7.752  68.596  1.00  0.00    -0.133 A  
HETATM   13  C   UNL     1     -10.217   7.523  67.943  1.00  0.00    -0.245 A  
HETATM   14  C   UNL     1     -11.149   6.646  68.499  1.00  0.00    -0.284 A  
HETATM   15  C   UNL     1     -10.876   5.994  69.707  1.00  0.00    -0.433 A  
ENDBRANCH   7  10
ENDBRANCH   5   7
ENDBRANCH   3   5
ENDBRANCH   2   3
TORSDOF 4
ENDMDL
MODEL      230
REMARK 921   NORMALIZED FREE ENERGY PREDICTED BY IDOCK:   -2.48 KCAL/MOL
REMARK 922        TOTAL FREE ENERGY PREDICTED BY IDOCK:   -3.46 KCAL/MOL
REMARK 923 INTER-LIGAND FREE ENERGY PREDICTED BY IDOCK:   -3.07 KCAL/MOL
REMARK 924 INTRA-LIGAND FREE ENERGY PREDICTED BY IDOCK:   -0.38 KCAL/MOL
REMARK 927      BINDING AFFINITY PREDICTED BY RF-SCORE:    0.00 PKD
ROOT
HETATM    1  C   UNL     1      -5.461  14.825  70.955  1.00  0.00    -0.145 C  
HETATM    2  C   UNL     1      -6.645  14.752  69.990  1.00  0.00    -0.168 C  
ENDROOT
BRANCH   2   3
HETATM    3  N   UNL     1      -6.798  15.900  69.059  1.00  0.00    -0.142 NA 
HETATM    4  C   UNL     1      -5.703  16.859  69.265  1.00  0.00    -0.163 C  
BRANCH   3   5
HETATM    5  C   UNL     1      -6.822  15.416  67.628  1.00  0.00    -0.182 C  
HETATM    6  C   UNL     1      -6.154  14.028  67.499  1.00  0.00     0.030 C  
BRANCH   5   7
HETATM    7  C   UNL     1      -8.177  15.363  66.802  1.00  0.00    -0.217 C  
HETATM    8  H   UNL     1      -9.147  16.450  65.430  1.00  0.00     0.000 HD 
HETATM    9  O   UNL     1      -8.336  16.482  65.923  1.00  0.00    -0.388 OA 
BRANCH   7  10
HETATM   10  C   UNL     1      -9.489  15.070  67.510  1.00  0.00    -0.203 A  
HETATM   11  C   UNL     1      -9.794  13.737  67.853  1.00  0.00    -0.232 A  
HETATM   12  C   UNL     1     -10.996  13.413  68.491  1.00  0.00    -0.292 A  
HETATM   13  C   UNL     1     -11.915  14.412  68.787  1.00  0.00    -0.331 A  
HETATM   14  C   UNL     1     -11.636  15.734  68.440  1.00  0.00    -0.343 A  
HETATM   15  C   UNL     1     -10.434  16.060  67.799  1.00  0.00    -0.298 A  
ENDBRANCH   7  10
ENDBRANCH   5   7
ENDBRANCH   3   5
ENDBRANCH   2   3
TORSDOF 4
ENDMDL
MODEL      231
REMARK 921   NORMALIZED FREE ENERGY PREDICTED BY IDOCK:   -2.48 KCAL/MOL
REMARK 922        TOTAL FREE ENERGY PREDICTED BY IDOCK:   -3.45 KCAL/MOL
REMARK 923 INTER-LIGAND FREE ENERGY PREDICTED BY IDOCK:   -2.92 KCAL/MOL
REMARK 924 INTRA-LIGAND FREE ENERGY PREDICTED BY IDOCK:   -0.53 KCAL/MOL
REMARK 927      BINDING AFFINITY PREDICTED BY RF-SCORE:    0.00 PKD
ROOT
HETATM    1  C   UNL     1     -10.819   5.717  69.166  1.00  0.00    -0.355 C  
HETATM    2  C   UNL     1      -9.321   5.526  68.924  1.00  0.00    -0.125 C  
ENDROOT
BRANCH   2   3
HETATM    3  N   UNL     1      -8.753   6.240  67.751  1.00  0.00    -0.114 NA 
HETATM    4  C   UNL     1      -9.841   6.738  66.896  1.00  0.00    -0.175 C  
BRANCH   3   5
HETATM    5  C   UNL     1      -7.868   7.377  68.206  1.00  0.00    -0.122 C  
HETATM    6  C   UNL     1      -6.682   7.582  67.237  1.00  0.00    -0.067 C  
BRANCH   5   7
HETATM    7  C   UNL     1      -8.472   8.812  68.517  1.00  0.00    -0.130 C  
HETATM    8  H   UNL     1      -7.838  10.698  68.731  1.00  0.00     0.000 HD 
HETATM    9  O   UNL     1      -7.476   9.840  68.544  1.00  0.00    -0.077 OA 
BRANCH   7  10
HETATM   10  C   UNL     1      -9.437   8.997  69.677  1.00  0.00    -0.174 A  
HETATM   11  C   UNL     1      -9.089   8.475  70.940  1.00  0.00    -0.208 A  
HETATM   12  C   UNL     1      -9.948   8.604  72.036  1.00  0.00    -0.399 A  
HETATM   13  C   UNL     1     -11.171   9.246  71.886  1.00  0.00    -0.331 A  
HETATM   14  C   UNL     1     -11.537   9.754  70.639  1.00  0.00    -0.389 A  
HETATM   15  C   UNL     1     -10.679   9.624  69.540  1.00  0.00    -0.252 A  
ENDBRANCH   7  10
ENDBRANCH   5   7
ENDBRANCH   3   5
ENDBRANCH   2   3
TORSDOF 4
ENDMDL
MODEL      232
REMARK 921   NORMALIZED FREE ENERGY PREDICTED BY IDOCK:   -2.48 KCAL/MOL
REMARK 922        TOTAL FREE ENERGY PREDICTED BY IDOCK:   -3.45 KCAL/MOL
REMARK 923 INTER-LIGAND FREE ENERGY PREDICTED BY IDOCK:   -3.61 KCAL/MOL
REMARK 924 INTRA-LIGAND FREE ENERGY PREDICTED BY IDOCK:    0.16 KCAL/MOL
REMARK 927      BINDING AFFINITY PREDICTED BY RF-SCORE:    0.00 PKD
ROOT
HETATM    1  C   UNL     1     -10.568  17.014  67.455  1.00  0.00    -0.310 C  
HETATM    2  C   UNL     1     -11.274  16.033  68.391  1.00  0.00    -0.364 C  
ENDROOT
BRANCH   2   3
HETATM    3  N   UNL     1     -11.173  14.596  68.026  1.00  0.00    -0.280 NA 
HETATM    4  C   UNL     1     -12.051  14.309  66.882  1.00  0.00    -0.409 C  
BRANCH   3   5
HETATM    5  C   UNL     1      -9.742  14.235  67.704  1.00  0.00    -0.220 C  
HETATM    6  C   UNL     1      -8.787  14.682  68.833  1.00  0.00    -0.136 C  
BRANCH   5   7
HETATM    7  C   UNL     1      -9.339  12.750  67.309  1.00  0.00    -0.200 C  
HETATM    8  H   UNL     1      -9.646  11.453  65.816  1.00  0.00     0.000 HD 
HETATM    9  O   UNL     1      -9.887  12.341  66.052  1.00  0.00    -0.241 OA 
BRANCH   7  10
HETATM   10  C   UNL     1      -9.480  11.628  68.324  1.00  0.00    -0.191 A  
HETATM   11  C   UNL     1     -10.766  11.302  68.802  1.00  0.00    -0.240 A  
HETATM   12  C   UNL     1     -10.948  10.288  69.748  1.00  0.00    -0.338 A  
HETATM   13  C   UNL     1      -9.850   9.592  70.239  1.00  0.00    -0.321 A  
HETATM   14  C   UNL     1      -8.570   9.914  69.789  1.00  0.00    -0.219 A  
HETATM   15  C   UNL     1      -8.385  10.930  68.843  1.00  0.00    -0.139 A  
ENDBRANCH   7  10
ENDBRANCH   5   7
ENDBRANCH   3   5
ENDBRANCH   2   3
TORSDOF 4
ENDMDL
MODEL      233
REMARK 921   NORMALIZED FREE ENERGY PREDICTED BY IDOCK:   -2.47 KCAL/MOL
REMARK 922        TOTAL FREE ENERGY PREDICTED BY IDOCK:   -3.44 KCAL/MOL
REMARK 923 INTER-LIGAND FREE ENERGY PREDICTED BY IDOCK:   -4.29 KCAL/MOL
REMARK 924 INTRA-LIGAND FREE ENERGY PREDICTED BY IDOCK:    0.85 KCAL/MOL
REMARK 927      BINDING AFFINITY PREDICTED BY RF-SCORE:    0.00 PKD
ROOT
HETATM    1  C   UNL     1      -7.534   8.784  67.981  1.00  0.00    -0.093 C  
HETATM    2  C   UNL     1      -8.956   9.320  67.809  1.00  0.00    -0.126 C  
ENDROOT
BRANCH   2   3
HETATM    3  N   UNL     1      -9.364  10.398  68.746  1.00  0.00    -0.167 NA 
HETATM    4  C   UNL     1      -9.160  11.711  68.115  1.00  0.00    -0.183 C  
BRANCH   3   5
HETATM    5  C   UNL     1     -10.808  10.221  69.154  1.00  0.00    -0.233 C  
HETATM    6  C   UNL     1     -10.927   9.922  70.665  1.00  0.00    -0.405 C  
BRANCH   5   7
HETATM    7  C   UNL     1     -11.900  11.320  68.805  1.00  0.00    -0.329 C  
HETATM    8  H   UNL     1     -12.528  12.369  67.221  1.00  0.00     0.000 HD 
HETATM    9  O   UNL     1     -11.875  11.711  67.428  1.00  0.00    -0.603 OA 
BRANCH   7  10
HETATM   10  C   UNL     1     -12.053  12.548  69.689  1.00  0.00    -0.272 A  
HETATM   11  C   UNL     1     -12.653  12.402  70.956  1.00  0.00    -0.349 A  
HETATM   12  C   UNL     1     -12.831  13.502  71.800  1.00  0.00    -0.399 A  
HETATM   13  C   UNL     1     -12.425  14.765  71.388  1.00  0.00    -0.401 A  
HETATM   14  C   UNL     1     -11.845  14.929  70.131  1.00  0.00    -0.357 A  
HETATM   15  C   UNL     1     -11.666  13.829  69.283  1.00  0.00    -0.376 A  
ENDBRANCH   7  10
ENDBRANCH   5   7
ENDBRANCH   3   5
ENDBRANCH   2   3
TORSDOF 4
ENDMDL
MODEL      234
REMARK 921   NORMALIZED FREE ENERGY PREDICTED BY IDOCK:   -2.46 KCAL/MOL
REMARK 922        TOTAL FREE ENERGY PREDICTED BY IDOCK:   -3.43 KCAL/MOL
REMARK 923 INTER-LIGAND FREE ENERGY PREDICTED BY IDOCK:   -3.82 KCAL/MOL
REMARK 924 INTRA-LIGAND FREE ENERGY PREDICTED BY IDOCK:    0.40 KCAL/MOL
REMARK 927      BINDING AFFINITY PREDICTED BY RF-SCORE:    0.00 PKD
ROOT
HETATM    1  C   UNL     1     -10.842  16.161  64.950  1.00  0.00    -0.353 C  
HETATM    2  C   UNL     1     -10.941  14.640  64.833  1.00  0.00    -0.407 C  
ENDROOT
BRANCH   2   3
HETATM    3  N   UNL     1     -11.600  13.941  65.967  1.00  0.00    -0.338 NA 
HETATM    4  C   UNL     1     -12.283  12.733  65.480  1.00  0.00    -0.463 C  
BRANCH   3   5
HETATM    5  C   UNL     1     -10.585  13.588  67.028  1.00  0.00    -0.269 C  
HETATM    6  C   UNL     1     -11.264  13.364  68.398  1.00  0.00    -0.311 C  
BRANCH   5   7
HETATM    7  C   UNL     1      -9.556  12.396  66.815  1.00  0.00    -0.224 C  
HETATM    8  H   UNL     1      -8.882  11.237  65.329  1.00  0.00     0.000 HD 
HETATM    9  O   UNL     1      -9.497  11.950  65.456  1.00  0.00    -0.220 OA 
BRANCH   7  10
HETATM   10  C   UNL     1      -9.573  11.199  67.752  1.00  0.00    -0.180 A  
HETATM   11  C   UNL     1      -8.526  11.052  68.684  1.00  0.00    -0.157 A  
HETATM   12  C   UNL     1      -8.486   9.960  69.558  1.00  0.00    -0.184 A  
HETATM   13  C   UNL     1      -9.483   8.995  69.506  1.00  0.00    -0.164 A  
HETATM   14  C   UNL     1     -10.517   9.117  68.579  1.00  0.00    -0.238 A  
HETATM   15  C   UNL     1     -10.558  10.209  67.702  1.00  0.00    -0.316 A  
ENDBRANCH   7  10
ENDBRANCH   5   7
ENDBRANCH   3   5
ENDBRANCH   2   3
TORSDOF 4
ENDMDL
MODEL      235
REMARK 921   NORMALIZED FREE ENERGY PREDICTED BY IDOCK:   -2.45 KCAL/MOL
REMARK 922        TOTAL FREE ENERGY PREDICTED BY IDOCK:   -3.42 KCAL/MOL
REMARK 923 INTER-LIGAND FREE ENERGY PREDICTED BY IDOCK:   -3.59 KCAL/MOL
REMARK 924 INTRA-LIGAND FREE ENERGY PREDICTED BY IDOCK:    0.17 KCAL/MOL
REMARK 927      BINDING AFFINITY PREDICTED BY RF-SCORE:    0.00 PKD
ROOT
HETATM    1  C   UNL     1     -11.543  12.260  65.531  1.00  0.00    -0.422 C  
HETATM    2  C   UNL     1     -12.067  12.798  66.862  1.00  0.00    -0.197 C  
ENDROOT
BRANCH   2   3
HETATM    3  N   UNL     1     -11.686  12.025  68.073  1.00  0.00    -0.432 NA 
HETATM    4  C   UNL     1     -11.036  10.767  67.678  1.00  0.00    -0.319 C  
BRANCH   3   5
HETATM    5  C   UNL     1     -10.772  12.845  68.953  1.00  0.00    -0.160 C  
HETATM    6  C   UNL     1      -9.385  13.028  68.298  1.00  0.00    -0.199 C  
BRANCH   5   7
HETATM    7  C   UNL     1     -11.221  14.265  69.505  1.00  0.00    -0.243 C  
HETATM    8  H   UNL     1     -12.858  15.141  70.251  1.00  0.00     0.000 HD 
HETATM    9  O   UNL     1     -12.590  14.292  69.922  1.00  0.00    -0.312 OA 
BRANCH   7  10
HETATM   10  C   UNL     1     -10.895  15.525  68.720  1.00  0.00    -0.256 A  
HETATM   11  C   UNL     1     -10.267  16.597  69.386  1.00  0.00    -0.251 A  
HETATM   12  C   UNL     1      -9.960  17.784  68.712  1.00  0.00    -0.367 A  
HETATM   13  C   UNL     1     -10.285  17.922  67.369  1.00  0.00    -0.363 A  
HETATM   14  C   UNL     1     -10.920  16.877  66.699  1.00  0.00     0.151 A  
HETATM   15  C   UNL     1     -11.230  15.688  67.372  1.00  0.00    -0.219 A  
ENDBRANCH   7  10
ENDBRANCH   5   7
ENDBRANCH   3   5
ENDBRANCH   2   3
TORSDOF 4
ENDMDL
MODEL      236
REMARK 921   NORMALIZED FREE ENERGY PREDICTED BY IDOCK:   -2.45 KCAL/MOL
REMARK 922        TOTAL FREE ENERGY PREDICTED BY IDOCK:   -3.41 KCAL/MOL
REMARK 923 INTER-LIGAND FREE ENERGY PREDICTED BY IDOCK:   -3.27 KCAL/MOL
REMARK 924 INTRA-LIGAND FREE ENERGY PREDICTED BY IDOCK:   -0.14 KCAL/MOL
REMARK 927      BINDING AFFINITY PREDICTED BY RF-SCORE:    0.00 PKD
ROOT
HETATM    1  C   UNL     1      -8.707   6.491  73.942  1.00  0.00    -0.144 C  
HETATM    2  C   UNL     1      -9.054   5.676  72.696  1.00  0.00    -0.131 C  
ENDROOT
BRANCH   2   3
HETATM    3  N   UNL     1      -8.196   5.910  71.504  1.00  0.00    -0.118 NA 
HETATM    4  C   UNL     1      -6.945   5.149  71.634  1.00  0.00    -0.057 C  
BRANCH   3   5
HETATM    5  C   UNL     1      -8.931   5.519  70.244  1.00  0.00    -0.137 C  
HETATM    6  C   UNL     1      -9.799   4.262  70.472  1.00  0.00    -0.269 C  
BRANCH   5   7
HETATM    7  C   UNL     1      -9.825   6.569  69.456  1.00  0.00    -0.151 C  
HETATM    8  H   UNL     1      -9.592   8.044  68.123  1.00  0.00     0.000 HD 
HETATM    9  O   UNL     1      -9.057   7.417  68.594  1.00  0.00    -0.135 OA 
BRANCH   7  10
HETATM   10  C   UNL     1     -10.864   7.393  70.198  1.00  0.00    -0.270 A  
HETATM   11  C   UNL     1     -11.916   6.725  70.857  1.00  0.00    -0.437 A  
HETATM   12  C   UNL     1     -12.907   7.437  71.542  1.00  0.00    -0.416 A  
HETATM   13  C   UNL     1     -12.868   8.826  71.569  1.00  0.00    -0.366 A  
HETATM   14  C   UNL     1     -11.843   9.502  70.908  1.00  0.00    -0.385 A  
HETATM   15  C   UNL     1     -10.851   8.791  70.221  1.00  0.00    -0.252 A  
ENDBRANCH   7  10
ENDBRANCH   5   7
ENDBRANCH   3   5
ENDBRANCH   2   3
TORSDOF 4
ENDMDL
MODEL      237
REMARK 921   NORMALIZED FREE ENERGY PREDICTED BY IDOCK:   -2.44 KCAL/MOL
REMARK 922        TOTAL FREE ENERGY PREDICTED BY IDOCK:   -3.41 KCAL/MOL
REMARK 923 INTER-LIGAND FREE ENERGY PREDICTED BY IDOCK:   -3.31 KCAL/MOL
REMARK 924 INTRA-LIGAND FREE ENERGY PREDICTED BY IDOCK:   -0.09 KCAL/MOL
REMARK 927      BINDING AFFINITY PREDICTED BY RF-SCORE:    0.00 PKD
ROOT
HETATM    1  C   UNL     1      -6.921  13.053  68.598  1.00  0.00    -0.102 C  
HETATM    2  C   UNL     1      -6.994  14.009  67.407  1.00  0.00    -0.044 C  
ENDROOT
BRANCH   2   3
HETATM    3  N   UNL     1      -7.100  15.454  67.736  1.00  0.00    -0.148 NA 
HETATM    4  C   UNL     1      -5.803  16.112  67.516  1.00  0.00    -0.153 C  
BRANCH   3   5
HETATM    5  C   UNL     1      -8.177  16.106  66.901  1.00  0.00    -0.238 C  
HETATM    6  C   UNL     1      -9.442  15.222  66.835  1.00  0.00    -0.249 C  
BRANCH   5   7
HETATM    7  C   UNL     1      -8.658  17.590  67.195  1.00  0.00    -0.225 C  
HETATM    8  H   UNL     1     -10.278  18.732  66.913  1.00  0.00     0.000 HD 
HETATM    9  O   UNL     1      -9.990  17.844  66.737  1.00  0.00    -0.306 OA 
BRANCH   7  10
HETATM   10  C   UNL     1      -7.759  18.765  66.846  1.00  0.00    -0.246 A  
HETATM   11  C   UNL     1      -7.697  19.860  67.732  1.00  0.00    -0.327 A  
HETATM   12  C   UNL     1      -6.898  20.972  67.449  1.00  0.00    -0.434 A  
HETATM   13  C   UNL     1      -6.158  21.014  66.274  1.00  0.00    -0.316 A  
HETATM   14  C   UNL     1      -6.221  19.946  65.379  1.00  0.00    -0.265 A  
HETATM   15  C   UNL     1      -7.022  18.832  65.660  1.00  0.00    -0.260 A  
ENDBRANCH   7  10
ENDBRANCH   5   7
ENDBRANCH   3   5
ENDBRANCH   2   3
TORSDOF 4
ENDMDL
MODEL      238
REMARK 921   NORMALIZED FREE ENERGY PREDICTED BY IDOCK:   -2.44 KCAL/MOL
REMARK 922        TOTAL FREE ENERGY PREDICTED BY IDOCK:   -3.40 KCAL/MOL
REMARK 923 INTER-LIGAND FREE ENERGY PREDICTED BY IDOCK:   -3.02 KCAL/MOL
REMARK 924 INTRA-LIGAND FREE ENERGY PREDICTED BY IDOCK:   -0.38 KCAL/MOL
REMARK 927      BINDING AFFINITY PREDICTED BY RF-SCORE:    0.00 PKD
ROOT
HETATM    1  C   UNL     1      -8.312   7.247  73.132  1.00  0.00    -0.140 C  
HETATM    2  C   UNL     1      -9.737   7.114  72.594  1.00  0.00    -0.157 C  
ENDROOT
BRANCH   2   3
HETATM    3  N   UNL     1      -9.861   6.695  71.173  1.00  0.00    -0.181 NA 
HETATM    4  C   UNL     1     -10.762   5.537  71.071  1.00  0.00    -0.205 C  
BRANCH   3   5
HETATM    5  C   UNL     1     -10.367   7.841  70.330  1.00  0.00    -0.215 C  
HETATM    6  C   UNL     1     -11.348   8.729  71.128  1.00  0.00    -0.345 C  
BRANCH   5   7
HETATM    7  C   UNL     1      -9.362   8.813  69.578  1.00  0.00    -0.157 C  
HETATM    8  H   UNL     1      -8.386  10.527  69.919  1.00  0.00     0.000 HD 
HETATM    9  O   UNL     1      -8.987   9.946  70.369  1.00  0.00    -0.160 OA 
BRANCH   7  10
HETATM   10  C   UNL     1      -9.650   9.252  68.151  1.00  0.00    -0.159 A  
HETATM   11  C   UNL     1     -10.469  10.379  67.939  1.00  0.00    -0.248 A  
HETATM   12  C   UNL     1     -10.777  10.815  66.647  1.00  0.00    -0.268 A  
HETATM   13  C   UNL     1     -10.282  10.125  65.547  1.00  0.00    -0.288 A  
HETATM   14  C   UNL     1      -9.484   8.998  65.739  1.00  0.00    -0.305 A  
HETATM   15  C   UNL     1      -9.175   8.560  67.033  1.00  0.00    -0.187 A  
ENDBRANCH   7  10
ENDBRANCH   5   7
ENDBRANCH   3   5
ENDBRANCH   2   3
TORSDOF 4
ENDMDL
MODEL      239
REMARK 921   NORMALIZED FREE ENERGY PREDICTED BY IDOCK:   -2.42 KCAL/MOL
REMARK 922        TOTAL FREE ENERGY PREDICTED BY IDOCK:   -3.38 KCAL/MOL
REMARK 923 INTER-LIGAND FREE ENERGY PREDICTED BY IDOCK:   -4.03 KCAL/MOL
REMARK 924 INTRA-LIGAND FREE ENERGY PREDICTED BY IDOCK:    0.66 KCAL/MOL
REMARK 927      BINDING AFFINITY PREDICTED BY RF-SCORE:    0.00 PKD
ROOT
HETATM    1  C   UNL     1      -6.291  20.364  65.599  1.00  0.00    -0.267 C  
HETATM    2  C   UNL     1      -6.871  19.109  66.252  1.00  0.00    -0.217 C  
ENDROOT
BRANCH   2   3
HETATM    3  N   UNL     1      -8.205  18.675  65.761  1.00  0.00    -0.424 NA 
HETATM    4  C   UNL     1      -8.313  17.211  65.838  1.00  0.00     0.018 C  
BRANCH   3   5
HETATM    5  C   UNL     1      -9.300  19.335  66.564  1.00  0.00    -0.353 C  
HETATM    6  C   UNL     1     -10.633  19.351  65.782  1.00  0.00    -0.490 C  
BRANCH   5   7
HETATM    7  C   UNL     1      -9.632  18.861  68.043  1.00  0.00    -0.322 C  
HETATM    8  H   UNL     1      -8.960  19.157  69.905  1.00  0.00     0.000 HD 
HETATM    9  O   UNL     1      -8.761  19.440  69.021  1.00  0.00    -0.347 OA 
BRANCH   7  10
HETATM   10  C   UNL     1      -9.835  17.384  68.342  1.00  0.00    -0.316 A  
HETATM   11  C   UNL     1     -11.109  16.818  68.136  1.00  0.00    -0.254 A  
HETATM   12  C   UNL     1     -11.352  15.469  68.411  1.00  0.00    -0.357 A  
HETATM   13  C   UNL     1     -10.331  14.667  68.906  1.00  0.00    -0.245 A  
HETATM   14  C   UNL     1      -9.068  15.216  69.130  1.00  0.00    -0.215 A  
HETATM   15  C   UNL     1      -8.824  16.567  68.857  1.00  0.00    -0.244 A  
ENDBRANCH   7  10
ENDBRANCH   5   7
ENDBRANCH   3   5
ENDBRANCH   2   3
TORSDOF 4
ENDMDL
MODEL      240
REMARK 921   NORMALIZED FREE ENERGY PREDICTED BY IDOCK:   -2.42 KCAL/MOL
REMARK 922        TOTAL FREE ENERGY PREDICTED BY IDOCK:   -3.38 KCAL/MOL
REMARK 923 INTER-LIGAND FREE ENERGY PREDICTED BY IDOCK:   -3.07 KCAL/MOL
REMARK 924 INTRA-LIGAND FREE ENERGY PREDICTED BY IDOCK:   -0.31 KCAL/MOL
REMARK 927      BINDING AFFINITY PREDICTED BY RF-SCORE:    0.00 PKD
ROOT
HETATM    1  C   UNL     1      -8.499   8.210  73.424  1.00  0.00    -0.303 C  
HETATM    2  C   UNL     1      -9.140   8.711  72.129  1.00  0.00    -0.231 C  
ENDROOT
BRANCH   2   3
HETATM    3  N   UNL     1     -10.552   8.305  71.901  1.00  0.00    -0.259 NA 
HETATM    4  C   UNL     1     -11.327   9.452  71.405  1.00  0.00    -0.381 C  
BRANCH   3   5
HETATM    5  C   UNL     1     -10.616   7.155  70.924  1.00  0.00    -0.220 C  
HETATM    6  C   UNL     1     -11.620   6.079  71.394  1.00  0.00    -0.211 C  
BRANCH   5   7
HETATM    7  C   UNL     1     -10.887   7.405  69.379  1.00  0.00    -0.171 C  
HETATM    8  H   UNL     1     -11.477   6.375  67.768  1.00  0.00     0.000 HD 
HETATM    9  O   UNL     1     -11.315   6.225  68.692  1.00  0.00    -0.337 OA 
BRANCH   7  10
HETATM   10  C   UNL     1      -9.864   8.150  68.537  1.00  0.00    -0.190 A  
HETATM   11  C   UNL     1      -8.532   7.687  68.519  1.00  0.00    -0.129 A  
HETATM   12  C   UNL     1      -7.549   8.346  67.773  1.00  0.00    -0.102 A  
HETATM   13  C   UNL     1      -7.878   9.483  67.045  1.00  0.00    -0.098 A  
HETATM   14  C   UNL     1      -9.187   9.963  67.065  1.00  0.00    -0.164 A  
HETATM   15  C   UNL     1     -10.172   9.305  67.813  1.00  0.00    -0.271 A  
ENDBRANCH   7  10
ENDBRANCH   5   7
ENDBRANCH   3   5
ENDBRANCH   2   3
TORSDOF 4
ENDMDL
MODEL      241
REMARK 921   NORMALIZED FREE ENERGY PREDICTED BY IDOCK:   -2.39 KCAL/MOL
REMARK 922        TOTAL FREE ENERGY PREDICTED BY IDOCK:   -3.34 KCAL/MOL
REMARK 923 INTER-LIGAND FREE ENERGY PREDICTED BY IDOCK:   -3.03 KCAL/MOL
REMARK 924 INTRA-LIGAND FREE ENERGY PREDICTED BY IDOCK:   -0.30 KCAL/MOL
REMARK 927      BINDING AFFINITY PREDICTED BY RF-SCORE:    0.00 PKD
ROOT
HETATM    1  C   UNL     1      -8.065  15.874  68.372  1.00  0.00    -0.149 C  
HETATM    2  C   UNL     1      -9.034  14.755  67.989  1.00  0.00    -0.174 C  
ENDROOT
BRANCH   2   3
HETATM    3  N   UNL     1      -8.423  13.544  67.380  1.00  0.00    -0.190 NA 
HETATM    4  C   UNL     1      -7.099  13.301  67.972  1.00  0.00    -0.122 C  
BRANCH   3   5
HETATM    5  C   UNL     1      -9.323  12.347  67.577  1.00  0.00    -0.181 C  
HETATM    6  C   UNL     1     -10.554  12.710  68.437  1.00  0.00    -0.258 C  
BRANCH   5   7
HETATM    7  C   UNL     1      -9.850  11.504  66.338  1.00  0.00    -0.205 C  
HETATM    8  H   UNL     1     -11.525  11.296  65.262  1.00  0.00     0.000 HD 
HETATM    9  O   UNL     1     -11.211  11.800  66.003  1.00  0.00    -0.322 OA 
BRANCH   7  10
HETATM   10  C   UNL     1      -9.620  10.003  66.285  1.00  0.00    -0.256 A  
HETATM   11  C   UNL     1     -10.517   9.154  66.964  1.00  0.00    -0.311 A  
HETATM   12  C   UNL     1     -10.340   7.766  66.959  1.00  0.00    -0.405 A  
HETATM   13  C   UNL     1      -9.261   7.207  66.286  1.00  0.00    -0.169 A  
HETATM   14  C   UNL     1      -8.356   8.034  65.622  1.00  0.00    -0.146 A  
HETATM   15  C   UNL     1      -8.530   9.424  65.627  1.00  0.00    -0.145 A  
ENDBRANCH   7  10
ENDBRANCH   5   7
ENDBRANCH   3   5
ENDBRANCH   2   3
TORSDOF 4
ENDMDL
MODEL      242
REMARK 921   NORMALIZED FREE ENERGY PREDICTED BY IDOCK:   -2.37 KCAL/MOL
REMARK 922        TOTAL FREE ENERGY PREDICTED BY IDOCK:   -3.32 KCAL/MOL
REMARK 923 INTER-LIGAND FREE ENERGY PREDICTED BY IDOCK:   -2.83 KCAL/MOL
REMARK 924 INTRA-LIGAND FREE ENERGY PREDICTED BY IDOCK:   -0.49 KCAL/MOL
REMARK 927      BINDING AFFINITY PREDICTED BY RF-SCORE:    0.00 PKD
ROOT
HETATM    1  C   UNL     1      -9.792   9.731  66.643  1.00  0.00    -0.275 C  
HETATM    2  C   UNL     1      -8.714   9.978  67.699  1.00  0.00    -0.121 C  
ENDROOT
BRANCH   2   3
HETATM    3  N   UNL     1      -9.199  10.193  69.087  1.00  0.00    -0.186 NA 
HETATM    4  C   UNL     1     -10.569  10.727  69.060  1.00  0.00    -0.219 C  
BRANCH   3   5
HETATM    5  C   UNL     1      -9.145   8.901  69.868  1.00  0.00    -0.161 C  
HETATM    6  C   UNL     1      -8.956   9.170  71.378  1.00  0.00    -0.144 C  
BRANCH   5   7
HETATM    7  C   UNL     1     -10.289   7.809  69.727  1.00  0.00    -0.221 C  
HETATM    8  H   UNL     1     -11.783   7.044  70.817  1.00  0.00     0.000 HD 
HETATM    9  O   UNL     1     -11.099   7.697  70.902  1.00  0.00    -0.253 OA 
BRANCH   7  10
HETATM   10  C   UNL     1      -9.958   6.424  69.194  1.00  0.00    -0.173 A  
HETATM   11  C   UNL     1      -9.968   5.333  70.086  1.00  0.00    -0.313 A  
HETATM   12  C   UNL     1      -9.656   4.041  69.650  1.00  0.00    -0.270 A  
HETATM   13  C   UNL     1      -9.318   3.822  68.321  1.00  0.00    -0.225 A  
HETATM   14  C   UNL     1      -9.287   4.893  67.429  1.00  0.00    -0.145 A  
HETATM   15  C   UNL     1      -9.598   6.188  67.864  1.00  0.00    -0.118 A  
ENDBRANCH   7  10
ENDBRANCH   5   7
ENDBRANCH   3   5
ENDBRANCH   2   3
TORSDOF 4
ENDMDL
MODEL      243
REMARK 921   NORMALIZED FREE ENERGY PREDICTED BY IDOCK:   -2.36 KCAL/MOL
REMARK 922        TOTAL FREE ENERGY PREDICTED BY IDOCK:   -3.31 KCAL/MOL
REMARK 923 INTER-LIGAND FREE ENERGY PREDICTED BY IDOCK:   -2.81 KCAL/MOL
REMARK 924 INTRA-LIGAND FREE ENERGY PREDICTED BY IDOCK:   -0.50 KCAL/MOL
REMARK 927      BINDING AFFINITY PREDICTED BY RF-SCORE:    0.00 PKD
ROOT
HETATM    1  C   UNL     1      -8.305   7.097  73.681  1.00  0.00    -0.161 C  
HETATM    2  C   UNL     1      -9.012   8.285  73.028  1.00  0.00    -0.241 C  
ENDROOT
BRANCH   2   3
HETATM    3  N   UNL     1     -10.421   8.059  72.614  1.00  0.00    -0.314 NA 
HETATM    4  C   UNL     1     -10.860   9.146  71.726  1.00  0.00    -0.345 C  
BRANCH   3   5
HETATM    5  C   UNL     1     -10.559   6.721  71.929  1.00  0.00    -0.209 C  
HETATM    6  C   UNL     1     -11.874   6.019  72.335  1.00  0.00    -0.283 C  
BRANCH   5   7
HETATM    7  C   UNL     1     -10.426   6.589  70.351  1.00  0.00    -0.212 C  
HETATM    8  H   UNL     1     -11.603   6.278  68.763  1.00  0.00     0.000 HD 
HETATM    9  O   UNL     1     -11.683   6.357  69.705  1.00  0.00    -0.414 OA 
BRANCH   7  10
HETATM   10  C   UNL     1      -9.361   5.687  69.749  1.00  0.00    -0.176 A  
HETATM   11  C   UNL     1      -9.005   5.867  68.397  1.00  0.00    -0.112 A  
HETATM   12  C   UNL     1      -8.042   5.053  67.791  1.00  0.00    -0.098 A  
HETATM   13  C   UNL     1      -7.429   4.042  68.521  1.00  0.00    -0.059 A  
HETATM   14  C   UNL     1      -7.783   3.842  69.855  1.00  0.00    -0.051 A  
HETATM   15  C   UNL     1      -8.748   4.654  70.464  1.00  0.00    -0.132 A  
ENDBRANCH   7  10
ENDBRANCH   5   7
ENDBRANCH   3   5
ENDBRANCH   2   3
TORSDOF 4
ENDMDL
MODEL      244
REMARK 921   NORMALIZED FREE ENERGY PREDICTED BY IDOCK:   -2.33 KCAL/MOL
REMARK 922        TOTAL FREE ENERGY PREDICTED BY IDOCK:   -3.27 KCAL/MOL
REMARK 923 INTER-LIGAND FREE ENERGY PREDICTED BY IDOCK:   -4.46 KCAL/MOL
REMARK 924 INTRA-LIGAND FREE ENERGY PREDICTED BY IDOCK:    1.19 KCAL/MOL
REMARK 927      BINDING AFFINITY PREDICTED BY RF-SCORE:    0.00 PKD
ROOT
HETATM    1  C   UNL     1      -7.121  14.929  67.470  1.00  0.00    -0.215 C  
HETATM    2  C   UNL     1      -8.151  15.902  66.894  1.00  0.00    -0.250 C  
ENDROOT
BRANCH   2   3
HETATM    3  N   UNL     1      -8.350  17.165  67.653  1.00  0.00    -0.190 NA 
HETATM    4  C   UNL     1      -8.055  18.318  66.790  1.00  0.00    -0.250 C  
BRANCH   3   5
HETATM    5  C   UNL     1      -9.763  17.242  68.182  1.00  0.00    -0.284 C  
HETATM    6  C   UNL     1     -10.556  18.373  67.489  1.00  0.00    -0.447 C  
BRANCH   5   7
HETATM    7  C   UNL     1     -10.700  15.960  68.208  1.00  0.00    -0.291 C  
HETATM    8  H   UNL     1     -10.771  14.165  69.089  1.00  0.00     0.000 HD 
HETATM    9  O   UNL     1     -10.210  14.931  69.074  1.00  0.00    -0.232 OA 
BRANCH   7  10
HETATM   10  C   UNL     1     -11.191  15.349  66.906  1.00  0.00    -0.214 A  
HETATM   11  C   UNL     1     -10.898  16.007  65.694  1.00  0.00    -0.273 A  
HETATM   12  C   UNL     1     -11.340  15.495  64.470  1.00  0.00    -0.322 A  
HETATM   13  C   UNL     1     -12.091  14.326  64.438  1.00  0.00    -0.490 A  
HETATM   14  C   UNL     1     -12.403  13.672  65.629  1.00  0.00    -0.518 A  
HETATM   15  C   UNL     1     -11.962  14.184  66.856  1.00  0.00    -0.479 A  
ENDBRANCH   7  10
ENDBRANCH   5   7
ENDBRANCH   3   5
ENDBRANCH   2   3
TORSDOF 4
ENDMDL
MODEL      245
REMARK 921   NORMALIZED FREE ENERGY PREDICTED BY IDOCK:   -2.32 KCAL/MOL
REMARK 922        TOTAL FREE ENERGY PREDICTED BY IDOCK:   -3.25 KCAL/MOL
REMARK 923 INTER-LIGAND FREE ENERGY PREDICTED BY IDOCK:   -2.89 KCAL/MOL
REMARK 924 INTRA-LIGAND FREE ENERGY PREDICTED BY IDOCK:   -0.36 KCAL/MOL
REMARK 927      BINDING AFFINITY PREDICTED BY RF-SCORE:    0.00 PKD
ROOT
HETATM    1  C   UNL     1      -8.028   7.375  73.164  1.00  0.00    -0.127 C  
HETATM    2  C   UNL     1      -9.272   7.267  72.282  1.00  0.00    -0.131 C  
ENDROOT
BRANCH   2   3
HETATM    3  N   UNL     1      -9.036   6.885  70.865  1.00  0.00    -0.149 NA 
HETATM    4  C   UNL     1     -10.129   6.023  70.392  1.00  0.00    -0.194 C  
BRANCH   3   5
HETATM    5  C   UNL     1      -8.917   8.118  70.001  1.00  0.00    -0.143 C  
HETATM    6  C   UNL     1      -7.705   8.017  69.048  1.00  0.00    -0.100 C  
BRANCH   5   7
HETATM    7  C   UNL     1     -10.146   8.639  69.141  1.00  0.00    -0.199 C  
HETATM    8  H   UNL     1     -10.696   8.759  67.220  1.00  0.00     0.000 HD 
HETATM    9  O   UNL     1      -9.961   8.448  67.734  1.00  0.00    -0.166 OA 
BRANCH   7  10
HETATM   10  C   UNL     1     -10.730  10.018  69.402  1.00  0.00    -0.258 A  
HETATM   11  C   UNL     1     -10.116  11.139  68.808  1.00  0.00    -0.211 A  
HETATM   12  C   UNL     1     -10.604  12.431  69.029  1.00  0.00    -0.087 A  
HETATM   13  C   UNL     1     -11.704  12.624  69.856  1.00  0.00    -0.320 A  
HETATM   14  C   UNL     1     -12.312  11.527  70.465  1.00  0.00    -0.432 A  
HETATM   15  C   UNL     1     -11.824  10.232  70.245  1.00  0.00    -0.372 A  
ENDBRANCH   7  10
ENDBRANCH   5   7
ENDBRANCH   3   5
ENDBRANCH   2   3
TORSDOF 4
ENDMDL
MODEL      246
REMARK 921   NORMALIZED FREE ENERGY PREDICTED BY IDOCK:   -2.31 KCAL/MOL
REMARK 922        TOTAL FREE ENERGY PREDICTED BY IDOCK:   -3.25 KCAL/MOL
REMARK 923 INTER-LIGAND FREE ENERGY PREDICTED BY IDOCK:   -2.78 KCAL/MOL
REMARK 924 INTRA-LIGAND FREE ENERGY PREDICTED BY IDOCK:   -0.47 KCAL/MOL
REMARK 927      BINDING AFFINITY PREDICTED BY RF-SCORE:    0.00 PKD
ROOT
HETATM    1  C   UNL     1      -6.481  10.664  66.250  1.00  0.00    -0.126 C  
HETATM    2  C   UNL     1      -7.534   9.794  66.936  1.00  0.00    -0.091 C  
ENDROOT
BRANCH   2   3
HETATM    3  N   UNL     1      -8.753  10.499  67.411  1.00  0.00    -0.126 NA 
HETATM    4  C   UNL     1      -8.930  11.751  66.660  1.00  0.00    -0.195 C  
BRANCH   3   5
HETATM    5  C   UNL     1      -9.965   9.611  67.261  1.00  0.00    -0.197 C  
HETATM    6  C   UNL     1      -9.640   8.363  66.410  1.00  0.00    -0.307 C  
BRANCH   5   7
HETATM    7  C   UNL     1     -10.780   9.113  68.530  1.00  0.00    -0.116 C  
HETATM    8  H   UNL     1     -11.635   9.883  70.168  1.00  0.00     0.000 HD 
HETATM    9  O   UNL     1     -11.148  10.181  69.409  1.00  0.00    -0.232 OA 
BRANCH   7  10
HETATM   10  C   UNL     1     -10.278   7.928  69.340  1.00  0.00    -0.206 A  
HETATM   11  C   UNL     1     -11.040   6.742  69.352  1.00  0.00    -0.310 A  
HETATM   12  C   UNL     1     -10.631   5.629  70.093  1.00  0.00    -0.380 A  
HETATM   13  C   UNL     1      -9.462   5.686  70.842  1.00  0.00    -0.202 A  
HETATM   14  C   UNL     1      -8.704   6.857  70.852  1.00  0.00    -0.141 A  
HETATM   15  C   UNL     1      -9.113   7.974  70.112  1.00  0.00    -0.151 A  
ENDBRANCH   7  10
ENDBRANCH   5   7
ENDBRANCH   3   5
ENDBRANCH   2   3
TORSDOF 4
ENDMDL
MODEL      247
REMARK 921   NORMALIZED FREE ENERGY PREDICTED BY IDOCK:   -2.30 KCAL/MOL
REMARK 922        TOTAL FREE ENERGY PREDICTED BY IDOCK:   -3.23 KCAL/MOL
REMARK 923 INTER-LIGAND FREE ENERGY PREDICTED BY IDOCK:   -3.05 KCAL/MOL
REMARK 924 INTRA-LIGAND FREE ENERGY PREDICTED BY IDOCK:   -0.18 KCAL/MOL
REMARK 927      BINDING AFFINITY PREDICTED BY RF-SCORE:    0.00 PKD
ROOT
HETATM    1  C   UNL     1      -7.484   8.322  71.634  1.00  0.00    -0.105 C  
HETATM    2  C   UNL     1      -8.206   8.341  70.287  1.00  0.00    -0.121 C  
ENDROOT
BRANCH   2   3
HETATM    3  N   UNL     1      -9.619   8.802  70.310  1.00  0.00    -0.170 NA 
HETATM    4  C   UNL     1      -9.700  10.186  69.821  1.00  0.00    -0.196 C  
BRANCH   3   5
HETATM    5  C   UNL     1     -10.483   7.889  69.473  1.00  0.00    -0.226 C  
HETATM    6  C   UNL     1      -9.649   7.175  68.385  1.00  0.00    -0.137 C  
BRANCH   5   7
HETATM    7  C   UNL     1     -11.410   6.790  70.148  1.00  0.00    -0.350 C  
HETATM    8  H   UNL     1     -13.139   6.689  71.151  1.00  0.00     0.000 HD 
HETATM    9  O   UNL     1     -12.585   7.346  70.747  1.00  0.00    -0.194 OA 
BRANCH   7  10
HETATM   10  C   UNL     1     -10.804   5.745  71.072  1.00  0.00    -0.316 A  
HETATM   11  C   UNL     1      -9.732   4.961  70.599  1.00  0.00    -0.271 A  
HETATM   12  C   UNL     1      -9.150   3.976  71.404  1.00  0.00    -0.174 A  
HETATM   13  C   UNL     1      -9.636   3.752  72.686  1.00  0.00    -0.187 A  
HETATM   14  C   UNL     1     -10.706   4.508  73.162  1.00  0.00    -0.308 A  
HETATM   15  C   UNL     1     -11.291   5.494  72.358  1.00  0.00    -0.294 A  
ENDBRANCH   7  10
ENDBRANCH   5   7
ENDBRANCH   3   5
ENDBRANCH   2   3
TORSDOF 4
ENDMDL
MODEL      248
REMARK 921   NORMALIZED FREE ENERGY PREDICTED BY IDOCK:   -2.30 KCAL/MOL
REMARK 922        TOTAL FREE ENERGY PREDICTED BY IDOCK:   -3.23 KCAL/MOL
REMARK 923 INTER-LIGAND FREE ENERGY PREDICTED BY IDOCK:   -2.93 KCAL/MOL
REMARK 924 INTRA-LIGAND FREE ENERGY PREDICTED BY IDOCK:   -0.30 KCAL/MOL
REMARK 927      BINDING AFFINITY PREDICTED BY RF-SCORE:    0.00 PKD
ROOT
HETATM    1  C   UNL     1      -6.801   5.050  66.216  1.00  0.00    -0.062 C  
HETATM    2  C   UNL     1      -7.446   5.462  67.540  1.00  0.00    -0.084 C  
ENDROOT
BRANCH   2   3
HETATM    3  N   UNL     1      -8.885   5.827  67.478  1.00  0.00    -0.107 NA 
HETATM    4  C   UNL     1      -9.405   5.578  66.125  1.00  0.00    -0.157 C  
BRANCH   3   5
HETATM    5  C   UNL     1      -9.670   5.043  68.504  1.00  0.00    -0.154 C  
HETATM    6  C   UNL     1      -9.441   3.524  68.339  1.00  0.00    -0.209 C  
BRANCH   5   7
HETATM    7  C   UNL     1      -9.550   5.370  70.053  1.00  0.00    -0.169 C  
HETATM    8  H   UNL     1      -9.788   4.442  71.810  1.00  0.00     0.000 HD 
HETATM    9  O   UNL     1      -9.859   4.246  70.884  1.00  0.00    -0.188 OA 
BRANCH   7  10
HETATM   10  C   UNL     1     -10.197   6.624  70.619  1.00  0.00    -0.215 A  
HETATM   11  C   UNL     1     -11.372   6.495  71.386  1.00  0.00    -0.344 A  
HETATM   12  C   UNL     1     -12.015   7.618  71.917  1.00  0.00    -0.331 A  
HETATM   13  C   UNL     1     -11.500   8.887  71.680  1.00  0.00    -0.409 A  
HETATM   14  C   UNL     1     -10.347   9.033  70.910  1.00  0.00    -0.323 A  
HETATM   15  C   UNL     1      -9.703   7.909  70.377  1.00  0.00    -0.179 A  
ENDBRANCH   7  10
ENDBRANCH   5   7
ENDBRANCH   3   5
ENDBRANCH   2   3
TORSDOF 4
ENDMDL
MODEL      249
REMARK 921   NORMALIZED FREE ENERGY PREDICTED BY IDOCK:   -2.28 KCAL/MOL
REMARK 922        TOTAL FREE ENERGY PREDICTED BY IDOCK:   -3.21 KCAL/MOL
REMARK 923 INTER-LIGAND FREE ENERGY PREDICTED BY IDOCK:   -3.41 KCAL/MOL
REMARK 924 INTRA-LIGAND FREE ENERGY PREDICTED BY IDOCK:    0.20 KCAL/MOL
REMARK 927      BINDING AFFINITY PREDICTED BY RF-SCORE:    0.00 PKD
ROOT
HETATM    1  C   UNL     1     -12.400  10.751  70.874  1.00  0.00    -0.497 C  
HETATM    2  C   UNL     1     -11.650  10.847  69.545  1.00  0.00    -0.313 C  
ENDROOT
BRANCH   2   3
HETATM    3  N   UNL     1     -12.030  11.981  68.662  1.00  0.00    -0.336 NA 
HETATM    4  C   UNL     1     -11.396  13.219  69.140  1.00  0.00    -0.282 C  
BRANCH   3   5
HETATM    5  C   UNL     1     -11.628  11.693  67.235  1.00  0.00    -0.238 C  
HETATM    6  C   UNL     1     -11.748  12.958  66.356  1.00  0.00    -0.454 C  
BRANCH   5   7
HETATM    7  C   UNL     1     -10.231  11.018  66.896  1.00  0.00    -0.222 C  
HETATM    8  H   UNL     1      -9.452   9.184  66.710  1.00  0.00     0.000 HD 
HETATM    9  O   UNL     1     -10.287   9.587  66.912  1.00  0.00    -0.240 OA 
BRANCH   7  10
HETATM   10  C   UNL     1      -8.967  11.494  67.592  1.00  0.00    -0.160 A  
HETATM   11  C   UNL     1      -8.392  10.678  68.588  1.00  0.00    -0.137 A  
HETATM   12  C   UNL     1      -7.238  11.077  69.270  1.00  0.00    -0.124 A  
HETATM   13  C   UNL     1      -6.646  12.300  68.975  1.00  0.00    -0.100 A  
HETATM   14  C   UNL     1      -7.212  13.125  68.004  1.00  0.00    -0.125 A  
HETATM   15  C   UNL     1      -8.369  12.728  67.321  1.00  0.00    -0.187 A  
ENDBRANCH   7  10
ENDBRANCH   5   7
ENDBRANCH   3   5
ENDBRANCH   2   3
TORSDOF 4
ENDMDL
MODEL      250
REMARK 921   NORMALIZED FREE ENERGY PREDICTED BY IDOCK:   -2.28 KCAL/MOL
REMARK 922        TOTAL FREE ENERGY PREDICTED BY IDOCK:   -3.21 KCAL/MOL
REMARK 923 INTER-LIGAND FREE ENERGY PREDICTED BY IDOCK:   -2.89 KCAL/MOL
REMARK 924 INTRA-LIGAND FREE ENERGY PREDICTED BY IDOCK:   -0.32 KCAL/MOL
REMARK 927      BINDING AFFINITY PREDICTED BY RF-SCORE:    0.00 PKD
ROOT
HETATM    1  C   UNL     1      -8.676   5.411  66.564  1.00  0.00    -0.117 C  
HETATM    2  C   UNL     1      -8.740   6.317  67.794  1.00  0.00    -0.113 C  
ENDROOT
BRANCH   2   3
HETATM    3  N   UNL     1      -9.949   7.173  67.911  1.00  0.00    -0.148 NA 
HETATM    4  C   UNL     1     -11.159   6.339  67.848  1.00  0.00    -0.258 C  
BRANCH   3   5
HETATM    5  C   UNL     1      -9.912   7.962  69.198  1.00  0.00    -0.184 C  
HETATM    6  C   UNL     1     -10.140   9.468  68.936  1.00  0.00    -0.199 C  
BRANCH   5   7
HETATM    7  C   UNL     1     -10.823   7.559  70.435  1.00  0.00    -0.244 C  
HETATM    8  H   UNL     1     -12.432   8.246  71.407  1.00  0.00     0.000 HD 
HETATM    9  O   UNL     1     -11.887   8.487  70.667  1.00  0.00    -0.227 OA 
BRANCH   7  10
HETATM   10  C   UNL     1     -10.182   7.166  71.756  1.00  0.00    -0.212 A  
HETATM   11  C   UNL     1     -10.053   5.797  72.068  1.00  0.00    -0.225 A  
HETATM   12  C   UNL     1      -9.485   5.383  73.277  1.00  0.00    -0.146 A  
HETATM   13  C   UNL     1      -9.049   6.327  74.198  1.00  0.00    -0.157 A  
HETATM   14  C   UNL     1      -9.185   7.686  73.912  1.00  0.00    -0.303 A  
HETATM   15  C   UNL     1      -9.755   8.102  72.702  1.00  0.00    -0.360 A  
ENDBRANCH   7  10
ENDBRANCH   5   7
ENDBRANCH   3   5
ENDBRANCH   2   3
TORSDOF 4
ENDMDL
MODEL      251
REMARK 921   NORMALIZED FREE ENERGY PREDICTED BY IDOCK:   -2.28 KCAL/MOL
REMARK 922        TOTAL FREE ENERGY PREDICTED BY IDOCK:   -3.20 KCAL/MOL
REMARK 923 INTER-LIGAND FREE ENERGY PREDICTED BY IDOCK:   -2.86 KCAL/MOL
REMARK 924 INTRA-LIGAND FREE ENERGY PREDICTED BY IDOCK:   -0.35 KCAL/MOL
REMARK 927      BINDING AFFINITY PREDICTED BY RF-SCORE:    0.00 PKD
ROOT
HETATM    1  C   UNL     1      -6.057   5.679  68.800  1.00  0.00    -0.025 C  
HETATM    2  C   UNL     1      -7.377   5.783  69.564  1.00  0.00    -0.071 C  
ENDROOT
BRANCH   2   3
HETATM    3  N   UNL     1      -8.586   5.301  68.846  1.00  0.00    -0.091 NA 
HETATM    4  C   UNL     1      -8.904   3.929  69.270  1.00  0.00    -0.093 C  
BRANCH   3   5
HETATM    5  C   UNL     1      -9.754   6.223  69.105  1.00  0.00    -0.135 C  
HETATM    6  C   UNL     1     -10.624   6.391  67.839  1.00  0.00    -0.321 C  
BRANCH   5   7
HETATM    7  C   UNL     1     -10.742   5.973  70.323  1.00  0.00    -0.300 C  
HETATM    8  H   UNL     1     -12.653   6.323  70.807  1.00  0.00     0.000 HD 
HETATM    9  O   UNL     1     -12.062   6.472  70.079  1.00  0.00    -0.282 OA 
BRANCH   7  10
HETATM   10  C   UNL     1     -10.311   6.322  71.738  1.00  0.00    -0.240 A  
HETATM   11  C   UNL     1      -9.707   7.574  71.974  1.00  0.00    -0.195 A  
HETATM   12  C   UNL     1      -9.278   7.937  73.255  1.00  0.00    -0.346 A  
HETATM   13  C   UNL     1      -9.435   7.054  74.315  1.00  0.00    -0.267 A  
HETATM   14  C   UNL     1     -10.017   5.805  74.095  1.00  0.00    -0.237 A  
HETATM   15  C   UNL     1     -10.445   5.439  72.813  1.00  0.00    -0.255 A  
ENDBRANCH   7  10
ENDBRANCH   5   7
ENDBRANCH   3   5
ENDBRANCH   2   3
TORSDOF 4
ENDMDL
MODEL      252
REMARK 921   NORMALIZED FREE ENERGY PREDICTED BY IDOCK:   -2.26 KCAL/MOL
REMARK 922        TOTAL FREE ENERGY PREDICTED BY IDOCK:   -3.18 KCAL/MOL
REMARK 923 INTER-LIGAND FREE ENERGY PREDICTED BY IDOCK:   -3.02 KCAL/MOL
REMARK 924 INTRA-LIGAND FREE ENERGY PREDICTED BY IDOCK:   -0.17 KCAL/MOL
REMARK 927      BINDING AFFINITY PREDICTED BY RF-SCORE:    0.00 PKD
ROOT
HETATM    1  C   UNL     1      -7.536   6.940  71.435  1.00  0.00    -0.082 C  
HETATM    2  C   UNL     1      -8.512   5.834  71.033  1.00  0.00    -0.123 C  
ENDROOT
BRANCH   2   3
HETATM    3  N   UNL     1      -9.472   6.173  69.950  1.00  0.00    -0.151 NA 
HETATM    4  C   UNL     1      -9.759   4.976  69.146  1.00  0.00    -0.173 C  
BRANCH   3   5
HETATM    5  C   UNL     1     -10.743   6.741  70.534  1.00  0.00    -0.238 C  
HETATM    6  C   UNL     1     -10.930   6.295  72.002  1.00  0.00    -0.299 C  
BRANCH   5   7
HETATM    7  C   UNL     1     -11.049   8.298  70.475  1.00  0.00    -0.249 C  
HETATM    8  H   UNL     1     -12.579   9.546  70.805  1.00  0.00     0.000 HD 
HETATM    9  O   UNL     1     -12.397   8.615  70.841  1.00  0.00    -0.202 OA 
BRANCH   7  10
HETATM   10  C   UNL     1     -10.641   9.109  69.256  1.00  0.00    -0.229 A  
HETATM   11  C   UNL     1     -10.431  10.495  69.401  1.00  0.00    -0.264 A  
HETATM   12  C   UNL     1     -10.069  11.289  68.307  1.00  0.00    -0.198 A  
HETATM   13  C   UNL     1      -9.924  10.713  67.051  1.00  0.00    -0.243 A  
HETATM   14  C   UNL     1     -10.143   9.345  66.888  1.00  0.00    -0.314 A  
HETATM   15  C   UNL     1     -10.507   8.549  67.981  1.00  0.00    -0.249 A  
ENDBRANCH   7  10
ENDBRANCH   5   7
ENDBRANCH   3   5
ENDBRANCH   2   3
TORSDOF 4
ENDMDL
MODEL      253
REMARK 921   NORMALIZED FREE ENERGY PREDICTED BY IDOCK:   -2.23 KCAL/MOL
REMARK 922        TOTAL FREE ENERGY PREDICTED BY IDOCK:   -3.14 KCAL/MOL
REMARK 923 INTER-LIGAND FREE ENERGY PREDICTED BY IDOCK:   -3.69 KCAL/MOL
REMARK 924 INTRA-LIGAND FREE ENERGY PREDICTED BY IDOCK:    0.55 KCAL/MOL
REMARK 927      BINDING AFFINITY PREDICTED BY RF-SCORE:    0.00 PKD
ROOT
HETATM    1  C   UNL     1      -6.776   5.354  70.494  1.00  0.00    -0.047 C  
HETATM    2  C   UNL     1      -7.363   6.506  69.678  1.00  0.00    -0.084 C  
ENDROOT
BRANCH   2   3
HETATM    3  N   UNL     1      -8.837   6.483  69.484  1.00  0.00    -0.137 NA 
HETATM    4  C   UNL     1      -9.434   5.436  70.326  1.00  0.00    -0.163 C  
BRANCH   3   5
HETATM    5  C   UNL     1      -9.430   7.833  69.809  1.00  0.00    -0.160 C  
HETATM    6  C   UNL     1     -10.489   8.244  68.761  1.00  0.00    -0.200 C  
BRANCH   5   7
HETATM    7  C   UNL     1     -10.048   8.134  71.241  1.00  0.00    -0.195 C  
HETATM    8  H   UNL     1      -9.894   7.459  73.119  1.00  0.00     0.000 HD 
HETATM    9  O   UNL     1      -9.525   7.279  72.263  1.00  0.00    -0.141 OA 
BRANCH   7  10
HETATM   10  C   UNL     1     -11.552   8.278  71.407  1.00  0.00    -0.322 A  
HETATM   11  C   UNL     1     -12.358   7.126  71.313  1.00  0.00    -0.418 A  
HETATM   12  C   UNL     1     -13.749   7.206  71.443  1.00  0.00    -0.364 A  
HETATM   13  C   UNL     1     -14.355   8.437  71.657  1.00  0.00    -0.536 A  
HETATM   14  C   UNL     1     -13.572   9.589  71.736  1.00  0.00    -0.447 A  
HETATM   15  C   UNL     1     -12.180   9.511  71.605  1.00  0.00    -0.477 A  
ENDBRANCH   7  10
ENDBRANCH   5   7
ENDBRANCH   3   5
ENDBRANCH   2   3
TORSDOF 4
ENDMDL
MODEL      254
REMARK 921   NORMALIZED FREE ENERGY PREDICTED BY IDOCK:   -2.21 KCAL/MOL
REMARK 922        TOTAL FREE ENERGY PREDICTED BY IDOCK:   -3.12 KCAL/MOL
REMARK 923 INTER-LIGAND FREE ENERGY PREDICTED BY IDOCK:   -2.63 KCAL/MOL
REMARK 924 INTRA-LIGAND FREE ENERGY PREDICTED BY IDOCK:   -0.49 KCAL/MOL
REMARK 927      BINDING AFFINITY PREDICTED BY RF-SCORE:    0.00 PKD
ROOT
HETATM    1  C   UNL     1     -11.150   6.097  68.878  1.00  0.00    -0.417 C  
HETATM    2  C   UNL     1      -9.730   5.538  68.775  1.00  0.00    -0.143 C  
ENDROOT
BRANCH   2   3
HETATM    3  N   UNL     1      -9.330   5.017  67.442  1.00  0.00    -0.122 NA 
HETATM    4  C   UNL     1     -10.493   5.003  66.542  1.00  0.00    -0.276 C  
BRANCH   3   5
HETATM    5  C   UNL     1      -8.216   5.857  66.862  1.00  0.00    -0.105 C  
HETATM    6  C   UNL     1      -7.025   4.976  66.423  1.00  0.00    -0.067 C  
BRANCH   5   7
HETATM    7  C   UNL     1      -8.493   6.889  65.688  1.00  0.00    -0.136 C  
HETATM    8  H   UNL     1      -7.642   7.490  63.979  1.00  0.00     0.000 HD 
HETATM    9  O   UNL     1      -7.476   6.872  64.681  1.00  0.00    -0.083 OA 
BRANCH   7  10
HETATM   10  C   UNL     1      -8.876   8.324  66.011  1.00  0.00    -0.203 A  
HETATM   11  C   UNL     1      -7.917   9.341  65.829  1.00  0.00    -0.109 A  
HETATM   12  C   UNL     1      -8.214  10.675  66.126  1.00  0.00    -0.156 A  
HETATM   13  C   UNL     1      -9.468  11.013  66.619  1.00  0.00    -0.207 A  
HETATM   14  C   UNL     1     -10.423  10.017  66.819  1.00  0.00    -0.267 A  
HETATM   15  C   UNL     1     -10.127   8.680  66.524  1.00  0.00    -0.339 A  
ENDBRANCH   7  10
ENDBRANCH   5   7
ENDBRANCH   3   5
ENDBRANCH   2   3
TORSDOF 4
ENDMDL
MODEL      255
REMARK 921   NORMALIZED FREE ENERGY PREDICTED BY IDOCK:   -2.21 KCAL/MOL
REMARK 922        TOTAL FREE ENERGY PREDICTED BY IDOCK:   -3.12 KCAL/MOL
REMARK 923 INTER-LIGAND FREE ENERGY PREDICTED BY IDOCK:   -2.64 KCAL/MOL
REMARK 924 INTRA-LIGAND FREE ENERGY PREDICTED BY IDOCK:   -0.48 KCAL/MOL
REMARK 927      BINDING AFFINITY PREDICTED BY RF-SCORE:    0.00 PKD
ROOT
HETATM    1  C   UNL     1      -8.424   8.142  74.001  1.00  0.00    -0.289 C  
HETATM    2  C   UNL     1      -9.531   8.303  72.959  1.00  0.00    -0.228 C  
ENDROOT
BRANCH   2   3
HETATM    3  N   UNL     1     -10.826   7.647  73.276  1.00  0.00    -0.385 NA 
HETATM    4  C   UNL     1     -11.930   8.401  72.664  1.00  0.00    -0.277 C  
BRANCH   3   5
HETATM    5  C   UNL     1     -10.824   6.216  72.792  1.00  0.00    -0.250 C  
HETATM    6  C   UNL     1     -12.246   5.614  72.824  1.00  0.00     0.100 C  
BRANCH   5   7
HETATM    7  C   UNL     1     -10.181   5.825  71.393  1.00  0.00    -0.216 C  
HETATM    8  H   UNL     1     -10.741   5.629  69.481  1.00  0.00     0.000 HD 
HETATM    9  O   UNL     1     -11.126   5.863  70.318  1.00  0.00    -0.327 OA 
BRANCH   7  10
HETATM   10  C   UNL     1      -9.312   4.584  71.274  1.00  0.00    -0.209 A  
HETATM   11  C   UNL     1      -8.184   4.462  72.111  1.00  0.00    -0.107 A  
HETATM   12  C   UNL     1      -7.344   3.347  72.031  1.00  0.00    -0.051 A  
HETATM   13  C   UNL     1      -7.609   2.344  71.107  1.00  0.00    -0.032 A  
HETATM   14  C   UNL     1      -8.712   2.457  70.261  1.00  0.00    -0.124 A  
HETATM   15  C   UNL     1      -9.554   3.573  70.339  1.00  0.00    -0.241 A  
ENDBRANCH   7  10
ENDBRANCH   5   7
ENDBRANCH   3   5
ENDBRANCH   2   3
TORSDOF 4
ENDMDL
MODEL      256
REMARK 921   NORMALIZED FREE ENERGY PREDICTED BY IDOCK:   -2.21 KCAL/MOL
REMARK 922        TOTAL FREE ENERGY PREDICTED BY IDOCK:   -3.12 KCAL/MOL
REMARK 923 INTER-LIGAND FREE ENERGY PREDICTED BY IDOCK:   -2.85 KCAL/MOL
REMARK 924 INTRA-LIGAND FREE ENERGY PREDICTED BY IDOCK:   -0.26 KCAL/MOL
REMARK 927      BINDING AFFINITY PREDICTED BY RF-SCORE:    0.00 PKD
ROOT
HETATM    1  C   UNL     1      -7.614   6.651  67.630  1.00  0.00    -0.106 C  
HETATM    2  C   UNL     1      -8.006   8.115  67.425  1.00  0.00    -0.117 C  
ENDROOT
BRANCH   2   3
HETATM    3  N   UNL     1      -8.303   8.520  66.026  1.00  0.00    -0.123 NA 
HETATM    4  C   UNL     1      -7.807   7.497  65.094  1.00  0.00    -0.122 C  
BRANCH   3   5
HETATM    5  C   UNL     1      -9.787   8.733  65.844  1.00  0.00    -0.066 C  
HETATM    6  C   UNL     1     -10.556   8.446  67.154  1.00  0.00    -0.326 C  
BRANCH   5   7
HETATM    7  C   UNL     1     -10.355  10.095  65.257  1.00  0.00    -0.084 C  
HETATM    8  H   UNL     1     -10.308  11.133  63.546  1.00  0.00     0.000 HD 
HETATM    9  O   UNL     1      -9.968  10.318  63.897  1.00  0.00    -0.278 OA 
BRANCH   7  10
HETATM   10  C   UNL     1     -10.215  11.384  66.052  1.00  0.00    -0.289 A  
HETATM   11  C   UNL     1      -8.936  11.770  66.500  1.00  0.00    -0.196 A  
HETATM   12  C   UNL     1      -8.756  12.938  67.248  1.00  0.00    -0.204 A  
HETATM   13  C   UNL     1      -9.851  13.731  67.569  1.00  0.00    -0.230 A  
HETATM   14  C   UNL     1     -11.125  13.355  67.146  1.00  0.00    -0.303 A  
HETATM   15  C   UNL     1     -11.308  12.184  66.399  1.00  0.00    -0.411 A  
ENDBRANCH   7  10
ENDBRANCH   5   7
ENDBRANCH   3   5
ENDBRANCH   2   3
TORSDOF 4
ENDMDL
MODEL      257
REMARK 921   NORMALIZED FREE ENERGY PREDICTED BY IDOCK:   -2.19 KCAL/MOL
REMARK 922        TOTAL FREE ENERGY PREDICTED BY IDOCK:   -3.09 KCAL/MOL
REMARK 923 INTER-LIGAND FREE ENERGY PREDICTED BY IDOCK:   -2.54 KCAL/MOL
REMARK 924 INTRA-LIGAND FREE ENERGY PREDICTED BY IDOCK:   -0.55 KCAL/MOL
REMARK 927      BINDING AFFINITY PREDICTED BY RF-SCORE:    0.00 PKD
ROOT
HETATM    1  C   UNL     1      -7.169   7.050  66.512  1.00  0.00    -0.082 C  
HETATM    2  C   UNL     1      -7.525   8.439  65.980  1.00  0.00    -0.084 C  
ENDROOT
BRANCH   2   3
HETATM    3  N   UNL     1      -7.416   9.557  66.953  1.00  0.00    -0.094 NA 
HETATM    4  C   UNL     1      -8.519  10.508  66.744  1.00  0.00    -0.127 C  
BRANCH   3   5
HETATM    5  C   UNL     1      -7.429   9.026  68.367  1.00  0.00    -0.082 C  
HETATM    6  C   UNL     1      -6.101   9.340  69.092  1.00  0.00    -0.042 C  
BRANCH   5   7
HETATM    7  C   UNL     1      -8.607   9.389  69.368  1.00  0.00    -0.148 C  
HETATM    8  H   UNL     1      -8.847  10.234  71.166  1.00  0.00     0.000 HD 
HETATM    9  O   UNL     1      -8.143  10.018  70.568  1.00  0.00    -0.194 OA 
BRANCH   7  10
HETATM   10  C   UNL     1      -9.666   8.352  69.705  1.00  0.00    -0.180 A  
HETATM   11  C   UNL     1     -10.078   8.213  71.046  1.00  0.00    -0.221 A  
HETATM   12  C   UNL     1     -11.038   7.263  71.411  1.00  0.00    -0.268 A  
HETATM   13  C   UNL     1     -11.592   6.432  70.446  1.00  0.00    -0.440 A  
HETATM   14  C   UNL     1     -11.184   6.546  69.118  1.00  0.00    -0.367 A  
HETATM   15  C   UNL     1     -10.222   7.495  68.750  1.00  0.00    -0.206 A  
ENDBRANCH   7  10
ENDBRANCH   5   7
ENDBRANCH   3   5
ENDBRANCH   2   3
TORSDOF 4
ENDMDL
MODEL      258
REMARK 921   NORMALIZED FREE ENERGY PREDICTED BY IDOCK:   -2.14 KCAL/MOL
REMARK 922        TOTAL FREE ENERGY PREDICTED BY IDOCK:   -3.03 KCAL/MOL
REMARK 923 INTER-LIGAND FREE ENERGY PREDICTED BY IDOCK:   -2.71 KCAL/MOL
REMARK 924 INTRA-LIGAND FREE ENERGY PREDICTED BY IDOCK:   -0.33 KCAL/MOL
REMARK 927      BINDING AFFINITY PREDICTED BY RF-SCORE:    0.00 PKD
ROOT
HETATM    1  C   UNL     1      -8.456   5.583  64.571  1.00  0.00    -0.094 C  
HETATM    2  C   UNL     1      -8.666   6.189  65.959  1.00  0.00    -0.153 C  
ENDROOT
BRANCH   2   3
HETATM    3  N   UNL     1      -8.154   7.571  66.152  1.00  0.00    -0.110 NA 
HETATM    4  C   UNL     1      -8.064   8.255  64.853  1.00  0.00    -0.150 C  
BRANCH   3   5
HETATM    5  C   UNL     1      -9.051   8.336  67.096  1.00  0.00    -0.139 C  
HETATM    6  C   UNL     1     -10.523   7.888  66.953  1.00  0.00    -0.388 C  
BRANCH   5   7
HETATM    7  C   UNL     1      -8.733   8.410  68.650  1.00  0.00    -0.133 C  
HETATM    8  H   UNL     1      -7.149   8.308  69.869  1.00  0.00     0.000 HD 
HETATM    9  O   UNL     1      -7.339   8.264  68.940  1.00  0.00    -0.085 OA 
BRANCH   7  10
HETATM   10  C   UNL     1      -9.554   7.593  69.635  1.00  0.00    -0.160 A  
HETATM   11  C   UNL     1      -9.374   6.196  69.674  1.00  0.00    -0.156 A  
HETATM   12  C   UNL     1     -10.115   5.397  70.551  1.00  0.00    -0.306 A  
HETATM   13  C   UNL     1     -11.055   5.980  71.393  1.00  0.00    -0.336 A  
HETATM   14  C   UNL     1     -11.257   7.359  71.355  1.00  0.00    -0.272 A  
HETATM   15  C   UNL     1     -10.516   8.160  70.476  1.00  0.00    -0.222 A  
ENDBRANCH   7  10
ENDBRANCH   5   7
ENDBRANCH   3   5
ENDBRANCH   2   3
TORSDOF 4
ENDMDL
MODEL      259
REMARK 921   NORMALIZED FREE ENERGY PREDICTED BY IDOCK:   -2.14 KCAL/MOL
REMARK 922        TOTAL FREE ENERGY PREDICTED BY IDOCK:   -3.03 KCAL/MOL
REMARK 923 INTER-LIGAND FREE ENERGY PREDICTED BY IDOCK:   -2.69 KCAL/MOL
REMARK 924 INTRA-LIGAND FREE ENERGY PREDICTED BY IDOCK:   -0.34 KCAL/MOL
REMARK 927      BINDING AFFINITY PREDICTED BY RF-SCORE:    0.00 PKD
ROOT
HETATM    1  C   UNL     1      -6.515   5.367  67.347  1.00  0.00    -0.051 C  
HETATM    2  C   UNL     1      -6.986   6.707  66.782  1.00  0.00    -0.067 C  
ENDROOT
BRANCH   2   3
HETATM    3  N   UNL     1      -6.939   6.845  65.303  1.00  0.00    -0.051 NA 
HETATM    4  C   UNL     1      -7.967   5.991  64.689  1.00  0.00    -0.130 C  
BRANCH   3   5
HETATM    5  C   UNL     1      -7.135   8.288  64.903  1.00  0.00    -0.079 C  
HETATM    6  C   UNL     1      -5.850   8.872  64.274  1.00  0.00    -0.069 C  
BRANCH   5   7
HETATM    7  C   UNL     1      -8.350   8.724  63.977  1.00  0.00    -0.141 C  
HETATM    8  H   UNL     1      -8.674   9.276  62.080  1.00  0.00     0.000 HD 
HETATM    9  O   UNL     1      -7.948   9.015  62.634  1.00  0.00    -0.123 OA 
BRANCH   7  10
HETATM   10  C   UNL     1      -9.336   9.775  64.460  1.00  0.00    -0.298 A  
HETATM   11  C   UNL     1      -9.685  10.829  63.591  1.00  0.00    -0.376 A  
HETATM   12  C   UNL     1     -10.577  11.829  63.993  1.00  0.00    -0.425 A  
HETATM   13  C   UNL     1     -11.124  11.798  65.270  1.00  0.00    -0.333 A  
HETATM   14  C   UNL     1     -10.776  10.771  66.146  1.00  0.00    -0.187 A  
HETATM   15  C   UNL     1      -9.883   9.769  65.747  1.00  0.00    -0.360 A  
ENDBRANCH   7  10
ENDBRANCH   5   7
ENDBRANCH   3   5
ENDBRANCH   2   3
TORSDOF 4
ENDMDL
MODEL      260
REMARK 921   NORMALIZED FREE ENERGY PREDICTED BY IDOCK:   -2.14 KCAL/MOL
REMARK 922        TOTAL FREE ENERGY PREDICTED BY IDOCK:   -3.03 KCAL/MOL
REMARK 923 INTER-LIGAND FREE ENERGY PREDICTED BY IDOCK:   -3.24 KCAL/MOL
REMARK 924 INTRA-LIGAND FREE ENERGY PREDICTED BY IDOCK:    0.21 KCAL/MOL
REMARK 927      BINDING AFFINITY PREDICTED BY RF-SCORE:    0.00 PKD
ROOT
HETATM    1  C   UNL     1     -11.929  12.436  65.934  1.00  0.00    -0.434 C  
HETATM    2  C   UNL     1     -11.917  13.679  66.825  1.00  0.00    -0.414 C  
ENDROOT
BRANCH   2   3
HETATM    3  N   UNL     1     -11.314  13.509  68.173  1.00  0.00    -0.268 NA 
HETATM    4  C   UNL     1     -11.388  12.097  68.578  1.00  0.00    -0.275 C  
BRANCH   3   5
HETATM    5  C   UNL     1      -9.882  13.989  68.172  1.00  0.00    -0.235 C  
HETATM    6  C   UNL     1      -8.896  12.804  68.267  1.00  0.00    -0.168 C  
BRANCH   5   7
HETATM    7  C   UNL     1      -9.342  14.958  67.036  1.00  0.00    -0.227 C  
HETATM    8  H   UNL     1      -8.879  14.884  65.090  1.00  0.00     0.000 HD 
HETATM    9  O   UNL     1      -9.202  14.305  65.769  1.00  0.00    -0.048 OA 
BRANCH   7  10
HETATM   10  C   UNL     1      -8.134  15.841  67.298  1.00  0.00    -0.217 A  
HETATM   11  C   UNL     1      -8.284  17.241  67.214  1.00  0.00    -0.213 A  
HETATM   12  C   UNL     1      -7.199  18.097  67.431  1.00  0.00    -0.208 A  
HETATM   13  C   UNL     1      -5.948  17.570  67.724  1.00  0.00    -0.157 A  
HETATM   14  C   UNL     1      -5.779  16.187  67.796  1.00  0.00    -0.160 A  
HETATM   15  C   UNL     1      -6.863  15.328  67.577  1.00  0.00    -0.218 A  
ENDBRANCH   7  10
ENDBRANCH   5   7
ENDBRANCH   3   5
ENDBRANCH   2   3
TORSDOF 4
ENDMDL
MODEL      261
REMARK 921   NORMALIZED FREE ENERGY PREDICTED BY IDOCK:   -2.13 KCAL/MOL
REMARK 922        TOTAL FREE ENERGY PREDICTED BY IDOCK:   -3.02 KCAL/MOL
REMARK 923 INTER-LIGAND FREE ENERGY PREDICTED BY IDOCK:   -3.67 KCAL/MOL
REMARK 924 INTRA-LIGAND FREE ENERGY PREDICTED BY IDOCK:    0.64 KCAL/MOL
REMARK 927      BINDING AFFINITY PREDICTED BY RF-SCORE:    0.00 PKD
ROOT
HETATM    1  C   UNL     1      -5.769  21.120  64.682  1.00  0.00    -0.234 C  
HETATM    2  C   UNL     1      -5.897  19.735  65.315  1.00  0.00    -0.193 C  
ENDROOT
BRANCH   2   3
HETATM    3  N   UNL     1      -7.280  19.214  65.470  1.00  0.00    -0.469 NA 
HETATM    4  C   UNL     1      -7.245  17.756  65.664  1.00  0.00     0.043 C  
BRANCH   3   5
HETATM    5  C   UNL     1      -7.969  19.890  66.632  1.00  0.00    -0.314 C  
HETATM    6  C   UNL     1      -9.505  19.768  66.517  1.00  0.00    -0.500 C  
BRANCH   5   7
HETATM    7  C   UNL     1      -7.582  19.539  68.132  1.00  0.00    -0.303 C  
HETATM    8  H   UNL     1      -6.078  19.858  69.413  1.00  0.00     0.000 HD 
HETATM    9  O   UNL     1      -6.309  20.068  68.516  1.00  0.00    -0.263 OA 
BRANCH   7  10
HETATM   10  C   UNL     1      -7.724  18.114  68.642  1.00  0.00    -0.309 A  
HETATM   11  C   UNL     1      -6.605  17.486  69.225  1.00  0.00    -0.235 A  
HETATM   12  C   UNL     1      -6.679  16.171  69.695  1.00  0.00    -0.165 A  
HETATM   13  C   UNL     1      -7.867  15.459  69.580  1.00  0.00    -0.204 A  
HETATM   14  C   UNL     1      -8.978  16.060  68.991  1.00  0.00    -0.244 A  
HETATM   15  C   UNL     1      -8.906  17.377  68.518  1.00  0.00    -0.277 A  
ENDBRANCH   7  10
ENDBRANCH   5   7
ENDBRANCH   3   5
ENDBRANCH   2   3
TORSDOF 4
ENDMDL
MODEL      262
REMARK 921   NORMALIZED FREE ENERGY PREDICTED BY IDOCK:   -2.10 KCAL/MOL
REMARK 922        TOTAL FREE ENERGY PREDICTED BY IDOCK:   -2.99 KCAL/MOL
REMARK 923 INTER-LIGAND FREE ENERGY PREDICTED BY IDOCK:   -2.58 KCAL/MOL
REMARK 924 INTRA-LIGAND FREE ENERGY PREDICTED BY IDOCK:   -0.41 KCAL/MOL
REMARK 927      BINDING AFFINITY PREDICTED BY RF-SCORE:    0.00 PKD
ROOT
HETATM    1  C   UNL     1      -7.171   2.914  72.709  1.00  0.00    -0.040 C  
HETATM    2  C   UNL     1      -7.345   1.850  71.625  1.00  0.00    -0.036 C  
ENDROOT
BRANCH   2   3
HETATM    3  N   UNL     1      -7.795   2.340  70.296  1.00  0.00    -0.042 NA 
HETATM    4  C   UNL     1      -9.144   1.829  70.008  1.00  0.00    -0.092 C  
BRANCH   3   5
HETATM    5  C   UNL     1      -7.778   3.850  70.260  1.00  0.00    -0.048 C  
HETATM    6  C   UNL     1      -6.445   4.378  69.682  1.00  0.00    -0.032 C  
BRANCH   5   7
HETATM    7  C   UNL     1      -8.947   4.667  69.563  1.00  0.00    -0.092 C  
HETATM    8  H   UNL     1      -9.173   6.045  68.128  1.00  0.00     0.000 HD 
HETATM    9  O   UNL     1      -8.474   5.556  68.545  1.00  0.00    -0.100 OA 
BRANCH   7  10
HETATM   10  C   UNL     1      -9.998   5.366  70.410  1.00  0.00    -0.291 A  
HETATM   11  C   UNL     1     -10.077   5.059  71.784  1.00  0.00    -0.262 A  
HETATM   12  C   UNL     1     -11.036   5.662  72.604  1.00  0.00    -0.316 A  
HETATM   13  C   UNL     1     -11.937   6.571  72.064  1.00  0.00    -0.372 A  
HETATM   14  C   UNL     1     -11.883   6.873  70.704  1.00  0.00    -0.418 A  
HETATM   15  C   UNL     1     -10.924   6.269  69.880  1.00  0.00    -0.435 A  
ENDBRANCH   7  10
ENDBRANCH   5   7
ENDBRANCH   3   5
ENDBRANCH   2   3
TORSDOF 4
ENDMDL
MODEL      263
REMARK 921   NORMALIZED FREE ENERGY PREDICTED BY IDOCK:   -2.10 KCAL/MOL
REMARK 922        TOTAL FREE ENERGY PREDICTED BY IDOCK:   -2.98 KCAL/MOL
REMARK 923 INTER-LIGAND FREE ENERGY PREDICTED BY IDOCK:   -2.50 KCAL/MOL
REMARK 924 INTRA-LIGAND FREE ENERGY PREDICTED BY IDOCK:   -0.49 KCAL/MOL
REMARK 927      BINDING AFFINITY PREDICTED BY RF-SCORE:    0.00 PKD
ROOT
HETATM    1  C   UNL     1     -11.321   6.297  69.593  1.00  0.00    -0.492 C  
HETATM    2  C   UNL     1      -9.897   5.767  69.423  1.00  0.00    -0.167 C  
ENDROOT
BRANCH   2   3
HETATM    3  N   UNL     1      -8.805   6.689  69.833  1.00  0.00    -0.143 NA 
HETATM    4  C   UNL     1      -9.366   8.003  70.181  1.00  0.00    -0.156 C  
BRANCH   3   5
HETATM    5  C   UNL     1      -8.039   6.110  70.999  1.00  0.00    -0.121 C  
HETATM    6  C   UNL     1      -6.628   6.732  71.103  1.00  0.00    -0.053 C  
BRANCH   5   7
HETATM    7  C   UNL     1      -8.656   6.101  72.462  1.00  0.00    -0.121 C  
HETATM    8  H   UNL     1      -8.082   6.488  74.340  1.00  0.00     0.000 HD 
HETATM    9  O   UNL     1      -7.713   6.494  73.465  1.00  0.00    -0.092 OA 
BRANCH   7  10
HETATM   10  C   UNL     1      -9.453   4.900  72.945  1.00  0.00    -0.152 A  
HETATM   11  C   UNL     1      -8.789   3.669  73.120  1.00  0.00    -0.097 A  
HETATM   12  C   UNL     1      -9.479   2.531  73.547  1.00  0.00    -0.108 A  
HETATM   13  C   UNL     1     -10.844   2.601  73.796  1.00  0.00    -0.293 A  
HETATM   14  C   UNL     1     -11.520   3.807  73.613  1.00  0.00    -0.154 A  
HETATM   15  C   UNL     1     -10.830   4.948  73.183  1.00  0.00    -0.348 A  
ENDBRANCH   7  10
ENDBRANCH   5   7
ENDBRANCH   3   5
ENDBRANCH   2   3
TORSDOF 4
ENDMDL
MODEL      264
REMARK 921   NORMALIZED FREE ENERGY PREDICTED BY IDOCK:   -2.08 KCAL/MOL
REMARK 922        TOTAL FREE ENERGY PREDICTED BY IDOCK:   -2.95 KCAL/MOL
REMARK 923 INTER-LIGAND FREE ENERGY PREDICTED BY IDOCK:   -2.60 KCAL/MOL
REMARK 924 INTRA-LIGAND FREE ENERGY PREDICTED BY IDOCK:   -0.35 KCAL/MOL
REMARK 927      BINDING AFFINITY PREDICTED BY RF-SCORE:    0.00 PKD
ROOT
HETATM    1  C   UNL     1      -9.399   6.450  70.263  1.00  0.00    -0.165 C  
HETATM    2  C   UNL     1      -9.898   7.231  69.047  1.00  0.00    -0.165 C  
ENDROOT
BRANCH   2   3
HETATM    3  N   UNL     1      -8.852   7.699  68.099  1.00  0.00    -0.125 NA 
HETATM    4  C   UNL     1      -9.425   7.833  66.752  1.00  0.00    -0.197 C  
BRANCH   3   5
HETATM    5  C   UNL     1      -8.270   9.012  68.565  1.00  0.00    -0.112 C  
HETATM    6  C   UNL     1      -6.741   8.908  68.757  1.00  0.00    -0.054 C  
BRANCH   5   7
HETATM    7  C   UNL     1      -8.552  10.361  67.774  1.00  0.00    -0.122 C  
HETATM    8  H   UNL     1      -7.552  11.981  67.158  1.00  0.00     0.000 HD 
HETATM    9  O   UNL     1      -7.383  11.175  67.631  1.00  0.00    -0.090 OA 
BRANCH   7  10
HETATM   10  C   UNL     1      -9.743  11.228  68.148  1.00  0.00    -0.188 A  
HETATM   11  C   UNL     1     -10.911  10.605  68.633  1.00  0.00    -0.291 A  
HETATM   12  C   UNL     1     -12.040  11.356  68.976  1.00  0.00    -0.316 A  
HETATM   13  C   UNL     1     -12.024  12.738  68.829  1.00  0.00    -0.278 A  
HETATM   14  C   UNL     1     -10.883  13.367  68.335  1.00  0.00    -0.284 A  
HETATM   15  C   UNL     1      -9.751  12.617  67.989  1.00  0.00    -0.215 A  
ENDBRANCH   7  10
ENDBRANCH   5   7
ENDBRANCH   3   5
ENDBRANCH   2   3
TORSDOF 4
ENDMDL
MODEL      265
REMARK 921   NORMALIZED FREE ENERGY PREDICTED BY IDOCK:   -2.06 KCAL/MOL
REMARK 922        TOTAL FREE ENERGY PREDICTED BY IDOCK:   -2.93 KCAL/MOL
REMARK 923 INTER-LIGAND FREE ENERGY PREDICTED BY IDOCK:   -2.44 KCAL/MOL
REMARK 924 INTRA-LIGAND FREE ENERGY PREDICTED BY IDOCK:   -0.49 KCAL/MOL
REMARK 927      BINDING AFFINITY PREDICTED BY RF-SCORE:    0.00 PKD
ROOT
HETATM    1  C   UNL     1      -7.689   6.392  73.975  1.00  0.00    -0.090 C  
HETATM    2  C   UNL     1      -8.793   7.417  73.709  1.00  0.00    -0.215 C  
ENDROOT
BRANCH   2   3
HETATM    3  N   UNL     1     -10.121   6.863  73.338  1.00  0.00    -0.228 NA 
HETATM    4  C   UNL     1     -11.063   7.961  73.071  1.00  0.00    -0.314 C  
BRANCH   3   5
HETATM    5  C   UNL     1      -9.997   5.962  72.132  1.00  0.00    -0.170 C  
HETATM    6  C   UNL     1     -10.648   4.586  72.394  1.00  0.00    -0.205 C  
BRANCH   5   7
HETATM    7  C   UNL     1     -10.477   6.442  70.696  1.00  0.00    -0.219 C  
HETATM    8  H   UNL     1     -11.381   5.683  69.080  1.00  0.00     0.000 HD 
HETATM    9  O   UNL     1     -11.093   5.396  69.938  1.00  0.00    -0.164 OA 
BRANCH   7  10
HETATM   10  C   UNL     1      -9.539   7.241  69.807  1.00  0.00    -0.162 A  
HETATM   11  C   UNL     1     -10.085   7.994  68.747  1.00  0.00    -0.206 A  
HETATM   12  C   UNL     1      -9.264   8.734  67.890  1.00  0.00    -0.149 A  
HETATM   13  C   UNL     1      -7.886   8.725  68.071  1.00  0.00    -0.102 A  
HETATM   14  C   UNL     1      -7.330   7.973  69.105  1.00  0.00    -0.086 A  
HETATM   15  C   UNL     1      -8.150   7.230  69.963  1.00  0.00    -0.130 A  
ENDBRANCH   7  10
ENDBRANCH   5   7
ENDBRANCH   3   5
ENDBRANCH   2   3
TORSDOF 4
ENDMDL
MODEL      266
REMARK 921   NORMALIZED FREE ENERGY PREDICTED BY IDOCK:   -2.04 KCAL/MOL
REMARK 922        TOTAL FREE ENERGY PREDICTED BY IDOCK:   -2.91 KCAL/MOL
REMARK 923 INTER-LIGAND FREE ENERGY PREDICTED BY IDOCK:   -2.26 KCAL/MOL
REMARK 924 INTRA-LIGAND FREE ENERGY PREDICTED BY IDOCK:   -0.65 KCAL/MOL
REMARK 927      BINDING AFFINITY PREDICTED BY RF-SCORE:    0.00 PKD
ROOT
HETATM    1  C   UNL     1     -11.916   8.314  70.742  1.00  0.00    -0.118 C  
HETATM    2  C   UNL     1     -11.769   6.819  70.460  1.00  0.00    -0.375 C  
ENDROOT
BRANCH   2   3
HETATM    3  N   UNL     1     -10.991   6.040  71.459  1.00  0.00    -0.269 NA 
HETATM    4  C   UNL     1     -10.403   4.854  70.819  1.00  0.00    -0.158 C  
BRANCH   3   5
HETATM    5  C   UNL     1      -9.916   6.903  72.076  1.00  0.00    -0.166 C  
HETATM    6  C   UNL     1      -9.705   6.551  73.566  1.00  0.00    -0.197 C  
BRANCH   5   7
HETATM    7  C   UNL     1      -8.477   7.018  71.414  1.00  0.00    -0.114 C  
HETATM    8  H   UNL     1      -6.560   7.092  71.983  1.00  0.00     0.000 HD 
HETATM    9  O   UNL     1      -7.420   7.022  72.379  1.00  0.00    -0.084 OA 
BRANCH   7  10
HETATM   10  C   UNL     1      -8.210   8.072  70.351  1.00  0.00    -0.118 A  
HETATM   11  C   UNL     1      -7.670   9.313  70.745  1.00  0.00    -0.164 A  
HETATM   12  C   UNL     1      -7.421  10.321  69.808  1.00  0.00    -0.169 A  
HETATM   13  C   UNL     1      -7.717  10.110  68.468  1.00  0.00    -0.090 A  
HETATM   14  C   UNL     1      -8.266   8.894  68.064  1.00  0.00    -0.110 A  
HETATM   15  C   UNL     1      -8.518   7.883  69.000  1.00  0.00    -0.131 A  
ENDBRANCH   7  10
ENDBRANCH   5   7
ENDBRANCH   3   5
ENDBRANCH   2   3
TORSDOF 4
ENDMDL
MODEL      267
REMARK 921   NORMALIZED FREE ENERGY PREDICTED BY IDOCK:   -2.01 KCAL/MOL
REMARK 922        TOTAL FREE ENERGY PREDICTED BY IDOCK:   -2.87 KCAL/MOL
REMARK 923 INTER-LIGAND FREE ENERGY PREDICTED BY IDOCK:   -2.61 KCAL/MOL
REMARK 924 INTRA-LIGAND FREE ENERGY PREDICTED BY IDOCK:   -0.27 KCAL/MOL
REMARK 927      BINDING AFFINITY PREDICTED BY RF-SCORE:    0.00 PKD
ROOT
HETATM    1  C   UNL     1      -7.701   8.194  73.628  1.00  0.00    -0.225 C  
HETATM    2  C   UNL     1      -9.001   8.590  72.929  1.00  0.00    -0.101 C  
ENDROOT
BRANCH   2   3
HETATM    3  N   UNL     1      -9.722   7.497  72.225  1.00  0.00    -0.155 NA 
HETATM    4  C   UNL     1     -10.293   6.564  73.207  1.00  0.00    -0.241 C  
BRANCH   3   5
HETATM    5  C   UNL     1     -10.804   8.067  71.339  1.00  0.00    -0.231 C  
HETATM    6  C   UNL     1     -11.588   9.184  72.064  1.00  0.00    -0.371 C  
BRANCH   5   7
HETATM    7  C   UNL     1     -10.473   8.598  69.879  1.00  0.00    -0.218 C  
HETATM    8  H   UNL     1     -11.288   9.785  68.489  1.00  0.00     0.000 HD 
HETATM    9  O   UNL     1     -11.486   9.467  69.361  1.00  0.00    -0.027 OA 
BRANCH   7  10
HETATM   10  C   UNL     1     -10.023   7.628  68.799  1.00  0.00    -0.178 A  
HETATM   11  C   UNL     1      -9.510   8.146  67.592  1.00  0.00    -0.172 A  
HETATM   12  C   UNL     1      -9.096   7.296  66.561  1.00  0.00    -0.186 A  
HETATM   13  C   UNL     1      -9.199   5.919  66.714  1.00  0.00    -0.139 A  
HETATM   14  C   UNL     1      -9.719   5.392  67.896  1.00  0.00    -0.165 A  
HETATM   15  C   UNL     1     -10.135   6.241  68.929  1.00  0.00    -0.200 A  
ENDBRANCH   7  10
ENDBRANCH   5   7
ENDBRANCH   3   5
ENDBRANCH   2   3
TORSDOF 4
ENDMDL
MODEL      268
REMARK 921   NORMALIZED FREE ENERGY PREDICTED BY IDOCK:   -2.00 KCAL/MOL
REMARK 922        TOTAL FREE ENERGY PREDICTED BY IDOCK:   -2.86 KCAL/MOL
REMARK 923 INTER-LIGAND FREE ENERGY PREDICTED BY IDOCK:   -2.59 KCAL/MOL
REMARK 924 INTRA-LIGAND FREE ENERGY PREDICTED BY IDOCK:   -0.27 KCAL/MOL
REMARK 927      BINDING AFFINITY PREDICTED BY RF-SCORE:    0.00 PKD
ROOT
HETATM    1  C   UNL     1      -9.824   8.368  66.434  1.00  0.00    -0.310 C  
HETATM    2  C   UNL     1      -9.960   7.087  67.258  1.00  0.00    -0.181 C  
ENDROOT
BRANCH   2   3
HETATM    3  N   UNL     1     -10.306   7.268  68.692  1.00  0.00    -0.189 NA 
HETATM    4  C   UNL     1     -11.204   6.189  69.129  1.00  0.00    -0.339 C  
BRANCH   3   5
HETATM    5  C   UNL     1      -9.053   7.293  69.535  1.00  0.00    -0.143 C  
HETATM    6  C   UNL     1      -7.834   6.779  68.737  1.00  0.00    -0.111 C  
BRANCH   5   7
HETATM    7  C   UNL     1      -8.596   8.616  70.287  1.00  0.00    -0.141 C  
HETATM    8  H   UNL     1      -7.509  10.256  69.923  1.00  0.00     0.000 HD 
HETATM    9  O   UNL     1      -7.782   9.466  69.473  1.00  0.00    -0.076 OA 
BRANCH   7  10
HETATM   10  C   UNL     1      -8.015   8.532  71.689  1.00  0.00    -0.183 A  
HETATM   11  C   UNL     1      -8.893   8.369  72.780  1.00  0.00    -0.276 A  
HETATM   12  C   UNL     1      -8.411   8.302  74.091  1.00  0.00    -0.233 A  
HETATM   13  C   UNL     1      -7.047   8.408  74.334  1.00  0.00    -0.215 A  
HETATM   14  C   UNL     1      -6.166   8.587  73.267  1.00  0.00    -0.115 A  
HETATM   15  C   UNL     1      -6.648   8.655  71.954  1.00  0.00    -0.079 A  
ENDBRANCH   7  10
ENDBRANCH   5   7
ENDBRANCH   3   5
ENDBRANCH   2   3
TORSDOF 4
ENDMDL
MODEL      269
REMARK 921   NORMALIZED FREE ENERGY PREDICTED BY IDOCK:   -2.00 KCAL/MOL
REMARK 922        TOTAL FREE ENERGY PREDICTED BY IDOCK:   -2.86 KCAL/MOL
REMARK 923 INTER-LIGAND FREE ENERGY PREDICTED BY IDOCK:   -2.61 KCAL/MOL
REMARK 924 INTRA-LIGAND FREE ENERGY PREDICTED BY IDOCK:   -0.25 KCAL/MOL
REMARK 927      BINDING AFFINITY PREDICTED BY RF-SCORE:    0.00 PKD
ROOT
HETATM    1  C   UNL     1      -6.095  10.501  66.298  1.00  0.00    -0.096 C  
HETATM    2  C   UNL     1      -7.162   9.690  67.032  1.00  0.00    -0.087 C  
ENDROOT
BRANCH   2   3
HETATM    3  N   UNL     1      -8.365  10.443  67.473  1.00  0.00    -0.115 NA 
HETATM    4  C   UNL     1      -8.431  11.733  66.771  1.00  0.00    -0.177 C  
BRANCH   3   5
HETATM    5  C   UNL     1      -9.615   9.633  67.219  1.00  0.00    -0.164 C  
HETATM    6  C   UNL     1      -9.801   9.355  65.710  1.00  0.00    -0.345 C  
BRANCH   5   7
HETATM    7  C   UNL     1      -9.876   8.266  67.983  1.00  0.00    -0.169 C  
HETATM    8  H   UNL     1      -9.413   7.406  69.730  1.00  0.00     0.000 HD 
HETATM    9  O   UNL     1      -9.257   8.224  69.274  1.00  0.00    -0.150 OA 
BRANCH   7  10
HETATM   10  C   UNL     1      -9.668   6.941  67.267  1.00  0.00    -0.184 A  
HETATM   11  C   UNL     1     -10.793   6.146  66.969  1.00  0.00    -0.435 A  
HETATM   12  C   UNL     1     -10.654   4.913  66.325  1.00  0.00    -0.307 A  
HETATM   13  C   UNL     1      -9.391   4.448  65.980  1.00  0.00    -0.160 A  
HETATM   14  C   UNL     1      -8.266   5.215  66.283  1.00  0.00    -0.109 A  
HETATM   15  C   UNL     1      -8.403   6.451  66.929  1.00  0.00    -0.110 A  
ENDBRANCH   7  10
ENDBRANCH   5   7
ENDBRANCH   3   5
ENDBRANCH   2   3
TORSDOF 4
ENDMDL
MODEL      270
REMARK 921   NORMALIZED FREE ENERGY PREDICTED BY IDOCK:   -1.97 KCAL/MOL
REMARK 922        TOTAL FREE ENERGY PREDICTED BY IDOCK:   -2.83 KCAL/MOL
REMARK 923 INTER-LIGAND FREE ENERGY PREDICTED BY IDOCK:   -3.37 KCAL/MOL
REMARK 924 INTRA-LIGAND FREE ENERGY PREDICTED BY IDOCK:    0.54 KCAL/MOL
REMARK 927      BINDING AFFINITY PREDICTED BY RF-SCORE:    0.00 PKD
ROOT
HETATM    1  C   UNL     1     -11.900   9.795  71.290  1.00  0.00    -0.481 C  
HETATM    2  C   UNL     1     -11.005   8.560  71.187  1.00  0.00    -0.253 C  
ENDROOT
BRANCH   2   3
HETATM    3  N   UNL     1     -11.319   7.448  72.122  1.00  0.00    -0.260 NA 
HETATM    4  C   UNL     1     -12.525   6.739  71.666  1.00  0.00    -0.351 C  
BRANCH   3   5
HETATM    5  C   UNL     1     -10.149   6.498  72.221  1.00  0.00    -0.175 C  
HETATM    6  C   UNL     1     -10.627   5.042  72.415  1.00  0.00    -0.275 C  
BRANCH   5   7
HETATM    7  C   UNL     1      -9.015   6.475  71.109  1.00  0.00    -0.145 C  
HETATM    8  H   UNL     1      -7.198   7.254  70.796  1.00  0.00     0.000 HD 
HETATM    9  O   UNL     1      -7.876   7.268  71.460  1.00  0.00    -0.090 OA 
BRANCH   7  10
HETATM   10  C   UNL     1      -9.374   6.704  69.650  1.00  0.00    -0.143 A  
HETATM   11  C   UNL     1     -10.234   5.789  69.010  1.00  0.00    -0.282 A  
HETATM   12  C   UNL     1     -10.583   5.946  67.665  1.00  0.00    -0.335 A  
HETATM   13  C   UNL     1     -10.070   7.011  66.936  1.00  0.00    -0.296 A  
HETATM   14  C   UNL     1      -9.205   7.917  67.550  1.00  0.00    -0.152 A  
HETATM   15  C   UNL     1      -8.854   7.761  68.896  1.00  0.00    -0.135 A  
ENDBRANCH   7  10
ENDBRANCH   5   7
ENDBRANCH   3   5
ENDBRANCH   2   3
TORSDOF 4
ENDMDL
MODEL      271
REMARK 921   NORMALIZED FREE ENERGY PREDICTED BY IDOCK:   -1.95 KCAL/MOL
REMARK 922        TOTAL FREE ENERGY PREDICTED BY IDOCK:   -2.80 KCAL/MOL
REMARK 923 INTER-LIGAND FREE ENERGY PREDICTED BY IDOCK:   -2.56 KCAL/MOL
REMARK 924 INTRA-LIGAND FREE ENERGY PREDICTED BY IDOCK:   -0.25 KCAL/MOL
REMARK 927      BINDING AFFINITY PREDICTED BY RF-SCORE:    0.00 PKD
ROOT
HETATM    1  C   UNL     1     -10.207  12.171  65.850  1.00  0.00    -0.272 C  
HETATM    2  C   UNL     1      -9.828  11.381  67.102  1.00  0.00    -0.190 C  
ENDROOT
BRANCH   2   3
HETATM    3  N   UNL     1      -9.186  10.060  66.869  1.00  0.00    -0.145 NA 
HETATM    4  C   UNL     1      -8.173  10.178  65.810  1.00  0.00    -0.144 C  
BRANCH   3   5
HETATM    5  C   UNL     1      -8.565   9.546  68.147  1.00  0.00    -0.120 C  
HETATM    6  C   UNL     1      -8.311  10.697  69.146  1.00  0.00    -0.140 C  
BRANCH   5   7
HETATM    7  C   UNL     1      -9.231   8.357  68.962  1.00  0.00    -0.147 C  
HETATM    8  H   UNL     1     -11.036   7.529  69.213  1.00  0.00     0.000 HD 
HETATM    9  O   UNL     1     -10.638   8.240  68.725  1.00  0.00    -0.202 OA 
BRANCH   7  10
HETATM   10  C   UNL     1      -8.941   8.194  70.445  1.00  0.00    -0.146 A  
HETATM   11  C   UNL     1      -9.998   8.353  71.365  1.00  0.00    -0.275 A  
HETATM   12  C   UNL     1      -9.781   8.229  72.741  1.00  0.00    -0.336 A  
HETATM   13  C   UNL     1      -8.506   7.957  73.220  1.00  0.00    -0.261 A  
HETATM   14  C   UNL     1      -7.447   7.813  72.324  1.00  0.00    -0.094 A  
HETATM   15  C   UNL     1      -7.662   7.938  70.946  1.00  0.00    -0.083 A  
ENDBRANCH   7  10
ENDBRANCH   5   7
ENDBRANCH   3   5
ENDBRANCH   2   3
TORSDOF 4
ENDMDL
MODEL      272
REMARK 921   NORMALIZED FREE ENERGY PREDICTED BY IDOCK:   -1.90 KCAL/MOL
REMARK 922        TOTAL FREE ENERGY PREDICTED BY IDOCK:   -2.74 KCAL/MOL
REMARK 923 INTER-LIGAND FREE ENERGY PREDICTED BY IDOCK:   -2.48 KCAL/MOL
REMARK 924 INTRA-LIGAND FREE ENERGY PREDICTED BY IDOCK:   -0.25 KCAL/MOL
REMARK 927      BINDING AFFINITY PREDICTED BY RF-SCORE:    0.00 PKD
ROOT
HETATM    1  C   UNL     1      -7.100   3.230  64.683  1.00  0.00    -0.057 C  
HETATM    2  C   UNL     1      -8.355   3.392  65.541  1.00  0.00    -0.099 C  
ENDROOT
BRANCH   2   3
HETATM    3  N   UNL     1      -9.227   4.550  65.210  1.00  0.00    -0.150 NA 
HETATM    4  C   UNL     1     -10.599   4.085  64.956  1.00  0.00    -0.097 C  
BRANCH   3   5
HETATM    5  C   UNL     1      -9.205   5.561  66.332  1.00  0.00    -0.150 C  
HETATM    6  C   UNL     1      -8.931   6.984  65.794  1.00  0.00    -0.037 C  
BRANCH   5   7
HETATM    7  C   UNL     1     -10.410   5.672  67.359  1.00  0.00    -0.230 C  
HETATM    8  H   UNL     1     -12.151   6.644  67.538  1.00  0.00     0.000 HD 
HETATM    9  O   UNL     1     -11.431   6.577  66.924  1.00  0.00    -0.212 OA 
BRANCH   7  10
HETATM   10  C   UNL     1     -10.133   5.881  68.839  1.00  0.00    -0.231 A  
HETATM   11  C   UNL     1     -11.170   6.362  69.664  1.00  0.00    -0.483 A  
HETATM   12  C   UNL     1     -10.962   6.586  71.029  1.00  0.00    -0.314 A  
HETATM   13  C   UNL     1      -9.713   6.344  71.588  1.00  0.00    -0.174 A  
HETATM   14  C   UNL     1      -8.672   5.883  70.783  1.00  0.00    -0.134 A  
HETATM   15  C   UNL     1      -8.878   5.659  69.416  1.00  0.00    -0.114 A  
ENDBRANCH   7  10
ENDBRANCH   5   7
ENDBRANCH   3   5
ENDBRANCH   2   3
TORSDOF 4
ENDMDL
MODEL      273
REMARK 921   NORMALIZED FREE ENERGY PREDICTED BY IDOCK:   -1.86 KCAL/MOL
REMARK 922        TOTAL FREE ENERGY PREDICTED BY IDOCK:   -2.68 KCAL/MOL
REMARK 923 INTER-LIGAND FREE ENERGY PREDICTED BY IDOCK:   -2.40 KCAL/MOL
REMARK 924 INTRA-LIGAND FREE ENERGY PREDICTED BY IDOCK:   -0.29 KCAL/MOL
REMARK 927      BINDING AFFINITY PREDICTED BY RF-SCORE:    0.00 PKD
ROOT
HETATM    1  C   UNL     1      -6.624   2.728  62.876  1.00  0.00    -0.026 C  
HETATM    2  C   UNL     1      -7.949   2.734  63.639  1.00  0.00    -0.081 C  
ENDROOT
BRANCH   2   3
HETATM    3  N   UNL     1      -8.674   4.031  63.674  1.00  0.00    -0.102 NA 
HETATM    4  C   UNL     1      -9.845   3.972  62.787  1.00  0.00    -0.151 C  
BRANCH   3   5
HETATM    5  C   UNL     1      -9.092   4.361  65.088  1.00  0.00    -0.148 C  
HETATM    6  C   UNL     1      -9.145   3.089  65.964  1.00  0.00    -0.142 C  
BRANCH   5   7
HETATM    7  C   UNL     1      -8.337   5.477  65.928  1.00  0.00    -0.125 C  
HETATM    8  H   UNL     1      -7.523   5.702  67.742  1.00  0.00     0.000 HD 
HETATM    9  O   UNL     1      -7.975   5.035  67.240  1.00  0.00    -0.098 OA 
BRANCH   7  10
HETATM   10  C   UNL     1      -8.895   6.889  65.993  1.00  0.00    -0.154 A  
HETATM   11  C   UNL     1      -8.395   7.859  65.101  1.00  0.00    -0.128 A  
HETATM   12  C   UNL     1      -8.864   9.176  65.131  1.00  0.00    -0.241 A  
HETATM   13  C   UNL     1      -9.830   9.548  66.058  1.00  0.00    -0.353 A  
HETATM   14  C   UNL     1     -10.323   8.604  66.959  1.00  0.00    -0.368 A  
HETATM   15  C   UNL     1      -9.853   7.284  66.931  1.00  0.00    -0.279 A  
ENDBRANCH   7  10
ENDBRANCH   5   7
ENDBRANCH   3   5
ENDBRANCH   2   3
TORSDOF 4
ENDMDL
MODEL      274
REMARK 921   NORMALIZED FREE ENERGY PREDICTED BY IDOCK:   -1.78 KCAL/MOL
REMARK 922        TOTAL FREE ENERGY PREDICTED BY IDOCK:   -2.59 KCAL/MOL
REMARK 923 INTER-LIGAND FREE ENERGY PREDICTED BY IDOCK:   -2.42 KCAL/MOL
REMARK 924 INTRA-LIGAND FREE ENERGY PREDICTED BY IDOCK:   -0.17 KCAL/MOL
REMARK 927      BINDING AFFINITY PREDICTED BY RF-SCORE:    0.00 PKD
ROOT
HETATM    1  C   UNL     1     -10.418  10.505  66.837  1.00  0.00    -0.303 C  
HETATM    2  C   UNL     1      -8.980  10.985  66.636  1.00  0.00    -0.168 C  
ENDROOT
BRANCH   2   3
HETATM    3  N   UNL     1      -7.944  10.296  67.450  1.00  0.00    -0.107 NA 
HETATM    4  C   UNL     1      -7.403  11.222  68.456  1.00  0.00    -0.106 C  
BRANCH   3   5
HETATM    5  C   UNL     1      -8.526   9.069  68.112  1.00  0.00    -0.129 C  
HETATM    6  C   UNL     1      -8.119   7.783  67.358  1.00  0.00    -0.123 C  
BRANCH   5   7
HETATM    7  C   UNL     1      -8.309   8.793  69.661  1.00  0.00    -0.126 C  
HETATM    8  H   UNL     1      -6.799   8.501  70.941  1.00  0.00     0.000 HD 
HETATM    9  O   UNL     1      -6.928   8.666  70.015  1.00  0.00    -0.041 OA 
BRANCH   7  10
HETATM   10  C   UNL     1      -9.123   7.718  70.363  1.00  0.00    -0.155 A  
HETATM   11  C   UNL     1     -10.522   7.874  70.451  1.00  0.00    -0.218 A  
HETATM   12  C   UNL     1     -11.314   6.922  71.100  1.00  0.00    -0.332 A  
HETATM   13  C   UNL     1     -10.723   5.808  71.681  1.00  0.00    -0.314 A  
HETATM   14  C   UNL     1      -9.339   5.647  71.618  1.00  0.00    -0.164 A  
HETATM   15  C   UNL     1      -8.543   6.600  70.969  1.00  0.00    -0.137 A  
ENDBRANCH   7  10
ENDBRANCH   5   7
ENDBRANCH   3   5
ENDBRANCH   2   3
TORSDOF 4
ENDMDL
MODEL      275
REMARK 921   NORMALIZED FREE ENERGY PREDICTED BY IDOCK:   -1.74 KCAL/MOL
REMARK 922        TOTAL FREE ENERGY PREDICTED BY IDOCK:   -2.54 KCAL/MOL
REMARK 923 INTER-LIGAND FREE ENERGY PREDICTED BY IDOCK:   -2.23 KCAL/MOL
REMARK 924 INTRA-LIGAND FREE ENERGY PREDICTED BY IDOCK:   -0.32 KCAL/MOL
REMARK 927      BINDING AFFINITY PREDICTED BY RF-SCORE:    0.00 PKD
ROOT
HETATM    1  C   UNL     1      -8.504   9.495  69.777  1.00  0.00    -0.185 C  
HETATM    2  C   UNL     1      -7.396  10.387  69.218  1.00  0.00    -0.106 C  
ENDROOT
BRANCH   2   3
HETATM    3  N   UNL     1      -6.944  11.495  70.100  1.00  0.00     0.112 NA 
HETATM    4  C   UNL     1      -5.620  11.180  70.657  1.00  0.00    -0.131 C  
BRANCH   3   5
HETATM    5  C   UNL     1      -6.904  12.795  69.331  1.00  0.00     0.039 C  
HETATM    6  C   UNL     1      -5.454  13.306  69.175  1.00  0.00    -0.074 C  
BRANCH   5   7
HETATM    7  C   UNL     1      -7.603  12.931  67.912  1.00  0.00    -0.138 C  
HETATM    8  H   UNL     1      -7.286  13.842  66.159  1.00  0.00     0.000 HD 
HETATM    9  O   UNL     1      -6.868  13.761  67.007  1.00  0.00    -0.018 OA 
BRANCH   7  10
HETATM   10  C   UNL     1      -9.085  13.255  67.821  1.00  0.00    -0.202 A  
HETATM   11  C   UNL     1      -9.475  14.538  67.388  1.00  0.00    -0.202 A  
HETATM   12  C   UNL     1     -10.826  14.891  67.302  1.00  0.00    -0.306 A  
HETATM   13  C   UNL     1     -11.806  13.974  67.658  1.00  0.00    -0.430 A  
HETATM   14  C   UNL     1     -11.437  12.706  68.105  1.00  0.00    -0.359 A  
HETATM   15  C   UNL     1     -10.085  12.350  68.193  1.00  0.00    -0.224 A  
ENDBRANCH   7  10
ENDBRANCH   5   7
ENDBRANCH   3   5
ENDBRANCH   2   3
TORSDOF 4
ENDMDL
MODEL      276
REMARK 921   NORMALIZED FREE ENERGY PREDICTED BY IDOCK:   -1.71 KCAL/MOL
REMARK 922        TOTAL FREE ENERGY PREDICTED BY IDOCK:   -2.50 KCAL/MOL
REMARK 923 INTER-LIGAND FREE ENERGY PREDICTED BY IDOCK:   -2.08 KCAL/MOL
REMARK 924 INTRA-LIGAND FREE ENERGY PREDICTED BY IDOCK:   -0.42 KCAL/MOL
REMARK 927      BINDING AFFINITY PREDICTED BY RF-SCORE:    0.00 PKD
ROOT
HETATM    1  C   UNL     1      -8.302   3.986  73.608  1.00  0.00    -0.089 C  
HETATM    2  C   UNL     1      -7.431   4.665  72.551  1.00  0.00    -0.084 C  
ENDROOT
BRANCH   2   3
HETATM    3  N   UNL     1      -7.320   3.960  71.247  1.00  0.00    -0.039 NA 
HETATM    4  C   UNL     1      -7.863   2.599  71.368  1.00  0.00    -0.044 C  
BRANCH   3   5
HETATM    5  C   UNL     1      -8.046   4.731  70.170  1.00  0.00    -0.068 C  
HETATM    6  C   UNL     1      -8.202   3.883  68.887  1.00  0.00    -0.083 C  
BRANCH   5   7
HETATM    7  C   UNL     1      -9.452   5.412  70.455  1.00  0.00    -0.164 C  
HETATM    8  H   UNL     1     -11.368   5.191  69.920  1.00  0.00     0.000 HD 
HETATM    9  O   UNL     1     -10.528   4.783  69.749  1.00  0.00    -0.164 OA 
BRANCH   7  10
HETATM   10  C   UNL     1      -9.596   6.923  70.376  1.00  0.00    -0.171 A  
HETATM   11  C   UNL     1     -10.014   7.503  69.161  1.00  0.00    -0.179 A  
HETATM   12  C   UNL     1     -10.148   8.889  69.031  1.00  0.00    -0.205 A  
HETATM   13  C   UNL     1      -9.855   9.717  70.107  1.00  0.00    -0.306 A  
HETATM   14  C   UNL     1      -9.424   9.161  71.311  1.00  0.00    -0.313 A  
HETATM   15  C   UNL     1      -9.289   7.773  71.443  1.00  0.00    -0.165 A  
ENDBRANCH   7  10
ENDBRANCH   5   7
ENDBRANCH   3   5
ENDBRANCH   2   3
TORSDOF 4
ENDMDL
MODEL      277
REMARK 921   NORMALIZED FREE ENERGY PREDICTED BY IDOCK:   -1.67 KCAL/MOL
REMARK 922        TOTAL FREE ENERGY PREDICTED BY IDOCK:   -2.46 KCAL/MOL
REMARK 923 INTER-LIGAND FREE ENERGY PREDICTED BY IDOCK:   -2.09 KCAL/MOL
REMARK 924 INTRA-LIGAND FREE ENERGY PREDICTED BY IDOCK:   -0.36 KCAL/MOL
REMARK 927      BINDING AFFINITY PREDICTED BY RF-SCORE:    0.00 PKD
ROOT
HETATM    1  C   UNL     1      -8.454   7.269  66.597  1.00  0.00    -0.124 C  
HETATM    2  C   UNL     1      -9.293   8.309  67.340  1.00  0.00    -0.141 C  
ENDROOT
BRANCH   2   3
HETATM    3  N   UNL     1      -8.984   8.486  68.783  1.00  0.00    -0.139 NA 
HETATM    4  C   UNL     1     -10.217   8.796  69.522  1.00  0.00    -0.208 C  
BRANCH   3   5
HETATM    5  C   UNL     1      -8.329   7.243  69.336  1.00  0.00    -0.133 C  
HETATM    6  C   UNL     1      -6.823   7.475  69.594  1.00  0.00    -0.044 C  
BRANCH   5   7
HETATM    7  C   UNL     1      -8.915   6.506  70.615  1.00  0.00    -0.148 C  
HETATM    8  H   UNL     1      -8.553   6.383  72.580  1.00  0.00     0.000 HD 
HETATM    9  O   UNL     1      -8.202   6.824  71.815  1.00  0.00    -0.106 OA 
BRANCH   7  10
HETATM   10  C   UNL     1      -9.208   5.015  70.568  1.00  0.00    -0.195 A  
HETATM   11  C   UNL     1      -9.092   4.339  69.336  1.00  0.00    -0.179 A  
HETATM   12  C   UNL     1      -9.365   2.971  69.236  1.00  0.00    -0.217 A  
HETATM   13  C   UNL     1      -9.769   2.261  70.359  1.00  0.00    -0.023 A  
HETATM   14  C   UNL     1      -9.904   2.918  71.581  1.00  0.00    -0.209 A  
HETATM   15  C   UNL     1      -9.632   4.288  71.684  1.00  0.00    -0.228 A  
ENDBRANCH   7  10
ENDBRANCH   5   7
ENDBRANCH   3   5
ENDBRANCH   2   3
TORSDOF 4
ENDMDL
MODEL      278
REMARK 921   NORMALIZED FREE ENERGY PREDICTED BY IDOCK:   -1.62 KCAL/MOL
REMARK 922        TOTAL FREE ENERGY PREDICTED BY IDOCK:   -2.40 KCAL/MOL
REMARK 923 INTER-LIGAND FREE ENERGY PREDICTED BY IDOCK:   -2.73 KCAL/MOL
REMARK 924 INTRA-LIGAND FREE ENERGY PREDICTED BY IDOCK:    0.33 KCAL/MOL
REMARK 927      BINDING AFFINITY PREDICTED BY RF-SCORE:    0.00 PKD
ROOT
HETATM    1  C   UNL     1     -11.466   6.399  69.756  1.00  0.00    -0.468 C  
HETATM    2  C   UNL     1     -10.005   6.230  69.337  1.00  0.00    -0.159 C  
ENDROOT
BRANCH   2   3
HETATM    3  N   UNL     1      -9.713   6.431  67.893  1.00  0.00    -0.121 NA 
HETATM    4  C   UNL     1     -10.922   6.901  67.201  1.00  0.00    -0.357 C  
BRANCH   3   5
HETATM    5  C   UNL     1      -8.582   7.416  67.719  1.00  0.00    -0.120 C  
HETATM    6  C   UNL     1      -8.715   8.188  66.387  1.00  0.00    -0.168 C  
BRANCH   5   7
HETATM    7  C   UNL     1      -8.241   8.482  68.846  1.00  0.00    -0.117 C  
HETATM    8  H   UNL     1      -7.950   8.539  70.826  1.00  0.00     0.000 HD 
HETATM    9  O   UNL     1      -8.153   7.902  70.152  1.00  0.00    -0.111 OA 
BRANCH   7  10
HETATM   10  C   UNL     1      -9.010   9.792  68.913  1.00  0.00    -0.144 A  
HETATM   11  C   UNL     1     -10.243   9.821  69.597  1.00  0.00    -0.254 A  
HETATM   12  C   UNL     1     -10.997  10.996  69.675  1.00  0.00    -0.286 A  
HETATM   13  C   UNL     1     -10.538  12.156  69.062  1.00  0.00    -0.117 A  
HETATM   14  C   UNL     1      -9.329  12.139  68.368  1.00  0.00    -0.170 A  
HETATM   15  C   UNL     1      -8.573  10.963  68.288  1.00  0.00    -0.139 A  
ENDBRANCH   7  10
ENDBRANCH   5   7
ENDBRANCH   3   5
ENDBRANCH   2   3
TORSDOF 4
ENDMDL
MODEL      279
REMARK 921   NORMALIZED FREE ENERGY PREDICTED BY IDOCK:   -1.59 KCAL/MOL
REMARK 922        TOTAL FREE ENERGY PREDICTED BY IDOCK:   -2.36 KCAL/MOL
REMARK 923 INTER-LIGAND FREE ENERGY PREDICTED BY IDOCK:   -1.94 KCAL/MOL
REMARK 924 INTRA-LIGAND FREE ENERGY PREDICTED BY IDOCK:   -0.41 KCAL/MOL
REMARK 927      BINDING AFFINITY PREDICTED BY RF-SCORE:    0.00 PKD
ROOT
HETATM    1  C   UNL     1      -8.262   3.957  73.305  1.00  0.00    -0.088 C  
HETATM    2  C   UNL     1      -7.025   4.589  72.666  1.00  0.00    -0.062 C  
ENDROOT
BRANCH   2   3
HETATM    3  N   UNL     1      -6.300   3.748  71.677  1.00  0.00    -0.014 NA 
HETATM    4  C   UNL     1      -6.719   2.345  71.813  1.00  0.00    -0.019 C  
BRANCH   3   5
HETATM    5  C   UNL     1      -6.557   4.248  70.275  1.00  0.00    -0.032 C  
HETATM    6  C   UNL     1      -5.336   3.998  69.362  1.00  0.00    -0.011 C  
BRANCH   5   7
HETATM    7  C   UNL     1      -7.847   3.796  69.466  1.00  0.00    -0.051 C  
HETATM    8  H   UNL     1      -8.302   2.938  67.716  1.00  0.00     0.000 HD 
HETATM    9  O   UNL     1      -7.531   3.208  68.200  1.00  0.00    -0.053 OA 
BRANCH   7  10
HETATM   10  C   UNL     1      -9.023   4.746  69.316  1.00  0.00    -0.134 A  
HETATM   11  C   UNL     1      -9.888   4.936  70.413  1.00  0.00    -0.302 A  
HETATM   12  C   UNL     1     -10.993   5.788  70.322  1.00  0.00    -0.347 A  
HETATM   13  C   UNL     1     -11.259   6.453  69.131  1.00  0.00    -0.421 A  
HETATM   14  C   UNL     1     -10.423   6.263  68.032  1.00  0.00    -0.278 A  
HETATM   15  C   UNL     1      -9.316   5.410  68.121  1.00  0.00    -0.131 A  
ENDBRANCH   7  10
ENDBRANCH   5   7
ENDBRANCH   3   5
ENDBRANCH   2   3
TORSDOF 4
ENDMDL
MODEL      280
REMARK 921   NORMALIZED FREE ENERGY PREDICTED BY IDOCK:   -1.59 KCAL/MOL
REMARK 922        TOTAL FREE ENERGY PREDICTED BY IDOCK:   -2.36 KCAL/MOL
REMARK 923 INTER-LIGAND FREE ENERGY PREDICTED BY IDOCK:   -1.98 KCAL/MOL
REMARK 924 INTRA-LIGAND FREE ENERGY PREDICTED BY IDOCK:   -0.37 KCAL/MOL
REMARK 927      BINDING AFFINITY PREDICTED BY RF-SCORE:    0.00 PKD
ROOT
HETATM    1  C   UNL     1      -7.121   3.267  64.595  1.00  0.00    -0.057 C  
HETATM    2  C   UNL     1      -8.503   3.387  65.240  1.00  0.00    -0.100 C  
ENDROOT
BRANCH   2   3
HETATM    3  N   UNL     1      -9.257   4.631  64.939  1.00  0.00    -0.155 NA 
HETATM    4  C   UNL     1     -10.472   4.307  64.176  1.00  0.00     0.010 C  
BRANCH   3   5
HETATM    5  C   UNL     1      -9.608   5.354  66.218  1.00  0.00    -0.160 C  
HETATM    6  C   UNL     1     -10.139   4.372  67.286  1.00  0.00    -0.101 C  
BRANCH   5   7
HETATM    7  C   UNL     1      -8.559   6.305  66.937  1.00  0.00    -0.113 C  
HETATM    8  H   UNL     1      -7.119   6.184  68.323  1.00  0.00     0.000 HD 
HETATM    9  O   UNL     1      -7.746   5.615  67.893  1.00  0.00    -0.090 OA 
BRANCH   7  10
HETATM   10  C   UNL     1      -9.008   7.640  67.509  1.00  0.00    -0.128 A  
HETATM   11  C   UNL     1      -8.151   8.322  68.397  1.00  0.00    -0.127 A  
HETATM   12  C   UNL     1      -8.523   9.545  68.963  1.00  0.00    -0.128 A  
HETATM   13  C   UNL     1      -9.760  10.101  68.661  1.00  0.00    -0.167 A  
HETATM   14  C   UNL     1     -10.626   9.431  67.797  1.00  0.00    -0.317 A  
HETATM   15  C   UNL     1     -10.256   8.205  67.230  1.00  0.00    -0.348 A  
ENDBRANCH   7  10
ENDBRANCH   5   7
ENDBRANCH   3   5
ENDBRANCH   2   3
TORSDOF 4
ENDMDL
MODEL      281
REMARK 921   NORMALIZED FREE ENERGY PREDICTED BY IDOCK:   -1.58 KCAL/MOL
REMARK 922        TOTAL FREE ENERGY PREDICTED BY IDOCK:   -2.35 KCAL/MOL
REMARK 923 INTER-LIGAND FREE ENERGY PREDICTED BY IDOCK:   -1.93 KCAL/MOL
REMARK 924 INTRA-LIGAND FREE ENERGY PREDICTED BY IDOCK:   -0.41 KCAL/MOL
REMARK 927      BINDING AFFINITY PREDICTED BY RF-SCORE:    0.00 PKD
ROOT
HETATM    1  C   UNL     1      -9.014   5.677  71.341  1.00  0.00    -0.148 C  
HETATM    2  C   UNL     1      -8.847   5.406  69.846  1.00  0.00    -0.125 C  
ENDROOT
BRANCH   2   3
HETATM    3  N   UNL     1      -9.944   5.891  68.969  1.00  0.00    -0.154 NA 
HETATM    4  C   UNL     1     -11.055   6.393  69.791  1.00  0.00    -0.396 C  
BRANCH   3   5
HETATM    5  C   UNL     1      -9.437   6.970  68.041  1.00  0.00    -0.125 C  
HETATM    6  C   UNL     1     -10.557   7.975  67.689  1.00  0.00    -0.264 C  
BRANCH   5   7
HETATM    7  C   UNL     1      -8.143   7.819  68.401  1.00  0.00    -0.124 C  
HETATM    8  H   UNL     1      -7.589   9.245  69.690  1.00  0.00     0.000 HD 
HETATM    9  O   UNL     1      -8.362   8.738  69.476  1.00  0.00    -0.114 OA 
BRANCH   7  10
HETATM   10  C   UNL     1      -7.345   8.495  67.298  1.00  0.00    -0.088 A  
HETATM   11  C   UNL     1      -7.391   9.900  67.189  1.00  0.00    -0.091 A  
HETATM   12  C   UNL     1      -6.688  10.569  66.183  1.00  0.00    -0.127 A  
HETATM   13  C   UNL     1      -5.938   9.847  65.263  1.00  0.00    -0.084 A  
HETATM   14  C   UNL     1      -5.895   8.455  65.347  1.00  0.00    -0.044 A  
HETATM   15  C   UNL     1      -6.600   7.783  66.353  1.00  0.00    -0.050 A  
ENDBRANCH   7  10
ENDBRANCH   5   7
ENDBRANCH   3   5
ENDBRANCH   2   3
TORSDOF 4
ENDMDL
MODEL      282
REMARK 921   NORMALIZED FREE ENERGY PREDICTED BY IDOCK:   -1.53 KCAL/MOL
REMARK 922        TOTAL FREE ENERGY PREDICTED BY IDOCK:   -2.28 KCAL/MOL
REMARK 923 INTER-LIGAND FREE ENERGY PREDICTED BY IDOCK:   -2.19 KCAL/MOL
REMARK 924 INTRA-LIGAND FREE ENERGY PREDICTED BY IDOCK:   -0.09 KCAL/MOL
REMARK 927      BINDING AFFINITY PREDICTED BY RF-SCORE:    0.00 PKD
ROOT
HETATM    1  C   UNL     1      -7.700  19.998  69.540  1.00  0.00     0.229 C  
HETATM    2  C   UNL     1      -6.862  18.765  69.202  1.00  0.00    -0.272 C  
ENDROOT
BRANCH   2   3
HETATM    3  N   UNL     1      -6.518  18.584  67.767  1.00  0.00    -0.207 NA 
HETATM    4  C   UNL     1      -5.154  18.048  67.646  1.00  0.00    -0.134 C  
BRANCH   3   5
HETATM    5  C   UNL     1      -7.514  17.664  67.101  1.00  0.00    -0.193 C  
HETATM    6  C   UNL     1      -6.910  17.010  65.838  1.00  0.00     0.284 C  
BRANCH   5   7
HETATM    7  C   UNL     1      -8.245  16.516  67.918  1.00  0.00    -0.168 C  
HETATM    8  H   UNL     1      -7.780  15.047  69.195  1.00  0.00     0.000 HD 
HETATM    9  O   UNL     1      -7.343  15.734  68.707  1.00  0.00    -0.125 OA 
BRANCH   7  10
HETATM   10  C   UNL     1      -9.247  15.607  67.224  1.00  0.00    -0.214 A  
HETATM   11  C   UNL     1      -9.146  14.214  67.417  1.00  0.00    -0.199 A  
HETATM   12  C   UNL     1     -10.033  13.333  66.789  1.00  0.00    -0.263 A  
HETATM   13  C   UNL     1     -11.025  13.828  65.952  1.00  0.00    -0.283 A  
HETATM   14  C   UNL     1     -11.128  15.202  65.738  1.00  0.00    -0.330 A  
HETATM   15  C   UNL     1     -10.240  16.086  66.365  1.00  0.00    -0.315 A  
ENDBRANCH   7  10
ENDBRANCH   5   7
ENDBRANCH   3   5
ENDBRANCH   2   3
TORSDOF 4
ENDMDL
MODEL      283
REMARK 921   NORMALIZED FREE ENERGY PREDICTED BY IDOCK:   -1.41 KCAL/MOL
REMARK 922        TOTAL FREE ENERGY PREDICTED BY IDOCK:   -2.13 KCAL/MOL
REMARK 923 INTER-LIGAND FREE ENERGY PREDICTED BY IDOCK:   -1.73 KCAL/MOL
REMARK 924 INTRA-LIGAND FREE ENERGY PREDICTED BY IDOCK:   -0.39 KCAL/MOL
REMARK 927      BINDING AFFINITY PREDICTED BY RF-SCORE:    0.00 PKD
ROOT
HETATM    1  C   UNL     1      -9.110   5.901  71.090  1.00  0.00    -0.152 C  
HETATM    2  C   UNL     1      -8.055   5.102  70.325  1.00  0.00    -0.086 C  
ENDROOT
BRANCH   2   3
HETATM    3  N   UNL     1      -8.368   3.668  70.088  1.00  0.00    -0.058 NA 
HETATM    4  C   UNL     1      -9.565   3.286  70.852  1.00  0.00    -0.164 C  
BRANCH   3   5
HETATM    5  C   UNL     1      -8.571   3.412  68.614  1.00  0.00    -0.091 C  
HETATM    6  C   UNL     1      -9.531   2.223  68.382  1.00  0.00    -0.226 C  
BRANCH   5   7
HETATM    7  C   UNL     1      -9.024   4.576  67.633  1.00  0.00    -0.115 C  
HETATM    8  H   UNL     1     -10.643   5.696  67.272  1.00  0.00     0.000 HD 
HETATM    9  O   UNL     1     -10.372   5.000  67.859  1.00  0.00    -0.123 OA 
BRANCH   7  10
HETATM   10  C   UNL     1      -8.762   4.460  66.140  1.00  0.00    -0.113 A  
HETATM   11  C   UNL     1      -9.846   4.197  65.279  1.00  0.00    -0.212 A  
HETATM   12  C   UNL     1      -9.656   4.066  63.899  1.00  0.00    -0.157 A  
HETATM   13  C   UNL     1      -8.381   4.183  63.361  1.00  0.00    -0.096 A  
HETATM   14  C   UNL     1      -7.295   4.427  64.202  1.00  0.00    -0.059 A  
HETATM   15  C   UNL     1      -7.483   4.557  65.584  1.00  0.00    -0.081 A  
ENDBRANCH   7  10
ENDBRANCH   5   7
ENDBRANCH   3   5
ENDBRANCH   2   3
TORSDOF 4
ENDMDL
MODEL      284
REMARK 921   NORMALIZED FREE ENERGY PREDICTED BY IDOCK:   -1.34 KCAL/MOL
REMARK 922        TOTAL FREE ENERGY PREDICTED BY IDOCK:   -2.04 KCAL/MOL
REMARK 923 INTER-LIGAND FREE ENERGY PREDICTED BY IDOCK:   -1.68 KCAL/MOL
REMARK 924 INTRA-LIGAND FREE ENERGY PREDICTED BY IDOCK:   -0.36 KCAL/MOL
REMARK 927      BINDING AFFINITY PREDICTED BY RF-SCORE:    0.00 PKD
ROOT
HETATM    1  C   UNL     1      -9.665   8.294  69.856  1.00  0.00    -0.180 C  
HETATM    2  C   UNL     1      -8.976   7.573  68.697  1.00  0.00    -0.132 C  
ENDROOT
BRANCH   2   3
HETATM    3  N   UNL     1      -9.213   8.139  67.343  1.00  0.00    -0.136 NA 
HETATM    4  C   UNL     1      -8.556   9.450  67.230  1.00  0.00    -0.128 C  
BRANCH   3   5
HETATM    5  C   UNL     1      -8.703   7.193  66.282  1.00  0.00    -0.146 C  
HETATM    6  C   UNL     1      -8.193   7.966  65.045  1.00  0.00    -0.134 C  
BRANCH   5   7
HETATM    7  C   UNL     1      -7.617   6.086  66.623  1.00  0.00    -0.095 C  
HETATM    8  H   UNL     1      -5.702   5.678  66.209  1.00  0.00     0.000 HD 
HETATM    9  O   UNL     1      -6.351   6.340  66.005  1.00  0.00    -0.036 OA 
BRANCH   7  10
HETATM   10  C   UNL     1      -7.967   4.612  66.496  1.00  0.00    -0.103 A  
HETATM   11  C   UNL     1      -7.472   3.889  65.392  1.00  0.00    -0.081 A  
HETATM   12  C   UNL     1      -7.777   2.535  65.220  1.00  0.00    -0.077 A  
HETATM   13  C   UNL     1      -8.590   1.886  66.141  1.00  0.00    -0.112 A  
HETATM   14  C   UNL     1      -9.101   2.591  67.230  1.00  0.00    -0.187 A  
HETATM   15  C   UNL     1      -8.797   3.947  67.403  1.00  0.00    -0.137 A  
ENDBRANCH   7  10
ENDBRANCH   5   7
ENDBRANCH   3   5
ENDBRANCH   2   3
TORSDOF 4
ENDMDL
MODEL      285
REMARK 921   NORMALIZED FREE ENERGY PREDICTED BY IDOCK:   -1.25 KCAL/MOL
REMARK 922        TOTAL FREE ENERGY PREDICTED BY IDOCK:   -1.93 KCAL/MOL
REMARK 923 INTER-LIGAND FREE ENERGY PREDICTED BY IDOCK:   -2.05 KCAL/MOL
REMARK 924 INTRA-LIGAND FREE ENERGY PREDICTED BY IDOCK:    0.11 KCAL/MOL
REMARK 927      BINDING AFFINITY PREDICTED BY RF-SCORE:    0.00 PKD
ROOT
HETATM    1  C   UNL     1      -7.608  19.730  69.356  1.00  0.00    -0.078 C  
HETATM    2  C   UNL     1      -6.786  18.633  68.679  1.00  0.00    -0.275 C  
ENDROOT
BRANCH   2   3
HETATM    3  N   UNL     1      -7.296  18.151  67.368  1.00  0.00    -0.209 NA 
HETATM    4  C   UNL     1      -6.262  18.322  66.337  1.00  0.00    -0.187 C  
BRANCH   3   5
HETATM    5  C   UNL     1      -7.715  16.704  67.468  1.00  0.00    -0.165 C  
HETATM    6  C   UNL     1      -8.148  16.153  66.091  1.00  0.00    -0.047 C  
BRANCH   5   7
HETATM    7  C   UNL     1      -6.764  15.617  68.129  1.00  0.00    -0.125 C  
HETATM    8  H   UNL     1      -4.820  15.143  68.167  1.00  0.00     0.000 HD 
HETATM    9  O   UNL     1      -5.388  15.793  67.772  1.00  0.00    -0.123 OA 
BRANCH   7  10
HETATM   10  C   UNL     1      -7.130  14.144  68.064  1.00  0.00    -0.148 A  
HETATM   11  C   UNL     1      -6.159  13.221  67.624  1.00  0.00    -0.140 A  
HETATM   12  C   UNL     1      -6.450  11.856  67.531  1.00  0.00    -0.111 A  
HETATM   13  C   UNL     1      -7.717  11.394  67.865  1.00  0.00    -0.114 A  
HETATM   14  C   UNL     1      -8.694  12.295  68.287  1.00  0.00    -0.178 A  
HETATM   15  C   UNL     1      -8.404  13.663  68.379  1.00  0.00    -0.147 A  
ENDBRANCH   7  10
ENDBRANCH   5   7
ENDBRANCH   3   5
ENDBRANCH   2   3
TORSDOF 4
ENDMDL
MODEL      286
REMARK 921   NORMALIZED FREE ENERGY PREDICTED BY IDOCK:   -0.22 KCAL/MOL
REMARK 922        TOTAL FREE ENERGY PREDICTED BY IDOCK:   -0.66 KCAL/MOL
REMARK 923 INTER-LIGAND FREE ENERGY PREDICTED BY IDOCK:   -0.95 KCAL/MOL
REMARK 924 INTRA-LIGAND FREE ENERGY PREDICTED BY IDOCK:    0.28 KCAL/MOL
REMARK 927      BINDING AFFINITY PREDICTED BY RF-SCORE:    0.00 PKD
ROOT
HETATM    1  C   UNL     1      -8.441   5.068  63.802  1.00  0.00    -0.128 C  
HETATM    2  C   UNL     1      -7.470   5.270  64.965  1.00  0.00    -0.073 C  
ENDROOT
BRANCH   2   3
HETATM    3  N   UNL     1      -6.626   6.493  64.906  1.00  0.00    -0.041 NA 
HETATM    4  C   UNL     1      -6.510   6.952  63.514  1.00  0.00    -0.043 C  
BRANCH   3   5
HETATM    5  C   UNL     1      -7.212   7.578  65.778  1.00  0.00    -0.066 C  
HETATM    6  C   UNL     1      -8.741   7.408  65.928  1.00  0.00    -0.161 C  
BRANCH   5   7
HETATM    7  C   UNL     1      -6.630   7.869  67.227  1.00  0.00    -0.060 C  
HETATM    8  H   UNL     1      -5.906   6.853  68.791  1.00  0.00     0.000 HD 
HETATM    9  O   UNL     1      -6.254   6.678  67.926  1.00  0.00    -0.032 OA 
BRANCH   7  10
HETATM   10  C   UNL     1      -7.365   8.810  68.168  1.00  0.00    -0.087 A  
HETATM   11  C   UNL     1      -7.375   8.520  69.547  1.00  0.00    -0.065 A  
HETATM   12  C   UNL     1      -8.050   9.344  70.453  1.00  0.00    -0.197 A  
HETATM   13  C   UNL     1      -8.733  10.464  69.995  1.00  0.00     0.267 A  
HETATM   14  C   UNL     1      -8.746  10.756  68.632  1.00  0.00    -0.152 A  
HETATM   15  C   UNL     1      -8.072   9.931  67.723  1.00  0.00    -0.109 A  
ENDBRANCH   7  10
ENDBRANCH   5   7
ENDBRANCH   3   5
ENDBRANCH   2   3
TORSDOF 4
ENDMDL
MODEL      287
REMARK 921   NORMALIZED FREE ENERGY PREDICTED BY IDOCK:    0.22 KCAL/MOL
REMARK 922        TOTAL FREE ENERGY PREDICTED BY IDOCK:   -0.12 KCAL/MOL
REMARK 923 INTER-LIGAND FREE ENERGY PREDICTED BY IDOCK:   -1.89 KCAL/MOL
REMARK 924 INTRA-LIGAND FREE ENERGY PREDICTED BY IDOCK:    1.77 KCAL/MOL
REMARK 927      BINDING AFFINITY PREDICTED BY RF-SCORE:    0.00 PKD
ROOT
HETATM    1  C   UNL     1      -8.460   5.094  63.723  1.00  0.00    -0.113 C  
HETATM    2  C   UNL     1      -7.610   5.084  64.994  1.00  0.00    -0.078 C  
ENDROOT
BRANCH   2   3
HETATM    3  N   UNL     1      -6.895   6.348  65.310  1.00  0.00    -0.047 NA 
HETATM    4  C   UNL     1      -5.469   6.210  64.978  1.00  0.00    -0.017 C  
BRANCH   3   5
HETATM    5  C   UNL     1      -7.509   7.502  64.555  1.00  0.00    -0.098 C  
HETATM    6  C   UNL     1      -7.806   7.114  63.088  1.00  0.00    -0.118 C  
BRANCH   5   7
HETATM    7  C   UNL     1      -8.794   8.254  65.109  1.00  0.00     0.020 C  
HETATM    8  H   UNL     1      -9.473  10.126  65.307  1.00  0.00     0.000 HD 
HETATM    9  O   UNL     1      -8.706   9.677  64.975  1.00  0.00    -0.152 OA 
BRANCH   7  10
HETATM   10  C   UNL     1      -9.354   7.898  66.476  1.00  0.00    -0.255 A  
HETATM   11  C   UNL     1     -10.271   6.832  66.577  1.00  0.00    -0.125 A  
HETATM   12  C   UNL     1     -10.828   6.474  67.809  1.00  0.00    -0.395 A  
HETATM   13  C   UNL     1     -10.487   7.181  68.956  1.00  0.00    -0.221 A  
HETATM   14  C   UNL     1      -9.593   8.248  68.870  1.00  0.00    -0.153 A  
HETATM   15  C   UNL     1      -9.035   8.609  67.637  1.00  0.00    -0.141 A  
ENDBRANCH   7  10
ENDBRANCH   5   7
ENDBRANCH   3   5
ENDBRANCH   2   3
TORSDOF 4
ENDMDL
MODEL      288
REMARK 921   NORMALIZED FREE ENERGY PREDICTED BY IDOCK:    3.52 KCAL/MOL
REMARK 922        TOTAL FREE ENERGY PREDICTED BY IDOCK:    3.94 KCAL/MOL
REMARK 923 INTER-LIGAND FREE ENERGY PREDICTED BY IDOCK:    2.25 KCAL/MOL
REMARK 924 INTRA-LIGAND FREE ENERGY PREDICTED BY IDOCK:    1.70 KCAL/MOL
REMARK 927      BINDING AFFINITY PREDICTED BY RF-SCORE:    0.00 PKD
ROOT
HETATM    1  C   UNL     1     -10.422  16.854  71.300  1.00  0.00     2.132 C  
HETATM    2  C   UNL     1     -11.515  15.802  71.488  1.00  0.00    -0.429 C  
ENDROOT
BRANCH   2   3
HETATM    3  N   UNL     1     -11.424  14.604  70.612  1.00  0.00    -0.244 NA 
HETATM    4  C   UNL     1     -12.768  14.060  70.371  1.00  0.00    -0.253 C  
BRANCH   3   5
HETATM    5  C   UNL     1     -10.749  14.957  69.308  1.00  0.00    -0.249 C  
HETATM    6  C   UNL     1      -9.268  14.514  69.309  1.00  0.00     0.102 C  
BRANCH   5   7
HETATM    7  C   UNL     1     -11.370  14.512  67.916  1.00  0.00    -0.310 C  
HETATM    8  H   UNL     1     -13.051  13.682  67.214  1.00  0.00     0.000 HD 
HETATM    9  O   UNL     1     -12.680  13.948  68.047  1.00  0.00     0.334 OA 
BRANCH   7  10
HETATM   10  C   UNL     1     -10.546  13.683  66.944  1.00  0.00    -0.271 A  
HETATM   11  C   UNL     1     -10.953  12.363  66.663  1.00  0.00    -0.309 A  
HETATM   12  C   UNL     1     -10.221  11.554  65.788  1.00  0.00    -0.293 A  
HETATM   13  C   UNL     1      -9.066  12.045  65.191  1.00  0.00     0.329 A  
HETATM   14  C   UNL     1      -8.642  13.343  65.472  1.00  0.00     1.962 A  
HETATM   15  C   UNL     1      -9.373  14.155  66.348  1.00  0.00    -0.254 A  
ENDBRANCH   7  10
ENDBRANCH   5   7
ENDBRANCH   3   5
ENDBRANCH   2   3
TORSDOF 4
ENDMDL
MODEL      289
REMARK 921   NORMALIZED FREE ENERGY PREDICTED BY IDOCK:   14.53 KCAL/MOL
REMARK 922        TOTAL FREE ENERGY PREDICTED BY IDOCK:   17.54 KCAL/MOL
REMARK 923 INTER-LIGAND FREE ENERGY PREDICTED BY IDOCK:   14.75 KCAL/MOL
REMARK 924 INTRA-LIGAND FREE ENERGY PREDICTED BY IDOCK:    2.79 KCAL/MOL
REMARK 927      BINDING AFFINITY PREDICTED BY RF-SCORE:    0.00 PKD
ROOT
HETATM    1  C   UNL     1     -10.870  19.609  72.758  1.00  0.00     5.135 C  
HETATM    2  C   UNL     1     -11.426  18.250  73.180  1.00  0.00     2.454 C  
ENDROOT
BRANCH   2   3
HETATM    3  N   UNL     1     -11.345  17.167  72.164  1.00  0.00     0.641 NA 
HETATM    4  C   UNL     1     -12.184  16.032  72.577  1.00  0.00    -0.519 C  
BRANCH   3   5
HETATM    5  C   UNL     1     -11.775  17.684  70.812  1.00  0.00     3.898 C  
HETATM    6  C   UNL     1     -11.276  19.128  70.582  1.00  0.00     4.657 C  
BRANCH   5   7
HETATM    7  C   UNL     1     -11.469  16.865  69.486  1.00  0.00     0.571 C  
HETATM    8  H   UNL     1     -11.007  14.995  68.944  1.00  0.00     0.000 HD 
HETATM    9  O   UNL     1     -11.191  15.483  69.737  1.00  0.00    -0.255 OA 
BRANCH   7  10
HETATM   10  C   UNL     1     -10.485  17.412  68.464  1.00  0.00    -0.370 A  
HETATM   11  C   UNL     1     -10.682  18.714  67.961  1.00  0.00    -0.273 A  
HETATM   12  C   UNL     1      -9.816  19.258  67.008  1.00  0.00    -0.424 A  
HETATM   13  C   UNL     1      -8.747  18.508  66.534  1.00  0.00    -0.296 A  
HETATM   14  C   UNL     1      -8.548  17.212  67.009  1.00  0.00    -0.239 A  
HETATM   15  C   UNL     1      -9.416  16.665  67.963  1.00  0.00    -0.224 A  
ENDBRANCH   7  10
ENDBRANCH   5   7
ENDBRANCH   3   5
ENDBRANCH   2   3
TORSDOF 4
ENDMDL
