MODEL        1
REMARK 921   NORMALIZED FREE ENERGY PREDICTED BY IDOCK:   -4.64 KCAL/MOL
REMARK 922        TOTAL FREE ENERGY PREDICTED BY IDOCK:   -7.49 KCAL/MOL
REMARK 923 INTER-LIGAND FREE ENERGY PREDICTED BY IDOCK:   -7.08 KCAL/MOL
REMARK 924 INTRA-LIGAND FREE ENERGY PREDICTED BY IDOCK:   -0.41 KCAL/MOL
REMARK 927      BINDING AFFINITY PREDICTED BY RF-SCORE:    0.00 PKD
ROOT
HETATM    1  C   UNL     1     -12.713  16.040  73.701  1.00  0.00    -0.715 C  
HETATM    2  C   UNL     1     -12.320  16.073  72.231  1.00  0.00    -0.570 C  
ENDROOT
BRANCH   2   3
HETATM    3  CA  UNL     1     -12.914  14.918  71.390  1.00  0.00    -0.354 C  
BRANCH   3   4
HETATM    4  C   UNL     1     -14.322  14.477  71.874  1.00  0.00    -0.565 C  
HETATM    5  H   UNL     1     -15.196  12.949  72.839  1.00  0.00     0.000 HD 
HETATM    6  O   UNL     1     -14.334  13.219  72.543  1.00  0.00    -0.662 OA 
ENDBRANCH   3   4
BRANCH   3   7
HETATM    7  N   UNL     1     -12.877  15.381  69.988  1.00  0.00    -0.642 NA 
HETATM    8  H   UNL     1     -13.559  16.124  69.835  1.00  0.00     0.000 HD 
BRANCH   7   9
HETATM    9  C   UNL     1     -11.541  15.802  69.543  1.00  0.00    -0.363 C  
BRANCH   9  10
HETATM   10  C   UNL     1     -11.293  15.361  68.084  1.00  0.00    -0.348 C  
BRANCH  10  11
HETATM   11  N   UNL     1     -12.271  14.343  67.663  1.00  0.00    -0.623 NA 
HETATM   12  H   UNL     1     -13.003  14.756  67.085  1.00  0.00     0.000 HD 
BRANCH  11  13
HETATM   13  CA  UNL     1     -11.639  13.187  66.977  1.00  0.00    -0.359 C  
BRANCH  13  14
HETATM   14  C   UNL     1     -12.195  13.090  65.538  1.00  0.00    -0.469 C  
HETATM   15  H   UNL     1     -13.558  14.004  64.440  1.00  0.00     0.000 HD 
HETATM   16  O   UNL     1     -13.217  14.064  65.325  1.00  0.00    -0.782 OA 
ENDBRANCH  13  14
BRANCH  13  17
HETATM   17  C   UNL     1     -11.804  11.841  67.711  1.00  0.00    -0.266 C  
HETATM   18  C   UNL     1     -11.514  11.883  69.205  1.00  0.00    -0.366 C  
ENDBRANCH  13  17
ENDBRANCH  11  13
ENDBRANCH  10  11
ENDBRANCH   9  10
ENDBRANCH   7   9
ENDBRANCH   3   7
ENDBRANCH   2   3
TORSDOF 9
ENDMDL
MODEL        2
REMARK 921   NORMALIZED FREE ENERGY PREDICTED BY IDOCK:   -4.51 KCAL/MOL
REMARK 922        TOTAL FREE ENERGY PREDICTED BY IDOCK:   -7.29 KCAL/MOL
REMARK 923 INTER-LIGAND FREE ENERGY PREDICTED BY IDOCK:   -6.98 KCAL/MOL
REMARK 924 INTRA-LIGAND FREE ENERGY PREDICTED BY IDOCK:   -0.31 KCAL/MOL
REMARK 927      BINDING AFFINITY PREDICTED BY RF-SCORE:    0.00 PKD
ROOT
HETATM    1  C   UNL     1     -12.461  15.965  73.830  1.00  0.00    -0.744 C  
HETATM    2  C   UNL     1     -12.017  16.040  72.376  1.00  0.00    -0.644 C  
ENDROOT
BRANCH   2   3
HETATM    3  CA  UNL     1     -12.692  14.999  71.453  1.00  0.00    -0.341 C  
BRANCH   3   4
HETATM    4  C   UNL     1     -13.880  14.265  72.133  1.00  0.00    -0.494 C  
HETATM    5  H   UNL     1     -14.351  12.442  72.831  1.00  0.00     0.000 HD 
HETATM    6  O   UNL     1     -13.624  12.892  72.415  1.00  0.00    -0.579 OA 
ENDBRANCH   3   4
BRANCH   3   7
HETATM    7  N   UNL     1     -13.062  15.731  70.223  1.00  0.00    -0.705 NA 
HETATM    8  H   UNL     1     -13.410  16.662  70.448  1.00  0.00     0.000 HD 
BRANCH   7   9
HETATM    9  C   UNL     1     -11.974  15.807  69.237  1.00  0.00    -0.289 C  
BRANCH   9  10
HETATM   10  C   UNL     1     -11.754  14.432  68.568  1.00  0.00    -0.335 C  
BRANCH  10  11
HETATM   11  N   UNL     1     -12.536  14.316  67.325  1.00  0.00    -0.536 NA 
HETATM   12  H   UNL     1     -13.200  15.085  67.237  1.00  0.00     0.000 HD 
BRANCH  11  13
HETATM   13  CA  UNL     1     -11.680  14.212  66.115  1.00  0.00    -0.393 C  
BRANCH  13  14
HETATM   14  C   UNL     1     -11.844  12.801  65.503  1.00  0.00    -0.422 C  
HETATM   15  H   UNL     1     -13.200  11.816  64.460  1.00  0.00     0.000 HD 
HETATM   16  O   UNL     1     -13.100  12.683  64.837  1.00  0.00    -0.850 OA 
ENDBRANCH  13  14
BRANCH  13  17
HETATM   17  C   UNL     1     -10.190  14.525  66.358  1.00  0.00    -0.293 C  
HETATM   18  C   UNL     1      -9.720  15.869  65.819  1.00  0.00    -0.360 C  
ENDBRANCH  13  17
ENDBRANCH  11  13
ENDBRANCH  10  11
ENDBRANCH   9  10
ENDBRANCH   7   9
ENDBRANCH   3   7
ENDBRANCH   2   3
TORSDOF 9
ENDMDL
MODEL        3
REMARK 921   NORMALIZED FREE ENERGY PREDICTED BY IDOCK:   -4.49 KCAL/MOL
REMARK 922        TOTAL FREE ENERGY PREDICTED BY IDOCK:   -7.26 KCAL/MOL
REMARK 923 INTER-LIGAND FREE ENERGY PREDICTED BY IDOCK:   -6.99 KCAL/MOL
REMARK 924 INTRA-LIGAND FREE ENERGY PREDICTED BY IDOCK:   -0.27 KCAL/MOL
REMARK 927      BINDING AFFINITY PREDICTED BY RF-SCORE:    0.00 PKD
ROOT
HETATM    1  C   UNL     1     -12.180  15.694  73.246  1.00  0.00    -0.616 C  
HETATM    2  C   UNL     1     -12.113  15.691  71.725  1.00  0.00    -0.507 C  
ENDROOT
BRANCH   2   3
HETATM    3  CA  UNL     1     -12.280  14.292  71.087  1.00  0.00    -0.356 C  
BRANCH   3   4
HETATM    4  C   UNL     1     -13.313  13.403  71.832  1.00  0.00    -0.451 C  
HETATM    5  H   UNL     1     -13.763  11.463  72.077  1.00  0.00     0.000 HD 
HETATM    6  O   UNL     1     -13.132  12.006  71.621  1.00  0.00    -0.427 OA 
ENDBRANCH   3   4
BRANCH   3   7
HETATM    7  N   UNL     1     -12.609  14.533  69.667  1.00  0.00    -0.565 NA 
HETATM    8  H   UNL     1     -12.665  15.533  69.474  1.00  0.00     0.000 HD 
BRANCH   7   9
HETATM    9  C   UNL     1     -11.686  13.875  68.731  1.00  0.00    -0.357 C  
BRANCH   9  10
HETATM   10  C   UNL     1     -11.777  14.526  67.333  1.00  0.00    -0.400 C  
BRANCH  10  11
HETATM   11  N   UNL     1     -10.679  14.072  66.463  1.00  0.00    -0.280 NA 
HETATM   12  H   UNL     1     -10.580  13.057  66.500  1.00  0.00     0.000 HD 
BRANCH  11  13
HETATM   13  CA  UNL     1     -10.824  14.542  65.062  1.00  0.00    -0.412 C  
BRANCH  13  14
HETATM   14  C   UNL     1     -10.743  16.085  65.037  1.00  0.00    -0.378 C  
HETATM   15  H   UNL     1     -11.483  17.564  63.958  1.00  0.00     0.000 HD 
HETATM   16  O   UNL     1     -11.533  16.615  63.973  1.00  0.00    -1.192 OA 
ENDBRANCH  13  14
BRANCH  13  17
HETATM   17  C   UNL     1     -12.106  14.057  64.354  1.00  0.00    -0.486 C  
HETATM   18  C   UNL     1     -12.056  12.623  63.845  1.00  0.00    -0.567 C  
ENDBRANCH  13  17
ENDBRANCH  11  13
ENDBRANCH  10  11
ENDBRANCH   9  10
ENDBRANCH   7   9
ENDBRANCH   3   7
ENDBRANCH   2   3
TORSDOF 9
ENDMDL
MODEL        4
REMARK 921   NORMALIZED FREE ENERGY PREDICTED BY IDOCK:   -4.46 KCAL/MOL
REMARK 922        TOTAL FREE ENERGY PREDICTED BY IDOCK:   -7.22 KCAL/MOL
REMARK 923 INTER-LIGAND FREE ENERGY PREDICTED BY IDOCK:   -6.95 KCAL/MOL
REMARK 924 INTRA-LIGAND FREE ENERGY PREDICTED BY IDOCK:   -0.27 KCAL/MOL
REMARK 927      BINDING AFFINITY PREDICTED BY RF-SCORE:    0.00 PKD
ROOT
HETATM    1  C   UNL     1     -13.455  12.905  72.146  1.00  0.00    -0.619 C  
HETATM    2  C   UNL     1     -14.266  14.192  72.184  1.00  0.00    -0.638 C  
ENDROOT
BRANCH   2   3
HETATM    3  CA  UNL     1     -13.564  15.403  71.528  1.00  0.00    -0.512 C  
BRANCH   3   4
HETATM    4  C   UNL     1     -12.505  16.065  72.452  1.00  0.00    -0.469 C  
HETATM    5  H   UNL     1     -12.354  16.823  74.305  1.00  0.00     0.000 HD 
HETATM    6  O   UNL     1     -13.002  16.419  73.739  1.00  0.00    -0.635 OA 
ENDBRANCH   3   4
BRANCH   3   7
HETATM    7  N   UNL     1     -13.019  14.908  70.247  1.00  0.00    -0.604 NA 
HETATM    8  H   UNL     1     -13.763  14.796  69.558  1.00  0.00     0.000 HD 
BRANCH   7   9
HETATM    9  C   UNL     1     -11.935  15.742  69.710  1.00  0.00    -0.322 C  
BRANCH   9  10
HETATM   10  C   UNL     1     -11.209  15.010  68.559  1.00  0.00    -0.287 C  
BRANCH  10  11
HETATM   11  N   UNL     1     -12.172  14.362  67.652  1.00  0.00    -0.623 NA 
HETATM   12  H   UNL     1     -13.034  14.904  67.587  1.00  0.00     0.000 HD 
BRANCH  11  13
HETATM   13  CA  UNL     1     -11.606  14.100  66.304  1.00  0.00    -0.370 C  
BRANCH  13  14
HETATM   14  C   UNL     1     -12.760  14.022  65.279  1.00  0.00    -0.439 C  
HETATM   15  H   UNL     1     -13.239  14.866  63.560  1.00  0.00     0.000 HD 
HETATM   16  O   UNL     1     -12.529  14.914  64.190  1.00  0.00    -0.763 OA 
ENDBRANCH  13  14
BRANCH  13  17
HETATM   17  C   UNL     1     -10.721  12.840  66.217  1.00  0.00    -0.291 C  
HETATM   18  C   UNL     1     -11.236  11.637  66.996  1.00  0.00    -0.376 C  
ENDBRANCH  13  17
ENDBRANCH  11  13
ENDBRANCH  10  11
ENDBRANCH   9  10
ENDBRANCH   7   9
ENDBRANCH   3   7
ENDBRANCH   2   3
TORSDOF 9
ENDMDL
MODEL        5
REMARK 921   NORMALIZED FREE ENERGY PREDICTED BY IDOCK:   -4.41 KCAL/MOL
REMARK 922        TOTAL FREE ENERGY PREDICTED BY IDOCK:   -7.13 KCAL/MOL
REMARK 923 INTER-LIGAND FREE ENERGY PREDICTED BY IDOCK:   -6.75 KCAL/MOL
REMARK 924 INTRA-LIGAND FREE ENERGY PREDICTED BY IDOCK:   -0.39 KCAL/MOL
REMARK 927      BINDING AFFINITY PREDICTED BY RF-SCORE:    0.00 PKD
ROOT
HETATM    1  C   UNL     1     -13.314  12.860  71.961  1.00  0.00    -0.579 C  
HETATM    2  C   UNL     1     -14.158  14.090  72.265  1.00  0.00    -0.633 C  
ENDROOT
BRANCH   2   3
HETATM    3  CA  UNL     1     -13.490  15.429  71.875  1.00  0.00    -0.475 C  
BRANCH   3   4
HETATM    4  C   UNL     1     -12.237  15.755  72.733  1.00  0.00    -0.473 C  
HETATM    5  H   UNL     1     -11.720  15.977  74.660  1.00  0.00     0.000 HD 
HETATM    6  O   UNL     1     -12.487  15.778  74.136  1.00  0.00    -0.554 OA 
ENDBRANCH   3   4
BRANCH   3   7
HETATM    7  N   UNL     1     -13.220  15.338  70.426  1.00  0.00    -0.693 NA 
HETATM    8  H   UNL     1     -13.848  15.947  69.902  1.00  0.00     0.000 HD 
BRANCH   7   9
HETATM    9  C   UNL     1     -11.819  15.609  70.072  1.00  0.00    -0.367 C  
BRANCH   9  10
HETATM   10  C   UNL     1     -11.334  14.622  68.988  1.00  0.00    -0.277 C  
BRANCH  10  11
HETATM   11  N   UNL     1     -12.343  14.462  67.926  1.00  0.00    -0.599 NA 
HETATM   12  H   UNL     1     -12.924  15.297  67.845  1.00  0.00     0.000 HD 
BRANCH  11  13
HETATM   13  CA  UNL     1     -11.746  14.101  66.615  1.00  0.00    -0.403 C  
BRANCH  13  14
HETATM   14  C   UNL     1     -10.884  15.282  66.111  1.00  0.00    -0.320 C  
HETATM   15  H   UNL     1      -9.007  15.591  65.585  1.00  0.00     0.000 HD 
HETATM   16  O   UNL     1      -9.536  14.866  65.894  1.00  0.00    -0.314 OA 
ENDBRANCH  13  14
BRANCH  13  17
HETATM   17  C   UNL     1     -12.770  13.684  65.539  1.00  0.00    -0.514 C  
HETATM   18  C   UNL     1     -12.324  12.543  64.635  1.00  0.00    -0.547 C  
ENDBRANCH  13  17
ENDBRANCH  11  13
ENDBRANCH  10  11
ENDBRANCH   9  10
ENDBRANCH   7   9
ENDBRANCH   3   7
ENDBRANCH   2   3
TORSDOF 9
ENDMDL
MODEL        6
REMARK 921   NORMALIZED FREE ENERGY PREDICTED BY IDOCK:   -4.39 KCAL/MOL
REMARK 922        TOTAL FREE ENERGY PREDICTED BY IDOCK:   -7.10 KCAL/MOL
REMARK 923 INTER-LIGAND FREE ENERGY PREDICTED BY IDOCK:   -6.73 KCAL/MOL
REMARK 924 INTRA-LIGAND FREE ENERGY PREDICTED BY IDOCK:   -0.37 KCAL/MOL
REMARK 927      BINDING AFFINITY PREDICTED BY RF-SCORE:    0.00 PKD
ROOT
HETATM    1  C   UNL     1     -13.720  13.333  72.216  1.00  0.00    -0.686 C  
HETATM    2  C   UNL     1     -13.912  14.760  71.721  1.00  0.00    -0.568 C  
ENDROOT
BRANCH   2   3
HETATM    3  CA  UNL     1     -12.608  15.589  71.658  1.00  0.00    -0.419 C  
BRANCH   3   4
HETATM    4  C   UNL     1     -12.172  16.143  73.042  1.00  0.00    -0.541 C  
HETATM    5  H   UNL     1     -12.993  16.784  74.758  1.00  0.00     0.000 HD 
HETATM    6  O   UNL     1     -13.259  16.445  73.911  1.00  0.00    -0.662 OA 
ENDBRANCH   3   4
BRANCH   3   7
HETATM    7  N   UNL     1     -11.605  14.713  71.017  1.00  0.00    -0.475 NA 
HETATM    8  H   UNL     1     -12.047  13.881  70.628  1.00  0.00     0.000 HD 
BRANCH   7   9
HETATM    9  C   UNL     1     -10.795  15.397  69.998  1.00  0.00    -0.305 C  
BRANCH   9  10
HETATM   10  C   UNL     1     -11.659  15.745  68.766  1.00  0.00    -0.395 C  
BRANCH  10  11
HETATM   11  N   UNL     1     -12.115  14.526  68.075  1.00  0.00    -0.574 NA 
HETATM   12  H   UNL     1     -13.131  14.440  68.120  1.00  0.00     0.000 HD 
BRANCH  11  13
HETATM   13  CA  UNL     1     -11.635  14.447  66.672  1.00  0.00    -0.384 C  
BRANCH  13  14
HETATM   14  C   UNL     1     -12.285  13.223  65.986  1.00  0.00    -0.424 C  
HETATM   15  H   UNL     1     -13.390  12.869  64.389  1.00  0.00     0.000 HD 
HETATM   16  O   UNL     1     -12.991  13.620  64.811  1.00  0.00    -0.685 OA 
ENDBRANCH  13  14
BRANCH  13  17
HETATM   17  C   UNL     1     -10.101  14.396  66.524  1.00  0.00    -0.281 C  
HETATM   18  C   UNL     1      -9.489  15.567  65.766  1.00  0.00    -0.334 C  
ENDBRANCH  13  17
ENDBRANCH  11  13
ENDBRANCH  10  11
ENDBRANCH   9  10
ENDBRANCH   7   9
ENDBRANCH   3   7
ENDBRANCH   2   3
TORSDOF 9
ENDMDL
MODEL        7
REMARK 921   NORMALIZED FREE ENERGY PREDICTED BY IDOCK:   -4.38 KCAL/MOL
REMARK 922        TOTAL FREE ENERGY PREDICTED BY IDOCK:   -7.09 KCAL/MOL
REMARK 923 INTER-LIGAND FREE ENERGY PREDICTED BY IDOCK:   -6.81 KCAL/MOL
REMARK 924 INTRA-LIGAND FREE ENERGY PREDICTED BY IDOCK:   -0.28 KCAL/MOL
REMARK 927      BINDING AFFINITY PREDICTED BY RF-SCORE:    0.00 PKD
ROOT
HETATM    1  C   UNL     1      -9.681  20.558  66.974  1.00  0.00    -0.548 C  
HETATM    2  C   UNL     1      -9.774  19.538  68.100  1.00  0.00    -0.483 C  
ENDROOT
BRANCH   2   3
HETATM    3  CA  UNL     1     -10.517  18.237  67.716  1.00  0.00    -0.410 C  
BRANCH   3   4
HETATM    4  C   UNL     1      -9.757  17.393  66.656  1.00  0.00    -0.290 C  
HETATM    5  H   UNL     1      -9.875  16.921  64.709  1.00  0.00     0.000 HD 
HETATM    6  O   UNL     1     -10.340  17.437  65.357  1.00  0.00    -0.631 OA 
ENDBRANCH   3   4
BRANCH   3   7
HETATM    7  N   UNL     1     -10.765  17.525  68.986  1.00  0.00    -0.337 NA 
HETATM    8  H   UNL     1     -11.466  18.013  69.543  1.00  0.00     0.000 HD 
BRANCH   7   9
HETATM    9  C   UNL     1     -11.136  16.114  68.806  1.00  0.00    -0.354 C  
BRANCH   9  10
HETATM   10  C   UNL     1     -11.524  15.479  70.159  1.00  0.00    -0.327 C  
BRANCH  10  11
HETATM   11  N   UNL     1     -12.956  15.675  70.445  1.00  0.00    -0.677 NA 
HETATM   12  H   UNL     1     -13.533  15.107  69.824  1.00  0.00     0.000 HD 
BRANCH  11  13
HETATM   13  CA  UNL     1     -13.298  15.422  71.868  1.00  0.00    -0.461 C  
BRANCH  13  14
HETATM   14  C   UNL     1     -11.991  15.274  72.682  1.00  0.00    -0.431 C  
HETATM   15  H   UNL     1     -11.461  15.197  74.582  1.00  0.00     0.000 HD 
HETATM   16  O   UNL     1     -12.264  15.288  74.082  1.00  0.00    -0.603 OA 
ENDBRANCH  13  14
BRANCH  13  17
HETATM   17  C   UNL     1     -14.217  14.205  72.098  1.00  0.00    -0.638 C  
HETATM   18  C   UNL     1     -13.508  12.857  72.107  1.00  0.00    -0.619 C  
ENDBRANCH  13  17
ENDBRANCH  11  13
ENDBRANCH  10  11
ENDBRANCH   9  10
ENDBRANCH   7   9
ENDBRANCH   3   7
ENDBRANCH   2   3
TORSDOF 9
ENDMDL
MODEL        8
REMARK 921   NORMALIZED FREE ENERGY PREDICTED BY IDOCK:   -4.27 KCAL/MOL
REMARK 922        TOTAL FREE ENERGY PREDICTED BY IDOCK:   -6.93 KCAL/MOL
REMARK 923 INTER-LIGAND FREE ENERGY PREDICTED BY IDOCK:   -6.71 KCAL/MOL
REMARK 924 INTRA-LIGAND FREE ENERGY PREDICTED BY IDOCK:   -0.22 KCAL/MOL
REMARK 927      BINDING AFFINITY PREDICTED BY RF-SCORE:    0.00 PKD
ROOT
HETATM    1  C   UNL     1     -12.421  15.906  74.269  1.00  0.00    -0.773 C  
HETATM    2  C   UNL     1     -13.015  15.996  72.870  1.00  0.00    -0.555 C  
ENDROOT
BRANCH   2   3
HETATM    3  CA  UNL     1     -12.347  15.058  71.837  1.00  0.00    -0.342 C  
BRANCH   3   4
HETATM    4  C   UNL     1     -13.148  13.749  71.598  1.00  0.00    -0.375 C  
HETATM    5  H   UNL     1     -14.747  12.781  72.331  1.00  0.00     0.000 HD 
HETATM    6  O   UNL     1     -14.257  13.582  72.478  1.00  0.00    -0.734 OA 
ENDBRANCH   3   4
BRANCH   3   7
HETATM    7  N   UNL     1     -12.150  15.873  70.621  1.00  0.00    -0.439 NA 
HETATM    8  H   UNL     1     -11.828  16.810  70.862  1.00  0.00     0.000 HD 
BRANCH   7   9
HETATM    9  C   UNL     1     -11.250  15.252  69.638  1.00  0.00    -0.278 C  
BRANCH   9  10
HETATM   10  C   UNL     1     -11.407  15.928  68.258  1.00  0.00    -0.342 C  
BRANCH  10  11
HETATM   11  N   UNL     1     -10.318  16.888  68.010  1.00  0.00    -0.318 NA 
HETATM   12  H   UNL     1      -9.407  16.437  68.094  1.00  0.00     0.000 HD 
BRANCH  11  13
HETATM   13  CA  UNL     1     -10.450  17.582  66.704  1.00  0.00    -0.270 C  
BRANCH  13  14
HETATM   14  C   UNL     1     -10.473  16.527  65.573  1.00  0.00    -0.301 C  
HETATM   15  H   UNL     1     -11.203  16.369  63.746  1.00  0.00     0.000 HD 
HETATM   16  O   UNL     1     -11.190  17.017  64.441  1.00  0.00    -1.167 OA 
ENDBRANCH  13  14
BRANCH  13  17
HETATM   17  C   UNL     1      -9.363  18.642  66.430  1.00  0.00    -0.301 C  
HETATM   18  C   UNL     1      -9.888  20.002  65.992  1.00  0.00    -0.512 C  
ENDBRANCH  13  17
ENDBRANCH  11  13
ENDBRANCH  10  11
ENDBRANCH   9  10
ENDBRANCH   7   9
ENDBRANCH   3   7
ENDBRANCH   2   3
TORSDOF 9
ENDMDL
MODEL        9
REMARK 921   NORMALIZED FREE ENERGY PREDICTED BY IDOCK:   -4.24 KCAL/MOL
REMARK 922        TOTAL FREE ENERGY PREDICTED BY IDOCK:   -6.88 KCAL/MOL
REMARK 923 INTER-LIGAND FREE ENERGY PREDICTED BY IDOCK:   -6.58 KCAL/MOL
REMARK 924 INTRA-LIGAND FREE ENERGY PREDICTED BY IDOCK:   -0.30 KCAL/MOL
REMARK 927      BINDING AFFINITY PREDICTED BY RF-SCORE:    0.00 PKD
ROOT
HETATM    1  C   UNL     1     -10.575  11.304  67.498  1.00  0.00    -0.257 C  
HETATM    2  C   UNL     1     -11.812  11.948  66.887  1.00  0.00    -0.177 C  
ENDROOT
BRANCH   2   3
HETATM    3  CA  UNL     1     -11.738  13.489  66.784  1.00  0.00    -0.391 C  
BRANCH   3   4
HETATM    4  C   UNL     1     -12.448  14.049  65.522  1.00  0.00    -0.509 C  
HETATM    5  H   UNL     1     -13.429  13.386  63.900  1.00  0.00     0.000 HD 
HETATM    6  O   UNL     1     -12.995  13.044  64.673  1.00  0.00    -0.720 OA 
ENDBRANCH   3   4
BRANCH   3   7
HETATM    7  N   UNL     1     -12.281  14.005  68.058  1.00  0.00    -0.528 NA 
HETATM    8  H   UNL     1     -12.764  13.266  68.570  1.00  0.00     0.000 HD 
BRANCH   7   9
HETATM    9  C   UNL     1     -11.271  14.652  68.908  1.00  0.00    -0.267 C  
BRANCH   9  10
HETATM   10  C   UNL     1     -11.871  15.888  69.613  1.00  0.00    -0.290 C  
BRANCH  10  11
HETATM   11  N   UNL     1     -13.102  15.539  70.342  1.00  0.00    -0.717 NA 
HETATM   12  H   UNL     1     -13.717  14.965  69.766  1.00  0.00     0.000 HD 
BRANCH  11  13
HETATM   13  CA  UNL     1     -12.831  14.885  71.648  1.00  0.00    -0.328 C  
BRANCH  13  14
HETATM   14  C   UNL     1     -13.326  13.421  71.590  1.00  0.00    -0.338 C  
HETATM   15  H   UNL     1     -14.484  12.234  72.661  1.00  0.00     0.000 HD 
HETATM   16  O   UNL     1     -14.180  13.134  72.697  1.00  0.00    -0.677 OA 
ENDBRANCH  13  14
BRANCH  13  17
HETATM   17  C   UNL     1     -13.437  15.612  72.865  1.00  0.00    -0.657 C  
HETATM   18  C   UNL     1     -12.431  16.035  73.928  1.00  0.00    -0.726 C  
ENDBRANCH  13  17
ENDBRANCH  11  13
ENDBRANCH  10  11
ENDBRANCH   9  10
ENDBRANCH   7   9
ENDBRANCH   3   7
ENDBRANCH   2   3
TORSDOF 9
ENDMDL
MODEL       10
REMARK 921   NORMALIZED FREE ENERGY PREDICTED BY IDOCK:   -4.22 KCAL/MOL
REMARK 922        TOTAL FREE ENERGY PREDICTED BY IDOCK:   -6.86 KCAL/MOL
REMARK 923 INTER-LIGAND FREE ENERGY PREDICTED BY IDOCK:   -6.55 KCAL/MOL
REMARK 924 INTRA-LIGAND FREE ENERGY PREDICTED BY IDOCK:   -0.31 KCAL/MOL
REMARK 927      BINDING AFFINITY PREDICTED BY RF-SCORE:    0.00 PKD
ROOT
HETATM    1  C   UNL     1     -13.223  12.957  72.005  1.00  0.00    -0.549 C  
HETATM    2  C   UNL     1     -13.771  14.371  71.872  1.00  0.00    -0.518 C  
ENDROOT
BRANCH   2   3
HETATM    3  CA  UNL     1     -12.701  15.434  71.530  1.00  0.00    -0.411 C  
BRANCH   3   4
HETATM    4  C   UNL     1     -12.202  16.217  72.775  1.00  0.00    -0.531 C  
HETATM    5  H   UNL     1     -12.829  16.723  74.613  1.00  0.00     0.000 HD 
HETATM    6  O   UNL     1     -13.134  16.245  73.852  1.00  0.00    -0.693 OA 
ENDBRANCH   3   4
BRANCH   3   7
HETATM    7  N   UNL     1     -11.634  14.714  70.805  1.00  0.00    -0.418 NA 
HETATM    8  H   UNL     1     -11.999  13.862  70.378  1.00  0.00     0.000 HD 
BRANCH   7   9
HETATM    9  C   UNL     1     -10.942  15.541  69.806  1.00  0.00    -0.294 C  
BRANCH   9  10
HETATM   10  C   UNL     1     -10.522  14.683  68.592  1.00  0.00    -0.244 C  
BRANCH  10  11
HETATM   11  N   UNL     1     -11.354  14.986  67.414  1.00  0.00    -0.337 NA 
HETATM   12  H   UNL     1     -12.199  15.489  67.684  1.00  0.00     0.000 HD 
BRANCH  11  13
HETATM   13  CA  UNL     1     -10.611  15.721  66.359  1.00  0.00    -0.307 C  
BRANCH  13  14
HETATM   14  C   UNL     1     -11.261  15.428  64.987  1.00  0.00    -0.387 C  
HETATM   15  H   UNL     1     -11.745  16.437  63.362  1.00  0.00     0.000 HD 
HETATM   16  O   UNL     1     -11.346  16.617  64.204  1.00  0.00    -1.141 OA 
ENDBRANCH  13  14
BRANCH  13  17
HETATM   17  C   UNL     1      -9.099  15.420  66.314  1.00  0.00    -0.355 C  
HETATM   18  C   UNL     1      -8.200  16.649  66.258  1.00  0.00    -0.365 C  
ENDBRANCH  13  17
ENDBRANCH  11  13
ENDBRANCH  10  11
ENDBRANCH   9  10
ENDBRANCH   7   9
ENDBRANCH   3   7
ENDBRANCH   2   3
TORSDOF 9
ENDMDL
MODEL       11
REMARK 921   NORMALIZED FREE ENERGY PREDICTED BY IDOCK:   -4.21 KCAL/MOL
REMARK 922        TOTAL FREE ENERGY PREDICTED BY IDOCK:   -6.83 KCAL/MOL
REMARK 923 INTER-LIGAND FREE ENERGY PREDICTED BY IDOCK:   -6.53 KCAL/MOL
REMARK 924 INTRA-LIGAND FREE ENERGY PREDICTED BY IDOCK:   -0.30 KCAL/MOL
REMARK 927      BINDING AFFINITY PREDICTED BY RF-SCORE:    0.00 PKD
ROOT
HETATM    1  C   UNL     1     -13.320  12.308  72.021  1.00  0.00    -0.491 C  
HETATM    2  C   UNL     1     -12.679  13.610  71.560  1.00  0.00    -0.420 C  
ENDROOT
BRANCH   2   3
HETATM    3  CA  UNL     1     -13.611  14.841  71.650  1.00  0.00    -0.405 C  
BRANCH   3   4
HETATM    4  C   UNL     1     -13.593  15.516  73.049  1.00  0.00    -0.504 C  
HETATM    5  H   UNL     1     -12.481  15.540  74.720  1.00  0.00     0.000 HD 
HETATM    6  O   UNL     1     -12.492  15.127  73.864  1.00  0.00    -0.547 OA 
ENDBRANCH   3   4
BRANCH   3   7
HETATM    7  N   UNL     1     -13.206  15.735  70.545  1.00  0.00    -0.767 NA 
HETATM    8  H   UNL     1     -13.435  16.704  70.763  1.00  0.00     0.000 HD 
BRANCH   7   9
HETATM    9  C   UNL     1     -11.790  15.606  70.176  1.00  0.00    -0.364 C  
BRANCH   9  10
HETATM   10  C   UNL     1     -11.555  16.134  68.743  1.00  0.00    -0.297 C  
BRANCH  10  11
HETATM   11  N   UNL     1     -10.461  17.120  68.714  1.00  0.00    -0.345 NA 
HETATM   12  H   UNL     1      -9.554  16.657  68.645  1.00  0.00     0.000 HD 
BRANCH  11  13
HETATM   13  CA  UNL     1     -10.626  18.130  67.638  1.00  0.00    -0.406 C  
BRANCH  13  14
HETATM   14  C   UNL     1      -9.721  17.747  66.444  1.00  0.00    -0.308 C  
HETATM   15  H   UNL     1      -9.943  16.982  64.638  1.00  0.00     0.000 HD 
HETATM   16  O   UNL     1     -10.499  17.217  65.372  1.00  0.00    -0.635 OA 
ENDBRANCH  13  14
BRANCH  13  17
HETATM   17  C   UNL     1     -10.353  19.583  68.078  1.00  0.00    -0.564 C  
HETATM   18  C   UNL     1      -9.134  20.231  67.435  1.00  0.00    -0.483 C  
ENDBRANCH  13  17
ENDBRANCH  11  13
ENDBRANCH  10  11
ENDBRANCH   9  10
ENDBRANCH   7   9
ENDBRANCH   3   7
ENDBRANCH   2   3
TORSDOF 9
ENDMDL
MODEL       12
REMARK 921   NORMALIZED FREE ENERGY PREDICTED BY IDOCK:   -4.18 KCAL/MOL
REMARK 922        TOTAL FREE ENERGY PREDICTED BY IDOCK:   -6.78 KCAL/MOL
REMARK 923 INTER-LIGAND FREE ENERGY PREDICTED BY IDOCK:   -6.40 KCAL/MOL
REMARK 924 INTRA-LIGAND FREE ENERGY PREDICTED BY IDOCK:   -0.38 KCAL/MOL
REMARK 927      BINDING AFFINITY PREDICTED BY RF-SCORE:    0.00 PKD
ROOT
HETATM    1  C   UNL     1      -8.986  15.335  66.399  1.00  0.00    -0.339 C  
HETATM    2  C   UNL     1     -10.085  14.571  65.674  1.00  0.00    -0.384 C  
ENDROOT
BRANCH   2   3
HETATM    3  CA  UNL     1     -11.489  14.733  66.303  1.00  0.00    -0.316 C  
BRANCH   3   4
HETATM    4  C   UNL     1     -12.284  13.400  66.366  1.00  0.00    -0.376 C  
HETATM    5  H   UNL     1     -13.578  12.339  65.257  1.00  0.00     0.000 HD 
HETATM    6  O   UNL     1     -13.092  13.155  65.218  1.00  0.00    -0.678 OA 
ENDBRANCH   3   4
BRANCH   3   7
HETATM    7  N   UNL     1     -11.270  15.365  67.620  1.00  0.00    -0.324 NA 
HETATM    8  H   UNL     1     -11.572  16.339  67.608  1.00  0.00     0.000 HD 
BRANCH   7   9
HETATM    9  C   UNL     1     -11.901  14.639  68.732  1.00  0.00    -0.313 C  
BRANCH   9  10
HETATM   10  C   UNL     1     -12.133  15.583  69.932  1.00  0.00    -0.355 C  
BRANCH  10  11
HETATM   11  N   UNL     1     -13.543  15.565  70.357  1.00  0.00    -0.709 NA 
HETATM   12  H   UNL     1     -14.059  14.825  69.879  1.00  0.00     0.000 HD 
BRANCH  11  13
HETATM   13  CA  UNL     1     -13.698  15.456  71.830  1.00  0.00    -0.511 C  
BRANCH  13  14
HETATM   14  C   UNL     1     -12.315  15.638  72.497  1.00  0.00    -0.433 C  
HETATM   15  H   UNL     1     -11.610  16.067  74.290  1.00  0.00     0.000 HD 
HETATM   16  O   UNL     1     -12.460  15.955  73.881  1.00  0.00    -0.511 OA 
ENDBRANCH  13  14
BRANCH  13  17
HETATM   17  C   UNL     1     -14.359  14.148  72.308  1.00  0.00    -0.533 C  
HETATM   18  C   UNL     1     -13.532  12.889  72.083  1.00  0.00    -0.619 C  
ENDBRANCH  13  17
ENDBRANCH  11  13
ENDBRANCH  10  11
ENDBRANCH   9  10
ENDBRANCH   7   9
ENDBRANCH   3   7
ENDBRANCH   2   3
TORSDOF 9
ENDMDL
MODEL       13
REMARK 921   NORMALIZED FREE ENERGY PREDICTED BY IDOCK:   -4.17 KCAL/MOL
REMARK 922        TOTAL FREE ENERGY PREDICTED BY IDOCK:   -6.78 KCAL/MOL
REMARK 923 INTER-LIGAND FREE ENERGY PREDICTED BY IDOCK:   -6.31 KCAL/MOL
REMARK 924 INTRA-LIGAND FREE ENERGY PREDICTED BY IDOCK:   -0.47 KCAL/MOL
REMARK 927      BINDING AFFINITY PREDICTED BY RF-SCORE:    0.00 PKD
ROOT
HETATM    1  C   UNL     1     -12.178  12.535  63.425  1.00  0.00    -0.613 C  
HETATM    2  C   UNL     1     -12.284  13.479  64.615  1.00  0.00    -0.450 C  
ENDROOT
BRANCH   2   3
HETATM    3  CA  UNL     1     -10.990  14.272  64.910  1.00  0.00    -0.404 C  
BRANCH   3   4
HETATM    4  C   UNL     1     -11.159  15.804  64.717  1.00  0.00    -0.400 C  
HETATM    5  H   UNL     1     -12.212  17.095  63.597  1.00  0.00     0.000 HD 
HETATM    6  O   UNL     1     -12.108  16.158  63.715  1.00  0.00    -0.946 OA 
ENDBRANCH   3   4
BRANCH   3   7
HETATM    7  N   UNL     1     -10.579  13.880  66.274  1.00  0.00    -0.286 NA 
HETATM    8  H   UNL     1     -10.365  14.703  66.838  1.00  0.00     0.000 HD 
BRANCH   7   9
HETATM    9  C   UNL     1     -11.557  13.022  66.958  1.00  0.00    -0.360 C  
BRANCH   9  10
HETATM   10  C   UNL     1     -11.921  13.611  68.338  1.00  0.00    -0.356 C  
BRANCH  10  11
HETATM   11  N   UNL     1     -12.106  15.070  68.261  1.00  0.00    -0.567 NA 
HETATM   12  H   UNL     1     -13.038  15.303  67.919  1.00  0.00     0.000 HD 
BRANCH  11  13
HETATM   13  CA  UNL     1     -11.824  15.755  69.548  1.00  0.00    -0.347 C  
BRANCH  13  14
HETATM   14  C   UNL     1     -10.577  16.654  69.379  1.00  0.00    -0.333 C  
HETATM   15  H   UNL     1      -9.819  17.845  68.000  1.00  0.00     0.000 HD 
HETATM   16  O   UNL     1     -10.586  17.293  68.104  1.00  0.00    -0.363 OA 
ENDBRANCH  13  14
BRANCH  13  17
HETATM   17  C   UNL     1     -11.646  14.806  70.751  1.00  0.00    -0.318 C  
HETATM   18  C   UNL     1     -11.756  15.471  72.116  1.00  0.00    -0.566 C  
ENDBRANCH  13  17
ENDBRANCH  11  13
ENDBRANCH  10  11
ENDBRANCH   9  10
ENDBRANCH   7   9
ENDBRANCH   3   7
ENDBRANCH   2   3
TORSDOF 9
ENDMDL
MODEL       14
REMARK 921   NORMALIZED FREE ENERGY PREDICTED BY IDOCK:   -4.16 KCAL/MOL
REMARK 922        TOTAL FREE ENERGY PREDICTED BY IDOCK:   -6.76 KCAL/MOL
REMARK 923 INTER-LIGAND FREE ENERGY PREDICTED BY IDOCK:   -6.42 KCAL/MOL
REMARK 924 INTRA-LIGAND FREE ENERGY PREDICTED BY IDOCK:   -0.34 KCAL/MOL
REMARK 927      BINDING AFFINITY PREDICTED BY RF-SCORE:    0.00 PKD
ROOT
HETATM    1  C   UNL     1     -12.747  13.070  71.229  1.00  0.00    -0.385 C  
HETATM    2  C   UNL     1     -12.868  11.557  71.350  1.00  0.00    -0.489 C  
ENDROOT
BRANCH   2   3
HETATM    3  CA  UNL     1     -11.790  10.771  70.569  1.00  0.00    -0.356 C  
BRANCH   3   4
HETATM    4  C   UNL     1     -11.406   9.428  71.247  1.00  0.00    -0.366 C  
HETATM    5  H   UNL     1     -12.171   8.096  72.541  1.00  0.00     0.000 HD 
HETATM    6  O   UNL     1     -12.405   8.918  72.126  1.00  0.00    -0.357 OA 
ENDBRANCH   3   4
BRANCH   3   7
HETATM    7  N   UNL     1     -12.314  10.623  69.196  1.00  0.00    -0.755 NA 
HETATM    8  H   UNL     1     -13.175  11.157  69.079  1.00  0.00     0.000 HD 
BRANCH   7   9
HETATM    9  C   UNL     1     -11.339  10.976  68.154  1.00  0.00    -0.307 C  
BRANCH   9  10
HETATM   10  C   UNL     1     -11.624  12.390  67.603  1.00  0.00    -0.357 C  
BRANCH  10  11
HETATM   11  N   UNL     1     -11.985  12.341  66.175  1.00  0.00    -0.618 NA 
HETATM   12  H   UNL     1     -12.994  12.427  66.050  1.00  0.00     0.000 HD 
BRANCH  11  13
HETATM   13  CA  UNL     1     -11.260  13.352  65.364  1.00  0.00    -0.288 C  
BRANCH  13  14
HETATM   14  C   UNL     1     -12.262  14.427  64.886  1.00  0.00    -0.433 C  
HETATM   15  H   UNL     1     -13.235  14.874  63.227  1.00  0.00     0.000 HD 
HETATM   16  O   UNL     1     -12.619  14.213  63.521  1.00  0.00    -0.834 OA 
ENDBRANCH  13  14
BRANCH  13  17
HETATM   17  C   UNL     1     -10.480  12.770  64.167  1.00  0.00    -0.437 C  
HETATM   18  C   UNL     1     -10.523  11.253  64.048  1.00  0.00    -0.440 C  
ENDBRANCH  13  17
ENDBRANCH  11  13
ENDBRANCH  10  11
ENDBRANCH   9  10
ENDBRANCH   7   9
ENDBRANCH   3   7
ENDBRANCH   2   3
TORSDOF 9
ENDMDL
MODEL       15
REMARK 921   NORMALIZED FREE ENERGY PREDICTED BY IDOCK:   -4.15 KCAL/MOL
REMARK 922        TOTAL FREE ENERGY PREDICTED BY IDOCK:   -6.75 KCAL/MOL
REMARK 923 INTER-LIGAND FREE ENERGY PREDICTED BY IDOCK:   -6.18 KCAL/MOL
REMARK 924 INTRA-LIGAND FREE ENERGY PREDICTED BY IDOCK:   -0.57 KCAL/MOL
REMARK 927      BINDING AFFINITY PREDICTED BY RF-SCORE:    0.00 PKD
ROOT
HETATM    1  C   UNL     1     -12.478  11.969  64.048  1.00  0.00    -0.492 C  
HETATM    2  C   UNL     1     -11.035  12.448  64.127  1.00  0.00    -0.416 C  
ENDROOT
BRANCH   2   3
HETATM    3  CA  UNL     1     -10.885  13.971  64.350  1.00  0.00    -0.249 C  
BRANCH   3   4
HETATM    4  C   UNL     1     -12.249  14.708  64.451  1.00  0.00    -0.452 C  
HETATM    5  H   UNL     1     -13.100  16.432  63.876  1.00  0.00     0.000 HD 
HETATM    6  O   UNL     1     -12.265  15.982  63.814  1.00  0.00    -0.895 OA 
ENDBRANCH   3   4
BRANCH   3   7
HETATM    7  N   UNL     1     -10.031  14.121  65.546  1.00  0.00    -0.475 NA 
HETATM    8  H   UNL     1      -9.121  14.509  65.294  1.00  0.00     0.000 HD 
BRANCH   7   9
HETATM    9  C   UNL     1     -10.654  14.912  66.617  1.00  0.00    -0.305 C  
BRANCH   9  10
HETATM   10  C   UNL     1      -9.859  16.214  66.860  1.00  0.00    -0.241 C  
BRANCH  10  11
HETATM   11  N   UNL     1     -10.002  17.143  65.727  1.00  0.00    -0.567 NA 
HETATM   12  H   UNL     1     -10.891  17.000  65.247  1.00  0.00     0.000 HD 
BRANCH  11  13
HETATM   13  CA  UNL     1      -9.835  18.564  66.123  1.00  0.00    -0.283 C  
BRANCH  13  14
HETATM   14  C   UNL     1      -8.392  18.777  66.638  1.00  0.00    -0.288 C  
HETATM   15  H   UNL     1      -6.581  18.926  65.869  1.00  0.00     0.000 HD 
HETATM   16  O   UNL     1      -7.467  18.794  65.552  1.00  0.00    -0.493 OA 
ENDBRANCH  13  14
BRANCH  13  17
HETATM   17  C   UNL     1     -10.858  19.062  67.165  1.00  0.00    -0.473 C  
HETATM   18  C   UNL     1     -10.252  19.616  68.447  1.00  0.00    -0.553 C  
ENDBRANCH  13  17
ENDBRANCH  11  13
ENDBRANCH  10  11
ENDBRANCH   9  10
ENDBRANCH   7   9
ENDBRANCH   3   7
ENDBRANCH   2   3
TORSDOF 9
ENDMDL
MODEL       16
REMARK 921   NORMALIZED FREE ENERGY PREDICTED BY IDOCK:   -4.14 KCAL/MOL
REMARK 922        TOTAL FREE ENERGY PREDICTED BY IDOCK:   -6.73 KCAL/MOL
REMARK 923 INTER-LIGAND FREE ENERGY PREDICTED BY IDOCK:   -6.46 KCAL/MOL
REMARK 924 INTRA-LIGAND FREE ENERGY PREDICTED BY IDOCK:   -0.27 KCAL/MOL
REMARK 927      BINDING AFFINITY PREDICTED BY RF-SCORE:    0.00 PKD
ROOT
HETATM    1  C   UNL     1     -12.114  12.667  63.745  1.00  0.00    -0.604 C  
HETATM    2  C   UNL     1     -12.280  13.886  64.640  1.00  0.00    -0.449 C  
ENDROOT
BRANCH   2   3
HETATM    3  CA  UNL     1     -10.950  14.460  65.182  1.00  0.00    -0.373 C  
BRANCH   3   4
HETATM    4  C   UNL     1     -10.816  15.992  64.965  1.00  0.00    -0.404 C  
HETATM    5  H   UNL     1     -11.516  17.430  63.753  1.00  0.00     0.000 HD 
HETATM    6  O   UNL     1     -11.598  16.493  63.885  1.00  0.00    -1.175 OA 
ENDBRANCH   3   4
BRANCH   3   7
HETATM    7  N   UNL     1     -10.879  14.044  66.598  1.00  0.00    -0.295 NA 
HETATM    8  H   UNL     1     -10.195  13.297  66.722  1.00  0.00     0.000 HD 
BRANCH   7   9
HETATM    9  C   UNL     1     -10.608  15.154  67.523  1.00  0.00    -0.269 C  
BRANCH   9  10
HETATM   10  C   UNL     1     -11.746  15.285  68.558  1.00  0.00    -0.332 C  
BRANCH  10  11
HETATM   11  N   UNL     1     -11.209  15.469  69.918  1.00  0.00    -0.286 NA 
HETATM   12  H   UNL     1     -10.668  16.332  69.983  1.00  0.00     0.000 HD 
BRANCH  11  13
HETATM   13  CA  UNL     1     -12.262  15.420  70.964  1.00  0.00    -0.376 C  
BRANCH  13  14
HETATM   14  C   UNL     1     -11.590  15.448  72.356  1.00  0.00    -0.447 C  
HETATM   15  H   UNL     1     -11.679  16.549  73.992  1.00  0.00     0.000 HD 
HETATM   16  O   UNL     1     -12.091  16.533  73.136  1.00  0.00    -0.513 OA 
ENDBRANCH  13  14
BRANCH  13  17
HETATM   17  C   UNL     1     -13.220  14.217  70.851  1.00  0.00    -0.288 C  
HETATM   18  C   UNL     1     -13.616  13.584  72.178  1.00  0.00    -0.651 C  
ENDBRANCH  13  17
ENDBRANCH  11  13
ENDBRANCH  10  11
ENDBRANCH   9  10
ENDBRANCH   7   9
ENDBRANCH   3   7
ENDBRANCH   2   3
TORSDOF 9
ENDMDL
MODEL       17
REMARK 921   NORMALIZED FREE ENERGY PREDICTED BY IDOCK:   -4.14 KCAL/MOL
REMARK 922        TOTAL FREE ENERGY PREDICTED BY IDOCK:   -6.72 KCAL/MOL
REMARK 923 INTER-LIGAND FREE ENERGY PREDICTED BY IDOCK:   -6.47 KCAL/MOL
REMARK 924 INTRA-LIGAND FREE ENERGY PREDICTED BY IDOCK:   -0.26 KCAL/MOL
REMARK 927      BINDING AFFINITY PREDICTED BY RF-SCORE:    0.00 PKD
ROOT
HETATM    1  C   UNL     1     -12.406  12.157  63.396  1.00  0.00    -0.648 C  
HETATM    2  C   UNL     1     -11.245  13.051  63.807  1.00  0.00    -0.396 C  
ENDROOT
BRANCH   2   3
HETATM    3  CA  UNL     1     -11.634  14.185  64.784  1.00  0.00    -0.396 C  
BRANCH   3   4
HETATM    4  C   UNL     1     -12.391  15.351  64.090  1.00  0.00     0.004 C  
HETATM    5  H   UNL     1     -12.082  17.254  63.530  1.00  0.00     0.000 HD 
HETATM    6  O   UNL     1     -11.619  16.541  63.954  1.00  0.00    -1.175 OA 
ENDBRANCH   3   4
BRANCH   3   7
HETATM    7  N   UNL     1     -12.395  13.537  65.872  1.00  0.00    -0.455 NA 
HETATM    8  H   UNL     1     -12.898  12.721  65.525  1.00  0.00     0.000 HD 
BRANCH   7   9
HETATM    9  C   UNL     1     -11.569  13.183  67.035  1.00  0.00    -0.359 C  
BRANCH   9  10
HETATM   10  C   UNL     1     -11.358  14.414  67.944  1.00  0.00    -0.301 C  
BRANCH  10  11
HETATM   11  N   UNL     1     -12.501  14.605  68.853  1.00  0.00    -0.574 NA 
HETATM   12  H   UNL     1     -13.275  13.990  68.601  1.00  0.00     0.000 HD 
BRANCH  11  13
HETATM   13  CA  UNL     1     -12.133  14.438  70.282  1.00  0.00    -0.331 C  
BRANCH  13  14
HETATM   14  C   UNL     1     -12.414  12.979  70.708  1.00  0.00    -0.302 C  
HETATM   15  H   UNL     1     -13.604  12.034  71.968  1.00  0.00     0.000 HD 
HETATM   16  O   UNL     1     -13.432  12.931  71.706  1.00  0.00    -0.395 OA 
ENDBRANCH  13  14
BRANCH  13  17
HETATM   17  C   UNL     1     -12.832  15.424  71.241  1.00  0.00    -0.519 C  
HETATM   18  C   UNL     1     -11.966  15.932  72.385  1.00  0.00    -0.620 C  
ENDBRANCH  13  17
ENDBRANCH  11  13
ENDBRANCH  10  11
ENDBRANCH   9  10
ENDBRANCH   7   9
ENDBRANCH   3   7
ENDBRANCH   2   3
TORSDOF 9
ENDMDL
MODEL       18
REMARK 921   NORMALIZED FREE ENERGY PREDICTED BY IDOCK:   -4.12 KCAL/MOL
REMARK 922        TOTAL FREE ENERGY PREDICTED BY IDOCK:   -6.70 KCAL/MOL
REMARK 923 INTER-LIGAND FREE ENERGY PREDICTED BY IDOCK:   -6.17 KCAL/MOL
REMARK 924 INTRA-LIGAND FREE ENERGY PREDICTED BY IDOCK:   -0.53 KCAL/MOL
REMARK 927      BINDING AFFINITY PREDICTED BY RF-SCORE:    0.00 PKD
ROOT
HETATM    1  C   UNL     1     -10.887   9.642  67.525  1.00  0.00    -0.265 C  
HETATM    2  C   UNL     1     -10.079   9.692  66.237  1.00  0.00    -0.322 C  
ENDROOT
BRANCH   2   3
HETATM    3  CA  UNL     1     -10.070  11.077  65.548  1.00  0.00    -0.261 C  
BRANCH   3   4
HETATM    4  C   UNL     1      -8.866  11.960  65.975  1.00  0.00    -0.007 C  
HETATM    5  H   UNL     1      -8.425  13.408  67.294  1.00  0.00     0.000 HD 
HETATM    6  O   UNL     1      -9.161  12.868  67.033  1.00  0.00    -0.212 OA 
ENDBRANCH   3   4
BRANCH   3   7
HETATM    7  N   UNL     1     -10.134  10.807  64.097  1.00  0.00    -0.338 NA 
HETATM    8  H   UNL     1     -10.762  10.027  63.902  1.00  0.00     0.000 HD 
BRANCH   7   9
HETATM    9  C   UNL     1     -10.501  11.983  63.296  1.00  0.00    -0.359 C  
BRANCH   9  10
HETATM   10  C   UNL     1     -11.993  12.330  63.498  1.00  0.00    -0.533 C  
BRANCH  10  11
HETATM   11  N   UNL     1     -12.245  13.758  63.242  1.00  0.00    -1.096 NA 
HETATM   12  H   UNL     1     -13.045  13.882  62.621  1.00  0.00     0.000 HD 
BRANCH  11  13
HETATM   13  CA  UNL     1     -12.413  14.545  64.490  1.00  0.00    -0.324 C  
BRANCH  13  14
HETATM   14  C   UNL     1     -11.162  15.429  64.701  1.00  0.00    -0.364 C  
HETATM   15  H   UNL     1     -10.615  17.289  64.329  1.00  0.00     0.000 HD 
HETATM   16  O   UNL     1     -11.384  16.746  64.199  1.00  0.00    -1.194 OA 
ENDBRANCH  13  14
BRANCH  13  17
HETATM   17  C   UNL     1     -12.692  13.697  65.748  1.00  0.00    -0.470 C  
HETATM   18  C   UNL     1     -12.129  14.265  67.044  1.00  0.00    -0.424 C  
ENDBRANCH  13  17
ENDBRANCH  11  13
ENDBRANCH  10  11
ENDBRANCH   9  10
ENDBRANCH   7   9
ENDBRANCH   3   7
ENDBRANCH   2   3
TORSDOF 9
ENDMDL
MODEL       19
REMARK 921   NORMALIZED FREE ENERGY PREDICTED BY IDOCK:   -4.10 KCAL/MOL
REMARK 922        TOTAL FREE ENERGY PREDICTED BY IDOCK:   -6.66 KCAL/MOL
REMARK 923 INTER-LIGAND FREE ENERGY PREDICTED BY IDOCK:   -6.37 KCAL/MOL
REMARK 924 INTRA-LIGAND FREE ENERGY PREDICTED BY IDOCK:   -0.29 KCAL/MOL
REMARK 927      BINDING AFFINITY PREDICTED BY RF-SCORE:    0.00 PKD
ROOT
HETATM    1  C   UNL     1      -9.981  10.173  65.122  1.00  0.00    -0.379 C  
HETATM    2  C   UNL     1     -10.714  11.501  65.251  1.00  0.00    -0.337 C  
ENDROOT
BRANCH   2   3
HETATM    3  CA  UNL     1     -10.807  12.303  63.931  1.00  0.00    -0.412 C  
BRANCH   3   4
HETATM    4  C   UNL     1     -12.270  12.553  63.474  1.00  0.00    -0.558 C  
HETATM    5  H   UNL     1     -14.139  12.416  64.192  1.00  0.00     0.000 HD 
HETATM    6  O   UNL     1     -13.245  12.263  64.472  1.00  0.00    -0.799 OA 
ENDBRANCH   3   4
BRANCH   3   7
HETATM    7  N   UNL     1     -10.027  13.538  64.154  1.00  0.00    -0.721 NA 
HETATM    8  H   UNL     1      -9.757  13.960  63.266  1.00  0.00     0.000 HD 
BRANCH   7   9
HETATM    9  C   UNL     1     -10.711  14.518  65.009  1.00  0.00    -0.427 C  
BRANCH   9  10
HETATM   10  C   UNL     1      -9.683  15.374  65.781  1.00  0.00    -0.350 C  
BRANCH  10  11
HETATM   11  N   UNL     1      -9.988  16.810  65.659  1.00  0.00    -0.575 NA 
HETATM   12  H   UNL     1     -10.971  16.956  65.430  1.00  0.00     0.000 HD 
BRANCH  11  13
HETATM   13  CA  UNL     1      -9.601  17.584  66.865  1.00  0.00    -0.278 C  
BRANCH  13  14
HETATM   14  C   UNL     1      -9.611  16.644  68.093  1.00  0.00    -0.228 C  
HETATM   15  H   UNL     1      -8.498  16.329  69.693  1.00  0.00     0.000 HD 
HETATM   16  O   UNL     1      -8.492  16.907  68.939  1.00  0.00    -0.248 OA 
ENDBRANCH  13  14
BRANCH  13  17
HETATM   17  C   UNL     1     -10.473  18.829  67.133  1.00  0.00    -0.484 C  
HETATM   18  C   UNL     1     -10.024  20.094  66.414  1.00  0.00    -0.573 C  
ENDBRANCH  13  17
ENDBRANCH  11  13
ENDBRANCH  10  11
ENDBRANCH   9  10
ENDBRANCH   7   9
ENDBRANCH   3   7
ENDBRANCH   2   3
TORSDOF 9
ENDMDL
MODEL       20
REMARK 921   NORMALIZED FREE ENERGY PREDICTED BY IDOCK:   -4.07 KCAL/MOL
REMARK 922        TOTAL FREE ENERGY PREDICTED BY IDOCK:   -6.62 KCAL/MOL
REMARK 923 INTER-LIGAND FREE ENERGY PREDICTED BY IDOCK:   -6.37 KCAL/MOL
REMARK 924 INTRA-LIGAND FREE ENERGY PREDICTED BY IDOCK:   -0.25 KCAL/MOL
REMARK 927      BINDING AFFINITY PREDICTED BY RF-SCORE:    0.00 PKD
ROOT
HETATM    1  C   UNL     1      -9.953  10.279  64.802  1.00  0.00    -0.392 C  
HETATM    2  C   UNL     1     -10.672  11.591  65.082  1.00  0.00    -0.348 C  
ENDROOT
BRANCH   2   3
HETATM    3  CA  UNL     1     -10.811  12.513  63.849  1.00  0.00    -0.431 C  
BRANCH   3   4
HETATM    4  C   UNL     1     -12.281  12.670  63.371  1.00  0.00    -0.517 C  
HETATM    5  H   UNL     1     -14.145  12.300  64.016  1.00  0.00     0.000 HD 
HETATM    6  O   UNL     1     -13.246  12.204  64.308  1.00  0.00    -0.768 OA 
ENDBRANCH   3   4
BRANCH   3   7
HETATM    7  N   UNL     1     -10.160  13.786  64.221  1.00  0.00    -0.734 NA 
HETATM    8  H   UNL     1      -9.704  14.208  63.412  1.00  0.00     0.000 HD 
BRANCH   7   9
HETATM    9  C   UNL     1     -11.070  14.744  64.864  1.00  0.00    -0.407 C  
BRANCH   9  10
HETATM   10  C   UNL     1     -10.283  15.703  65.784  1.00  0.00    -0.367 C  
BRANCH  10  11
HETATM   11  N   UNL     1     -10.404  17.098  65.325  1.00  0.00    -0.608 NA 
HETATM   12  H   UNL     1     -11.162  17.196  64.650  1.00  0.00     0.000 HD 
BRANCH  11  13
HETATM   13  CA  UNL     1     -10.562  18.060  66.445  1.00  0.00    -0.250 C  
BRANCH  13  14
HETATM   14  C   UNL     1     -10.529  19.499  65.882  1.00  0.00    -0.491 C  
HETATM   15  H   UNL     1      -9.923  21.281  66.478  1.00  0.00     0.000 HD 
HETATM   16  O   UNL     1      -9.943  20.397  66.824  1.00  0.00    -0.450 OA 
ENDBRANCH  13  14
BRANCH  13  17
HETATM   17  C   UNL     1      -9.525  17.900  67.576  1.00  0.00    -0.258 C  
HETATM   18  C   UNL     1     -10.114  17.633  68.955  1.00  0.00    -0.351 C  
ENDBRANCH  13  17
ENDBRANCH  11  13
ENDBRANCH  10  11
ENDBRANCH   9  10
ENDBRANCH   7   9
ENDBRANCH   3   7
ENDBRANCH   2   3
TORSDOF 9
ENDMDL
MODEL       21
REMARK 921   NORMALIZED FREE ENERGY PREDICTED BY IDOCK:   -4.07 KCAL/MOL
REMARK 922        TOTAL FREE ENERGY PREDICTED BY IDOCK:   -6.62 KCAL/MOL
REMARK 923 INTER-LIGAND FREE ENERGY PREDICTED BY IDOCK:   -6.30 KCAL/MOL
REMARK 924 INTRA-LIGAND FREE ENERGY PREDICTED BY IDOCK:   -0.32 KCAL/MOL
REMARK 927      BINDING AFFINITY PREDICTED BY RF-SCORE:    0.00 PKD
ROOT
HETATM    1  C   UNL     1     -11.572  12.222  67.348  1.00  0.00    -0.425 C  
HETATM    2  C   UNL     1     -11.981  12.748  65.980  1.00  0.00    -0.491 C  
ENDROOT
BRANCH   2   3
HETATM    3  CA  UNL     1     -10.985  12.407  64.847  1.00  0.00    -0.302 C  
BRANCH   3   4
HETATM    4  C   UNL     1     -11.677  12.187  63.474  1.00  0.00    -0.490 C  
HETATM    5  H   UNL     1     -13.522  11.988  62.708  1.00  0.00     0.000 HD 
HETATM    6  O   UNL     1     -13.098  12.122  63.548  1.00  0.00    -0.785 OA 
ENDBRANCH   3   4
BRANCH   3   7
HETATM    7  N   UNL     1      -9.985  13.495  64.849  1.00  0.00    -0.602 NA 
HETATM    8  H   UNL     1      -9.393  13.442  64.020  1.00  0.00     0.000 HD 
BRANCH   7   9
HETATM    9  C   UNL     1     -10.575  14.834  64.982  1.00  0.00    -0.429 C  
BRANCH   9  10
HETATM   10  C   UNL     1      -9.785  15.673  66.011  1.00  0.00    -0.346 C  
BRANCH  10  11
HETATM   11  N   UNL     1     -10.554  16.856  66.434  1.00  0.00    -0.238 NA 
HETATM   12  H   UNL     1     -10.982  16.706  67.348  1.00  0.00     0.000 HD 
BRANCH  11  13
HETATM   13  CA  UNL     1      -9.745  18.102  66.422  1.00  0.00    -0.327 C  
BRANCH  13  14
HETATM   14  C   UNL     1      -8.254  17.737  66.608  1.00  0.00    -0.259 C  
HETATM   15  H   UNL     1      -6.553  18.038  65.654  1.00  0.00     0.000 HD 
HETATM   16  O   UNL     1      -7.469  18.262  65.539  1.00  0.00    -0.537 OA 
ENDBRANCH  13  14
BRANCH  13  17
HETATM   17  C   UNL     1     -10.177  19.154  67.464  1.00  0.00    -0.493 C  
HETATM   18  C   UNL     1      -9.628  20.555  67.228  1.00  0.00    -0.580 C  
ENDBRANCH  13  17
ENDBRANCH  11  13
ENDBRANCH  10  11
ENDBRANCH   9  10
ENDBRANCH   7   9
ENDBRANCH   3   7
ENDBRANCH   2   3
TORSDOF 9
ENDMDL
MODEL       22
REMARK 921   NORMALIZED FREE ENERGY PREDICTED BY IDOCK:   -4.06 KCAL/MOL
REMARK 922        TOTAL FREE ENERGY PREDICTED BY IDOCK:   -6.60 KCAL/MOL
REMARK 923 INTER-LIGAND FREE ENERGY PREDICTED BY IDOCK:   -6.23 KCAL/MOL
REMARK 924 INTRA-LIGAND FREE ENERGY PREDICTED BY IDOCK:   -0.37 KCAL/MOL
REMARK 927      BINDING AFFINITY PREDICTED BY RF-SCORE:    0.00 PKD
ROOT
HETATM    1  C   UNL     1     -10.702  19.699  65.707  1.00  0.00    -0.493 C  
HETATM    2  C   UNL     1     -10.184  19.032  66.973  1.00  0.00    -0.460 C  
ENDROOT
BRANCH   2   3
HETATM    3  CA  UNL     1     -10.102  17.490  66.890  1.00  0.00    -0.324 C  
BRANCH   3   4
HETATM    4  C   UNL     1     -10.892  16.777  68.021  1.00  0.00    -0.341 C  
HETATM    5  H   UNL     1     -10.758  16.431  69.994  1.00  0.00     0.000 HD 
HETATM    6  O   UNL     1     -10.274  16.867  69.302  1.00  0.00    -0.290 OA 
ENDBRANCH   3   4
BRANCH   3   7
HETATM    7  N   UNL     1     -10.551  17.136  65.527  1.00  0.00    -0.579 NA 
HETATM    8  H   UNL     1     -10.065  17.699  64.829  1.00  0.00     0.000 HD 
BRANCH   7   9
HETATM    9  C   UNL     1     -10.424  15.704  65.221  1.00  0.00    -0.412 C  
BRANCH   9  10
HETATM   10  C   UNL     1     -11.749  15.154  64.649  1.00  0.00    -0.348 C  
BRANCH  10  11
HETATM   11  N   UNL     1     -12.417  14.266  65.616  1.00  0.00    -0.440 NA 
HETATM   12  H   UNL     1     -13.364  14.588  65.814  1.00  0.00     0.000 HD 
BRANCH  11  13
HETATM   13  CA  UNL     1     -12.417  12.844  65.187  1.00  0.00    -0.501 C  
BRANCH  13  14
HETATM   14  C   UNL     1     -11.445  12.046  66.087  1.00  0.00    -0.339 C  
HETATM   15  H   UNL     1     -11.448  11.272  67.903  1.00  0.00     0.000 HD 
HETATM   16  O   UNL     1     -12.045  11.763  67.350  1.00  0.00    -0.595 OA 
ENDBRANCH  13  14
BRANCH  13  17
HETATM   17  C   UNL     1     -12.076  12.626  63.699  1.00  0.00    -0.632 C  
HETATM   18  C   UNL     1     -10.762  11.901  63.440  1.00  0.00    -0.476 C  
ENDBRANCH  13  17
ENDBRANCH  11  13
ENDBRANCH  10  11
ENDBRANCH   9  10
ENDBRANCH   7   9
ENDBRANCH   3   7
ENDBRANCH   2   3
TORSDOF 9
ENDMDL
MODEL       23
REMARK 921   NORMALIZED FREE ENERGY PREDICTED BY IDOCK:   -4.05 KCAL/MOL
REMARK 922        TOTAL FREE ENERGY PREDICTED BY IDOCK:   -6.59 KCAL/MOL
REMARK 923 INTER-LIGAND FREE ENERGY PREDICTED BY IDOCK:   -6.34 KCAL/MOL
REMARK 924 INTRA-LIGAND FREE ENERGY PREDICTED BY IDOCK:   -0.26 KCAL/MOL
REMARK 927      BINDING AFFINITY PREDICTED BY RF-SCORE:    0.00 PKD
ROOT
HETATM    1  C   UNL     1      -9.963  11.482  63.462  1.00  0.00    -0.429 C  
HETATM    2  C   UNL     1     -10.283  11.649  64.941  1.00  0.00    -0.315 C  
ENDROOT
BRANCH   2   3
HETATM    3  CA  UNL     1     -11.469  12.599  65.229  1.00  0.00    -0.331 C  
BRANCH   3   4
HETATM    4  C   UNL     1     -12.544  12.585  64.109  1.00  0.00    -0.382 C  
HETATM    5  H   UNL     1     -13.336  13.817  62.736  1.00  0.00     0.000 HD 
HETATM    6  O   UNL     1     -12.678  13.825  63.421  1.00  0.00    -0.795 OA 
ENDBRANCH   3   4
BRANCH   3   7
HETATM    7  N   UNL     1     -11.981  12.212  66.560  1.00  0.00    -0.631 NA 
HETATM    8  H   UNL     1     -12.179  11.212  66.594  1.00  0.00     0.000 HD 
BRANCH   7   9
HETATM    9  C   UNL     1     -11.096  12.604  67.666  1.00  0.00    -0.263 C  
BRANCH   9  10
HETATM   10  C   UNL     1     -11.890  13.365  68.751  1.00  0.00    -0.351 C  
BRANCH  10  11
HETATM   11  N   UNL     1     -11.817  12.670  70.047  1.00  0.00    -0.481 NA 
HETATM   12  H   UNL     1     -10.871  12.336  70.231  1.00  0.00     0.000 HD 
BRANCH  11  13
HETATM   13  CA  UNL     1     -12.317  13.499  71.173  1.00  0.00    -0.290 C  
BRANCH  13  14
HETATM   14  C   UNL     1     -13.519  12.783  71.832  1.00  0.00    -0.358 C  
HETATM   15  H   UNL     1     -14.984  13.243  73.072  1.00  0.00     0.000 HD 
HETATM   16  O   UNL     1     -14.245  13.683  72.668  1.00  0.00    -0.735 OA 
ENDBRANCH  13  14
BRANCH  13  17
HETATM   17  C   UNL     1     -12.696  14.943  70.785  1.00  0.00    -0.421 C  
HETATM   18  C   UNL     1     -11.885  16.029  71.477  1.00  0.00    -0.554 C  
ENDBRANCH  13  17
ENDBRANCH  11  13
ENDBRANCH  10  11
ENDBRANCH   9  10
ENDBRANCH   7   9
ENDBRANCH   3   7
ENDBRANCH   2   3
TORSDOF 9
ENDMDL
MODEL       24
REMARK 921   NORMALIZED FREE ENERGY PREDICTED BY IDOCK:   -4.05 KCAL/MOL
REMARK 922        TOTAL FREE ENERGY PREDICTED BY IDOCK:   -6.59 KCAL/MOL
REMARK 923 INTER-LIGAND FREE ENERGY PREDICTED BY IDOCK:   -6.34 KCAL/MOL
REMARK 924 INTRA-LIGAND FREE ENERGY PREDICTED BY IDOCK:   -0.25 KCAL/MOL
REMARK 927      BINDING AFFINITY PREDICTED BY RF-SCORE:    0.00 PKD
ROOT
HETATM    1  C   UNL     1     -14.272  14.082  72.109  1.00  0.00    -0.628 C  
HETATM    2  C   UNL     1     -13.105  13.809  71.171  1.00  0.00    -0.324 C  
ENDROOT
BRANCH   2   3
HETATM    3  CA  UNL     1     -12.694  15.020  70.301  1.00  0.00    -0.275 C  
BRANCH   3   4
HETATM    4  C   UNL     1     -11.638  15.929  70.985  1.00  0.00    -0.424 C  
HETATM    5  H   UNL     1     -10.818  16.226  72.794  1.00  0.00     0.000 HD 
HETATM    6  O   UNL     1     -11.465  15.670  72.375  1.00  0.00    -0.423 OA 
ENDBRANCH   3   4
BRANCH   3   7
HETATM    7  N   UNL     1     -12.256  14.457  69.007  1.00  0.00    -0.541 NA 
HETATM    8  H   UNL     1     -11.501  15.014  68.608  1.00  0.00     0.000 HD 
BRANCH   7   9
HETATM    9  C   UNL     1     -11.872  13.040  69.084  1.00  0.00    -0.310 C  
BRANCH   9  10
HETATM   10  C   UNL     1     -11.063  12.631  67.833  1.00  0.00    -0.247 C  
BRANCH  10  11
HETATM   11  N   UNL     1     -11.951  12.166  66.754  1.00  0.00    -0.615 NA 
HETATM   12  H   UNL     1     -12.930  12.217  67.039  1.00  0.00     0.000 HD 
BRANCH  11  13
HETATM   13  CA  UNL     1     -11.731  12.888  65.476  1.00  0.00    -0.383 C  
BRANCH  13  14
HETATM   14  C   UNL     1     -12.746  14.049  65.371  1.00  0.00    -0.471 C  
HETATM   15  H   UNL     1     -13.242  15.434  64.054  1.00  0.00     0.000 HD 
HETATM   16  O   UNL     1     -12.617  14.721  64.118  1.00  0.00    -0.784 OA 
ENDBRANCH  13  14
BRANCH  13  17
HETATM   17  C   UNL     1     -11.798  11.997  64.218  1.00  0.00    -0.431 C  
HETATM   18  C   UNL     1     -10.514  11.938  63.402  1.00  0.00    -0.487 C  
ENDBRANCH  13  17
ENDBRANCH  11  13
ENDBRANCH  10  11
ENDBRANCH   9  10
ENDBRANCH   7   9
ENDBRANCH   3   7
ENDBRANCH   2   3
TORSDOF 9
ENDMDL
MODEL       25
REMARK 921   NORMALIZED FREE ENERGY PREDICTED BY IDOCK:   -4.05 KCAL/MOL
REMARK 922        TOTAL FREE ENERGY PREDICTED BY IDOCK:   -6.59 KCAL/MOL
REMARK 923 INTER-LIGAND FREE ENERGY PREDICTED BY IDOCK:   -6.13 KCAL/MOL
REMARK 924 INTRA-LIGAND FREE ENERGY PREDICTED BY IDOCK:   -0.45 KCAL/MOL
REMARK 927      BINDING AFFINITY PREDICTED BY RF-SCORE:    0.00 PKD
ROOT
HETATM    1  C   UNL     1     -12.045  12.636  63.415  1.00  0.00    -0.614 C  
HETATM    2  C   UNL     1     -12.231  13.807  64.369  1.00  0.00    -0.440 C  
ENDROOT
BRANCH   2   3
HETATM    3  CA  UNL     1     -11.916  13.475  65.847  1.00  0.00    -0.406 C  
BRANCH   3   4
HETATM    4  C   UNL     1     -11.312  12.057  66.036  1.00  0.00    -0.343 C  
HETATM    5  H   UNL     1     -11.353  10.543  67.353  1.00  0.00     0.000 HD 
HETATM    6  O   UNL     1     -11.722  11.411  67.238  1.00  0.00    -0.577 OA 
ENDBRANCH   3   4
BRANCH   3   7
HETATM    7  N   UNL     1     -11.047  14.569  66.329  1.00  0.00    -0.327 NA 
HETATM    8  H   UNL     1     -11.504  15.473  66.211  1.00  0.00     0.000 HD 
BRANCH   7   9
HETATM    9  C   UNL     1     -10.596  14.392  67.717  1.00  0.00    -0.246 C  
BRANCH   9  10
HETATM   10  C   UNL     1     -11.747  14.697  68.701  1.00  0.00    -0.329 C  
BRANCH  10  11
HETATM   11  N   UNL     1     -11.996  13.555  69.597  1.00  0.00    -0.329 NA 
HETATM   12  H   UNL     1     -11.244  12.868  69.532  1.00  0.00     0.000 HD 
BRANCH  11  13
HETATM   13  CA  UNL     1     -12.220  13.967  71.006  1.00  0.00    -0.342 C  
BRANCH  13  14
HETATM   14  C   UNL     1     -13.117  12.917  71.702  1.00  0.00    -0.335 C  
HETATM   15  H   UNL     1     -14.512  12.892  73.098  1.00  0.00     0.000 HD 
HETATM   16  O   UNL     1     -13.961  13.537  72.671  1.00  0.00    -0.752 OA 
ENDBRANCH  13  14
BRANCH  13  17
HETATM   17  C   UNL     1     -12.816  15.380  71.172  1.00  0.00    -0.520 C  
HETATM   18  C   UNL     1     -12.027  16.307  72.087  1.00  0.00    -0.575 C  
ENDBRANCH  13  17
ENDBRANCH  11  13
ENDBRANCH  10  11
ENDBRANCH   9  10
ENDBRANCH   7   9
ENDBRANCH   3   7
ENDBRANCH   2   3
TORSDOF 9
ENDMDL
MODEL       26
REMARK 921   NORMALIZED FREE ENERGY PREDICTED BY IDOCK:   -4.04 KCAL/MOL
REMARK 922        TOTAL FREE ENERGY PREDICTED BY IDOCK:   -6.57 KCAL/MOL
REMARK 923 INTER-LIGAND FREE ENERGY PREDICTED BY IDOCK:   -6.06 KCAL/MOL
REMARK 924 INTRA-LIGAND FREE ENERGY PREDICTED BY IDOCK:   -0.51 KCAL/MOL
REMARK 927      BINDING AFFINITY PREDICTED BY RF-SCORE:    0.00 PKD
ROOT
HETATM    1  C   UNL     1     -13.067  10.719  71.616  1.00  0.00    -0.551 C  
HETATM    2  C   UNL     1     -12.219  11.841  71.035  1.00  0.00    -0.303 C  
ENDROOT
BRANCH   2   3
HETATM    3  CA  UNL     1     -12.877  13.239  71.115  1.00  0.00    -0.280 C  
BRANCH   3   4
HETATM    4  C   UNL     1     -13.664  13.465  72.434  1.00  0.00    -0.597 C  
HETATM    5  H   UNL     1     -13.541  14.548  74.120  1.00  0.00     0.000 HD 
HETATM    6  O   UNL     1     -13.059  14.409  73.313  1.00  0.00    -0.587 OA 
ENDBRANCH   3   4
BRANCH   3   7
HETATM    7  N   UNL     1     -11.788  14.211  70.889  1.00  0.00    -0.488 NA 
HETATM    8  H   UNL     1     -10.969  13.751  70.492  1.00  0.00     0.000 HD 
BRANCH   7   9
HETATM    9  C   UNL     1     -12.189  15.360  70.065  1.00  0.00    -0.361 C  
BRANCH   9  10
HETATM   10  C   UNL     1     -11.563  15.260  68.657  1.00  0.00    -0.354 C  
BRANCH  10  11
HETATM   11  N   UNL     1     -12.352  14.370  67.788  1.00  0.00    -0.603 NA 
HETATM   12  H   UNL     1     -13.060  14.895  67.273  1.00  0.00     0.000 HD 
BRANCH  11  13
HETATM   13  CA  UNL     1     -11.508  13.570  66.865  1.00  0.00    -0.344 C  
BRANCH  13  14
HETATM   14  C   UNL     1     -11.937  13.861  65.408  1.00  0.00    -0.381 C  
HETATM   15  H   UNL     1     -13.542  14.526  64.470  1.00  0.00     0.000 HD 
HETATM   16  O   UNL     1     -13.278  14.346  65.365  1.00  0.00    -0.607 OA 
ENDBRANCH  13  14
BRANCH  13  17
HETATM   17  C   UNL     1     -11.522  12.052  67.138  1.00  0.00    -0.401 C  
HETATM   18  C   UNL     1     -10.306  11.522  67.885  1.00  0.00    -0.203 C  
ENDBRANCH  13  17
ENDBRANCH  11  13
ENDBRANCH  10  11
ENDBRANCH   9  10
ENDBRANCH   7   9
ENDBRANCH   3   7
ENDBRANCH   2   3
TORSDOF 9
ENDMDL
MODEL       27
REMARK 921   NORMALIZED FREE ENERGY PREDICTED BY IDOCK:   -4.03 KCAL/MOL
REMARK 922        TOTAL FREE ENERGY PREDICTED BY IDOCK:   -6.56 KCAL/MOL
REMARK 923 INTER-LIGAND FREE ENERGY PREDICTED BY IDOCK:   -5.61 KCAL/MOL
REMARK 924 INTRA-LIGAND FREE ENERGY PREDICTED BY IDOCK:   -0.95 KCAL/MOL
REMARK 927      BINDING AFFINITY PREDICTED BY RF-SCORE:    0.00 PKD
ROOT
HETATM    1  C   UNL     1     -10.062  10.435  64.417  1.00  0.00    -0.342 C  
HETATM    2  C   UNL     1     -10.052  11.955  64.497  1.00  0.00    -0.302 C  
ENDROOT
BRANCH   2   3
HETATM    3  CA  UNL     1     -11.087  12.644  63.577  1.00  0.00    -0.395 C  
BRANCH   3   4
HETATM    4  C   UNL     1     -12.451  11.904  63.536  1.00  0.00    -0.492 C  
HETATM    5  H   UNL     1     -14.241  11.948  64.444  1.00  0.00     0.000 HD 
HETATM    6  O   UNL     1     -13.406  12.400  64.470  1.00  0.00    -0.800 OA 
ENDBRANCH   3   4
BRANCH   3   7
HETATM    7  N   UNL     1     -11.175  14.042  64.046  1.00  0.00    -0.559 NA 
HETATM    8  H   UNL     1     -12.144  14.302  64.229  1.00  0.00     0.000 HD 
BRANCH   7   9
HETATM    9  C   UNL     1     -10.331  14.323  65.217  1.00  0.00    -0.395 C  
BRANCH   9  10
HETATM   10  C   UNL     1     -11.154  15.023  66.320  1.00  0.00    -0.334 C  
BRANCH  10  11
HETATM   11  N   UNL     1     -12.298  14.194  66.737  1.00  0.00    -0.554 NA 
HETATM   12  H   UNL     1     -12.582  13.561  65.989  1.00  0.00     0.000 HD 
BRANCH  11  13
HETATM   13  CA  UNL     1     -12.041  13.450  67.996  1.00  0.00    -0.248 C  
BRANCH  13  14
HETATM   14  C   UNL     1     -10.998  14.224  68.835  1.00  0.00    -0.257 C  
HETATM   15  H   UNL     1     -11.004  15.575  70.275  1.00  0.00     0.000 HD 
HETATM   16  O   UNL     1     -11.644  15.099  69.759  1.00  0.00    -0.270 OA 
ENDBRANCH  13  14
BRANCH  13  17
HETATM   17  C   UNL     1     -11.592  11.988  67.794  1.00  0.00    -0.400 C  
HETATM   18  C   UNL     1     -10.875  11.365  68.984  1.00  0.00    -0.265 C  
ENDBRANCH  13  17
ENDBRANCH  11  13
ENDBRANCH  10  11
ENDBRANCH   9  10
ENDBRANCH   7   9
ENDBRANCH   3   7
ENDBRANCH   2   3
TORSDOF 9
ENDMDL
MODEL       28
REMARK 921   NORMALIZED FREE ENERGY PREDICTED BY IDOCK:   -4.02 KCAL/MOL
REMARK 922        TOTAL FREE ENERGY PREDICTED BY IDOCK:   -6.55 KCAL/MOL
REMARK 923 INTER-LIGAND FREE ENERGY PREDICTED BY IDOCK:   -6.17 KCAL/MOL
REMARK 924 INTRA-LIGAND FREE ENERGY PREDICTED BY IDOCK:   -0.38 KCAL/MOL
REMARK 927      BINDING AFFINITY PREDICTED BY RF-SCORE:    0.00 PKD
ROOT
HETATM    1  C   UNL     1     -10.820  15.459  65.055  1.00  0.00    -0.462 C  
HETATM    2  C   UNL     1     -12.127  14.687  64.938  1.00  0.00    -0.386 C  
ENDROOT
BRANCH   2   3
HETATM    3  CA  UNL     1     -12.048  13.227  65.440  1.00  0.00    -0.422 C  
BRANCH   3   4
HETATM    4  C   UNL     1     -12.000  12.189  64.287  1.00  0.00    -0.380 C  
HETATM    5  H   UNL     1     -13.183  11.457  62.840  1.00  0.00     0.000 HD 
HETATM    6  O   UNL     1     -13.213  12.092  63.546  1.00  0.00    -0.724 OA 
ENDBRANCH   3   4
BRANCH   3   7
HETATM    7  N   UNL     1     -10.881  13.175  66.345  1.00  0.00    -0.285 NA 
HETATM    8  H   UNL     1     -10.404  14.076  66.372  1.00  0.00     0.000 HD 
BRANCH   7   9
HETATM    9  C   UNL     1     -11.212  12.722  67.704  1.00  0.00    -0.280 C  
BRANCH   9  10
HETATM   10  C   UNL     1     -10.958  13.852  68.727  1.00  0.00    -0.263 C  
BRANCH  10  11
HETATM   11  N   UNL     1     -12.185  14.629  68.974  1.00  0.00    -0.562 NA 
HETATM   12  H   UNL     1     -12.977  14.233  68.467  1.00  0.00     0.000 HD 
BRANCH  11  13
HETATM   13  CA  UNL     1     -12.495  14.770  70.420  1.00  0.00    -0.349 C  
BRANCH  13  14
HETATM   14  C   UNL     1     -11.412  15.652  71.083  1.00  0.00    -0.411 C  
HETATM   15  H   UNL     1     -11.302  16.953  72.564  1.00  0.00     0.000 HD 
HETATM   16  O   UNL     1     -11.967  16.411  72.156  1.00  0.00    -0.509 OA 
ENDBRANCH  13  14
BRANCH  13  17
HETATM   17  C   UNL     1     -12.640  13.434  71.176  1.00  0.00    -0.430 C  
HETATM   18  C   UNL     1     -13.757  13.399  72.210  1.00  0.00    -0.705 C  
ENDBRANCH  13  17
ENDBRANCH  11  13
ENDBRANCH  10  11
ENDBRANCH   9  10
ENDBRANCH   7   9
ENDBRANCH   3   7
ENDBRANCH   2   3
TORSDOF 9
ENDMDL
MODEL       29
REMARK 921   NORMALIZED FREE ENERGY PREDICTED BY IDOCK:   -4.01 KCAL/MOL
REMARK 922        TOTAL FREE ENERGY PREDICTED BY IDOCK:   -6.53 KCAL/MOL
REMARK 923 INTER-LIGAND FREE ENERGY PREDICTED BY IDOCK:   -5.86 KCAL/MOL
REMARK 924 INTRA-LIGAND FREE ENERGY PREDICTED BY IDOCK:   -0.67 KCAL/MOL
REMARK 927      BINDING AFFINITY PREDICTED BY RF-SCORE:    0.00 PKD
ROOT
HETATM    1  C   UNL     1     -10.355   8.511  72.023  1.00  0.00    -0.408 C  
HETATM    2  C   UNL     1     -10.816   9.670  71.150  1.00  0.00    -0.404 C  
ENDROOT
BRANCH   2   3
HETATM    3  CA  UNL     1     -12.303   9.597  70.734  1.00  0.00    -0.201 C  
BRANCH   3   4
HETATM    4  C   UNL     1     -13.272  10.060  71.855  1.00  0.00    -0.452 C  
HETATM    5  H   UNL     1     -13.962  11.759  72.673  1.00  0.00     0.000 HD 
HETATM    6  O   UNL     1     -13.369  11.475  71.987  1.00  0.00    -0.476 OA 
ENDBRANCH   3   4
BRANCH   3   7
HETATM    7  N   UNL     1     -12.411  10.378  69.485  1.00  0.00    -0.637 NA 
HETATM    8  H   UNL     1     -13.290  10.894  69.456  1.00  0.00     0.000 HD 
BRANCH   7   9
HETATM    9  C   UNL     1     -11.273  11.280  69.256  1.00  0.00    -0.272 C  
BRANCH   9  10
HETATM   10  C   UNL     1     -11.762  12.732  69.070  1.00  0.00    -0.323 C  
BRANCH  10  11
HETATM   11  N   UNL     1     -11.820  13.443  70.359  1.00  0.00    -0.527 NA 
HETATM   12  H   UNL     1     -10.975  13.277  70.905  1.00  0.00     0.000 HD 
BRANCH  11  13
HETATM   13  CA  UNL     1     -12.077  14.897  70.203  1.00  0.00    -0.327 C  
BRANCH  13  14
HETATM   14  C   UNL     1     -10.728  15.630  70.019  1.00  0.00    -0.335 C  
HETATM   15  H   UNL     1     -10.043  17.183  69.011  1.00  0.00     0.000 HD 
HETATM   16  O   UNL     1     -10.872  16.732  69.123  1.00  0.00    -0.324 OA 
ENDBRANCH  13  14
BRANCH  13  17
HETATM   17  C   UNL     1     -12.883  15.531  71.356  1.00  0.00    -0.531 C  
HETATM   18  C   UNL     1     -12.042  16.094  72.493  1.00  0.00    -0.644 C  
ENDBRANCH  13  17
ENDBRANCH  11  13
ENDBRANCH  10  11
ENDBRANCH   9  10
ENDBRANCH   7   9
ENDBRANCH   3   7
ENDBRANCH   2   3
TORSDOF 9
ENDMDL
MODEL       30
REMARK 921   NORMALIZED FREE ENERGY PREDICTED BY IDOCK:   -4.01 KCAL/MOL
REMARK 922        TOTAL FREE ENERGY PREDICTED BY IDOCK:   -6.53 KCAL/MOL
REMARK 923 INTER-LIGAND FREE ENERGY PREDICTED BY IDOCK:   -6.03 KCAL/MOL
REMARK 924 INTRA-LIGAND FREE ENERGY PREDICTED BY IDOCK:   -0.50 KCAL/MOL
REMARK 927      BINDING AFFINITY PREDICTED BY RF-SCORE:    0.00 PKD
ROOT
HETATM    1  C   UNL     1     -13.745  13.266  72.210  1.00  0.00    -0.686 C  
HETATM    2  C   UNL     1     -14.038  14.759  72.149  1.00  0.00    -0.604 C  
ENDROOT
BRANCH   2   3
HETATM    3  CA  UNL     1     -12.776  15.648  72.053  1.00  0.00    -0.433 C  
BRANCH   3   4
HETATM    4  C   UNL     1     -12.362  16.266  73.416  1.00  0.00    -0.530 C  
HETATM    5  H   UNL     1     -12.045  15.701  75.316  1.00  0.00     0.000 HD 
HETATM    6  O   UNL     1     -12.299  15.323  74.482  1.00  0.00    -0.629 OA 
ENDBRANCH   3   4
BRANCH   3   7
HETATM    7  N   UNL     1     -11.734  14.803  71.434  1.00  0.00    -0.430 NA 
HETATM    8  H   UNL     1     -12.143  13.956  71.039  1.00  0.00     0.000 HD 
BRANCH   7   9
HETATM    9  C   UNL     1     -10.926  15.508  70.429  1.00  0.00    -0.339 C  
BRANCH   9  10
HETATM   10  C   UNL     1     -10.913  14.724  69.099  1.00  0.00    -0.267 C  
BRANCH  10  11
HETATM   11  N   UNL     1     -10.350  13.375  69.283  1.00  0.00    -0.419 NA 
HETATM   12  H   UNL     1     -10.292  13.136  70.274  1.00  0.00     0.000 HD 
BRANCH  11  13
HETATM   13  CA  UNL     1     -11.092  12.334  68.527  1.00  0.00    -0.249 C  
BRANCH  13  14
HETATM   14  C   UNL     1     -11.794  12.994  67.318  1.00  0.00    -0.363 C  
HETATM   15  H   UNL     1     -11.736  12.857  65.350  1.00  0.00     0.000 HD 
HETATM   16  O   UNL     1     -11.304  12.452  66.093  1.00  0.00    -0.315 OA 
ENDBRANCH  13  14
BRANCH  13  17
HETATM   17  C   UNL     1     -12.106  11.533  69.369  1.00  0.00    -0.345 C  
HETATM   18  C   UNL     1     -11.490  10.605  70.407  1.00  0.00    -0.422 C  
ENDBRANCH  13  17
ENDBRANCH  11  13
ENDBRANCH  10  11
ENDBRANCH   9  10
ENDBRANCH   7   9
ENDBRANCH   3   7
ENDBRANCH   2   3
TORSDOF 9
ENDMDL
MODEL       31
REMARK 921   NORMALIZED FREE ENERGY PREDICTED BY IDOCK:   -4.01 KCAL/MOL
REMARK 922        TOTAL FREE ENERGY PREDICTED BY IDOCK:   -6.52 KCAL/MOL
REMARK 923 INTER-LIGAND FREE ENERGY PREDICTED BY IDOCK:   -6.27 KCAL/MOL
REMARK 924 INTRA-LIGAND FREE ENERGY PREDICTED BY IDOCK:   -0.25 KCAL/MOL
REMARK 927      BINDING AFFINITY PREDICTED BY RF-SCORE:    0.00 PKD
ROOT
HETATM    1  C   UNL     1     -13.594   9.366  71.708  1.00  0.00    -0.461 C  
HETATM    2  C   UNL     1     -12.988  10.738  71.448  1.00  0.00    -0.535 C  
ENDROOT
BRANCH   2   3
HETATM    3  CA  UNL     1     -11.749  10.718  70.524  1.00  0.00    -0.351 C  
BRANCH   3   4
HETATM    4  C   UNL     1     -10.815   9.505  70.786  1.00  0.00    -0.318 C  
HETATM    5  H   UNL     1      -8.916   8.941  70.463  1.00  0.00     0.000 HD 
HETATM    6  O   UNL     1      -9.487   9.683  70.302  1.00  0.00    -0.242 OA 
ENDBRANCH   3   4
BRANCH   3   7
HETATM    7  N   UNL     1     -12.273  10.787  69.144  1.00  0.00    -0.716 NA 
HETATM    8  H   UNL     1     -13.288  10.684  69.138  1.00  0.00     0.000 HD 
BRANCH   7   9
HETATM    9  C   UNL     1     -11.869  12.001  68.422  1.00  0.00    -0.300 C  
BRANCH   9  10
HETATM   10  C   UNL     1     -11.310  11.641  67.028  1.00  0.00    -0.305 C  
BRANCH  10  11
HETATM   11  N   UNL     1     -12.134  12.229  65.958  1.00  0.00    -0.630 NA 
HETATM   12  H   UNL     1     -12.844  12.852  66.344  1.00  0.00     0.000 HD 
BRANCH  11  13
HETATM   13  CA  UNL     1     -11.324  12.921  64.923  1.00  0.00    -0.307 C  
BRANCH  13  14
HETATM   14  C   UNL     1     -11.816  14.382  64.792  1.00  0.00    -0.433 C  
HETATM   15  H   UNL     1     -13.023  15.409  63.616  1.00  0.00     0.000 HD 
HETATM   16  O   UNL     1     -12.721  14.512  63.696  1.00  0.00    -0.754 OA 
ENDBRANCH  13  14
BRANCH  13  17
HETATM   17  C   UNL     1     -11.319  12.228  63.546  1.00  0.00    -0.549 C  
HETATM   18  C   UNL     1     -10.362  11.050  63.422  1.00  0.00    -0.373 C  
ENDBRANCH  13  17
ENDBRANCH  11  13
ENDBRANCH  10  11
ENDBRANCH   9  10
ENDBRANCH   7   9
ENDBRANCH   3   7
ENDBRANCH   2   3
TORSDOF 9
ENDMDL
MODEL       32
REMARK 921   NORMALIZED FREE ENERGY PREDICTED BY IDOCK:   -4.00 KCAL/MOL
REMARK 922        TOTAL FREE ENERGY PREDICTED BY IDOCK:   -6.51 KCAL/MOL
REMARK 923 INTER-LIGAND FREE ENERGY PREDICTED BY IDOCK:   -6.21 KCAL/MOL
REMARK 924 INTRA-LIGAND FREE ENERGY PREDICTED BY IDOCK:   -0.30 KCAL/MOL
REMARK 927      BINDING AFFINITY PREDICTED BY RF-SCORE:    0.00 PKD
ROOT
HETATM    1  C   UNL     1     -12.613  11.140  70.881  1.00  0.00    -0.483 C  
HETATM    2  C   UNL     1     -11.571  11.427  69.809  1.00  0.00    -0.407 C  
ENDROOT
BRANCH   2   3
HETATM    3  CA  UNL     1     -11.632  12.861  69.234  1.00  0.00    -0.310 C  
BRANCH   3   4
HETATM    4  C   UNL     1     -12.285  13.879  70.209  1.00  0.00    -0.358 C  
HETATM    5  H   UNL     1     -11.808  15.543  71.226  1.00  0.00     0.000 HD 
HETATM    6  O   UNL     1     -11.408  14.920  70.630  1.00  0.00    -0.265 OA 
ENDBRANCH   3   4
BRANCH   3   7
HETATM    7  N   UNL     1     -10.247  13.201  68.848  1.00  0.00    -0.431 NA 
HETATM    8  H   UNL     1      -9.583  12.842  69.535  1.00  0.00     0.000 HD 
BRANCH   7   9
HETATM    9  C   UNL     1      -9.888  12.753  67.495  1.00  0.00    -0.211 C  
BRANCH   9  10
HETATM   10  C   UNL     1      -9.712  13.965  66.554  1.00  0.00    -0.294 C  
BRANCH  10  11
HETATM   11  N   UNL     1      -9.810  13.560  65.141  1.00  0.00    -0.567 NA 
HETATM   12  H   UNL     1      -9.726  12.547  65.045  1.00  0.00     0.000 HD 
BRANCH  11  13
HETATM   13  CA  UNL     1     -11.046  14.056  64.485  1.00  0.00    -0.351 C  
BRANCH  13  14
HETATM   14  C   UNL     1     -11.349  15.484  64.995  1.00  0.00    -0.299 C  
HETATM   15  H   UNL     1     -11.750  17.252  64.215  1.00  0.00     0.000 HD 
HETATM   16  O   UNL     1     -11.563  16.375  63.901  1.00  0.00    -1.100 OA 
ENDBRANCH  13  14
BRANCH  13  17
HETATM   17  C   UNL     1     -12.277  13.145  64.669  1.00  0.00    -0.471 C  
HETATM   18  C   UNL     1     -12.501  12.133  63.553  1.00  0.00    -0.666 C  
ENDBRANCH  13  17
ENDBRANCH  11  13
ENDBRANCH  10  11
ENDBRANCH   9  10
ENDBRANCH   7   9
ENDBRANCH   3   7
ENDBRANCH   2   3
TORSDOF 9
ENDMDL
MODEL       33
REMARK 921   NORMALIZED FREE ENERGY PREDICTED BY IDOCK:   -4.00 KCAL/MOL
REMARK 922        TOTAL FREE ENERGY PREDICTED BY IDOCK:   -6.51 KCAL/MOL
REMARK 923 INTER-LIGAND FREE ENERGY PREDICTED BY IDOCK:   -6.16 KCAL/MOL
REMARK 924 INTRA-LIGAND FREE ENERGY PREDICTED BY IDOCK:   -0.35 KCAL/MOL
REMARK 927      BINDING AFFINITY PREDICTED BY RF-SCORE:    0.00 PKD
ROOT
HETATM    1  C   UNL     1     -10.710  11.410  63.786  1.00  0.00    -0.470 C  
HETATM    2  C   UNL     1     -11.731  12.520  63.995  1.00  0.00    -0.499 C  
ENDROOT
BRANCH   2   3
HETATM    3  CA  UNL     1     -12.113  12.759  65.474  1.00  0.00    -0.465 C  
BRANCH   3   4
HETATM    4  C   UNL     1     -11.156  12.050  66.471  1.00  0.00    -0.314 C  
HETATM    5  H   UNL     1     -11.235  10.784  68.027  1.00  0.00     0.000 HD 
HETATM    6  O   UNL     1     -11.821  11.218  67.417  1.00  0.00    -0.590 OA 
ENDBRANCH   3   4
BRANCH   3   7
HETATM    7  N   UNL     1     -12.179  14.225  65.642  1.00  0.00    -0.407 NA 
HETATM    8  H   UNL     1     -12.427  14.468  66.601  1.00  0.00     0.000 HD 
BRANCH   7   9
HETATM    9  C   UNL     1     -10.949  14.918  65.232  1.00  0.00    -0.380 C  
BRANCH   9  10
HETATM   10  C   UNL     1     -10.636  16.082  66.198  1.00  0.00    -0.297 C  
BRANCH  10  11
HETATM   11  N   UNL     1     -10.156  17.266  65.465  1.00  0.00    -0.588 NA 
HETATM   12  H   UNL     1     -10.718  17.432  64.630  1.00  0.00     0.000 HD 
BRANCH  11  13
HETATM   13  CA  UNL     1     -10.093  18.482  66.316  1.00  0.00    -0.398 C  
BRANCH  13  14
HETATM   14  C   UNL     1      -8.630  18.978  66.377  1.00  0.00    -0.315 C  
HETATM   15  H   UNL     1      -6.859  18.366  65.757  1.00  0.00     0.000 HD 
HETATM   16  O   UNL     1      -7.758  18.061  65.719  1.00  0.00    -0.532 OA 
ENDBRANCH  13  14
BRANCH  13  17
HETATM   17  C   UNL     1     -10.660  18.297  67.738  1.00  0.00    -0.415 C  
HETATM   18  C   UNL     1     -10.017  19.172  68.805  1.00  0.00    -0.493 C  
ENDBRANCH  13  17
ENDBRANCH  11  13
ENDBRANCH  10  11
ENDBRANCH   9  10
ENDBRANCH   7   9
ENDBRANCH   3   7
ENDBRANCH   2   3
TORSDOF 9
ENDMDL
MODEL       34
REMARK 921   NORMALIZED FREE ENERGY PREDICTED BY IDOCK:   -3.95 KCAL/MOL
REMARK 922        TOTAL FREE ENERGY PREDICTED BY IDOCK:   -6.44 KCAL/MOL
REMARK 923 INTER-LIGAND FREE ENERGY PREDICTED BY IDOCK:   -6.12 KCAL/MOL
REMARK 924 INTRA-LIGAND FREE ENERGY PREDICTED BY IDOCK:   -0.31 KCAL/MOL
REMARK 927      BINDING AFFINITY PREDICTED BY RF-SCORE:    0.00 PKD
ROOT
HETATM    1  C   UNL     1      -9.934  10.679  63.876  1.00  0.00    -0.390 C  
HETATM    2  C   UNL     1     -11.235  11.468  63.924  1.00  0.00    -0.439 C  
ENDROOT
BRANCH   2   3
HETATM    3  CA  UNL     1     -11.229  12.638  64.935  1.00  0.00    -0.297 C  
BRANCH   3   4
HETATM    4  C   UNL     1     -11.834  13.945  64.356  1.00  0.00    -0.429 C  
HETATM    5  H   UNL     1     -13.132  14.533  62.942  1.00  0.00     0.000 HD 
HETATM    6  O   UNL     1     -12.762  13.733  63.296  1.00  0.00    -0.783 OA 
ENDBRANCH   3   4
BRANCH   3   7
HETATM    7  N   UNL     1     -11.925  12.134  66.138  1.00  0.00    -0.600 NA 
HETATM    8  H   UNL     1     -12.374  11.238  65.947  1.00  0.00     0.000 HD 
BRANCH   7   9
HETATM    9  C   UNL     1     -11.059  12.040  67.321  1.00  0.00    -0.285 C  
BRANCH   9  10
HETATM   10  C   UNL     1     -11.896  12.149  68.614  1.00  0.00    -0.306 C  
BRANCH  10  11
HETATM   11  N   UNL     1     -12.337  10.822  69.075  1.00  0.00    -0.768 NA 
HETATM   12  H   UNL     1     -11.995  10.087  68.455  1.00  0.00     0.000 HD 
BRANCH  11  13
HETATM   13  CA  UNL     1     -11.958  10.547  70.485  1.00  0.00    -0.342 C  
BRANCH  13  14
HETATM   14  C   UNL     1     -10.729   9.609  70.502  1.00  0.00    -0.311 C  
HETATM   15  H   UNL     1      -9.856   8.333  69.275  1.00  0.00     0.000 HD 
HETATM   16  O   UNL     1     -10.611   8.909  69.264  1.00  0.00    -0.227 OA 
ENDBRANCH  13  14
BRANCH  13  17
HETATM   17  C   UNL     1     -13.094   9.965  71.350  1.00  0.00    -0.500 C  
HETATM   18  C   UNL     1     -12.727   8.713  72.135  1.00  0.00    -0.447 C  
ENDBRANCH  13  17
ENDBRANCH  11  13
ENDBRANCH  10  11
ENDBRANCH   9  10
ENDBRANCH   7   9
ENDBRANCH   3   7
ENDBRANCH   2   3
TORSDOF 9
ENDMDL
MODEL       35
REMARK 921   NORMALIZED FREE ENERGY PREDICTED BY IDOCK:   -3.94 KCAL/MOL
REMARK 922        TOTAL FREE ENERGY PREDICTED BY IDOCK:   -6.42 KCAL/MOL
REMARK 923 INTER-LIGAND FREE ENERGY PREDICTED BY IDOCK:   -5.97 KCAL/MOL
REMARK 924 INTRA-LIGAND FREE ENERGY PREDICTED BY IDOCK:   -0.46 KCAL/MOL
REMARK 927      BINDING AFFINITY PREDICTED BY RF-SCORE:    0.00 PKD
ROOT
HETATM    1  C   UNL     1     -11.940  11.840  63.504  1.00  0.00    -0.484 C  
HETATM    2  C   UNL     1     -10.577  12.401  63.885  1.00  0.00    -0.470 C  
ENDROOT
BRANCH   2   3
HETATM    3  CA  UNL     1     -10.622  13.829  64.475  1.00  0.00    -0.386 C  
BRANCH   3   4
HETATM    4  C   UNL     1     -12.064  14.308  64.798  1.00  0.00    -0.446 C  
HETATM    5  H   UNL     1     -13.433  15.606  64.112  1.00  0.00     0.000 HD 
HETATM    6  O   UNL     1     -12.550  15.314  63.915  1.00  0.00    -0.765 OA 
ENDBRANCH   3   4
BRANCH   3   7
HETATM    7  N   UNL     1      -9.719  13.812  65.644  1.00  0.00    -0.503 NA 
HETATM    8  H   UNL     1      -8.746  13.737  65.347  1.00  0.00     0.000 HD 
BRANCH   7   9
HETATM    9  C   UNL     1      -9.901  14.959  66.544  1.00  0.00    -0.266 C  
BRANCH   9  10
HETATM   10  C   UNL     1      -9.138  16.191  66.010  1.00  0.00    -0.318 C  
BRANCH  10  11
HETATM   11  N   UNL     1     -10.047  17.333  65.811  1.00  0.00    -0.573 NA 
HETATM   12  H   UNL     1     -11.022  17.031  65.822  1.00  0.00     0.000 HD 
BRANCH  11  13
HETATM   13  CA  UNL     1      -9.819  18.428  66.788  1.00  0.00    -0.342 C  
BRANCH  13  14
HETATM   14  C   UNL     1     -10.519  19.710  66.281  1.00  0.00    -0.519 C  
HETATM   15  H   UNL     1     -11.534  20.280  64.687  1.00  0.00     0.000 HD 
HETATM   16  O   UNL     1     -11.103  19.492  64.998  1.00  0.00    -0.292 OA 
ENDBRANCH  13  14
BRANCH  13  17
HETATM   17  C   UNL     1      -8.334  18.710  67.095  1.00  0.00    -0.271 C  
HETATM   18  C   UNL     1      -7.695  19.794  66.237  1.00  0.00    -0.331 C  
ENDBRANCH  13  17
ENDBRANCH  11  13
ENDBRANCH  10  11
ENDBRANCH   9  10
ENDBRANCH   7   9
ENDBRANCH   3   7
ENDBRANCH   2   3
TORSDOF 9
ENDMDL
MODEL       36
REMARK 921   NORMALIZED FREE ENERGY PREDICTED BY IDOCK:   -3.92 KCAL/MOL
REMARK 922        TOTAL FREE ENERGY PREDICTED BY IDOCK:   -6.39 KCAL/MOL
REMARK 923 INTER-LIGAND FREE ENERGY PREDICTED BY IDOCK:   -6.15 KCAL/MOL
REMARK 924 INTRA-LIGAND FREE ENERGY PREDICTED BY IDOCK:   -0.24 KCAL/MOL
REMARK 927      BINDING AFFINITY PREDICTED BY RF-SCORE:    0.00 PKD
ROOT
HETATM    1  C   UNL     1      -8.871  15.529  67.207  1.00  0.00    -0.218 C  
HETATM    2  C   UNL     1      -9.778  14.606  66.404  1.00  0.00    -0.315 C  
ENDROOT
BRANCH   2   3
HETATM    3  CA  UNL     1     -11.192  15.178  66.145  1.00  0.00    -0.271 C  
BRANCH   3   4
HETATM    4  C   UNL     1     -11.582  15.176  64.642  1.00  0.00    -0.357 C  
HETATM    5  H   UNL     1     -11.936  16.475  63.154  1.00  0.00     0.000 HD 
HETATM    6  O   UNL     1     -11.698  16.477  64.074  1.00  0.00    -1.111 OA 
ENDBRANCH   3   4
BRANCH   3   7
HETATM    7  N   UNL     1     -12.106  14.398  67.005  1.00  0.00    -0.524 NA 
HETATM    8  H   UNL     1     -13.009  14.271  66.550  1.00  0.00     0.000 HD 
BRANCH   7   9
HETATM    9  C   UNL     1     -11.551  13.105  67.430  1.00  0.00    -0.356 C  
BRANCH   9  10
HETATM   10  C   UNL     1     -11.793  12.882  68.939  1.00  0.00    -0.309 C  
BRANCH  10  11
HETATM   11  N   UNL     1     -11.289  14.017  69.731  1.00  0.00    -0.406 NA 
HETATM   12  H   UNL     1     -10.831  14.705  69.133  1.00  0.00     0.000 HD 
BRANCH  11  13
HETATM   13  CA  UNL     1     -12.344  14.651  70.562  1.00  0.00    -0.337 C  
BRANCH  13  14
HETATM   14  C   UNL     1     -11.739  15.868  71.300  1.00  0.00    -0.448 C  
HETATM   15  H   UNL     1     -11.215  16.337  73.145  1.00  0.00     0.000 HD 
HETATM   16  O   UNL     1     -11.587  15.589  72.691  1.00  0.00    -0.453 OA 
ENDBRANCH  13  14
BRANCH  13  17
HETATM   17  C   UNL     1     -13.028  13.698  71.564  1.00  0.00    -0.443 C  
HETATM   18  C   UNL     1     -14.406  14.143  72.035  1.00  0.00    -0.599 C  
ENDBRANCH  13  17
ENDBRANCH  11  13
ENDBRANCH  10  11
ENDBRANCH   9  10
ENDBRANCH   7   9
ENDBRANCH   3   7
ENDBRANCH   2   3
TORSDOF 9
ENDMDL
MODEL       37
REMARK 921   NORMALIZED FREE ENERGY PREDICTED BY IDOCK:   -3.92 KCAL/MOL
REMARK 922        TOTAL FREE ENERGY PREDICTED BY IDOCK:   -6.39 KCAL/MOL
REMARK 923 INTER-LIGAND FREE ENERGY PREDICTED BY IDOCK:   -5.76 KCAL/MOL
REMARK 924 INTRA-LIGAND FREE ENERGY PREDICTED BY IDOCK:   -0.62 KCAL/MOL
REMARK 927      BINDING AFFINITY PREDICTED BY RF-SCORE:    0.00 PKD
ROOT
HETATM    1  C   UNL     1     -11.655   8.109  71.091  1.00  0.00    -0.306 C  
HETATM    2  C   UNL     1     -11.215   9.565  71.131  1.00  0.00    -0.446 C  
ENDROOT
BRANCH   2   3
HETATM    3  CA  UNL     1     -12.267  10.560  70.588  1.00  0.00    -0.352 C  
BRANCH   3   4
HETATM    4  C   UNL     1     -13.145  11.186  71.705  1.00  0.00    -0.431 C  
HETATM    5  H   UNL     1     -13.596  12.989  72.464  1.00  0.00     0.000 HD 
HETATM    6  O   UNL     1     -13.059  12.606  71.780  1.00  0.00    -0.416 OA 
ENDBRANCH   3   4
BRANCH   3   7
HETATM    7  N   UNL     1     -11.513  11.549  69.790  1.00  0.00    -0.391 NA 
HETATM    8  H   UNL     1     -11.206  12.326  70.375  1.00  0.00     0.000 HD 
BRANCH   7   9
HETATM    9  C   UNL     1     -10.378  10.969  69.058  1.00  0.00    -0.209 C  
BRANCH   9  10
HETATM   10  C   UNL     1     -10.635  11.019  67.536  1.00  0.00    -0.227 C  
BRANCH  10  11
HETATM   11  N   UNL     1     -11.884  11.738  67.231  1.00  0.00    -0.624 NA 
HETATM   12  H   UNL     1     -12.308  12.110  68.081  1.00  0.00     0.000 HD 
BRANCH  11  13
HETATM   13  CA  UNL     1     -11.699  12.807  66.216  1.00  0.00    -0.402 C  
BRANCH  13  14
HETATM   14  C   UNL     1     -12.012  14.176  66.864  1.00  0.00    -0.449 C  
HETATM   15  H   UNL     1     -12.331  14.889  68.677  1.00  0.00     0.000 HD 
HETATM   16  O   UNL     1     -12.138  14.047  68.279  1.00  0.00    -0.355 OA 
ENDBRANCH  13  14
BRANCH  13  17
HETATM   17  C   UNL     1     -12.528  12.616  64.930  1.00  0.00    -0.564 C  
HETATM   18  C   UNL     1     -11.713  12.329  63.676  1.00  0.00    -0.591 C  
ENDBRANCH  13  17
ENDBRANCH  11  13
ENDBRANCH  10  11
ENDBRANCH   9  10
ENDBRANCH   7   9
ENDBRANCH   3   7
ENDBRANCH   2   3
TORSDOF 9
ENDMDL
MODEL       38
REMARK 921   NORMALIZED FREE ENERGY PREDICTED BY IDOCK:   -3.91 KCAL/MOL
REMARK 922        TOTAL FREE ENERGY PREDICTED BY IDOCK:   -6.38 KCAL/MOL
REMARK 923 INTER-LIGAND FREE ENERGY PREDICTED BY IDOCK:   -5.70 KCAL/MOL
REMARK 924 INTRA-LIGAND FREE ENERGY PREDICTED BY IDOCK:   -0.68 KCAL/MOL
REMARK 927      BINDING AFFINITY PREDICTED BY RF-SCORE:    0.00 PKD
ROOT
HETATM    1  C   UNL     1      -9.796  10.577  63.739  1.00  0.00    -0.363 C  
HETATM    2  C   UNL     1     -10.613  10.979  64.958  1.00  0.00    -0.315 C  
ENDROOT
BRANCH   2   3
HETATM    3  CA  UNL     1     -11.447  12.267  64.765  1.00  0.00    -0.329 C  
BRANCH   3   4
HETATM    4  C   UNL     1     -12.317  12.241  63.479  1.00  0.00    -0.565 C  
HETATM    5  H   UNL     1     -13.168  13.517  62.185  1.00  0.00     0.000 HD 
HETATM    6  O   UNL     1     -12.636  13.533  62.971  1.00  0.00    -0.716 OA 
ENDBRANCH   3   4
BRANCH   3   7
HETATM    7  N   UNL     1     -12.220  12.437  66.012  1.00  0.00    -0.624 NA 
HETATM    8  H   UNL     1     -13.086  11.898  65.977  1.00  0.00     0.000 HD 
BRANCH   7   9
HETATM    9  C   UNL     1     -11.457  12.114  67.226  1.00  0.00    -0.345 C  
BRANCH   9  10
HETATM   10  C   UNL     1     -11.870  13.043  68.388  1.00  0.00    -0.334 C  
BRANCH  10  11
HETATM   11  N   UNL     1     -12.352  14.341  67.885  1.00  0.00    -0.570 NA 
HETATM   12  H   UNL     1     -13.321  14.502  68.159  1.00  0.00     0.000 HD 
BRANCH  11  13
HETATM   13  CA  UNL     1     -11.486  15.475  68.297  1.00  0.00    -0.353 C  
BRANCH  13  14
HETATM   14  C   UNL     1     -10.521  15.819  67.140  1.00  0.00    -0.309 C  
HETATM   15  H   UNL     1     -10.494  15.660  65.172  1.00  0.00     0.000 HD 
HETATM   16  O   UNL     1     -11.087  15.449  65.884  1.00  0.00    -0.321 OA 
ENDBRANCH  13  14
BRANCH  13  17
HETATM   17  C   UNL     1     -10.700  15.237  69.603  1.00  0.00    -0.289 C  
HETATM   18  C   UNL     1      -9.206  15.516  69.513  1.00  0.00    -0.265 C  
ENDBRANCH  13  17
ENDBRANCH  11  13
ENDBRANCH  10  11
ENDBRANCH   9  10
ENDBRANCH   7   9
ENDBRANCH   3   7
ENDBRANCH   2   3
TORSDOF 9
ENDMDL
MODEL       39
REMARK 921   NORMALIZED FREE ENERGY PREDICTED BY IDOCK:   -3.89 KCAL/MOL
REMARK 922        TOTAL FREE ENERGY PREDICTED BY IDOCK:   -6.35 KCAL/MOL
REMARK 923 INTER-LIGAND FREE ENERGY PREDICTED BY IDOCK:   -5.92 KCAL/MOL
REMARK 924 INTRA-LIGAND FREE ENERGY PREDICTED BY IDOCK:   -0.43 KCAL/MOL
REMARK 927      BINDING AFFINITY PREDICTED BY RF-SCORE:    0.00 PKD
ROOT
HETATM    1  C   UNL     1     -13.895   9.098  72.202  1.00  0.00    -0.508 C  
HETATM    2  C   UNL     1     -13.162  10.191  71.436  1.00  0.00    -0.474 C  
ENDROOT
BRANCH   2   3
HETATM    3  CA  UNL     1     -11.624  10.036  71.428  1.00  0.00    -0.305 C  
BRANCH   3   4
HETATM    4  C   UNL     1     -11.162   8.556  71.511  1.00  0.00    -0.279 C  
HETATM    5  H   UNL     1     -10.266   7.304  72.800  1.00  0.00     0.000 HD 
HETATM    6  O   UNL     1     -10.549   8.210  72.750  1.00  0.00    -0.332 OA 
ENDBRANCH   3   4
BRANCH   3   7
HETATM    7  N   UNL     1     -11.153  10.746  70.221  1.00  0.00    -0.454 NA 
HETATM    8  H   UNL     1     -10.755  10.091  69.548  1.00  0.00     0.000 HD 
BRANCH   7   9
HETATM    9  C   UNL     1     -12.188  11.576  69.588  1.00  0.00    -0.229 C  
BRANCH   9  10
HETATM   10  C   UNL     1     -11.599  12.935  69.152  1.00  0.00    -0.322 C  
BRANCH  10  11
HETATM   11  N   UNL     1     -12.507  14.043  69.497  1.00  0.00    -0.437 NA 
HETATM   12  H   UNL     1     -13.458  13.847  69.183  1.00  0.00     0.000 HD 
BRANCH  11  13
HETATM   13  CA  UNL     1     -12.482  14.378  70.943  1.00  0.00    -0.354 C  
BRANCH  13  14
HETATM   14  C   UNL     1     -13.927  14.345  71.494  1.00  0.00    -0.378 C  
HETATM   15  H   UNL     1     -14.932  13.364  72.881  1.00  0.00     0.000 HD 
HETATM   16  O   UNL     1     -14.044  13.385  72.543  1.00  0.00    -0.726 OA 
ENDBRANCH  13  14
BRANCH  13  17
HETATM   17  C   UNL     1     -11.809  15.726  71.275  1.00  0.00    -0.491 C  
HETATM   18  C   UNL     1     -12.046  16.231  72.692  1.00  0.00    -0.628 C  
ENDBRANCH  13  17
ENDBRANCH  11  13
ENDBRANCH  10  11
ENDBRANCH   9  10
ENDBRANCH   7   9
ENDBRANCH   3   7
ENDBRANCH   2   3
TORSDOF 9
ENDMDL
MODEL       40
REMARK 921   NORMALIZED FREE ENERGY PREDICTED BY IDOCK:   -3.89 KCAL/MOL
REMARK 922        TOTAL FREE ENERGY PREDICTED BY IDOCK:   -6.34 KCAL/MOL
REMARK 923 INTER-LIGAND FREE ENERGY PREDICTED BY IDOCK:   -5.96 KCAL/MOL
REMARK 924 INTRA-LIGAND FREE ENERGY PREDICTED BY IDOCK:   -0.37 KCAL/MOL
REMARK 927      BINDING AFFINITY PREDICTED BY RF-SCORE:    0.00 PKD
ROOT
HETATM    1  C   UNL     1      -9.915  19.387  68.515  1.00  0.00    -0.520 C  
HETATM    2  C   UNL     1     -10.499  17.986  68.630  1.00  0.00    -0.236 C  
ENDROOT
BRANCH   2   3
HETATM    3  CA  UNL     1     -10.474  17.180  67.310  1.00  0.00    -0.313 C  
BRANCH   3   4
HETATM    4  C   UNL     1      -9.897  17.988  66.115  1.00  0.00    -0.249 C  
HETATM    5  H   UNL     1     -10.529  18.908  64.447  1.00  0.00     0.000 HD 
HETATM    6  O   UNL     1     -10.881  18.414  65.178  1.00  0.00    -0.630 OA 
ENDBRANCH   3   4
BRANCH   3   7
HETATM    7  N   UNL     1      -9.732  15.938  67.610  1.00  0.00    -0.223 NA 
HETATM    8  H   UNL     1     -10.304  15.301  68.165  1.00  0.00     0.000 HD 
BRANCH   7   9
HETATM    9  C   UNL     1      -9.213  15.260  66.413  1.00  0.00    -0.307 C  
BRANCH   9  10
HETATM   10  C   UNL     1     -10.159  14.116  65.987  1.00  0.00    -0.316 C  
BRANCH  10  11
HETATM   11  N   UNL     1     -10.238  14.012  64.520  1.00  0.00    -0.689 NA 
HETATM   12  H   UNL     1      -9.312  14.078  64.098  1.00  0.00     0.000 HD 
BRANCH  11  13
HETATM   13  CA  UNL     1     -10.942  12.785  64.067  1.00  0.00    -0.415 C  
BRANCH  13  14
HETATM   14  C   UNL     1     -11.942  12.345  65.162  1.00  0.00    -0.400 C  
HETATM   15  H   UNL     1     -13.895  12.383  65.448  1.00  0.00     0.000 HD 
HETATM   16  O   UNL     1     -13.280  12.653  64.776  1.00  0.00    -0.846 OA 
ENDBRANCH  13  14
BRANCH  13  17
HETATM   17  C   UNL     1     -10.010  11.617  63.688  1.00  0.00    -0.406 C  
HETATM   18  C   UNL     1      -9.953  10.483  64.703  1.00  0.00    -0.415 C  
ENDBRANCH  13  17
ENDBRANCH  11  13
ENDBRANCH  10  11
ENDBRANCH   9  10
ENDBRANCH   7   9
ENDBRANCH   3   7
ENDBRANCH   2   3
TORSDOF 9
ENDMDL
MODEL       41
REMARK 921   NORMALIZED FREE ENERGY PREDICTED BY IDOCK:   -3.88 KCAL/MOL
REMARK 922        TOTAL FREE ENERGY PREDICTED BY IDOCK:   -6.34 KCAL/MOL
REMARK 923 INTER-LIGAND FREE ENERGY PREDICTED BY IDOCK:   -5.73 KCAL/MOL
REMARK 924 INTRA-LIGAND FREE ENERGY PREDICTED BY IDOCK:   -0.61 KCAL/MOL
REMARK 927      BINDING AFFINITY PREDICTED BY RF-SCORE:    0.00 PKD
ROOT
HETATM    1  C   UNL     1      -9.645   9.685  66.800  1.00  0.00    -0.225 C  
HETATM    2  C   UNL     1      -9.611  10.072  68.272  1.00  0.00    -0.151 C  
ENDROOT
BRANCH   2   3
HETATM    3  CA  UNL     1     -10.914   9.751  69.040  1.00  0.00    -0.163 C  
BRANCH   3   4
HETATM    4  C   UNL     1     -10.745   9.830  70.582  1.00  0.00    -0.326 C  
HETATM    5  H   UNL     1     -11.838   9.612  72.252  1.00  0.00     0.000 HD 
HETATM    6  O   UNL     1     -11.942   9.565  71.309  1.00  0.00    -0.313 OA 
ENDBRANCH   3   4
BRANCH   3   7
HETATM    7  N   UNL     1     -11.938  10.670  68.500  1.00  0.00    -0.794 NA 
HETATM    8  H   UNL     1     -12.875  10.349  68.742  1.00  0.00     0.000 HD 
BRANCH   7   9
HETATM    9  C   UNL     1     -11.745  12.068  68.908  1.00  0.00    -0.326 C  
BRANCH   9  10
HETATM   10  C   UNL     1     -11.835  13.006  67.684  1.00  0.00    -0.351 C  
BRANCH  10  11
HETATM   11  N   UNL     1     -12.160  12.252  66.460  1.00  0.00    -0.599 NA 
HETATM   12  H   UNL     1     -13.168  12.222  66.307  1.00  0.00     0.000 HD 
BRANCH  11  13
HETATM   13  CA  UNL     1     -11.454  12.771  65.261  1.00  0.00    -0.325 C  
BRANCH  13  14
HETATM   14  C   UNL     1     -12.001  14.177  64.923  1.00  0.00    -0.417 C  
HETATM   15  H   UNL     1     -12.810  15.088  63.371  1.00  0.00     0.000 HD 
HETATM   16  O   UNL     1     -12.474  14.224  63.578  1.00  0.00    -0.798 OA 
ENDBRANCH  13  14
BRANCH  13  17
HETATM   17  C   UNL     1     -11.532  11.850  64.026  1.00  0.00    -0.480 C  
HETATM   18  C   UNL     1     -10.189  11.491  63.406  1.00  0.00    -0.462 C  
ENDBRANCH  13  17
ENDBRANCH  11  13
ENDBRANCH  10  11
ENDBRANCH   9  10
ENDBRANCH   7   9
ENDBRANCH   3   7
ENDBRANCH   2   3
TORSDOF 9
ENDMDL
MODEL       42
REMARK 921   NORMALIZED FREE ENERGY PREDICTED BY IDOCK:   -3.87 KCAL/MOL
REMARK 922        TOTAL FREE ENERGY PREDICTED BY IDOCK:   -6.32 KCAL/MOL
REMARK 923 INTER-LIGAND FREE ENERGY PREDICTED BY IDOCK:   -5.70 KCAL/MOL
REMARK 924 INTRA-LIGAND FREE ENERGY PREDICTED BY IDOCK:   -0.62 KCAL/MOL
REMARK 927      BINDING AFFINITY PREDICTED BY RF-SCORE:    0.00 PKD
ROOT
HETATM    1  C   UNL     1     -12.907  11.147  71.385  1.00  0.00    -0.544 C  
HETATM    2  C   UNL     1     -12.276  12.226  70.517  1.00  0.00    -0.387 C  
ENDROOT
BRANCH   2   3
HETATM    3  CA  UNL     1     -12.678  13.668  70.906  1.00  0.00    -0.310 C  
BRANCH   3   4
HETATM    4  C   UNL     1     -13.590  13.726  72.162  1.00  0.00    -0.519 C  
HETATM    5  H   UNL     1     -13.595  14.505  74.012  1.00  0.00     0.000 HD 
HETATM    6  O   UNL     1     -13.037  14.470  73.244  1.00  0.00    -0.559 OA 
ENDBRANCH   3   4
BRANCH   3   7
HETATM    7  N   UNL     1     -11.411  14.415  71.048  1.00  0.00    -0.517 NA 
HETATM    8  H   UNL     1     -10.627  13.866  70.696  1.00  0.00     0.000 HD 
BRANCH   7   9
HETATM    9  C   UNL     1     -11.440  15.743  70.417  1.00  0.00    -0.365 C  
BRANCH   9  10
HETATM   10  C   UNL     1     -11.712  15.616  68.902  1.00  0.00    -0.384 C  
BRANCH  10  11
HETATM   11  N   UNL     1     -10.475  15.310  68.164  1.00  0.00    -0.242 NA 
HETATM   12  H   UNL     1      -9.675  15.264  68.795  1.00  0.00     0.000 HD 
BRANCH  11  13
HETATM   13  CA  UNL     1     -10.582  14.072  67.350  1.00  0.00    -0.278 C  
BRANCH  13  14
HETATM   14  C   UNL     1      -9.777  14.257  66.044  1.00  0.00    -0.287 C  
HETATM   15  H   UNL     1      -8.905  15.735  65.069  1.00  0.00     0.000 HD 
HETATM   16  O   UNL     1      -9.400  15.622  65.872  1.00  0.00    -0.335 OA 
ENDBRANCH  13  14
BRANCH  13  17
HETATM   17  C   UNL     1     -12.028  13.638  67.036  1.00  0.00    -0.448 C  
HETATM   18  C   UNL     1     -12.332  13.438  65.557  1.00  0.00    -0.528 C  
ENDBRANCH  13  17
ENDBRANCH  11  13
ENDBRANCH  10  11
ENDBRANCH   9  10
ENDBRANCH   7   9
ENDBRANCH   3   7
ENDBRANCH   2   3
TORSDOF 9
ENDMDL
MODEL       43
REMARK 921   NORMALIZED FREE ENERGY PREDICTED BY IDOCK:   -3.87 KCAL/MOL
REMARK 922        TOTAL FREE ENERGY PREDICTED BY IDOCK:   -6.32 KCAL/MOL
REMARK 923 INTER-LIGAND FREE ENERGY PREDICTED BY IDOCK:   -6.08 KCAL/MOL
REMARK 924 INTRA-LIGAND FREE ENERGY PREDICTED BY IDOCK:   -0.24 KCAL/MOL
REMARK 927      BINDING AFFINITY PREDICTED BY RF-SCORE:    0.00 PKD
ROOT
HETATM    1  C   UNL     1     -13.377   9.607  71.864  1.00  0.00    -0.526 C  
HETATM    2  C   UNL     1     -12.749  10.889  71.334  1.00  0.00    -0.539 C  
ENDROOT
BRANCH   2   3
HETATM    3  CA  UNL     1     -11.551  10.661  70.383  1.00  0.00    -0.351 C  
BRANCH   3   4
HETATM    4  C   UNL     1     -10.665   9.456  70.800  1.00  0.00    -0.305 C  
HETATM    5  H   UNL     1     -10.273   7.575  70.221  1.00  0.00     0.000 HD 
HETATM    6  O   UNL     1     -10.815   8.312  69.966  1.00  0.00    -0.247 OA 
ENDBRANCH   3   4
BRANCH   3   7
HETATM    7  N   UNL     1     -12.129  10.542  69.028  1.00  0.00    -0.713 NA 
HETATM    8  H   UNL     1     -13.018  11.038  68.970  1.00  0.00     0.000 HD 
BRANCH   7   9
HETATM    9  C   UNL     1     -11.218  10.983  67.962  1.00  0.00    -0.309 C  
BRANCH   9  10
HETATM   10  C   UNL     1     -11.703  12.317  67.354  1.00  0.00    -0.335 C  
BRANCH  10  11
HETATM   11  N   UNL     1     -12.266  12.115  66.008  1.00  0.00    -0.525 NA 
HETATM   12  H   UNL     1     -13.134  11.580  66.052  1.00  0.00     0.000 HD 
BRANCH  11  13
HETATM   13  CA  UNL     1     -12.462  13.387  65.269  1.00  0.00    -0.483 C  
BRANCH  13  14
HETATM   14  C   UNL     1     -12.119  13.163  63.778  1.00  0.00    -0.495 C  
HETATM   15  H   UNL     1     -11.756  11.633  62.584  1.00  0.00     0.000 HD 
HETATM   16  O   UNL     1     -11.967  11.771  63.500  1.00  0.00    -0.482 OA 
ENDBRANCH  13  14
BRANCH  13  17
HETATM   17  C   UNL     1     -11.666  14.582  65.832  1.00  0.00    -0.345 C  
HETATM   18  C   UNL     1     -10.729  15.256  64.838  1.00  0.00    -0.423 C  
ENDBRANCH  13  17
ENDBRANCH  11  13
ENDBRANCH  10  11
ENDBRANCH   9  10
ENDBRANCH   7   9
ENDBRANCH   3   7
ENDBRANCH   2   3
TORSDOF 9
ENDMDL
MODEL       44
REMARK 921   NORMALIZED FREE ENERGY PREDICTED BY IDOCK:   -3.87 KCAL/MOL
REMARK 922        TOTAL FREE ENERGY PREDICTED BY IDOCK:   -6.31 KCAL/MOL
REMARK 923 INTER-LIGAND FREE ENERGY PREDICTED BY IDOCK:   -5.88 KCAL/MOL
REMARK 924 INTRA-LIGAND FREE ENERGY PREDICTED BY IDOCK:   -0.44 KCAL/MOL
REMARK 927      BINDING AFFINITY PREDICTED BY RF-SCORE:    0.00 PKD
ROOT
HETATM    1  C   UNL     1     -11.698  14.057  66.857  1.00  0.00    -0.435 C  
HETATM    2  C   UNL     1     -12.702  13.886  65.726  1.00  0.00    -0.503 C  
ENDROOT
BRANCH   2   3
HETATM    3  CA  UNL     1     -12.399  14.743  64.475  1.00  0.00    -0.366 C  
BRANCH   3   4
HETATM    4  C   UNL     1     -11.154  15.654  64.650  1.00  0.00    -0.373 C  
HETATM    5  H   UNL     1     -10.588  17.551  64.311  1.00  0.00     0.000 HD 
HETATM    6  O   UNL     1     -11.350  16.993  64.204  1.00  0.00    -1.164 OA 
ENDBRANCH   3   4
BRANCH   3   7
HETATM    7  N   UNL     1     -12.295  13.792  63.349  1.00  0.00    -1.100 NA 
HETATM    8  H   UNL     1     -12.411  14.273  62.457  1.00  0.00     0.000 HD 
BRANCH   7   9
HETATM    9  C   UNL     1     -11.052  13.006  63.358  1.00  0.00     0.015 C  
BRANCH   9  10
HETATM   10  C   UNL     1     -11.368  11.495  63.371  1.00  0.00    -0.206 C  
BRANCH  10  11
HETATM   11  N   UNL     1     -10.166  10.698  63.070  1.00  0.00    -0.678 NA 
HETATM   12  H   UNL     1      -9.640  11.109  62.299  1.00  0.00     0.000 HD 
BRANCH  11  13
HETATM   13  CA  UNL     1      -9.299  10.494  64.258  1.00  0.00    -0.267 C  
BRANCH  13  14
HETATM   14  C   UNL     1      -7.961   9.866  63.804  1.00  0.00    -0.148 C  
HETATM   15  H   UNL     1      -7.264   8.918  62.219  1.00  0.00     0.000 HD 
HETATM   16  O   UNL     1      -8.086   9.304  62.498  1.00  0.00    -0.129 OA 
ENDBRANCH  13  14
BRANCH  13  17
HETATM   17  C   UNL     1      -9.939   9.649  65.379  1.00  0.00    -0.230 C  
HETATM   18  C   UNL     1     -10.221  10.403  66.671  1.00  0.00    -0.292 C  
ENDBRANCH  13  17
ENDBRANCH  11  13
ENDBRANCH  10  11
ENDBRANCH   9  10
ENDBRANCH   7   9
ENDBRANCH   3   7
ENDBRANCH   2   3
TORSDOF 9
ENDMDL
MODEL       45
REMARK 921   NORMALIZED FREE ENERGY PREDICTED BY IDOCK:   -3.87 KCAL/MOL
REMARK 922        TOTAL FREE ENERGY PREDICTED BY IDOCK:   -6.31 KCAL/MOL
REMARK 923 INTER-LIGAND FREE ENERGY PREDICTED BY IDOCK:   -5.81 KCAL/MOL
REMARK 924 INTRA-LIGAND FREE ENERGY PREDICTED BY IDOCK:   -0.50 KCAL/MOL
REMARK 927      BINDING AFFINITY PREDICTED BY RF-SCORE:    0.00 PKD
ROOT
HETATM    1  C   UNL     1     -11.031  15.535  70.071  1.00  0.00    -0.331 C  
HETATM    2  C   UNL     1     -11.811  14.783  69.002  1.00  0.00    -0.337 C  
ENDROOT
BRANCH   2   3
HETATM    3  CA  UNL     1     -11.006  13.663  68.301  1.00  0.00    -0.254 C  
BRANCH   3   4
HETATM    4  C   UNL     1     -11.902  12.510  67.773  1.00  0.00    -0.313 C  
HETATM    5  H   UNL     1     -12.637  10.744  68.383  1.00  0.00     0.000 HD 
HETATM    6  O   UNL     1     -12.088  11.449  68.706  1.00  0.00    -0.480 OA 
ENDBRANCH   3   4
BRANCH   3   7
HETATM    7  N   UNL     1     -10.210  14.335  67.253  1.00  0.00    -0.251 NA 
HETATM    8  H   UNL     1      -9.685  13.653  66.705  1.00  0.00     0.000 HD 
BRANCH   7   9
HETATM    9  C   UNL     1     -11.008  15.202  66.375  1.00  0.00    -0.329 C  
BRANCH   9  10
HETATM   10  C   UNL     1     -10.710  14.892  64.892  1.00  0.00    -0.405 C  
BRANCH  10  11
HETATM   11  N   UNL     1      -9.992  13.613  64.751  1.00  0.00    -0.632 NA 
HETATM   12  H   UNL     1      -9.816  13.191  65.663  1.00  0.00     0.000 HD 
BRANCH  11  13
HETATM   13  CA  UNL     1     -10.687  12.660  63.849  1.00  0.00    -0.431 C  
BRANCH  13  14
HETATM   14  C   UNL     1     -12.150  13.124  63.656  1.00  0.00    -0.513 C  
HETATM   15  H   UNL     1     -13.939  12.604  64.308  1.00  0.00     0.000 HD 
HETATM   16  O   UNL     1     -13.040  12.319  64.427  1.00  0.00    -0.780 OA 
ENDBRANCH  13  14
BRANCH  13  17
HETATM   17  C   UNL     1     -10.645  11.191  64.316  1.00  0.00    -0.425 C  
HETATM   18  C   UNL     1      -9.640  10.312  63.584  1.00  0.00    -0.334 C  
ENDBRANCH  13  17
ENDBRANCH  11  13
ENDBRANCH  10  11
ENDBRANCH   9  10
ENDBRANCH   7   9
ENDBRANCH   3   7
ENDBRANCH   2   3
TORSDOF 9
ENDMDL
MODEL       46
REMARK 921   NORMALIZED FREE ENERGY PREDICTED BY IDOCK:   -3.87 KCAL/MOL
REMARK 922        TOTAL FREE ENERGY PREDICTED BY IDOCK:   -6.31 KCAL/MOL
REMARK 923 INTER-LIGAND FREE ENERGY PREDICTED BY IDOCK:   -5.73 KCAL/MOL
REMARK 924 INTRA-LIGAND FREE ENERGY PREDICTED BY IDOCK:   -0.59 KCAL/MOL
REMARK 927      BINDING AFFINITY PREDICTED BY RF-SCORE:    0.00 PKD
ROOT
HETATM    1  C   UNL     1      -9.532  20.464  67.109  1.00  0.00    -0.567 C  
HETATM    2  C   UNL     1     -10.098  19.526  68.165  1.00  0.00    -0.537 C  
ENDROOT
BRANCH   2   3
HETATM    3  CA  UNL     1     -10.383  18.094  67.654  1.00  0.00    -0.397 C  
BRANCH   3   4
HETATM    4  C   UNL     1      -9.371  17.623  66.573  1.00  0.00    -0.272 C  
HETATM    5  H   UNL     1      -9.362  16.741  64.770  1.00  0.00     0.000 HD 
HETATM    6  O   UNL     1      -9.981  17.029  65.431  1.00  0.00    -0.556 OA 
ENDBRANCH   3   4
BRANCH   3   7
HETATM    7  N   UNL     1     -10.422  17.237  68.856  1.00  0.00    -0.342 NA 
HETATM    8  H   UNL     1     -10.370  17.801  69.704  1.00  0.00     0.000 HD 
BRANCH   7   9
HETATM    9  C   UNL     1     -11.587  16.341  68.899  1.00  0.00    -0.230 C  
BRANCH   9  10
HETATM   10  C   UNL     1     -11.185  14.911  68.476  1.00  0.00    -0.279 C  
BRANCH  10  11
HETATM   11  N   UNL     1     -11.436  14.692  67.041  1.00  0.00    -0.359 NA 
HETATM   12  H   UNL     1     -10.853  15.306  66.470  1.00  0.00     0.000 HD 
BRANCH  11  13
HETATM   13  CA  UNL     1     -11.268  13.273  66.637  1.00  0.00    -0.306 C  
BRANCH  13  14
HETATM   14  C   UNL     1     -12.021  13.034  65.308  1.00  0.00    -0.407 C  
HETATM   15  H   UNL     1     -13.734  13.577  64.490  1.00  0.00     0.000 HD 
HETATM   16  O   UNL     1     -13.271  13.723  65.307  1.00  0.00    -0.755 OA 
ENDBRANCH  13  14
BRANCH  13  17
HETATM   17  C   UNL     1     -11.713  12.249  67.701  1.00  0.00    -0.403 C  
HETATM   18  C   UNL     1     -11.276  10.815  67.436  1.00  0.00    -0.315 C  
ENDBRANCH  13  17
ENDBRANCH  11  13
ENDBRANCH  10  11
ENDBRANCH   9  10
ENDBRANCH   7   9
ENDBRANCH   3   7
ENDBRANCH   2   3
TORSDOF 9
ENDMDL
MODEL       47
REMARK 921   NORMALIZED FREE ENERGY PREDICTED BY IDOCK:   -3.86 KCAL/MOL
REMARK 922        TOTAL FREE ENERGY PREDICTED BY IDOCK:   -6.29 KCAL/MOL
REMARK 923 INTER-LIGAND FREE ENERGY PREDICTED BY IDOCK:   -6.05 KCAL/MOL
REMARK 924 INTRA-LIGAND FREE ENERGY PREDICTED BY IDOCK:   -0.24 KCAL/MOL
REMARK 927      BINDING AFFINITY PREDICTED BY RF-SCORE:    0.00 PKD
ROOT
HETATM    1  C   UNL     1     -13.374  11.209  71.825  1.00  0.00    -0.378 C  
HETATM    2  C   UNL     1     -12.832  10.147  70.879  1.00  0.00    -0.442 C  
ENDROOT
BRANCH   2   3
HETATM    3  CA  UNL     1     -11.571  10.579  70.096  1.00  0.00    -0.326 C  
BRANCH   3   4
HETATM    4  C   UNL     1     -10.500   9.458  70.001  1.00  0.00    -0.234 C  
HETATM    5  H   UNL     1      -8.550   9.240  69.580  1.00  0.00     0.000 HD 
HETATM    6  O   UNL     1      -9.204   9.926  69.638  1.00  0.00    -0.203 OA 
ENDBRANCH   3   4
BRANCH   3   7
HETATM    7  N   UNL     1     -12.054  11.062  68.786  1.00  0.00    -0.712 NA 
HETATM    8  H   UNL     1     -13.037  10.823  68.654  1.00  0.00     0.000 HD 
BRANCH   7   9
HETATM    9  C   UNL     1     -11.836  12.500  68.574  1.00  0.00    -0.295 C  
BRANCH   9  10
HETATM   10  C   UNL     1     -11.825  12.828  67.065  1.00  0.00    -0.361 C  
BRANCH  10  11
HETATM   11  N   UNL     1     -11.284  14.175  66.818  1.00  0.00    -0.313 NA 
HETATM   12  H   UNL     1     -10.406  14.314  67.319  1.00  0.00     0.000 HD 
BRANCH  11  13
HETATM   13  CA  UNL     1     -11.124  14.475  65.372  1.00  0.00    -0.345 C  
BRANCH  13  14
HETATM   14  C   UNL     1     -10.599  15.921  65.212  1.00  0.00    -0.419 C  
HETATM   15  H   UNL     1     -11.043  17.518  64.141  1.00  0.00     0.000 HD 
HETATM   16  O   UNL     1     -11.365  16.630  64.239  1.00  0.00    -1.116 OA 
ENDBRANCH  13  14
BRANCH  13  17
HETATM   17  C   UNL     1     -12.401  14.268  64.531  1.00  0.00    -0.432 C  
HETATM   18  C   UNL     1     -12.327  13.133  63.520  1.00  0.00    -0.478 C  
ENDBRANCH  13  17
ENDBRANCH  11  13
ENDBRANCH  10  11
ENDBRANCH   9  10
ENDBRANCH   7   9
ENDBRANCH   3   7
ENDBRANCH   2   3
TORSDOF 9
ENDMDL
MODEL       48
REMARK 921   NORMALIZED FREE ENERGY PREDICTED BY IDOCK:   -3.85 KCAL/MOL
REMARK 922        TOTAL FREE ENERGY PREDICTED BY IDOCK:   -6.28 KCAL/MOL
REMARK 923 INTER-LIGAND FREE ENERGY PREDICTED BY IDOCK:   -5.93 KCAL/MOL
REMARK 924 INTRA-LIGAND FREE ENERGY PREDICTED BY IDOCK:   -0.35 KCAL/MOL
REMARK 927      BINDING AFFINITY PREDICTED BY RF-SCORE:    0.00 PKD
ROOT
HETATM    1  C   UNL     1     -11.770  11.673  67.926  1.00  0.00    -0.329 C  
HETATM    2  C   UNL     1     -10.995  12.415  66.846  1.00  0.00    -0.307 C  
ENDROOT
BRANCH   2   3
HETATM    3  CA  UNL     1     -11.548  13.823  66.523  1.00  0.00    -0.365 C  
BRANCH   3   4
HETATM    4  C   UNL     1     -12.321  13.879  65.178  1.00  0.00    -0.449 C  
HETATM    5  H   UNL     1     -13.595  12.763  64.100  1.00  0.00     0.000 HD 
HETATM    6  O   UNL     1     -13.122  12.729  64.923  1.00  0.00    -0.833 OA 
ENDBRANCH   3   4
BRANCH   3   7
HETATM    7  N   UNL     1     -12.354  14.218  67.697  1.00  0.00    -0.582 NA 
HETATM    8  H   UNL     1     -12.575  13.406  68.273  1.00  0.00     0.000 HD 
BRANCH   7   9
HETATM    9  C   UNL     1     -11.733  15.275  68.507  1.00  0.00    -0.332 C  
BRANCH   9  10
HETATM   10  C   UNL     1     -10.643  16.009  67.694  1.00  0.00    -0.309 C  
BRANCH  10  11
HETATM   11  N   UNL     1     -10.760  17.469  67.846  1.00  0.00    -0.380 NA 
HETATM   12  H   UNL     1     -10.684  17.742  68.826  1.00  0.00     0.000 HD 
BRANCH  11  13
HETATM   13  CA  UNL     1      -9.785  18.214  67.009  1.00  0.00    -0.307 C  
BRANCH  13  14
HETATM   14  C   UNL     1     -10.544  18.930  65.868  1.00  0.00    -0.373 C  
HETATM   15  H   UNL     1     -11.452  18.431  64.188  1.00  0.00     0.000 HD 
HETATM   16  O   UNL     1     -10.985  17.991  64.889  1.00  0.00    -0.776 OA 
ENDBRANCH  13  14
BRANCH  13  17
HETATM   17  C   UNL     1      -8.641  17.351  66.438  1.00  0.00    -0.282 C  
HETATM   18  C   UNL     1      -7.362  18.110  66.116  1.00  0.00    -0.309 C  
ENDBRANCH  13  17
ENDBRANCH  11  13
ENDBRANCH  10  11
ENDBRANCH   9  10
ENDBRANCH   7   9
ENDBRANCH   3   7
ENDBRANCH   2   3
TORSDOF 9
ENDMDL
MODEL       49
REMARK 921   NORMALIZED FREE ENERGY PREDICTED BY IDOCK:   -3.84 KCAL/MOL
REMARK 922        TOTAL FREE ENERGY PREDICTED BY IDOCK:   -6.27 KCAL/MOL
REMARK 923 INTER-LIGAND FREE ENERGY PREDICTED BY IDOCK:   -5.98 KCAL/MOL
REMARK 924 INTRA-LIGAND FREE ENERGY PREDICTED BY IDOCK:   -0.29 KCAL/MOL
REMARK 927      BINDING AFFINITY PREDICTED BY RF-SCORE:    0.00 PKD
ROOT
HETATM    1  C   UNL     1     -10.545   7.875  72.725  1.00  0.00    -0.418 C  
HETATM    2  C   UNL     1     -10.526   9.047  71.754  1.00  0.00    -0.418 C  
ENDROOT
BRANCH   2   3
HETATM    3  CA  UNL     1     -11.822   9.203  70.925  1.00  0.00    -0.270 C  
BRANCH   3   4
HETATM    4  C   UNL     1     -12.876  10.115  71.610  1.00  0.00    -0.454 C  
HETATM    5  H   UNL     1     -14.499   9.961  72.782  1.00  0.00     0.000 HD 
HETATM    6  O   UNL     1     -13.854   9.403  72.362  1.00  0.00    -0.451 OA 
ENDBRANCH   3   4
BRANCH   3   7
HETATM    7  N   UNL     1     -11.394   9.675  69.592  1.00  0.00    -0.415 NA 
HETATM    8  H   UNL     1     -11.577   8.967  68.881  1.00  0.00     0.000 HD 
BRANCH   7   9
HETATM    9  C   UNL     1     -11.988  10.963  69.207  1.00  0.00    -0.310 C  
BRANCH   9  10
HETATM   10  C   UNL     1     -11.163  11.624  68.081  1.00  0.00    -0.263 C  
BRANCH  10  11
HETATM   11  N   UNL     1     -12.017  11.982  66.936  1.00  0.00    -0.609 NA 
HETATM   12  H   UNL     1     -12.962  11.615  67.056  1.00  0.00     0.000 HD 
BRANCH  11  13
HETATM   13  CA  UNL     1     -12.044  13.443  66.671  1.00  0.00    -0.373 C  
BRANCH  13  14
HETATM   14  C   UNL     1     -12.619  13.689  65.258  1.00  0.00    -0.469 C  
HETATM   15  H   UNL     1     -13.526  12.639  63.853  1.00  0.00     0.000 HD 
HETATM   16  O   UNL     1     -13.172  12.488  64.722  1.00  0.00    -0.839 OA 
ENDBRANCH  13  14
BRANCH  13  17
HETATM   17  C   UNL     1     -10.680  14.145  66.828  1.00  0.00    -0.286 C  
HETATM   18  C   UNL     1     -10.108  14.734  65.545  1.00  0.00    -0.409 C  
ENDBRANCH  13  17
ENDBRANCH  11  13
ENDBRANCH  10  11
ENDBRANCH   9  10
ENDBRANCH   7   9
ENDBRANCH   3   7
ENDBRANCH   2   3
TORSDOF 9
ENDMDL
MODEL       50
REMARK 921   NORMALIZED FREE ENERGY PREDICTED BY IDOCK:   -3.83 KCAL/MOL
REMARK 922        TOTAL FREE ENERGY PREDICTED BY IDOCK:   -6.26 KCAL/MOL
REMARK 923 INTER-LIGAND FREE ENERGY PREDICTED BY IDOCK:   -5.94 KCAL/MOL
REMARK 924 INTRA-LIGAND FREE ENERGY PREDICTED BY IDOCK:   -0.32 KCAL/MOL
REMARK 927      BINDING AFFINITY PREDICTED BY RF-SCORE:    0.00 PKD
ROOT
HETATM    1  C   UNL     1      -9.856  17.139  68.623  1.00  0.00    -0.300 C  
HETATM    2  C   UNL     1     -11.022  16.200  68.903  1.00  0.00    -0.324 C  
ENDROOT
BRANCH   2   3
HETATM    3  CA  UNL     1     -10.821  15.294  70.140  1.00  0.00    -0.281 C  
BRANCH   3   4
HETATM    4  C   UNL     1     -11.569  15.811  71.399  1.00  0.00    -0.445 C  
HETATM    5  H   UNL     1     -13.446  16.113  72.045  1.00  0.00     0.000 HD 
HETATM    6  O   UNL     1     -12.988  15.797  71.275  1.00  0.00    -0.489 OA 
ENDBRANCH   3   4
BRANCH   3   7
HETATM    7  N   UNL     1     -11.224  13.937  69.716  1.00  0.00    -0.452 NA 
HETATM    8  H   UNL     1     -11.739  13.465  70.459  1.00  0.00     0.000 HD 
BRANCH   7   9
HETATM    9  C   UNL     1     -11.988  13.918  68.461  1.00  0.00    -0.359 C  
BRANCH   9  10
HETATM   10  C   UNL     1     -11.609  12.682  67.616  1.00  0.00    -0.357 C  
BRANCH  10  11
HETATM   11  N   UNL     1     -12.215  12.749  66.275  1.00  0.00    -0.538 NA 
HETATM   12  H   UNL     1     -12.987  13.415  66.256  1.00  0.00     0.000 HD 
BRANCH  11  13
HETATM   13  CA  UNL     1     -11.224  13.051  65.211  1.00  0.00    -0.289 C  
BRANCH  13  14
HETATM   14  C   UNL     1     -11.338  14.544  64.826  1.00  0.00    -0.396 C  
HETATM   15  H   UNL     1     -12.506  15.672  63.705  1.00  0.00     0.000 HD 
HETATM   16  O   UNL     1     -12.437  14.755  63.941  1.00  0.00    -0.811 OA 
ENDBRANCH  13  14
BRANCH  13  17
HETATM   17  C   UNL     1     -11.342  12.160  63.957  1.00  0.00    -0.468 C  
HETATM   18  C   UNL     1     -10.233  11.129  63.794  1.00  0.00    -0.434 C  
ENDBRANCH  13  17
ENDBRANCH  11  13
ENDBRANCH  10  11
ENDBRANCH   9  10
ENDBRANCH   7   9
ENDBRANCH   3   7
ENDBRANCH   2   3
TORSDOF 9
ENDMDL
MODEL       51
REMARK 921   NORMALIZED FREE ENERGY PREDICTED BY IDOCK:   -3.83 KCAL/MOL
REMARK 922        TOTAL FREE ENERGY PREDICTED BY IDOCK:   -6.26 KCAL/MOL
REMARK 923 INTER-LIGAND FREE ENERGY PREDICTED BY IDOCK:   -5.66 KCAL/MOL
REMARK 924 INTRA-LIGAND FREE ENERGY PREDICTED BY IDOCK:   -0.60 KCAL/MOL
REMARK 927      BINDING AFFINITY PREDICTED BY RF-SCORE:    0.00 PKD
ROOT
HETATM    1  C   UNL     1      -9.533  10.568  63.744  1.00  0.00    -0.342 C  
HETATM    2  C   UNL     1     -10.281  11.798  63.249  1.00  0.00    -0.452 C  
ENDROOT
BRANCH   2   3
HETATM    3  CA  UNL     1     -10.934  12.636  64.373  1.00  0.00    -0.351 C  
BRANCH   3   4
HETATM    4  C   UNL     1     -10.949  11.907  65.744  1.00  0.00    -0.311 C  
HETATM    5  H   UNL     1     -12.057  11.820  67.416  1.00  0.00     0.000 HD 
HETATM    6  O   UNL     1     -12.048  12.266  66.577  1.00  0.00    -0.616 OA 
ENDBRANCH   3   4
BRANCH   3   7
HETATM    7  N   UNL     1     -10.213  13.925  64.385  1.00  0.00    -0.732 NA 
HETATM    8  H   UNL     1      -9.782  14.107  63.478  1.00  0.00     0.000 HD 
BRANCH   7   9
HETATM    9  C   UNL     1     -11.049  15.061  64.799  1.00  0.00    -0.376 C  
BRANCH   9  10
HETATM   10  C   UNL     1     -10.451  15.745  66.048  1.00  0.00    -0.338 C  
BRANCH  10  11
HETATM   11  N   UNL     1     -10.995  15.158  67.285  1.00  0.00    -0.321 NA 
HETATM   12  H   UNL     1     -10.414  14.384  67.608  1.00  0.00     0.000 HD 
BRANCH  11  13
HETATM   13  CA  UNL     1     -11.189  16.163  68.362  1.00  0.00    -0.358 C  
BRANCH  13  14
HETATM   14  C   UNL     1     -10.656  17.531  67.876  1.00  0.00    -0.390 C  
HETATM   15  H   UNL     1      -9.247  18.811  68.398  1.00  0.00     0.000 HD 
HETATM   16  O   UNL     1      -9.575  17.970  68.696  1.00  0.00    -0.316 OA 
ENDBRANCH  13  14
BRANCH  13  17
HETATM   17  C   UNL     1     -10.550  15.783  69.713  1.00  0.00    -0.312 C  
HETATM   18  C   UNL     1     -11.484  15.867  70.912  1.00  0.00    -0.444 C  
ENDBRANCH  13  17
ENDBRANCH  11  13
ENDBRANCH  10  11
ENDBRANCH   9  10
ENDBRANCH   7   9
ENDBRANCH   3   7
ENDBRANCH   2   3
TORSDOF 9
ENDMDL
MODEL       52
REMARK 921   NORMALIZED FREE ENERGY PREDICTED BY IDOCK:   -3.83 KCAL/MOL
REMARK 922        TOTAL FREE ENERGY PREDICTED BY IDOCK:   -6.25 KCAL/MOL
REMARK 923 INTER-LIGAND FREE ENERGY PREDICTED BY IDOCK:   -5.91 KCAL/MOL
REMARK 924 INTRA-LIGAND FREE ENERGY PREDICTED BY IDOCK:   -0.34 KCAL/MOL
REMARK 927      BINDING AFFINITY PREDICTED BY RF-SCORE:    0.00 PKD
ROOT
HETATM    1  C   UNL     1     -11.638   9.834  71.060  1.00  0.00    -0.455 C  
HETATM    2  C   UNL     1     -12.843  10.657  71.492  1.00  0.00    -0.567 C  
ENDROOT
BRANCH   2   3
HETATM    3  CA  UNL     1     -12.870  12.091  70.916  1.00  0.00    -0.115 C  
BRANCH   3   4
HETATM    4  C   UNL     1     -12.972  13.186  72.013  1.00  0.00    -0.298 C  
HETATM    5  H   UNL     1     -14.333  13.981  73.256  1.00  0.00     0.000 HD 
HETATM    6  O   UNL     1     -14.271  13.312  72.584  1.00  0.00    -0.724 OA 
ENDBRANCH   3   4
BRANCH   3   7
HETATM    7  N   UNL     1     -11.669  12.205  70.062  1.00  0.00    -0.490 NA 
HETATM    8  H   UNL     1     -11.717  11.550  69.282  1.00  0.00     0.000 HD 
BRANCH   7   9
HETATM    9  C   UNL     1     -11.420  13.571  69.579  1.00  0.00    -0.255 C  
BRANCH   9  10
HETATM   10  C   UNL     1     -11.970  13.746  68.146  1.00  0.00    -0.358 C  
BRANCH  10  11
HETATM   11  N   UNL     1     -11.976  12.464  67.420  1.00  0.00    -0.520 NA 
HETATM   12  H   UNL     1     -12.900  12.033  67.447  1.00  0.00     0.000 HD 
BRANCH  11  13
HETATM   13  CA  UNL     1     -11.489  12.592  66.023  1.00  0.00    -0.368 C  
BRANCH  13  14
HETATM   14  C   UNL     1     -10.516  13.791  65.936  1.00  0.00    -0.297 C  
HETATM   15  H   UNL     1     -10.297  15.410  64.828  1.00  0.00     0.000 HD 
HETATM   16  O   UNL     1     -10.895  14.673  64.881  1.00  0.00    -0.388 OA 
ENDBRANCH  13  14
BRANCH  13  17
HETATM   17  C   UNL     1     -12.605  12.727  64.967  1.00  0.00    -0.538 C  
HETATM   18  C   UNL     1     -12.425  11.862  63.727  1.00  0.00    -0.537 C  
ENDBRANCH  13  17
ENDBRANCH  11  13
ENDBRANCH  10  11
ENDBRANCH   9  10
ENDBRANCH   7   9
ENDBRANCH   3   7
ENDBRANCH   2   3
TORSDOF 9
ENDMDL
MODEL       53
REMARK 921   NORMALIZED FREE ENERGY PREDICTED BY IDOCK:   -3.82 KCAL/MOL
REMARK 922        TOTAL FREE ENERGY PREDICTED BY IDOCK:   -6.25 KCAL/MOL
REMARK 923 INTER-LIGAND FREE ENERGY PREDICTED BY IDOCK:   -5.99 KCAL/MOL
REMARK 924 INTRA-LIGAND FREE ENERGY PREDICTED BY IDOCK:   -0.25 KCAL/MOL
REMARK 927      BINDING AFFINITY PREDICTED BY RF-SCORE:    0.00 PKD
ROOT
HETATM    1  C   UNL     1     -10.386  19.801  65.839  1.00  0.00    -0.582 C  
HETATM    2  C   UNL     1     -10.700  18.914  67.036  1.00  0.00    -0.477 C  
ENDROOT
BRANCH   2   3
HETATM    3  CA  UNL     1      -9.939  17.568  67.042  1.00  0.00    -0.311 C  
BRANCH   3   4
HETATM    4  C   UNL     1     -10.202  16.727  68.321  1.00  0.00    -0.295 C  
HETATM    5  H   UNL     1      -9.179  15.760  69.752  1.00  0.00     0.000 HD 
HETATM    6  O   UNL     1      -9.017  16.274  68.969  1.00  0.00    -0.246 OA 
ENDBRANCH   3   4
BRANCH   3   7
HETATM    7  N   UNL     1     -10.314  16.887  65.786  1.00  0.00    -0.527 NA 
HETATM    8  H   UNL     1      -9.551  16.928  65.111  1.00  0.00     0.000 HD 
BRANCH   7   9
HETATM    9  C   UNL     1     -10.761  15.500  65.982  1.00  0.00    -0.326 C  
BRANCH   9  10
HETATM   10  C   UNL     1     -10.695  14.718  64.651  1.00  0.00    -0.254 C  
BRANCH  10  11
HETATM   11  N   UNL     1     -10.818  13.268  64.881  1.00  0.00    -0.326 NA 
HETATM   12  H   UNL     1     -11.575  13.065  65.535  1.00  0.00     0.000 HD 
BRANCH  11  13
HETATM   13  CA  UNL     1     -10.982  12.498  63.622  1.00  0.00    -0.456 C  
BRANCH  13  14
HETATM   14  C   UNL     1     -12.472  12.121  63.452  1.00  0.00    -0.512 C  
HETATM   15  H   UNL     1     -14.136  12.258  64.504  1.00  0.00     0.000 HD 
HETATM   16  O   UNL     1     -13.221  12.490  64.609  1.00  0.00    -0.848 OA 
ENDBRANCH  13  14
BRANCH  13  17
HETATM   17  C   UNL     1     -10.093  11.242  63.520  1.00  0.00    -0.443 C  
HETATM   18  C   UNL     1     -10.078  10.364  64.764  1.00  0.00    -0.387 C  
ENDBRANCH  13  17
ENDBRANCH  11  13
ENDBRANCH  10  11
ENDBRANCH   9  10
ENDBRANCH   7   9
ENDBRANCH   3   7
ENDBRANCH   2   3
TORSDOF 9
ENDMDL
MODEL       54
REMARK 921   NORMALIZED FREE ENERGY PREDICTED BY IDOCK:   -3.81 KCAL/MOL
REMARK 922        TOTAL FREE ENERGY PREDICTED BY IDOCK:   -6.22 KCAL/MOL
REMARK 923 INTER-LIGAND FREE ENERGY PREDICTED BY IDOCK:   -5.79 KCAL/MOL
REMARK 924 INTRA-LIGAND FREE ENERGY PREDICTED BY IDOCK:   -0.42 KCAL/MOL
REMARK 927      BINDING AFFINITY PREDICTED BY RF-SCORE:    0.00 PKD
ROOT
HETATM    1  C   UNL     1     -13.264  12.486  72.026  1.00  0.00    -0.524 C  
HETATM    2  C   UNL     1     -13.053  11.037  71.610  1.00  0.00    -0.543 C  
ENDROOT
BRANCH   2   3
HETATM    3  CA  UNL     1     -11.881  10.826  70.624  1.00  0.00    -0.360 C  
BRANCH   3   4
HETATM    4  C   UNL     1     -10.982   9.615  70.999  1.00  0.00    -0.361 C  
HETATM    5  H   UNL     1      -9.113   8.950  70.699  1.00  0.00     0.000 HD 
HETATM    6  O   UNL     1      -9.662   9.690  70.469  1.00  0.00    -0.259 OA 
ENDBRANCH   3   4
BRANCH   3   7
HETATM    7  N   UNL     1     -12.494  10.727  69.284  1.00  0.00    -0.684 NA 
HETATM    8  H   UNL     1     -13.469  11.025  69.310  1.00  0.00     0.000 HD 
BRANCH   7   9
HETATM    9  C   UNL     1     -11.755  11.459  68.245  1.00  0.00    -0.288 C  
BRANCH   9  10
HETATM   10  C   UNL     1     -11.494  12.914  68.692  1.00  0.00    -0.308 C  
BRANCH  10  11
HETATM   11  N   UNL     1     -12.279  13.866  67.887  1.00  0.00    -0.483 NA 
HETATM   12  H   UNL     1     -12.670  14.604  68.473  1.00  0.00     0.000 HD 
BRANCH  11  13
HETATM   13  CA  UNL     1     -11.506  14.438  66.756  1.00  0.00    -0.370 C  
BRANCH  13  14
HETATM   14  C   UNL     1     -11.968  13.768  65.441  1.00  0.00    -0.379 C  
HETATM   15  H   UNL     1     -13.666  13.464  64.482  1.00  0.00     0.000 HD 
HETATM   16  O   UNL     1     -13.383  13.875  65.290  1.00  0.00    -0.732 OA 
ENDBRANCH  13  14
BRANCH  13  17
HETATM   17  C   UNL     1      -9.975  14.329  66.908  1.00  0.00    -0.263 C  
HETATM   18  C   UNL     1      -9.249  15.657  67.072  1.00  0.00    -0.239 C  
ENDBRANCH  13  17
ENDBRANCH  11  13
ENDBRANCH  10  11
ENDBRANCH   9  10
ENDBRANCH   7   9
ENDBRANCH   3   7
ENDBRANCH   2   3
TORSDOF 9
ENDMDL
MODEL       55
REMARK 921   NORMALIZED FREE ENERGY PREDICTED BY IDOCK:   -3.80 KCAL/MOL
REMARK 922        TOTAL FREE ENERGY PREDICTED BY IDOCK:   -6.21 KCAL/MOL
REMARK 923 INTER-LIGAND FREE ENERGY PREDICTED BY IDOCK:   -5.81 KCAL/MOL
REMARK 924 INTRA-LIGAND FREE ENERGY PREDICTED BY IDOCK:   -0.40 KCAL/MOL
REMARK 927      BINDING AFFINITY PREDICTED BY RF-SCORE:    0.00 PKD
ROOT
HETATM    1  C   UNL     1      -9.909  10.468  64.256  1.00  0.00    -0.402 C  
HETATM    2  C   UNL     1     -10.377  11.199  65.507  1.00  0.00    -0.326 C  
ENDROOT
BRANCH   2   3
HETATM    3  CA  UNL     1     -11.208  12.472  65.223  1.00  0.00    -0.304 C  
BRANCH   3   4
HETATM    4  C   UNL     1     -11.966  12.413  63.869  1.00  0.00    -0.486 C  
HETATM    5  H   UNL     1     -12.882  13.645  62.575  1.00  0.00     0.000 HD 
HETATM    6  O   UNL     1     -12.419  13.681  63.404  1.00  0.00    -0.784 OA 
ENDBRANCH   3   4
BRANCH   3   7
HETATM    7  N   UNL     1     -12.087  12.650  66.397  1.00  0.00    -0.565 NA 
HETATM    8  H   UNL     1     -11.908  11.928  67.095  1.00  0.00     0.000 HD 
BRANCH   7   9
HETATM    9  C   UNL     1     -11.999  13.988  66.999  1.00  0.00    -0.438 C  
BRANCH   9  10
HETATM   10  C   UNL     1     -10.657  14.158  67.743  1.00  0.00    -0.243 C  
BRANCH  10  11
HETATM   11  N   UNL     1     -10.743  13.637  69.119  1.00  0.00    -0.416 NA 
HETATM   12  H   UNL     1      -9.843  13.713  69.595  1.00  0.00     0.000 HD 
BRANCH  11  13
HETATM   13  CA  UNL     1     -11.821  14.280  69.912  1.00  0.00    -0.322 C  
BRANCH  13  14
HETATM   14  C   UNL     1     -11.209  15.412  70.769  1.00  0.00    -0.346 C  
HETATM   15  H   UNL     1     -11.717  16.474  72.353  1.00  0.00     0.000 HD 
HETATM   16  O   UNL     1     -12.094  15.779  71.826  1.00  0.00    -0.378 OA 
ENDBRANCH  13  14
BRANCH  13  17
HETATM   17  C   UNL     1     -12.629  13.310  70.797  1.00  0.00    -0.357 C  
HETATM   18  C   UNL     1     -12.280  11.838  70.622  1.00  0.00    -0.443 C  
ENDBRANCH  13  17
ENDBRANCH  11  13
ENDBRANCH  10  11
ENDBRANCH   9  10
ENDBRANCH   7   9
ENDBRANCH   3   7
ENDBRANCH   2   3
TORSDOF 9
ENDMDL
MODEL       56
REMARK 921   NORMALIZED FREE ENERGY PREDICTED BY IDOCK:   -3.80 KCAL/MOL
REMARK 922        TOTAL FREE ENERGY PREDICTED BY IDOCK:   -6.20 KCAL/MOL
REMARK 923 INTER-LIGAND FREE ENERGY PREDICTED BY IDOCK:   -5.77 KCAL/MOL
REMARK 924 INTRA-LIGAND FREE ENERGY PREDICTED BY IDOCK:   -0.43 KCAL/MOL
REMARK 927      BINDING AFFINITY PREDICTED BY RF-SCORE:    0.00 PKD
ROOT
HETATM    1  C   UNL     1     -12.108  12.435  63.372  1.00  0.00    -0.620 C  
HETATM    2  C   UNL     1     -12.636  12.610  64.789  1.00  0.00    -0.530 C  
ENDROOT
BRANCH   2   3
HETATM    3  CA  UNL     1     -11.536  12.848  65.850  1.00  0.00    -0.377 C  
BRANCH   3   4
HETATM    4  C   UNL     1     -11.351  14.347  66.208  1.00  0.00    -0.350 C  
HETATM    5  H   UNL     1     -11.902  15.660  67.623  1.00  0.00     0.000 HD 
HETATM    6  O   UNL     1     -12.016  14.743  67.404  1.00  0.00    -0.357 OA 
ENDBRANCH   3   4
BRANCH   3   7
HETATM    7  N   UNL     1     -11.896  11.994  67.002  1.00  0.00    -0.611 NA 
HETATM    8  H   UNL     1     -12.754  11.475  66.813  1.00  0.00     0.000 HD 
BRANCH   7   9
HETATM    9  C   UNL     1     -10.819  11.084  67.417  1.00  0.00    -0.274 C  
BRANCH   9  10
HETATM   10  C   UNL     1     -11.239  10.286  68.670  1.00  0.00    -0.208 C  
BRANCH  10  11
HETATM   11  N   UNL     1     -12.590  10.668  69.115  1.00  0.00    -0.676 NA 
HETATM   12  H   UNL     1     -13.301  10.090  68.665  1.00  0.00     0.000 HD 
BRANCH  11  13
HETATM   13  CA  UNL     1     -12.739  10.639  70.592  1.00  0.00    -0.359 C  
BRANCH  13  14
HETATM   14  C   UNL     1     -12.488  12.058  71.152  1.00  0.00    -0.249 C  
HETATM   15  H   UNL     1     -12.194  13.874  70.435  1.00  0.00     0.000 HD 
HETATM   16  O   UNL     1     -12.348  13.002  70.091  1.00  0.00    -0.283 OA 
ENDBRANCH  13  14
BRANCH  13  17
HETATM   17  C   UNL     1     -11.837   9.611  71.305  1.00  0.00    -0.460 C  
HETATM   18  C   UNL     1     -12.580   8.528  72.075  1.00  0.00    -0.414 C  
ENDBRANCH  13  17
ENDBRANCH  11  13
ENDBRANCH  10  11
ENDBRANCH   9  10
ENDBRANCH   7   9
ENDBRANCH   3   7
ENDBRANCH   2   3
TORSDOF 9
ENDMDL
MODEL       57
REMARK 921   NORMALIZED FREE ENERGY PREDICTED BY IDOCK:   -3.79 KCAL/MOL
REMARK 922        TOTAL FREE ENERGY PREDICTED BY IDOCK:   -6.20 KCAL/MOL
REMARK 923 INTER-LIGAND FREE ENERGY PREDICTED BY IDOCK:   -5.88 KCAL/MOL
REMARK 924 INTRA-LIGAND FREE ENERGY PREDICTED BY IDOCK:   -0.31 KCAL/MOL
REMARK 927      BINDING AFFINITY PREDICTED BY RF-SCORE:    0.00 PKD
ROOT
HETATM    1  C   UNL     1      -9.402  17.807  68.456  1.00  0.00    -0.295 C  
HETATM    2  C   UNL     1     -10.741  17.217  68.036  1.00  0.00    -0.372 C  
ENDROOT
BRANCH   2   3
HETATM    3  CA  UNL     1     -10.962  15.757  68.497  1.00  0.00    -0.312 C  
BRANCH   3   4
HETATM    4  C   UNL     1     -11.991  15.633  69.653  1.00  0.00    -0.349 C  
HETATM    5  H   UNL     1     -12.228  16.221  71.557  1.00  0.00     0.000 HD 
HETATM    6  O   UNL     1     -11.598  16.297  70.850  1.00  0.00    -0.401 OA 
ENDBRANCH   3   4
BRANCH   3   7
HETATM    7  N   UNL     1     -11.329  15.002  67.281  1.00  0.00    -0.344 NA 
HETATM    8  H   UNL     1     -12.271  15.246  66.975  1.00  0.00     0.000 HD 
BRANCH   7   9
HETATM    9  C   UNL     1     -10.368  15.159  66.180  1.00  0.00    -0.301 C  
BRANCH   9  10
HETATM   10  C   UNL     1     -10.938  14.562  64.875  1.00  0.00    -0.410 C  
BRANCH  10  11
HETATM   11  N   UNL     1     -10.042  13.530  64.326  1.00  0.00    -0.771 NA 
HETATM   12  H   UNL     1      -9.289  13.316  64.980  1.00  0.00     0.000 HD 
BRANCH  11  13
HETATM   13  CA  UNL     1     -10.764  12.297  63.922  1.00  0.00    -0.420 C  
BRANCH  13  14
HETATM   14  C   UNL     1     -12.208  12.356  64.470  1.00  0.00    -0.431 C  
HETATM   15  H   UNL     1     -14.035  12.031  63.796  1.00  0.00     0.000 HD 
HETATM   16  O   UNL     1     -13.147  11.995  63.459  1.00  0.00    -0.764 OA 
ENDBRANCH  13  14
BRANCH  13  17
HETATM   17  C   UNL     1     -10.077  10.984  64.353  1.00  0.00    -0.393 C  
HETATM   18  C   UNL     1      -9.270  10.293  63.262  1.00  0.00    -0.321 C  
ENDBRANCH  13  17
ENDBRANCH  11  13
ENDBRANCH  10  11
ENDBRANCH   9  10
ENDBRANCH   7   9
ENDBRANCH   3   7
ENDBRANCH   2   3
TORSDOF 9
ENDMDL
MODEL       58
REMARK 921   NORMALIZED FREE ENERGY PREDICTED BY IDOCK:   -3.79 KCAL/MOL
REMARK 922        TOTAL FREE ENERGY PREDICTED BY IDOCK:   -6.19 KCAL/MOL
REMARK 923 INTER-LIGAND FREE ENERGY PREDICTED BY IDOCK:   -5.83 KCAL/MOL
REMARK 924 INTRA-LIGAND FREE ENERGY PREDICTED BY IDOCK:   -0.36 KCAL/MOL
REMARK 927      BINDING AFFINITY PREDICTED BY RF-SCORE:    0.00 PKD
ROOT
HETATM    1  C   UNL     1     -12.009  14.159  66.910  1.00  0.00    -0.479 C  
HETATM    2  C   UNL     1     -12.588  13.507  65.661  1.00  0.00    -0.512 C  
ENDROOT
BRANCH   2   3
HETATM    3  CA  UNL     1     -12.272  14.263  64.349  1.00  0.00    -0.447 C  
BRANCH   3   4
HETATM    4  C   UNL     1     -11.293  15.451  64.552  1.00  0.00    -0.313 C  
HETATM    5  H   UNL     1     -11.180  17.419  64.173  1.00  0.00     0.000 HD 
HETATM    6  O   UNL     1     -11.779  16.692  64.048  1.00  0.00    -1.143 OA 
ENDBRANCH   3   4
BRANCH   3   7
HETATM    7  N   UNL     1     -11.786  13.239  63.402  1.00  0.00    -0.723 NA 
HETATM    8  H   UNL     1     -11.776  13.604  62.449  1.00  0.00     0.000 HD 
BRANCH   7   9
HETATM    9  C   UNL     1     -10.472  12.684  63.760  1.00  0.00    -0.379 C  
BRANCH   9  10
HETATM   10  C   UNL     1     -10.553  11.148  63.896  1.00  0.00    -0.364 C  
BRANCH  10  11
HETATM   11  N   UNL     1      -9.398  10.620  64.643  1.00  0.00    -0.219 NA 
HETATM   12  H   UNL     1      -8.642  11.303  64.677  1.00  0.00     0.000 HD 
BRANCH  11  13
HETATM   13  CA  UNL     1      -9.759  10.157  66.007  1.00  0.00    -0.226 C  
BRANCH  13  14
HETATM   14  C   UNL     1      -8.972  10.988  67.047  1.00  0.00    -0.148 C  
HETATM   15  H   UNL     1      -9.367  12.037  68.671  1.00  0.00     0.000 HD 
HETATM   16  O   UNL     1      -9.851  11.526  68.033  1.00  0.00    -0.176 OA 
ENDBRANCH  13  14
BRANCH  13  17
HETATM   17  C   UNL     1      -9.544   8.649  66.248  1.00  0.00    -0.322 C  
HETATM   18  C   UNL     1     -10.633   7.966  67.065  1.00  0.00    -0.381 C  
ENDBRANCH  13  17
ENDBRANCH  11  13
ENDBRANCH  10  11
ENDBRANCH   9  10
ENDBRANCH   7   9
ENDBRANCH   3   7
ENDBRANCH   2   3
TORSDOF 9
ENDMDL
MODEL       59
REMARK 921   NORMALIZED FREE ENERGY PREDICTED BY IDOCK:   -3.77 KCAL/MOL
REMARK 922        TOTAL FREE ENERGY PREDICTED BY IDOCK:   -6.17 KCAL/MOL
REMARK 923 INTER-LIGAND FREE ENERGY PREDICTED BY IDOCK:   -5.49 KCAL/MOL
REMARK 924 INTRA-LIGAND FREE ENERGY PREDICTED BY IDOCK:   -0.68 KCAL/MOL
REMARK 927      BINDING AFFINITY PREDICTED BY RF-SCORE:    0.00 PKD
ROOT
HETATM    1  C   UNL     1     -11.790  10.293  70.885  1.00  0.00    -0.473 C  
HETATM    2  C   UNL     1     -12.198  11.627  70.276  1.00  0.00    -0.401 C  
ENDROOT
BRANCH   2   3
HETATM    3  CA  UNL     1     -11.272  12.113  69.137  1.00  0.00    -0.244 C  
BRANCH   3   4
HETATM    4  C   UNL     1     -10.997  11.019  68.070  1.00  0.00    -0.258 C  
HETATM    5  H   UNL     1     -11.607  10.489  66.232  1.00  0.00     0.000 HD 
HETATM    6  O   UNL     1     -11.776  11.158  66.885  1.00  0.00    -0.410 OA 
ENDBRANCH   3   4
BRANCH   3   7
HETATM    7  N   UNL     1     -11.905  13.335  68.597  1.00  0.00    -0.336 NA 
HETATM    8  H   UNL     1     -12.692  13.621  69.178  1.00  0.00     0.000 HD 
BRANCH   7   9
HETATM    9  C   UNL     1     -10.964  14.449  68.411  1.00  0.00    -0.248 C  
BRANCH   9  10
HETATM   10  C   UNL     1     -11.010  14.958  66.954  1.00  0.00    -0.327 C  
BRANCH  10  11
HETATM   11  N   UNL     1     -10.546  13.922  66.015  1.00  0.00    -0.288 NA 
HETATM   12  H   UNL     1     -10.805  12.990  66.341  1.00  0.00     0.000 HD 
BRANCH  11  13
HETATM   13  CA  UNL     1     -11.020  14.150  64.626  1.00  0.00    -0.382 C  
BRANCH  13  14
HETATM   14  C   UNL     1     -12.237  15.103  64.659  1.00  0.00    -0.211 C  
HETATM   15  H   UNL     1     -12.825  16.745  63.734  1.00  0.00     0.000 HD 
HETATM   16  O   UNL     1     -12.077  16.160  63.714  1.00  0.00    -0.946 OA 
ENDBRANCH  13  14
BRANCH  13  17
HETATM   17  C   UNL     1     -11.363  12.863  63.848  1.00  0.00    -0.489 C  
HETATM   18  C   UNL     1     -10.165  12.006  63.462  1.00  0.00    -0.477 C  
ENDBRANCH  13  17
ENDBRANCH  11  13
ENDBRANCH  10  11
ENDBRANCH   9  10
ENDBRANCH   7   9
ENDBRANCH   3   7
ENDBRANCH   2   3
TORSDOF 9
ENDMDL
MODEL       60
REMARK 921   NORMALIZED FREE ENERGY PREDICTED BY IDOCK:   -3.77 KCAL/MOL
REMARK 922        TOTAL FREE ENERGY PREDICTED BY IDOCK:   -6.17 KCAL/MOL
REMARK 923 INTER-LIGAND FREE ENERGY PREDICTED BY IDOCK:   -5.97 KCAL/MOL
REMARK 924 INTRA-LIGAND FREE ENERGY PREDICTED BY IDOCK:   -0.20 KCAL/MOL
REMARK 927      BINDING AFFINITY PREDICTED BY RF-SCORE:    0.00 PKD
ROOT
HETATM    1  C   UNL     1     -10.090  10.248  65.947  1.00  0.00    -0.319 C  
HETATM    2  C   UNL     1     -10.431  10.887  64.608  1.00  0.00    -0.384 C  
ENDROOT
BRANCH   2   3
HETATM    3  CA  UNL     1     -11.084  12.284  64.721  1.00  0.00    -0.311 C  
BRANCH   3   4
HETATM    4  C   UNL     1     -11.886  12.685  63.452  1.00  0.00    -0.514 C  
HETATM    5  H   UNL     1     -13.580  12.190  62.495  1.00  0.00     0.000 HD 
HETATM    6  O   UNL     1     -13.090  11.945  63.271  1.00  0.00    -0.674 OA 
ENDBRANCH   3   4
BRANCH   3   7
HETATM    7  N   UNL     1     -11.892  12.253  65.957  1.00  0.00    -0.562 NA 
HETATM    8  H   UNL     1     -11.312  12.014  66.762  1.00  0.00     0.000 HD 
BRANCH   7   9
HETATM    9  C   UNL     1     -12.637  13.496  66.204  1.00  0.00    -0.295 C  
BRANCH   9  10
HETATM   10  C   UNL     1     -12.116  14.194  67.479  1.00  0.00    -0.328 C  
BRANCH  10  11
HETATM   11  N   UNL     1     -10.767  14.748  67.268  1.00  0.00    -0.288 NA 
HETATM   12  H   UNL     1     -10.162  14.070  66.805  1.00  0.00     0.000 HD 
BRANCH  11  13
HETATM   13  CA  UNL     1     -10.784  16.037  66.530  1.00  0.00    -0.238 C  
BRANCH  13  14
HETATM   14  C   UNL     1     -10.448  15.772  65.045  1.00  0.00    -0.301 C  
HETATM   15  H   UNL     1     -11.117  16.344  63.278  1.00  0.00     0.000 HD 
HETATM   16  O   UNL     1     -11.324  16.506  64.191  1.00  0.00    -1.060 OA 
ENDBRANCH  13  14
BRANCH  13  17
HETATM   17  C   UNL     1      -9.848  17.117  67.110  1.00  0.00    -0.271 C  
HETATM   18  C   UNL     1     -10.270  18.553  66.827  1.00  0.00    -0.423 C  
ENDBRANCH  13  17
ENDBRANCH  11  13
ENDBRANCH  10  11
ENDBRANCH   9  10
ENDBRANCH   7   9
ENDBRANCH   3   7
ENDBRANCH   2   3
TORSDOF 9
ENDMDL
MODEL       61
REMARK 921   NORMALIZED FREE ENERGY PREDICTED BY IDOCK:   -3.77 KCAL/MOL
REMARK 922        TOTAL FREE ENERGY PREDICTED BY IDOCK:   -6.16 KCAL/MOL
REMARK 923 INTER-LIGAND FREE ENERGY PREDICTED BY IDOCK:   -5.85 KCAL/MOL
REMARK 924 INTRA-LIGAND FREE ENERGY PREDICTED BY IDOCK:   -0.32 KCAL/MOL
REMARK 927      BINDING AFFINITY PREDICTED BY RF-SCORE:    0.00 PKD
ROOT
HETATM    1  C   UNL     1     -13.543   9.032  72.024  1.00  0.00    -0.500 C  
HETATM    2  C   UNL     1     -12.787  10.176  71.363  1.00  0.00    -0.530 C  
ENDROOT
BRANCH   2   3
HETATM    3  CA  UNL     1     -11.320   9.842  71.004  1.00  0.00    -0.386 C  
BRANCH   3   4
HETATM    4  C   UNL     1     -10.707   8.743  71.913  1.00  0.00    -0.359 C  
HETATM    5  H   UNL     1      -8.951   8.267  72.763  1.00  0.00     0.000 HD 
HETATM    6  O   UNL     1      -9.326   8.939  72.206  1.00  0.00    -0.360 OA 
ENDBRANCH   3   4
BRANCH   3   7
HETATM    7  N   UNL     1     -11.325   9.501  69.566  1.00  0.00    -0.438 NA 
HETATM    8  H   UNL     1     -12.259   9.610  69.172  1.00  0.00     0.000 HD 
BRANCH   7   9
HETATM    9  C   UNL     1     -10.338  10.254  68.781  1.00  0.00    -0.195 C  
BRANCH   9  10
HETATM   10  C   UNL     1     -10.880  10.541  67.363  1.00  0.00    -0.291 C  
BRANCH  10  11
HETATM   11  N   UNL     1     -11.922  11.582  67.393  1.00  0.00    -0.597 NA 
HETATM   12  H   UNL     1     -12.081  11.912  68.346  1.00  0.00     0.000 HD 
BRANCH  11  13
HETATM   13  CA  UNL     1     -11.629  12.715  66.480  1.00  0.00    -0.381 C  
BRANCH  13  14
HETATM   14  C   UNL     1     -11.861  14.044  67.235  1.00  0.00    -0.411 C  
HETATM   15  H   UNL     1     -12.124  14.630  69.102  1.00  0.00     0.000 HD 
HETATM   16  O   UNL     1     -11.981  13.813  68.638  1.00  0.00    -0.351 OA 
ENDBRANCH  13  14
BRANCH  13  17
HETATM   17  C   UNL     1     -12.429  12.697  65.161  1.00  0.00    -0.531 C  
HETATM   18  C   UNL     1     -11.594  12.491  63.905  1.00  0.00    -0.516 C  
ENDBRANCH  13  17
ENDBRANCH  11  13
ENDBRANCH  10  11
ENDBRANCH   9  10
ENDBRANCH   7   9
ENDBRANCH   3   7
ENDBRANCH   2   3
TORSDOF 9
ENDMDL
MODEL       62
REMARK 921   NORMALIZED FREE ENERGY PREDICTED BY IDOCK:   -3.76 KCAL/MOL
REMARK 922        TOTAL FREE ENERGY PREDICTED BY IDOCK:   -6.15 KCAL/MOL
REMARK 923 INTER-LIGAND FREE ENERGY PREDICTED BY IDOCK:   -5.89 KCAL/MOL
REMARK 924 INTRA-LIGAND FREE ENERGY PREDICTED BY IDOCK:   -0.26 KCAL/MOL
REMARK 927      BINDING AFFINITY PREDICTED BY RF-SCORE:    0.00 PKD
ROOT
HETATM    1  C   UNL     1     -13.085  10.961  71.735  1.00  0.00    -0.564 C  
HETATM    2  C   UNL     1     -12.153  11.575  70.700  1.00  0.00    -0.450 C  
ENDROOT
BRANCH   2   3
HETATM    3  CA  UNL     1     -12.484  13.043  70.342  1.00  0.00    -0.194 C  
BRANCH   3   4
HETATM    4  C   UNL     1     -12.710  13.937  71.592  1.00  0.00    -0.330 C  
HETATM    5  H   UNL     1     -13.793  15.530  72.155  1.00  0.00     0.000 HD 
HETATM    6  O   UNL     1     -13.655  14.983  71.391  1.00  0.00    -0.394 OA 
ENDBRANCH   3   4
BRANCH   3   7
HETATM    7  N   UNL     1     -11.387  13.501  69.465  1.00  0.00    -0.417 NA 
HETATM    8  H   UNL     1     -10.711  12.752  69.311  1.00  0.00     0.000 HD 
BRANCH   7   9
HETATM    9  C   UNL     1     -11.851  14.054  68.185  1.00  0.00    -0.367 C  
BRANCH   9  10
HETATM   10  C   UNL     1     -10.660  14.599  67.368  1.00  0.00    -0.265 C  
BRANCH  10  11
HETATM   11  N   UNL     1     -10.415  16.020  67.669  1.00  0.00    -0.286 NA 
HETATM   12  H   UNL     1      -9.450  16.171  67.962  1.00  0.00     0.000 HD 
BRANCH  11  13
HETATM   13  CA  UNL     1     -10.776  16.918  66.542  1.00  0.00    -0.087 C  
BRANCH  13  14
HETATM   14  C   UNL     1     -10.685  16.125  65.218  1.00  0.00    -0.368 C  
HETATM   15  H   UNL     1     -11.339  16.310  63.364  1.00  0.00     0.000 HD 
HETATM   16  O   UNL     1     -11.395  16.797  64.178  1.00  0.00    -1.194 OA 
ENDBRANCH  13  14
BRANCH  13  17
HETATM   17  C   UNL     1      -9.935  18.208  66.458  1.00  0.00    -0.374 C  
HETATM   18  C   UNL     1     -10.540  19.417  67.158  1.00  0.00    -0.596 C  
ENDBRANCH  13  17
ENDBRANCH  11  13
ENDBRANCH  10  11
ENDBRANCH   9  10
ENDBRANCH   7   9
ENDBRANCH   3   7
ENDBRANCH   2   3
TORSDOF 9
ENDMDL
MODEL       63
REMARK 921   NORMALIZED FREE ENERGY PREDICTED BY IDOCK:   -3.76 KCAL/MOL
REMARK 922        TOTAL FREE ENERGY PREDICTED BY IDOCK:   -6.15 KCAL/MOL
REMARK 923 INTER-LIGAND FREE ENERGY PREDICTED BY IDOCK:   -5.66 KCAL/MOL
REMARK 924 INTRA-LIGAND FREE ENERGY PREDICTED BY IDOCK:   -0.49 KCAL/MOL
REMARK 927      BINDING AFFINITY PREDICTED BY RF-SCORE:    0.00 PKD
ROOT
HETATM    1  C   UNL     1      -8.329  16.270  67.574  1.00  0.00    -0.174 C  
HETATM    2  C   UNL     1      -8.936  16.066  66.193  1.00  0.00    -0.381 C  
ENDROOT
BRANCH   2   3
HETATM    3  CA  UNL     1     -10.478  15.948  66.190  1.00  0.00    -0.326 C  
BRANCH   3   4
HETATM    4  C   UNL     1     -11.065  15.687  64.776  1.00  0.00    -0.412 C  
HETATM    5  H   UNL     1     -11.848  16.708  63.235  1.00  0.00     0.000 HD 
HETATM    6  O   UNL     1     -11.489  16.867  64.100  1.00  0.00    -1.174 OA 
ENDBRANCH   3   4
BRANCH   3   7
HETATM    7  N   UNL     1     -10.803  14.900  67.179  1.00  0.00    -0.304 NA 
HETATM    8  H   UNL     1     -10.877  15.297  68.115  1.00  0.00     0.000 HD 
BRANCH   7   9
HETATM    9  C   UNL     1     -12.011  14.132  66.844  1.00  0.00    -0.449 C  
BRANCH   9  10
HETATM   10  C   UNL     1     -11.727  12.616  66.926  1.00  0.00    -0.383 C  
BRANCH  10  11
HETATM   11  N   UNL     1     -10.435  12.283  66.301  1.00  0.00    -0.233 NA 
HETATM   12  H   UNL     1      -9.790  11.887  66.985  1.00  0.00     0.000 HD 
BRANCH  11  13
HETATM   13  CA  UNL     1     -10.579  11.387  65.125  1.00  0.00    -0.293 C  
BRANCH  13  14
HETATM   14  C   UNL     1      -9.245  10.639  64.895  1.00  0.00    -0.217 C  
HETATM   15  H   UNL     1      -8.488   9.391  63.566  1.00  0.00     0.000 HD 
HETATM   16  O   UNL     1      -9.308   9.850  63.708  1.00  0.00    -0.268 OA 
ENDBRANCH  13  14
BRANCH  13  17
HETATM   17  C   UNL     1     -11.029  12.098  63.832  1.00  0.00    -0.463 C  
HETATM   18  C   UNL     1     -12.483  11.865  63.443  1.00  0.00    -0.582 C  
ENDBRANCH  13  17
ENDBRANCH  11  13
ENDBRANCH  10  11
ENDBRANCH   9  10
ENDBRANCH   7   9
ENDBRANCH   3   7
ENDBRANCH   2   3
TORSDOF 9
ENDMDL
MODEL       64
REMARK 921   NORMALIZED FREE ENERGY PREDICTED BY IDOCK:   -3.76 KCAL/MOL
REMARK 922        TOTAL FREE ENERGY PREDICTED BY IDOCK:   -6.15 KCAL/MOL
REMARK 923 INTER-LIGAND FREE ENERGY PREDICTED BY IDOCK:   -5.77 KCAL/MOL
REMARK 924 INTRA-LIGAND FREE ENERGY PREDICTED BY IDOCK:   -0.38 KCAL/MOL
REMARK 927      BINDING AFFINITY PREDICTED BY RF-SCORE:    0.00 PKD
ROOT
HETATM    1  C   UNL     1     -12.375   6.854  71.238  1.00  0.00    -0.422 C  
HETATM    2  C   UNL     1     -11.203   7.653  71.790  1.00  0.00    -0.285 C  
ENDROOT
BRANCH   2   3
HETATM    3  CA  UNL     1     -11.233   9.156  71.428  1.00  0.00    -0.349 C  
BRANCH   3   4
HETATM    4  C   UNL     1     -10.184   9.543  70.351  1.00  0.00    -0.279 C  
HETATM    5  H   UNL     1      -9.898   9.386  68.370  1.00  0.00     0.000 HD 
HETATM    6  O   UNL     1     -10.540   9.148  69.029  1.00  0.00    -0.222 OA 
ENDBRANCH   3   4
BRANCH   3   7
HETATM    7  N   UNL     1     -12.629   9.449  71.041  1.00  0.00    -0.464 NA 
HETATM    8  H   UNL     1     -13.168   8.587  70.953  1.00  0.00     0.000 HD 
BRANCH   7   9
HETATM    9  C   UNL     1     -13.303  10.393  71.944  1.00  0.00    -0.364 C  
BRANCH   9  10
HETATM   10  C   UNL     1     -12.926  11.847  71.585  1.00  0.00    -0.342 C  
BRANCH  10  11
HETATM   11  N   UNL     1     -13.588  12.805  72.488  1.00  0.00    -0.615 NA 
HETATM   12  H   UNL     1     -13.104  12.855  73.385  1.00  0.00     0.000 HD 
BRANCH  11  13
HETATM   13  CA  UNL     1     -13.734  14.155  71.886  1.00  0.00    -0.437 C  
BRANCH  13  14
HETATM   14  C   UNL     1     -12.834  14.248  70.632  1.00  0.00    -0.314 C  
HETATM   15  H   UNL     1     -12.090  15.666  69.478  1.00  0.00     0.000 HD 
HETATM   16  O   UNL     1     -12.643  15.609  70.249  1.00  0.00    -0.407 OA 
ENDBRANCH  13  14
BRANCH  13  17
HETATM   17  C   UNL     1     -13.437  15.321  72.851  1.00  0.00    -0.611 C  
HETATM   18  C   UNL     1     -12.378  15.028  73.905  1.00  0.00    -0.658 C  
ENDBRANCH  13  17
ENDBRANCH  11  13
ENDBRANCH  10  11
ENDBRANCH   9  10
ENDBRANCH   7   9
ENDBRANCH   3   7
ENDBRANCH   2   3
TORSDOF 9
ENDMDL
MODEL       65
REMARK 921   NORMALIZED FREE ENERGY PREDICTED BY IDOCK:   -3.76 KCAL/MOL
REMARK 922        TOTAL FREE ENERGY PREDICTED BY IDOCK:   -6.14 KCAL/MOL
REMARK 923 INTER-LIGAND FREE ENERGY PREDICTED BY IDOCK:   -5.86 KCAL/MOL
REMARK 924 INTRA-LIGAND FREE ENERGY PREDICTED BY IDOCK:   -0.28 KCAL/MOL
REMARK 927      BINDING AFFINITY PREDICTED BY RF-SCORE:    0.00 PKD
ROOT
HETATM    1  C   UNL     1     -13.152  11.428  71.821  1.00  0.00    -0.523 C  
HETATM    2  C   UNL     1     -13.052   9.909  71.815  1.00  0.00    -0.553 C  
ENDROOT
BRANCH   2   3
HETATM    3  CA  UNL     1     -11.893   9.354  70.954  1.00  0.00    -0.294 C  
BRANCH   3   4
HETATM    4  C   UNL     1     -11.876   7.802  70.886  1.00  0.00    -0.239 C  
HETATM    5  H   UNL     1     -13.049   6.240  71.347  1.00  0.00     0.000 HD 
HETATM    6  O   UNL     1     -13.060   7.189  71.389  1.00  0.00    -0.388 OA 
ENDBRANCH   3   4
BRANCH   3   7
HETATM    7  N   UNL     1     -12.018  10.012  69.638  1.00  0.00    -0.475 NA 
HETATM    8  H   UNL     1     -12.659  10.804  69.689  1.00  0.00     0.000 HD 
BRANCH   7   9
HETATM    9  C   UNL     1     -10.729  10.424  69.063  1.00  0.00    -0.228 C  
BRANCH   9  10
HETATM   10  C   UNL     1     -10.866  11.786  68.349  1.00  0.00    -0.223 C  
BRANCH  10  11
HETATM   11  N   UNL     1     -11.860  11.720  67.264  1.00  0.00    -0.624 NA 
HETATM   12  H   UNL     1     -12.772  12.047  67.585  1.00  0.00     0.000 HD 
BRANCH  11  13
HETATM   13  CA  UNL     1     -11.431  12.450  66.044  1.00  0.00    -0.382 C  
BRANCH  13  14
HETATM   14  C   UNL     1     -12.660  12.677  65.134  1.00  0.00    -0.386 C  
HETATM   15  H   UNL     1     -13.799  14.191  64.580  1.00  0.00     0.000 HD 
HETATM   16  O   UNL     1     -13.044  14.051  65.139  1.00  0.00    -0.776 OA 
ENDBRANCH  13  14
BRANCH  13  17
HETATM   17  C   UNL     1     -10.296  11.765  65.256  1.00  0.00    -0.317 C  
HETATM   18  C   UNL     1     -10.666  11.325  63.846  1.00  0.00    -0.451 C  
ENDBRANCH  13  17
ENDBRANCH  11  13
ENDBRANCH  10  11
ENDBRANCH   9  10
ENDBRANCH   7   9
ENDBRANCH   3   7
ENDBRANCH   2   3
TORSDOF 9
ENDMDL
MODEL       66
REMARK 921   NORMALIZED FREE ENERGY PREDICTED BY IDOCK:   -3.75 KCAL/MOL
REMARK 922        TOTAL FREE ENERGY PREDICTED BY IDOCK:   -6.13 KCAL/MOL
REMARK 923 INTER-LIGAND FREE ENERGY PREDICTED BY IDOCK:   -5.98 KCAL/MOL
REMARK 924 INTRA-LIGAND FREE ENERGY PREDICTED BY IDOCK:   -0.15 KCAL/MOL
REMARK 927      BINDING AFFINITY PREDICTED BY RF-SCORE:    0.00 PKD
ROOT
HETATM    1  C   UNL     1     -10.591  19.548  67.231  1.00  0.00    -0.610 C  
HETATM    2  C   UNL     1     -10.065  18.893  68.501  1.00  0.00    -0.460 C  
ENDROOT
BRANCH   2   3
HETATM    3  CA  UNL     1      -9.466  17.483  68.285  1.00  0.00    -0.296 C  
BRANCH   3   4
HETATM    4  C   UNL     1      -7.961  17.399  68.658  1.00  0.00    -0.271 C  
HETATM    5  H   UNL     1      -6.265  18.445  68.414  1.00  0.00     0.000 HD 
HETATM    6  O   UNL     1      -7.186  18.497  68.186  1.00  0.00    -0.242 OA 
ENDBRANCH   3   4
BRANCH   3   7
HETATM    7  N   UNL     1     -10.328  16.558  69.049  1.00  0.00    -0.276 NA 
HETATM    8  H   UNL     1     -10.927  17.073  69.696  1.00  0.00     0.000 HD 
BRANCH   7   9
HETATM    9  C   UNL     1     -11.129  15.665  68.200  1.00  0.00    -0.330 C  
BRANCH   9  10
HETATM   10  C   UNL     1     -10.217  14.883  67.229  1.00  0.00    -0.241 C  
BRANCH  10  11
HETATM   11  N   UNL     1     -11.010  14.033  66.323  1.00  0.00    -0.298 NA 
HETATM   12  H   UNL     1     -11.962  13.915  66.673  1.00  0.00     0.000 HD 
BRANCH  11  13
HETATM   13  CA  UNL     1     -11.016  14.532  64.925  1.00  0.00    -0.410 C  
BRANCH  13  14
HETATM   14  C   UNL     1     -10.856  16.070  64.937  1.00  0.00    -0.372 C  
HETATM   15  H   UNL     1     -11.456  17.603  63.848  1.00  0.00     0.000 HD 
HETATM   16  O   UNL     1     -11.554  16.658  63.840  1.00  0.00    -1.204 OA 
ENDBRANCH  13  14
BRANCH  13  17
HETATM   17  C   UNL     1     -12.258  14.125  64.106  1.00  0.00    -0.423 C  
HETATM   18  C   UNL     1     -12.405  12.629  63.860  1.00  0.00    -0.546 C  
ENDBRANCH  13  17
ENDBRANCH  11  13
ENDBRANCH  10  11
ENDBRANCH   9  10
ENDBRANCH   7   9
ENDBRANCH   3   7
ENDBRANCH   2   3
TORSDOF 9
ENDMDL
MODEL       67
REMARK 921   NORMALIZED FREE ENERGY PREDICTED BY IDOCK:   -3.72 KCAL/MOL
REMARK 922        TOTAL FREE ENERGY PREDICTED BY IDOCK:   -6.08 KCAL/MOL
REMARK 923 INTER-LIGAND FREE ENERGY PREDICTED BY IDOCK:   -5.80 KCAL/MOL
REMARK 924 INTRA-LIGAND FREE ENERGY PREDICTED BY IDOCK:   -0.28 KCAL/MOL
REMARK 927      BINDING AFFINITY PREDICTED BY RF-SCORE:    0.00 PKD
ROOT
HETATM    1  C   UNL     1     -10.348  19.900  67.052  1.00  0.00    -0.592 C  
HETATM    2  C   UNL     1      -8.859  19.843  66.739  1.00  0.00    -0.422 C  
ENDROOT
BRANCH   2   3
HETATM    3  CA  UNL     1      -8.283  18.410  66.661  1.00  0.00    -0.266 C  
BRANCH   3   4
HETATM    4  C   UNL     1      -7.690  17.919  68.010  1.00  0.00    -0.245 C  
HETATM    5  H   UNL     1      -7.395  18.584  69.881  1.00  0.00     0.000 HD 
HETATM    6  O   UNL     1      -7.758  18.884  69.056  1.00  0.00    -0.306 OA 
ENDBRANCH   3   4
BRANCH   3   7
HETATM    7  N   UNL     1      -9.377  17.564  66.142  1.00  0.00    -0.478 NA 
HETATM    8  H   UNL     1      -9.656  17.867  65.209  1.00  0.00     0.000 HD 
BRANCH   7   9
HETATM    9  C   UNL     1      -9.062  16.128  66.148  1.00  0.00    -0.347 C  
BRANCH   9  10
HETATM   10  C   UNL     1     -10.084  15.346  65.294  1.00  0.00    -0.319 C  
BRANCH  10  11
HETATM   11  N   UNL     1      -9.844  13.895  65.375  1.00  0.00    -0.544 NA 
HETATM   12  H   UNL     1      -9.508  13.632  66.302  1.00  0.00     0.000 HD 
BRANCH  11  13
HETATM   13  CA  UNL     1     -11.034  13.093  64.993  1.00  0.00    -0.303 C  
BRANCH  13  14
HETATM   14  C   UNL     1     -12.224  14.047  64.739  1.00  0.00    -0.433 C  
HETATM   15  H   UNL     1     -13.339  14.606  63.209  1.00  0.00     0.000 HD 
HETATM   16  O   UNL     1     -12.607  14.020  63.365  1.00  0.00    -0.845 OA 
ENDBRANCH  13  14
BRANCH  13  17
HETATM   17  C   UNL     1     -11.424  12.003  66.012  1.00  0.00    -0.399 C  
HETATM   18  C   UNL     1     -10.959  12.260  67.439  1.00  0.00    -0.298 C  
ENDBRANCH  13  17
ENDBRANCH  11  13
ENDBRANCH  10  11
ENDBRANCH   9  10
ENDBRANCH   7   9
ENDBRANCH   3   7
ENDBRANCH   2   3
TORSDOF 9
ENDMDL
MODEL       68
REMARK 921   NORMALIZED FREE ENERGY PREDICTED BY IDOCK:   -3.70 KCAL/MOL
REMARK 922        TOTAL FREE ENERGY PREDICTED BY IDOCK:   -6.05 KCAL/MOL
REMARK 923 INTER-LIGAND FREE ENERGY PREDICTED BY IDOCK:   -5.45 KCAL/MOL
REMARK 924 INTRA-LIGAND FREE ENERGY PREDICTED BY IDOCK:   -0.60 KCAL/MOL
REMARK 927      BINDING AFFINITY PREDICTED BY RF-SCORE:    0.00 PKD
ROOT
HETATM    1  C   UNL     1      -9.443  10.231  63.799  1.00  0.00    -0.352 C  
HETATM    2  C   UNL     1     -10.387  11.194  64.506  1.00  0.00    -0.400 C  
ENDROOT
BRANCH   2   3
HETATM    3  CA  UNL     1     -10.512  10.954  66.029  1.00  0.00    -0.225 C  
BRANCH   3   4
HETATM    4  C   UNL     1      -9.188  11.216  66.796  1.00  0.00    -0.171 C  
HETATM    5  H   UNL     1      -8.181  12.739  67.629  1.00  0.00     0.000 HD 
HETATM    6  O   UNL     1      -8.991  12.579  67.160  1.00  0.00    -0.186 OA 
ENDBRANCH   3   4
BRANCH   3   7
HETATM    7  N   UNL     1     -11.644  11.791  66.478  1.00  0.00    -0.511 NA 
HETATM    8  H   UNL     1     -11.352  12.422  67.225  1.00  0.00     0.000 HD 
BRANCH   7   9
HETATM    9  C   UNL     1     -12.288  12.539  65.389  1.00  0.00    -0.359 C  
BRANCH   9  10
HETATM   10  C   UNL     1     -12.485  14.017  65.791  1.00  0.00    -0.494 C  
BRANCH  10  11
HETATM   11  N   UNL     1     -11.388  14.483  66.657  1.00  0.00    -0.347 NA 
HETATM   12  H   UNL     1     -10.731  13.727  66.852  1.00  0.00     0.000 HD 
BRANCH  11  13
HETATM   13  CA  UNL     1     -10.686  15.671  66.108  1.00  0.00    -0.303 C  
BRANCH  13  14
HETATM   14  C   UNL     1     -10.925  15.736  64.581  1.00  0.00    -0.314 C  
HETATM   15  H   UNL     1     -11.517  17.077  63.258  1.00  0.00     0.000 HD 
HETATM   16  O   UNL     1     -11.370  17.036  64.196  1.00  0.00    -1.164 OA 
ENDBRANCH  13  14
BRANCH  13  17
HETATM   17  C   UNL     1      -9.176  15.722  66.420  1.00  0.00    -0.347 C  
HETATM   18  C   UNL     1      -8.533  17.093  66.261  1.00  0.00    -0.279 C  
ENDBRANCH  13  17
ENDBRANCH  11  13
ENDBRANCH  10  11
ENDBRANCH   9  10
ENDBRANCH   7   9
ENDBRANCH   3   7
ENDBRANCH   2   3
TORSDOF 9
ENDMDL
MODEL       69
REMARK 921   NORMALIZED FREE ENERGY PREDICTED BY IDOCK:   -3.69 KCAL/MOL
REMARK 922        TOTAL FREE ENERGY PREDICTED BY IDOCK:   -6.05 KCAL/MOL
REMARK 923 INTER-LIGAND FREE ENERGY PREDICTED BY IDOCK:   -5.65 KCAL/MOL
REMARK 924 INTRA-LIGAND FREE ENERGY PREDICTED BY IDOCK:   -0.39 KCAL/MOL
REMARK 927      BINDING AFFINITY PREDICTED BY RF-SCORE:    0.00 PKD
ROOT
HETATM    1  C   UNL     1     -11.351   6.509  70.148  1.00  0.00    -0.463 C  
HETATM    2  C   UNL     1     -12.421   6.944  71.140  1.00  0.00    -0.398 C  
ENDROOT
BRANCH   2   3
HETATM    3  CA  UNL     1     -12.208   8.362  71.720  1.00  0.00    -0.330 C  
BRANCH   3   4
HETATM    4  C   UNL     1     -10.779   8.576  72.290  1.00  0.00    -0.341 C  
HETATM    5  H   UNL     1      -9.577   7.839  73.719  1.00  0.00     0.000 HD 
HETATM    6  O   UNL     1     -10.451   7.708  73.371  1.00  0.00    -0.351 OA 
ENDBRANCH   3   4
BRANCH   3   7
HETATM    7  N   UNL     1     -12.571   9.299  70.638  1.00  0.00    -0.496 NA 
HETATM    8  H   UNL     1     -13.487   9.714  70.811  1.00  0.00     0.000 HD 
BRANCH   7   9
HETATM    9  C   UNL     1     -11.564  10.344  70.403  1.00  0.00    -0.337 C  
BRANCH   9  10
HETATM   10  C   UNL     1     -11.143  10.366  68.917  1.00  0.00    -0.247 C  
BRANCH  10  11
HETATM   11  N   UNL     1     -12.108  11.125  68.104  1.00  0.00    -0.737 NA 
HETATM   12  H   UNL     1     -12.927  11.384  68.654  1.00  0.00     0.000 HD 
BRANCH  11  13
HETATM   13  CA  UNL     1     -11.502  12.317  67.458  1.00  0.00    -0.347 C  
BRANCH  13  14
HETATM   14  C   UNL     1     -11.989  13.589  68.190  1.00  0.00    -0.341 C  
HETATM   15  H   UNL     1     -11.572  14.554  69.861  1.00  0.00     0.000 HD 
HETATM   16  O   UNL     1     -11.273  13.773  69.411  1.00  0.00    -0.249 OA 
ENDBRANCH  13  14
BRANCH  13  17
HETATM   17  C   UNL     1     -11.773  12.431  65.943  1.00  0.00    -0.476 C  
HETATM   18  C   UNL     1     -12.629  13.620  65.531  1.00  0.00    -0.541 C  
ENDBRANCH  13  17
ENDBRANCH  11  13
ENDBRANCH  10  11
ENDBRANCH   9  10
ENDBRANCH   7   9
ENDBRANCH   3   7
ENDBRANCH   2   3
TORSDOF 9
ENDMDL
MODEL       70
REMARK 921   NORMALIZED FREE ENERGY PREDICTED BY IDOCK:   -3.69 KCAL/MOL
REMARK 922        TOTAL FREE ENERGY PREDICTED BY IDOCK:   -6.05 KCAL/MOL
REMARK 923 INTER-LIGAND FREE ENERGY PREDICTED BY IDOCK:   -5.46 KCAL/MOL
REMARK 924 INTRA-LIGAND FREE ENERGY PREDICTED BY IDOCK:   -0.58 KCAL/MOL
REMARK 927      BINDING AFFINITY PREDICTED BY RF-SCORE:    0.00 PKD
ROOT
HETATM    1  C   UNL     1     -11.272   7.906  72.328  1.00  0.00    -0.389 C  
HETATM    2  C   UNL     1     -10.783   9.212  71.717  1.00  0.00    -0.405 C  
ENDROOT
BRANCH   2   3
HETATM    3  CA  UNL     1     -11.853   9.964  70.892  1.00  0.00    -0.356 C  
BRANCH   3   4
HETATM    4  C   UNL     1     -13.117  10.323  71.720  1.00  0.00    -0.465 C  
HETATM    5  H   UNL     1     -13.963  11.914  72.605  1.00  0.00     0.000 HD 
HETATM    6  O   UNL     1     -13.189  11.695  72.099  1.00  0.00    -0.504 OA 
ENDBRANCH   3   4
BRANCH   3   7
HETATM    7  N   UNL     1     -11.164  11.134  70.309  1.00  0.00    -0.479 NA 
HETATM    8  H   UNL     1     -10.171  10.939  70.178  1.00  0.00     0.000 HD 
BRANCH   7   9
HETATM    9  C   UNL     1     -11.770  11.608  69.057  1.00  0.00    -0.324 C  
BRANCH   9  10
HETATM   10  C   UNL     1     -11.769  13.152  69.007  1.00  0.00    -0.321 C  
BRANCH  10  11
HETATM   11  N   UNL     1     -11.698  13.727  70.361  1.00  0.00    -0.504 NA 
HETATM   12  H   UNL     1     -11.204  13.101  70.998  1.00  0.00     0.000 HD 
BRANCH  11  13
HETATM   13  CA  UNL     1     -11.099  15.086  70.379  1.00  0.00    -0.229 C  
BRANCH  13  14
HETATM   14  C   UNL     1     -11.868  15.962  71.395  1.00  0.00    -0.463 C  
HETATM   15  H   UNL     1     -13.636  15.961  72.272  1.00  0.00     0.000 HD 
HETATM   16  O   UNL     1     -13.164  15.423  71.647  1.00  0.00    -0.410 OA 
ENDBRANCH  13  14
BRANCH  13  17
HETATM   17  C   UNL     1     -11.046  15.778  69.001  1.00  0.00    -0.282 C  
HETATM   18  C   UNL     1     -10.367  17.141  68.993  1.00  0.00    -0.331 C  
ENDBRANCH  13  17
ENDBRANCH  11  13
ENDBRANCH  10  11
ENDBRANCH   9  10
ENDBRANCH   7   9
ENDBRANCH   3   7
ENDBRANCH   2   3
TORSDOF 9
ENDMDL
MODEL       71
REMARK 921   NORMALIZED FREE ENERGY PREDICTED BY IDOCK:   -3.68 KCAL/MOL
REMARK 922        TOTAL FREE ENERGY PREDICTED BY IDOCK:   -6.03 KCAL/MOL
REMARK 923 INTER-LIGAND FREE ENERGY PREDICTED BY IDOCK:   -5.73 KCAL/MOL
REMARK 924 INTRA-LIGAND FREE ENERGY PREDICTED BY IDOCK:   -0.31 KCAL/MOL
REMARK 927      BINDING AFFINITY PREDICTED BY RF-SCORE:    0.00 PKD
ROOT
HETATM    1  C   UNL     1     -10.217  10.399  65.780  1.00  0.00    -0.305 C  
HETATM    2  C   UNL     1     -10.529  11.761  65.176  1.00  0.00    -0.330 C  
ENDROOT
BRANCH   2   3
HETATM    3  CA  UNL     1     -11.437  12.651  66.056  1.00  0.00    -0.368 C  
BRANCH   3   4
HETATM    4  C   UNL     1     -12.661  13.219  65.286  1.00  0.00    -0.412 C  
HETATM    5  H   UNL     1     -14.033  12.625  63.946  1.00  0.00     0.000 HD 
HETATM    6  O   UNL     1     -13.284  12.277  64.417  1.00  0.00    -0.806 OA 
ENDBRANCH   3   4
BRANCH   3   7
HETATM    7  N   UNL     1     -11.794  11.828  67.229  1.00  0.00    -0.624 NA 
HETATM    8  H   UNL     1     -11.235  10.975  67.255  1.00  0.00     0.000 HD 
BRANCH   7   9
HETATM    9  C   UNL     1     -11.696  12.551  68.505  1.00  0.00    -0.324 C  
BRANCH   9  10
HETATM   10  C   UNL     1     -12.026  11.612  69.686  1.00  0.00    -0.324 C  
BRANCH  10  11
HETATM   11  N   UNL     1     -11.122  10.449  69.708  1.00  0.00    -0.275 NA 
HETATM   12  H   UNL     1     -10.149  10.745  69.799  1.00  0.00     0.000 HD 
BRANCH  11  13
HETATM   13  CA  UNL     1     -11.479   9.463  70.759  1.00  0.00    -0.300 C  
BRANCH  13  14
HETATM   14  C   UNL     1     -12.590  10.059  71.653  1.00  0.00    -0.427 C  
HETATM   15  H   UNL     1     -14.365   9.516  72.325  1.00  0.00     0.000 HD 
HETATM   16  O   UNL     1     -13.682   9.149  71.775  1.00  0.00    -0.392 OA 
ENDBRANCH  13  14
BRANCH  13  17
HETATM   17  C   UNL     1     -10.290   8.988  71.621  1.00  0.00    -0.420 C  
HETATM   18  C   UNL     1     -10.646   7.984  72.708  1.00  0.00    -0.420 C  
ENDBRANCH  13  17
ENDBRANCH  11  13
ENDBRANCH  10  11
ENDBRANCH   9  10
ENDBRANCH   7   9
ENDBRANCH   3   7
ENDBRANCH   2   3
TORSDOF 9
ENDMDL
MODEL       72
REMARK 921   NORMALIZED FREE ENERGY PREDICTED BY IDOCK:   -3.68 KCAL/MOL
REMARK 922        TOTAL FREE ENERGY PREDICTED BY IDOCK:   -6.03 KCAL/MOL
REMARK 923 INTER-LIGAND FREE ENERGY PREDICTED BY IDOCK:   -5.53 KCAL/MOL
REMARK 924 INTRA-LIGAND FREE ENERGY PREDICTED BY IDOCK:   -0.50 KCAL/MOL
REMARK 927      BINDING AFFINITY PREDICTED BY RF-SCORE:    0.00 PKD
ROOT
HETATM    1  C   UNL     1     -11.581  15.849  69.399  1.00  0.00    -0.352 C  
HETATM    2  C   UNL     1     -11.086  16.399  68.068  1.00  0.00    -0.292 C  
ENDROOT
BRANCH   2   3
HETATM    3  CA  UNL     1     -10.885  15.324  66.975  1.00  0.00    -0.321 C  
BRANCH   3   4
HETATM    4  C   UNL     1     -10.594  15.928  65.575  1.00  0.00    -0.401 C  
HETATM    5  H   UNL     1     -10.124  17.692  64.739  1.00  0.00     0.000 HD 
HETATM    6  O   UNL     1     -10.302  17.323  65.596  1.00  0.00    -0.580 OA 
ENDBRANCH   3   4
BRANCH   3   7
HETATM    7  N   UNL     1      -9.820  14.432  67.478  1.00  0.00    -0.218 NA 
HETATM    8  H   UNL     1      -9.859  14.361  68.495  1.00  0.00     0.000 HD 
BRANCH   7   9
HETATM    9  C   UNL     1      -9.833  13.097  66.863  1.00  0.00    -0.249 C  
BRANCH   9  10
HETATM   10  C   UNL     1     -11.175  12.386  67.142  1.00  0.00    -0.298 C  
BRANCH  10  11
HETATM   11  N   UNL     1     -11.874  12.059  65.887  1.00  0.00    -0.510 NA 
HETATM   12  H   UNL     1     -12.709  12.634  65.773  1.00  0.00     0.000 HD 
BRANCH  11  13
HETATM   13  CA  UNL     1     -10.993  12.159  64.695  1.00  0.00    -0.312 C  
BRANCH  13  14
HETATM   14  C   UNL     1     -11.790  12.790  63.531  1.00  0.00    -0.546 C  
HETATM   15  H   UNL     1     -13.263  14.086  63.310  1.00  0.00     0.000 HD 
HETATM   16  O   UNL     1     -12.773  13.698  64.026  1.00  0.00    -0.666 OA 
ENDBRANCH  13  14
BRANCH  13  17
HETATM   17  C   UNL     1     -10.360  10.823  64.255  1.00  0.00    -0.401 C  
HETATM   18  C   UNL     1      -9.566  10.885  62.957  1.00  0.00    -0.382 C  
ENDBRANCH  13  17
ENDBRANCH  11  13
ENDBRANCH  10  11
ENDBRANCH   9  10
ENDBRANCH   7   9
ENDBRANCH   3   7
ENDBRANCH   2   3
TORSDOF 9
ENDMDL
MODEL       73
REMARK 921   NORMALIZED FREE ENERGY PREDICTED BY IDOCK:   -3.68 KCAL/MOL
REMARK 922        TOTAL FREE ENERGY PREDICTED BY IDOCK:   -6.03 KCAL/MOL
REMARK 923 INTER-LIGAND FREE ENERGY PREDICTED BY IDOCK:   -5.77 KCAL/MOL
REMARK 924 INTRA-LIGAND FREE ENERGY PREDICTED BY IDOCK:   -0.26 KCAL/MOL
REMARK 927      BINDING AFFINITY PREDICTED BY RF-SCORE:    0.00 PKD
ROOT
HETATM    1  C   UNL     1     -13.151  15.926  72.612  1.00  0.00    -0.557 C  
HETATM    2  C   UNL     1     -13.630  15.318  71.301  1.00  0.00    -0.584 C  
ENDROOT
BRANCH   2   3
HETATM    3  CA  UNL     1     -12.513  15.113  70.252  1.00  0.00    -0.342 C  
BRANCH   3   4
HETATM    4  C   UNL     1     -11.397  16.190  70.334  1.00  0.00    -0.363 C  
HETATM    5  H   UNL     1     -10.321  17.372  69.119  1.00  0.00     0.000 HD 
HETATM    6  O   UNL     1     -11.004  16.712  69.068  1.00  0.00    -0.312 OA 
ENDBRANCH   3   4
BRANCH   3   7
HETATM    7  N   UNL     1     -12.029  13.730  70.443  1.00  0.00    -0.423 NA 
HETATM    8  H   UNL     1     -12.519  13.280  71.217  1.00  0.00     0.000 HD 
BRANCH   7   9
HETATM    9  C   UNL     1     -12.111  12.907  69.228  1.00  0.00    -0.182 C  
BRANCH   9  10
HETATM   10  C   UNL     1     -11.173  13.463  68.135  1.00  0.00    -0.273 C  
BRANCH  10  11
HETATM   11  N   UNL     1     -11.932  13.865  66.938  1.00  0.00    -0.420 NA 
HETATM   12  H   UNL     1     -11.819  14.861  66.751  1.00  0.00     0.000 HD 
BRANCH  11  13
HETATM   13  CA  UNL     1     -11.588  13.056  65.741  1.00  0.00    -0.356 C  
BRANCH  13  14
HETATM   14  C   UNL     1     -10.440  13.752  64.975  1.00  0.00    -0.402 C  
HETATM   15  H   UNL     1     -10.028  15.561  64.300  1.00  0.00     0.000 HD 
HETATM   16  O   UNL     1     -10.734  15.133  64.770  1.00  0.00    -0.403 OA 
ENDBRANCH  13  14
BRANCH  13  17
HETATM   17  C   UNL     1     -12.775  12.777  64.796  1.00  0.00    -0.469 C  
HETATM   18  C   UNL     1     -12.407  12.095  63.485  1.00  0.00    -0.682 C  
ENDBRANCH  13  17
ENDBRANCH  11  13
ENDBRANCH  10  11
ENDBRANCH   9  10
ENDBRANCH   7   9
ENDBRANCH   3   7
ENDBRANCH   2   3
TORSDOF 9
ENDMDL
MODEL       74
REMARK 921   NORMALIZED FREE ENERGY PREDICTED BY IDOCK:   -3.68 KCAL/MOL
REMARK 922        TOTAL FREE ENERGY PREDICTED BY IDOCK:   -6.02 KCAL/MOL
REMARK 923 INTER-LIGAND FREE ENERGY PREDICTED BY IDOCK:   -5.42 KCAL/MOL
REMARK 924 INTRA-LIGAND FREE ENERGY PREDICTED BY IDOCK:   -0.60 KCAL/MOL
REMARK 927      BINDING AFFINITY PREDICTED BY RF-SCORE:    0.00 PKD
ROOT
HETATM    1  C   UNL     1     -10.635   8.158  72.664  1.00  0.00    -0.414 C  
HETATM    2  C   UNL     1     -10.743   9.140  71.507  1.00  0.00    -0.437 C  
ENDROOT
BRANCH   2   3
HETATM    3  CA  UNL     1     -12.195   9.506  71.120  1.00  0.00    -0.338 C  
BRANCH   3   4
HETATM    4  C   UNL     1     -13.209   9.271  72.273  1.00  0.00    -0.460 C  
HETATM    5  H   UNL     1     -14.912   8.271  72.630  1.00  0.00     0.000 HD 
HETATM    6  O   UNL     1     -14.293   8.415  71.924  1.00  0.00    -0.432 OA 
ENDBRANCH   3   4
BRANCH   3   7
HETATM    7  N   UNL     1     -12.145  10.902  70.639  1.00  0.00    -0.342 NA 
HETATM    8  H   UNL     1     -12.441  10.959  69.665  1.00  0.00     0.000 HD 
BRANCH   7   9
HETATM    9  C   UNL     1     -12.915  11.838  71.471  1.00  0.00    -0.341 C  
BRANCH   9  10
HETATM   10  C   UNL     1     -12.737  13.285  70.964  1.00  0.00    -0.293 C  
BRANCH  10  11
HETATM   11  N   UNL     1     -11.599  13.385  70.033  1.00  0.00    -0.498 NA 
HETATM   12  H   UNL     1     -11.114  12.491  69.951  1.00  0.00     0.000 HD 
BRANCH  11  13
HETATM   13  CA  UNL     1     -11.992  13.902  68.697  1.00  0.00    -0.366 C  
BRANCH  13  14
HETATM   14  C   UNL     1     -11.543  12.893  67.615  1.00  0.00    -0.355 C  
HETATM   15  H   UNL     1     -12.008  11.059  67.053  1.00  0.00     0.000 HD 
HETATM   16  O   UNL     1     -12.284  11.679  67.718  1.00  0.00    -0.560 OA 
ENDBRANCH  13  14
BRANCH  13  17
HETATM   17  C   UNL     1     -11.458  15.312  68.375  1.00  0.00    -0.358 C  
HETATM   18  C   UNL     1     -11.427  16.273  69.556  1.00  0.00    -0.231 C  
ENDBRANCH  13  17
ENDBRANCH  11  13
ENDBRANCH  10  11
ENDBRANCH   9  10
ENDBRANCH   7   9
ENDBRANCH   3   7
ENDBRANCH   2   3
TORSDOF 9
ENDMDL
MODEL       75
REMARK 921   NORMALIZED FREE ENERGY PREDICTED BY IDOCK:   -3.68 KCAL/MOL
REMARK 922        TOTAL FREE ENERGY PREDICTED BY IDOCK:   -6.02 KCAL/MOL
REMARK 923 INTER-LIGAND FREE ENERGY PREDICTED BY IDOCK:   -5.82 KCAL/MOL
REMARK 924 INTRA-LIGAND FREE ENERGY PREDICTED BY IDOCK:   -0.20 KCAL/MOL
REMARK 927      BINDING AFFINITY PREDICTED BY RF-SCORE:    0.00 PKD
ROOT
HETATM    1  C   UNL     1     -12.069  16.214  72.731  1.00  0.00    -0.653 C  
HETATM    2  C   UNL     1     -13.084  15.546  71.814  1.00  0.00    -0.548 C  
ENDROOT
BRANCH   2   3
HETATM    3  CA  UNL     1     -12.594  14.220  71.187  1.00  0.00    -0.362 C  
BRANCH   3   4
HETATM    4  C   UNL     1     -13.197  12.964  71.873  1.00  0.00    -0.423 C  
HETATM    5  H   UNL     1     -13.178  10.965  71.690  1.00  0.00     0.000 HD 
HETATM    6  O   UNL     1     -12.809  11.733  71.270  1.00  0.00    -0.386 OA 
ENDBRANCH   3   4
BRANCH   3   7
HETATM    7  N   UNL     1     -12.896  14.320  69.744  1.00  0.00    -0.419 NA 
HETATM    8  H   UNL     1     -13.133  15.279  69.491  1.00  0.00     0.000 HD 
BRANCH   7   9
HETATM    9  C   UNL     1     -11.823  13.805  68.883  1.00  0.00    -0.360 C  
BRANCH   9  10
HETATM   10  C   UNL     1     -11.958  14.372  67.453  1.00  0.00    -0.373 C  
BRANCH  10  11
HETATM   11  N   UNL     1     -10.962  13.773  66.547  1.00  0.00    -0.297 NA 
HETATM   12  H   UNL     1     -10.048  13.715  66.997  1.00  0.00     0.000 HD 
BRANCH  11  13
HETATM   13  CA  UNL     1     -11.383  12.448  66.025  1.00  0.00    -0.353 C  
BRANCH  13  14
HETATM   14  C   UNL     1     -10.131  11.669  65.559  1.00  0.00    -0.246 C  
HETATM   15  H   UNL     1      -9.640   9.794  65.185  1.00  0.00     0.000 HD 
HETATM   16  O   UNL     1     -10.409  10.273  65.472  1.00  0.00    -0.258 OA 
ENDBRANCH  13  14
BRANCH  13  17
HETATM   17  C   UNL     1     -12.432  12.510  64.896  1.00  0.00    -0.524 C  
HETATM   18  C   UNL     1     -11.912  13.035  63.564  1.00  0.00    -0.615 C  
ENDBRANCH  13  17
ENDBRANCH  11  13
ENDBRANCH  10  11
ENDBRANCH   9  10
ENDBRANCH   7   9
ENDBRANCH   3   7
ENDBRANCH   2   3
TORSDOF 9
ENDMDL
MODEL       76
REMARK 921   NORMALIZED FREE ENERGY PREDICTED BY IDOCK:   -3.68 KCAL/MOL
REMARK 922        TOTAL FREE ENERGY PREDICTED BY IDOCK:   -6.02 KCAL/MOL
REMARK 923 INTER-LIGAND FREE ENERGY PREDICTED BY IDOCK:   -5.81 KCAL/MOL
REMARK 924 INTRA-LIGAND FREE ENERGY PREDICTED BY IDOCK:   -0.21 KCAL/MOL
REMARK 927      BINDING AFFINITY PREDICTED BY RF-SCORE:    0.00 PKD
ROOT
HETATM    1  C   UNL     1     -13.258  15.280  71.150  1.00  0.00    -0.567 C  
HETATM    2  C   UNL     1     -11.844  15.832  71.030  1.00  0.00    -0.460 C  
ENDROOT
BRANCH   2   3
HETATM    3  CA  UNL     1     -11.243  15.728  69.609  1.00  0.00    -0.319 C  
BRANCH   3   4
HETATM    4  C   UNL     1     -10.501  17.019  69.168  1.00  0.00    -0.323 C  
HETATM    5  H   UNL     1     -10.456  18.304  67.626  1.00  0.00     0.000 HD 
HETATM    6  O   UNL     1     -10.909  17.514  67.896  1.00  0.00    -0.374 OA 
ENDBRANCH   3   4
BRANCH   3   7
HETATM    7  N   UNL     1     -10.393  14.519  69.618  1.00  0.00    -0.435 NA 
HETATM    8  H   UNL     1     -10.939  13.696  69.870  1.00  0.00     0.000 HD 
BRANCH   7   9
HETATM    9  C   UNL     1      -9.674  14.298  68.355  1.00  0.00    -0.225 C  
BRANCH   9  10
HETATM   10  C   UNL     1     -10.670  14.155  67.184  1.00  0.00    -0.280 C  
BRANCH  10  11
HETATM   11  N   UNL     1     -10.096  13.345  66.095  1.00  0.00    -0.296 NA 
HETATM   12  H   UNL     1     -10.161  12.349  66.307  1.00  0.00     0.000 HD 
BRANCH  11  13
HETATM   13  CA  UNL     1     -10.700  13.649  64.773  1.00  0.00    -0.410 C  
BRANCH  13  14
HETATM   14  C   UNL     1     -12.194  13.997  64.969  1.00  0.00    -0.433 C  
HETATM   15  H   UNL     1     -13.534  15.180  64.132  1.00  0.00     0.000 HD 
HETATM   16  O   UNL     1     -12.616  14.967  64.012  1.00  0.00    -0.832 OA 
ENDBRANCH  13  14
BRANCH  13  17
HETATM   17  C   UNL     1     -10.540  12.529  63.724  1.00  0.00    -0.471 C  
HETATM   18  C   UNL     1     -11.754  11.625  63.559  1.00  0.00    -0.384 C  
ENDBRANCH  13  17
ENDBRANCH  11  13
ENDBRANCH  10  11
ENDBRANCH   9  10
ENDBRANCH   7   9
ENDBRANCH   3   7
ENDBRANCH   2   3
TORSDOF 9
ENDMDL
MODEL       77
REMARK 921   NORMALIZED FREE ENERGY PREDICTED BY IDOCK:   -3.65 KCAL/MOL
REMARK 922        TOTAL FREE ENERGY PREDICTED BY IDOCK:   -5.98 KCAL/MOL
REMARK 923 INTER-LIGAND FREE ENERGY PREDICTED BY IDOCK:   -5.62 KCAL/MOL
REMARK 924 INTRA-LIGAND FREE ENERGY PREDICTED BY IDOCK:   -0.36 KCAL/MOL
REMARK 927      BINDING AFFINITY PREDICTED BY RF-SCORE:    0.00 PKD
ROOT
HETATM    1  C   UNL     1     -10.179   8.864  66.916  1.00  0.00    -0.347 C  
HETATM    2  C   UNL     1     -10.122   9.846  68.077  1.00  0.00    -0.202 C  
ENDROOT
BRANCH   2   3
HETATM    3  CA  UNL     1     -11.393   9.861  68.957  1.00  0.00    -0.023 C  
BRANCH   3   4
HETATM    4  C   UNL     1     -11.080   9.882  70.478  1.00  0.00    -0.332 C  
HETATM    5  H   UNL     1     -11.984  10.310  72.219  1.00  0.00     0.000 HD 
HETATM    6  O   UNL     1     -12.175  10.298  71.288  1.00  0.00    -0.346 OA 
ENDBRANCH   3   4
BRANCH   3   7
HETATM    7  N   UNL     1     -12.192  11.014  68.492  1.00  0.00    -0.781 NA 
HETATM    8  H   UNL     1     -12.987  11.176  69.110  1.00  0.00     0.000 HD 
BRANCH   7   9
HETATM    9  C   UNL     1     -11.405  12.244  68.325  1.00  0.00    -0.289 C  
BRANCH   9  10
HETATM   10  C   UNL     1     -11.792  12.959  67.012  1.00  0.00    -0.374 C  
BRANCH  10  11
HETATM   11  N   UNL     1     -10.636  13.064  66.104  1.00  0.00    -0.273 NA 
HETATM   12  H   UNL     1     -10.349  12.144  65.770  1.00  0.00     0.000 HD 
BRANCH  11  13
HETATM   13  CA  UNL     1     -10.880  13.990  64.968  1.00  0.00    -0.392 C  
BRANCH  13  14
HETATM   14  C   UNL     1     -10.853  15.445  65.490  1.00  0.00    -0.374 C  
HETATM   15  H   UNL     1     -11.060  17.261  64.745  1.00  0.00     0.000 HD 
HETATM   16  O   UNL     1     -11.076  16.367  64.424  1.00  0.00    -0.825 OA 
ENDBRANCH  13  14
BRANCH  13  17
HETATM   17  C   UNL     1     -12.184  13.719  64.191  1.00  0.00    -0.443 C  
HETATM   18  C   UNL     1     -12.177  12.454  63.344  1.00  0.00    -0.623 C  
ENDBRANCH  13  17
ENDBRANCH  11  13
ENDBRANCH  10  11
ENDBRANCH   9  10
ENDBRANCH   7   9
ENDBRANCH   3   7
ENDBRANCH   2   3
TORSDOF 9
ENDMDL
MODEL       78
REMARK 921   NORMALIZED FREE ENERGY PREDICTED BY IDOCK:   -3.65 KCAL/MOL
REMARK 922        TOTAL FREE ENERGY PREDICTED BY IDOCK:   -5.98 KCAL/MOL
REMARK 923 INTER-LIGAND FREE ENERGY PREDICTED BY IDOCK:   -5.60 KCAL/MOL
REMARK 924 INTRA-LIGAND FREE ENERGY PREDICTED BY IDOCK:   -0.37 KCAL/MOL
REMARK 927      BINDING AFFINITY PREDICTED BY RF-SCORE:    0.00 PKD
ROOT
HETATM    1  C   UNL     1     -13.315  11.972  72.003  1.00  0.00    -0.447 C  
HETATM    2  C   UNL     1     -13.490  13.466  72.232  1.00  0.00    -0.683 C  
ENDROOT
BRANCH   2   3
HETATM    3  CA  UNL     1     -12.812  14.355  71.163  1.00  0.00    -0.347 C  
BRANCH   3   4
HETATM    4  C   UNL     1     -12.095  15.593  71.768  1.00  0.00    -0.431 C  
HETATM    5  H   UNL     1     -12.281  16.864  73.310  1.00  0.00     0.000 HD 
HETATM    6  O   UNL     1     -12.720  16.107  72.940  1.00  0.00    -0.451 OA 
ENDBRANCH   3   4
BRANCH   3   7
HETATM    7  N   UNL     1     -11.921  13.457  70.399  1.00  0.00    -0.488 NA 
HETATM    8  H   UNL     1     -12.436  12.649  70.049  1.00  0.00     0.000 HD 
BRANCH   7   9
HETATM    9  C   UNL     1     -11.206  14.131  69.306  1.00  0.00    -0.269 C  
BRANCH   9  10
HETATM   10  C   UNL     1     -11.905  13.861  67.956  1.00  0.00    -0.375 C  
BRANCH  10  11
HETATM   11  N   UNL     1     -11.993  12.416  67.682  1.00  0.00    -0.481 NA 
HETATM   12  H   UNL     1     -12.958  12.091  67.742  1.00  0.00     0.000 HD 
BRANCH  11  13
HETATM   13  CA  UNL     1     -11.384  12.039  66.381  1.00  0.00    -0.354 C  
BRANCH  13  14
HETATM   14  C   UNL     1      -9.893  11.694  66.604  1.00  0.00    -0.200 C  
HETATM   15  H   UNL     1      -8.789  10.852  68.007  1.00  0.00     0.000 HD 
HETATM   16  O   UNL     1      -9.705  11.065  67.871  1.00  0.00    -0.166 OA 
ENDBRANCH  13  14
BRANCH  13  17
HETATM   17  C   UNL     1     -11.531  13.103  65.274  1.00  0.00    -0.328 C  
HETATM   18  C   UNL     1     -12.071  12.582  63.949  1.00  0.00    -0.581 C  
ENDBRANCH  13  17
ENDBRANCH  11  13
ENDBRANCH  10  11
ENDBRANCH   9  10
ENDBRANCH   7   9
ENDBRANCH   3   7
ENDBRANCH   2   3
TORSDOF 9
ENDMDL
MODEL       79
REMARK 921   NORMALIZED FREE ENERGY PREDICTED BY IDOCK:   -3.64 KCAL/MOL
REMARK 922        TOTAL FREE ENERGY PREDICTED BY IDOCK:   -5.97 KCAL/MOL
REMARK 923 INTER-LIGAND FREE ENERGY PREDICTED BY IDOCK:   -5.76 KCAL/MOL
REMARK 924 INTRA-LIGAND FREE ENERGY PREDICTED BY IDOCK:   -0.21 KCAL/MOL
REMARK 927      BINDING AFFINITY PREDICTED BY RF-SCORE:    0.00 PKD
ROOT
HETATM    1  C   UNL     1     -10.678   8.267  70.041  1.00  0.00    -0.239 C  
HETATM    2  C   UNL     1     -10.377   9.739  70.286  1.00  0.00    -0.348 C  
ENDROOT
BRANCH   2   3
HETATM    3  CA  UNL     1     -11.551  10.689  69.952  1.00  0.00    -0.316 C  
BRANCH   3   4
HETATM    4  C   UNL     1     -12.560  10.842  71.123  1.00  0.00    -0.428 C  
HETATM    5  H   UNL     1     -14.115   9.867  71.936  1.00  0.00     0.000 HD 
HETATM    6  O   UNL     1     -13.498   9.774  71.220  1.00  0.00    -0.376 OA 
ENDBRANCH   3   4
BRANCH   3   7
HETATM    7  N   UNL     1     -10.933  11.960  69.522  1.00  0.00    -0.457 NA 
HETATM    8  H   UNL     1     -10.144  11.785  68.899  1.00  0.00     0.000 HD 
BRANCH   7   9
HETATM    9  C   UNL     1     -11.883  12.897  68.907  1.00  0.00    -0.309 C  
BRANCH   9  10
HETATM   10  C   UNL     1     -11.675  12.952  67.377  1.00  0.00    -0.372 C  
BRANCH  10  11
HETATM   11  N   UNL     1     -12.436  14.060  66.777  1.00  0.00    -0.526 NA 
HETATM   12  H   UNL     1     -12.468  14.864  67.404  1.00  0.00     0.000 HD 
BRANCH  11  13
HETATM   13  CA  UNL     1     -11.926  14.450  65.438  1.00  0.00    -0.369 C  
BRANCH  13  14
HETATM   14  C   UNL     1     -12.081  13.253  64.471  1.00  0.00    -0.408 C  
HETATM   15  H   UNL     1     -12.690  12.948  62.619  1.00  0.00     0.000 HD 
HETATM   16  O   UNL     1     -12.595  13.684  63.212  1.00  0.00    -0.816 OA 
ENDBRANCH  13  14
BRANCH  13  17
HETATM   17  C   UNL     1     -10.471  14.962  65.432  1.00  0.00    -0.406 C  
HETATM   18  C   UNL     1     -10.310  16.441  65.759  1.00  0.00    -0.388 C  
ENDBRANCH  13  17
ENDBRANCH  11  13
ENDBRANCH  10  11
ENDBRANCH   9  10
ENDBRANCH   7   9
ENDBRANCH   3   7
ENDBRANCH   2   3
TORSDOF 9
ENDMDL
MODEL       80
REMARK 921   NORMALIZED FREE ENERGY PREDICTED BY IDOCK:   -3.64 KCAL/MOL
REMARK 922        TOTAL FREE ENERGY PREDICTED BY IDOCK:   -5.96 KCAL/MOL
REMARK 923 INTER-LIGAND FREE ENERGY PREDICTED BY IDOCK:   -5.46 KCAL/MOL
REMARK 924 INTRA-LIGAND FREE ENERGY PREDICTED BY IDOCK:   -0.50 KCAL/MOL
REMARK 927      BINDING AFFINITY PREDICTED BY RF-SCORE:    0.00 PKD
ROOT
HETATM    1  C   UNL     1     -11.791  10.789  69.813  1.00  0.00    -0.409 C  
HETATM    2  C   UNL     1     -11.885  12.307  69.753  1.00  0.00    -0.388 C  
ENDROOT
BRANCH   2   3
HETATM    3  CA  UNL     1     -11.056  12.948  68.616  1.00  0.00    -0.269 C  
BRANCH   3   4
HETATM    4  C   UNL     1     -11.778  12.910  67.242  1.00  0.00    -0.373 C  
HETATM    5  H   UNL     1     -12.816  14.124  66.026  1.00  0.00     0.000 HD 
HETATM    6  O   UNL     1     -12.374  14.148  66.867  1.00  0.00    -0.419 OA 
ENDBRANCH   3   4
BRANCH   3   7
HETATM    7  N   UNL     1     -10.720  14.310  69.081  1.00  0.00    -0.311 NA 
HETATM    8  H   UNL     1     -10.853  14.391  70.089  1.00  0.00     0.000 HD 
BRANCH   7   9
HETATM    9  C   UNL     1      -9.368  14.744  68.698  1.00  0.00    -0.198 C  
BRANCH   9  10
HETATM   10  C   UNL     1      -9.339  16.268  68.454  1.00  0.00    -0.210 C  
BRANCH  10  11
HETATM   11  N   UNL     1     -10.660  16.765  68.034  1.00  0.00    -0.335 NA 
HETATM   12  H   UNL     1     -11.089  17.329  68.769  1.00  0.00     0.000 HD 
BRANCH  11  13
HETATM   13  CA  UNL     1     -10.614  17.509  66.750  1.00  0.00    -0.201 C  
BRANCH  13  14
HETATM   14  C   UNL     1     -10.512  16.498  65.585  1.00  0.00    -0.324 C  
HETATM   15  H   UNL     1     -11.043  16.408  63.686  1.00  0.00     0.000 HD 
HETATM   16  O   UNL     1     -11.106  17.030  64.402  1.00  0.00    -1.144 OA 
ENDBRANCH  13  14
BRANCH  13  17
HETATM   17  C   UNL     1      -9.483  18.554  66.658  1.00  0.00    -0.313 C  
HETATM   18  C   UNL     1      -9.889  19.975  67.026  1.00  0.00    -0.566 C  
ENDBRANCH  13  17
ENDBRANCH  11  13
ENDBRANCH  10  11
ENDBRANCH   9  10
ENDBRANCH   7   9
ENDBRANCH   3   7
ENDBRANCH   2   3
TORSDOF 9
ENDMDL
MODEL       81
REMARK 921   NORMALIZED FREE ENERGY PREDICTED BY IDOCK:   -3.63 KCAL/MOL
REMARK 922        TOTAL FREE ENERGY PREDICTED BY IDOCK:   -5.95 KCAL/MOL
REMARK 923 INTER-LIGAND FREE ENERGY PREDICTED BY IDOCK:   -5.42 KCAL/MOL
REMARK 924 INTRA-LIGAND FREE ENERGY PREDICTED BY IDOCK:   -0.53 KCAL/MOL
REMARK 927      BINDING AFFINITY PREDICTED BY RF-SCORE:    0.00 PKD
ROOT
HETATM    1  C   UNL     1     -10.608  11.453  64.472  1.00  0.00    -0.390 C  
HETATM    2  C   UNL     1     -11.878  12.168  64.913  1.00  0.00    -0.366 C  
ENDROOT
BRANCH   2   3
HETATM    3  CA  UNL     1     -11.639  13.581  65.495  1.00  0.00    -0.320 C  
BRANCH   3   4
HETATM    4  C   UNL     1     -12.055  14.717  64.521  1.00  0.00    -0.475 C  
HETATM    5  H   UNL     1     -12.750  14.949  62.652  1.00  0.00     0.000 HD 
HETATM    6  O   UNL     1     -12.496  14.254  63.248  1.00  0.00    -0.705 OA 
ENDBRANCH   3   4
BRANCH   3   7
HETATM    7  N   UNL     1     -12.350  13.609  66.790  1.00  0.00    -0.359 NA 
HETATM    8  H   UNL     1     -12.682  12.677  67.040  1.00  0.00     0.000 HD 
BRANCH   7   9
HETATM    9  C   UNL     1     -11.556  14.187  67.883  1.00  0.00    -0.338 C  
BRANCH   9  10
HETATM   10  C   UNL     1     -12.224  13.903  69.246  1.00  0.00    -0.277 C  
BRANCH  10  11
HETATM   11  N   UNL     1     -11.458  12.908  70.016  1.00  0.00    -0.523 NA 
HETATM   12  H   UNL     1     -11.604  13.031  71.018  1.00  0.00     0.000 HD 
BRANCH  11  13
HETATM   13  CA  UNL     1     -11.749  11.512  69.603  1.00  0.00    -0.351 C  
BRANCH  13  14
HETATM   14  C   UNL     1     -12.171  10.696  70.846  1.00  0.00    -0.395 C  
HETATM   15  H   UNL     1     -13.283  10.966  72.454  1.00  0.00     0.000 HD 
HETATM   16  O   UNL     1     -13.024  11.467  71.690  1.00  0.00    -0.437 OA 
ENDBRANCH  13  14
BRANCH  13  17
HETATM   17  C   UNL     1     -10.592  10.810  68.863  1.00  0.00    -0.246 C  
HETATM   18  C   UNL     1     -11.022   9.786  67.822  1.00  0.00    -0.242 C  
ENDBRANCH  13  17
ENDBRANCH  11  13
ENDBRANCH  10  11
ENDBRANCH   9  10
ENDBRANCH   7   9
ENDBRANCH   3   7
ENDBRANCH   2   3
TORSDOF 9
ENDMDL
MODEL       82
REMARK 921   NORMALIZED FREE ENERGY PREDICTED BY IDOCK:   -3.62 KCAL/MOL
REMARK 922        TOTAL FREE ENERGY PREDICTED BY IDOCK:   -5.93 KCAL/MOL
REMARK 923 INTER-LIGAND FREE ENERGY PREDICTED BY IDOCK:   -5.60 KCAL/MOL
REMARK 924 INTRA-LIGAND FREE ENERGY PREDICTED BY IDOCK:   -0.34 KCAL/MOL
REMARK 927      BINDING AFFINITY PREDICTED BY RF-SCORE:    0.00 PKD
ROOT
HETATM    1  C   UNL     1     -10.804   9.974  68.850  1.00  0.00    -0.250 C  
HETATM    2  C   UNL     1     -11.140  10.545  70.221  1.00  0.00    -0.359 C  
ENDROOT
BRANCH   2   3
HETATM    3  CA  UNL     1     -12.025   9.623  71.091  1.00  0.00    -0.367 C  
BRANCH   3   4
HETATM    4  C   UNL     1     -11.205   8.744  72.075  1.00  0.00    -0.373 C  
HETATM    5  H   UNL     1      -9.297   8.417  72.605  1.00  0.00     0.000 HD 
HETATM    6  O   UNL     1      -9.798   8.955  72.002  1.00  0.00    -0.325 OA 
ENDBRANCH   3   4
BRANCH   3   7
HETATM    7  N   UNL     1     -13.005  10.511  71.751  1.00  0.00    -0.462 NA 
HETATM    8  H   UNL     1     -12.931  10.440  72.766  1.00  0.00     0.000 HD 
BRANCH   7   9
HETATM    9  C   UNL     1     -12.910  11.912  71.320  1.00  0.00    -0.290 C  
BRANCH   9  10
HETATM   10  C   UNL     1     -13.632  12.837  72.324  1.00  0.00    -0.465 C  
BRANCH  10  11
HETATM   11  N   UNL     1     -13.635  14.233  71.854  1.00  0.00    -0.379 NA 
HETATM   12  H   UNL     1     -14.560  14.651  71.957  1.00  0.00     0.000 HD 
BRANCH  11  13
HETATM   13  CA  UNL     1     -12.597  15.065  72.514  1.00  0.00    -0.357 C  
BRANCH  13  14
HETATM   14  C   UNL     1     -13.252  15.872  73.659  1.00  0.00    -0.408 C  
HETATM   15  H   UNL     1     -12.716  17.272  74.943  1.00  0.00     0.000 HD 
HETATM   16  O   UNL     1     -12.313  16.776  74.240  1.00  0.00    -0.628 OA 
ENDBRANCH  13  14
BRANCH  13  17
HETATM   17  C   UNL     1     -11.830  16.005  71.562  1.00  0.00    -0.554 C  
HETATM   18  C   UNL     1     -11.798  15.559  70.107  1.00  0.00    -0.378 C  
ENDBRANCH  13  17
ENDBRANCH  11  13
ENDBRANCH  10  11
ENDBRANCH   9  10
ENDBRANCH   7   9
ENDBRANCH   3   7
ENDBRANCH   2   3
TORSDOF 9
ENDMDL
MODEL       83
REMARK 921   NORMALIZED FREE ENERGY PREDICTED BY IDOCK:   -3.61 KCAL/MOL
REMARK 922        TOTAL FREE ENERGY PREDICTED BY IDOCK:   -5.93 KCAL/MOL
REMARK 923 INTER-LIGAND FREE ENERGY PREDICTED BY IDOCK:   -5.58 KCAL/MOL
REMARK 924 INTRA-LIGAND FREE ENERGY PREDICTED BY IDOCK:   -0.34 KCAL/MOL
REMARK 927      BINDING AFFINITY PREDICTED BY RF-SCORE:    0.00 PKD
ROOT
HETATM    1  C   UNL     1      -9.918  16.106  65.972  1.00  0.00    -0.373 C  
HETATM    2  C   UNL     1     -10.489  15.211  64.881  1.00  0.00    -0.350 C  
ENDROOT
BRANCH   2   3
HETATM    3  CA  UNL     1     -11.437  14.105  65.401  1.00  0.00    -0.325 C  
BRANCH   3   4
HETATM    4  C   UNL     1     -12.142  13.323  64.260  1.00  0.00    -0.416 C  
HETATM    5  H   UNL     1     -13.707  12.095  63.989  1.00  0.00     0.000 HD 
HETATM    6  O   UNL     1     -13.276  12.573  64.688  1.00  0.00    -0.848 OA 
ENDBRANCH   3   4
BRANCH   3   7
HETATM    7  N   UNL     1     -10.618  13.259  66.293  1.00  0.00    -0.286 NA 
HETATM    8  H   UNL     1      -9.741  13.723  66.527  1.00  0.00     0.000 HD 
BRANCH   7   9
HETATM    9  C   UNL     1     -11.323  12.836  67.512  1.00  0.00    -0.312 C  
BRANCH   9  10
HETATM   10  C   UNL     1     -11.484  11.301  67.539  1.00  0.00    -0.246 C  
BRANCH  10  11
HETATM   11  N   UNL     1     -12.235  10.866  68.729  1.00  0.00    -0.793 NA 
HETATM   12  H   UNL     1     -12.940  10.170  68.483  1.00  0.00     0.000 HD 
BRANCH  11  13
HETATM   13  CA  UNL     1     -11.353  10.368  69.815  1.00  0.00    -0.289 C  
BRANCH  13  14
HETATM   14  C   UNL     1     -10.694   9.044  69.363  1.00  0.00    -0.191 C  
HETATM   15  H   UNL     1      -8.870   8.304  69.214  1.00  0.00     0.000 HD 
HETATM   16  O   UNL     1      -9.275   9.117  69.492  1.00  0.00    -0.149 OA 
ENDBRANCH  13  14
BRANCH  13  17
HETATM   17  C   UNL     1     -12.056  10.183  71.176  1.00  0.00    -0.485 C  
HETATM   18  C   UNL     1     -13.005  11.308  71.567  1.00  0.00    -0.520 C  
ENDBRANCH  13  17
ENDBRANCH  11  13
ENDBRANCH  10  11
ENDBRANCH   9  10
ENDBRANCH   7   9
ENDBRANCH   3   7
ENDBRANCH   2   3
TORSDOF 9
ENDMDL
MODEL       84
REMARK 921   NORMALIZED FREE ENERGY PREDICTED BY IDOCK:   -3.61 KCAL/MOL
REMARK 922        TOTAL FREE ENERGY PREDICTED BY IDOCK:   -5.92 KCAL/MOL
REMARK 923 INTER-LIGAND FREE ENERGY PREDICTED BY IDOCK:   -5.64 KCAL/MOL
REMARK 924 INTRA-LIGAND FREE ENERGY PREDICTED BY IDOCK:   -0.28 KCAL/MOL
REMARK 927      BINDING AFFINITY PREDICTED BY RF-SCORE:    0.00 PKD
ROOT
HETATM    1  C   UNL     1     -11.336   6.257  69.635  1.00  0.00    -0.492 C  
HETATM    2  C   UNL     1     -10.891   7.485  70.417  1.00  0.00    -0.255 C  
ENDROOT
BRANCH   2   3
HETATM    3  CA  UNL     1     -12.033   8.199  71.177  1.00  0.00    -0.273 C  
BRANCH   3   4
HETATM    4  C   UNL     1     -11.864   8.142  72.720  1.00  0.00    -0.232 C  
HETATM    5  H   UNL     1     -10.420   7.883  74.090  1.00  0.00     0.000 HD 
HETATM    6  O   UNL     1     -10.524   7.917  73.146  1.00  0.00    -0.345 OA 
ENDBRANCH   3   4
BRANCH   3   7
HETATM    7  N   UNL     1     -12.089   9.570  70.628  1.00  0.00    -0.440 NA 
HETATM    8  H   UNL     1     -12.290   9.550  69.628  1.00  0.00     0.000 HD 
BRANCH   7   9
HETATM    9  C   UNL     1     -13.036  10.446  71.332  1.00  0.00    -0.443 C  
BRANCH   9  10
HETATM   10  C   UNL     1     -12.552  11.912  71.286  1.00  0.00    -0.277 C  
BRANCH  10  11
HETATM   11  N   UNL     1     -13.424  12.784  72.092  1.00  0.00    -0.542 NA 
HETATM   12  H   UNL     1     -13.186  12.723  73.083  1.00  0.00     0.000 HD 
BRANCH  11  13
HETATM   13  CA  UNL     1     -13.413  14.195  71.628  1.00  0.00    -0.369 C  
BRANCH  13  14
HETATM   14  C   UNL     1     -11.999  14.544  71.109  1.00  0.00    -0.339 C  
HETATM   15  H   UNL     1     -11.207  15.652  69.681  1.00  0.00     0.000 HD 
HETATM   16  O   UNL     1     -12.076  15.438  69.999  1.00  0.00    -0.321 OA 
ENDBRANCH  13  14
BRANCH  13  17
HETATM   17  C   UNL     1     -13.866  15.220  72.688  1.00  0.00    -0.585 C  
HETATM   18  C   UNL     1     -12.774  15.684  73.642  1.00  0.00    -0.725 C  
ENDBRANCH  13  17
ENDBRANCH  11  13
ENDBRANCH  10  11
ENDBRANCH   9  10
ENDBRANCH   7   9
ENDBRANCH   3   7
ENDBRANCH   2   3
TORSDOF 9
ENDMDL
MODEL       85
REMARK 921   NORMALIZED FREE ENERGY PREDICTED BY IDOCK:   -3.61 KCAL/MOL
REMARK 922        TOTAL FREE ENERGY PREDICTED BY IDOCK:   -5.92 KCAL/MOL
REMARK 923 INTER-LIGAND FREE ENERGY PREDICTED BY IDOCK:   -5.46 KCAL/MOL
REMARK 924 INTRA-LIGAND FREE ENERGY PREDICTED BY IDOCK:   -0.46 KCAL/MOL
REMARK 927      BINDING AFFINITY PREDICTED BY RF-SCORE:    0.00 PKD
ROOT
HETATM    1  C   UNL     1     -11.059   7.463  72.941  1.00  0.00    -0.397 C  
HETATM    2  C   UNL     1     -10.939   8.632  71.973  1.00  0.00    -0.432 C  
ENDROOT
BRANCH   2   3
HETATM    3  CA  UNL     1     -12.226   8.920  71.166  1.00  0.00    -0.255 C  
BRANCH   3   4
HETATM    4  C   UNL     1     -13.262   9.767  71.954  1.00  0.00    -0.449 C  
HETATM    5  H   UNL     1     -14.873   9.511  73.124  1.00  0.00     0.000 HD 
HETATM    6  O   UNL     1     -14.240   8.992  72.641  1.00  0.00    -0.574 OA 
ENDBRANCH   3   4
BRANCH   3   7
HETATM    7  N   UNL     1     -11.779   9.540  69.902  1.00  0.00    -0.448 NA 
HETATM    8  H   UNL     1     -12.523  10.107  69.494  1.00  0.00     0.000 HD 
BRANCH   7   9
HETATM    9  C   UNL     1     -10.543  10.324  70.038  1.00  0.00    -0.269 C  
BRANCH   9  10
HETATM   10  C   UNL     1     -10.129  10.922  68.675  1.00  0.00    -0.191 C  
BRANCH  10  11
HETATM   11  N   UNL     1     -10.144  12.394  68.714  1.00  0.00    -0.406 NA 
HETATM   12  H   UNL     1      -9.511  12.785  68.015  1.00  0.00     0.000 HD 
BRANCH  11  13
HETATM   13  CA  UNL     1     -11.510  12.960  68.571  1.00  0.00    -0.310 C  
BRANCH  13  14
HETATM   14  C   UNL     1     -11.653  13.579  67.161  1.00  0.00    -0.357 C  
HETATM   15  H   UNL     1     -12.384  13.046  65.406  1.00  0.00     0.000 HD 
HETATM   16  O   UNL     1     -12.295  12.666  66.272  1.00  0.00    -0.550 OA 
ENDBRANCH  13  14
BRANCH  13  17
HETATM   17  C   UNL     1     -11.892  13.989  69.654  1.00  0.00    -0.386 C  
HETATM   18  C   UNL     1     -12.512  13.398  70.913  1.00  0.00    -0.439 C  
ENDBRANCH  13  17
ENDBRANCH  11  13
ENDBRANCH  10  11
ENDBRANCH   9  10
ENDBRANCH   7   9
ENDBRANCH   3   7
ENDBRANCH   2   3
TORSDOF 9
ENDMDL
MODEL       86
REMARK 921   NORMALIZED FREE ENERGY PREDICTED BY IDOCK:   -3.60 KCAL/MOL
REMARK 922        TOTAL FREE ENERGY PREDICTED BY IDOCK:   -5.91 KCAL/MOL
REMARK 923 INTER-LIGAND FREE ENERGY PREDICTED BY IDOCK:   -5.30 KCAL/MOL
REMARK 924 INTRA-LIGAND FREE ENERGY PREDICTED BY IDOCK:   -0.61 KCAL/MOL
REMARK 927      BINDING AFFINITY PREDICTED BY RF-SCORE:    0.00 PKD
ROOT
HETATM    1  C   UNL     1     -11.651   6.527  70.219  1.00  0.00    -0.473 C  
HETATM    2  C   UNL     1     -11.570   7.054  71.645  1.00  0.00    -0.320 C  
ENDROOT
BRANCH   2   3
HETATM    3  CA  UNL     1     -11.311   8.575  71.745  1.00  0.00    -0.307 C  
BRANCH   3   4
HETATM    4  C   UNL     1      -9.824   8.956  71.511  1.00  0.00    -0.314 C  
HETATM    5  H   UNL     1      -8.707  10.056  70.257  1.00  0.00     0.000 HD 
HETATM    6  O   UNL     1      -9.617   9.823  70.399  1.00  0.00    -0.252 OA 
ENDBRANCH   3   4
BRANCH   3   7
HETATM    7  N   UNL     1     -12.250   9.206  70.794  1.00  0.00    -0.474 NA 
HETATM    8  H   UNL     1     -12.612   8.519  70.133  1.00  0.00     0.000 HD 
BRANCH   7   9
HETATM    9  C   UNL     1     -13.352   9.927  71.449  1.00  0.00    -0.365 C  
BRANCH   9  10
HETATM   10  C   UNL     1     -12.969  11.405  71.681  1.00  0.00    -0.418 C  
BRANCH  10  11
HETATM   11  N   UNL     1     -12.016  11.873  70.660  1.00  0.00    -0.478 NA 
HETATM   12  H   UNL     1     -11.967  11.219  69.878  1.00  0.00     0.000 HD 
BRANCH  11  13
HETATM   13  CA  UNL     1     -12.311  13.249  70.186  1.00  0.00    -0.236 C  
BRANCH  13  14
HETATM   14  C   UNL     1     -11.309  13.623  69.070  1.00  0.00    -0.287 C  
HETATM   15  H   UNL     1     -11.371  14.062  67.146  1.00  0.00     0.000 HD 
HETATM   16  O   UNL     1     -11.987  13.832  67.832  1.00  0.00    -0.362 OA 
ENDBRANCH  13  14
BRANCH  13  17
HETATM   17  C   UNL     1     -12.309  14.321  71.295  1.00  0.00    -0.439 C  
HETATM   18  C   UNL     1     -13.575  15.164  71.376  1.00  0.00    -0.570 C  
ENDBRANCH  13  17
ENDBRANCH  11  13
ENDBRANCH  10  11
ENDBRANCH   9  10
ENDBRANCH   7   9
ENDBRANCH   3   7
ENDBRANCH   2   3
TORSDOF 9
ENDMDL
MODEL       87
REMARK 921   NORMALIZED FREE ENERGY PREDICTED BY IDOCK:   -3.60 KCAL/MOL
REMARK 922        TOTAL FREE ENERGY PREDICTED BY IDOCK:   -5.91 KCAL/MOL
REMARK 923 INTER-LIGAND FREE ENERGY PREDICTED BY IDOCK:   -5.56 KCAL/MOL
REMARK 924 INTRA-LIGAND FREE ENERGY PREDICTED BY IDOCK:   -0.35 KCAL/MOL
REMARK 927      BINDING AFFINITY PREDICTED BY RF-SCORE:    0.00 PKD
ROOT
HETATM    1  C   UNL     1     -11.268   7.661  70.594  1.00  0.00    -0.280 C  
HETATM    2  C   UNL     1     -11.006   9.071  71.104  1.00  0.00    -0.371 C  
ENDROOT
BRANCH   2   3
HETATM    3  CA  UNL     1     -12.043  10.118  70.633  1.00  0.00    -0.319 C  
BRANCH   3   4
HETATM    4  C   UNL     1     -13.137  10.409  71.695  1.00  0.00    -0.448 C  
HETATM    5  H   UNL     1     -14.034  11.974  72.575  1.00  0.00     0.000 HD 
HETATM    6  O   UNL     1     -13.364  11.796  71.926  1.00  0.00    -0.448 OA 
ENDBRANCH   3   4
BRANCH   3   7
HETATM    7  N   UNL     1     -11.262  11.306  70.231  1.00  0.00    -0.479 NA 
HETATM    8  H   UNL     1     -10.709  11.656  71.014  1.00  0.00     0.000 HD 
BRANCH   7   9
HETATM    9  C   UNL     1     -10.411  11.080  69.054  1.00  0.00    -0.216 C  
BRANCH   9  10
HETATM   10  C   UNL     1     -11.269  10.658  67.841  1.00  0.00    -0.308 C  
BRANCH  10  11
HETATM   11  N   UNL     1     -11.992  11.811  67.276  1.00  0.00    -0.607 NA 
HETATM   12  H   UNL     1     -12.084  12.558  67.964  1.00  0.00     0.000 HD 
BRANCH  11  13
HETATM   13  CA  UNL     1     -11.378  12.316  66.021  1.00  0.00    -0.350 C  
BRANCH  13  14
HETATM   14  C   UNL     1     -12.389  13.240  65.303  1.00  0.00    -0.476 C  
HETATM   15  H   UNL     1     -14.018  13.041  64.207  1.00  0.00     0.000 HD 
HETATM   16  O   UNL     1     -13.398  12.473  64.649  1.00  0.00    -0.804 OA 
ENDBRANCH  13  14
BRANCH  13  17
HETATM   17  C   UNL     1     -10.881  11.213  65.064  1.00  0.00    -0.244 C  
HETATM   18  C   UNL     1      -9.379  11.207  64.815  1.00  0.00    -0.209 C  
ENDBRANCH  13  17
ENDBRANCH  11  13
ENDBRANCH  10  11
ENDBRANCH   9  10
ENDBRANCH   7   9
ENDBRANCH   3   7
ENDBRANCH   2   3
TORSDOF 9
ENDMDL
MODEL       88
REMARK 921   NORMALIZED FREE ENERGY PREDICTED BY IDOCK:   -3.60 KCAL/MOL
REMARK 922        TOTAL FREE ENERGY PREDICTED BY IDOCK:   -5.90 KCAL/MOL
REMARK 923 INTER-LIGAND FREE ENERGY PREDICTED BY IDOCK:   -5.30 KCAL/MOL
REMARK 924 INTRA-LIGAND FREE ENERGY PREDICTED BY IDOCK:   -0.60 KCAL/MOL
REMARK 927      BINDING AFFINITY PREDICTED BY RF-SCORE:    0.00 PKD
ROOT
HETATM    1  C   UNL     1      -8.750   9.555  69.854  1.00  0.00    -0.224 C  
HETATM    2  C   UNL     1      -9.616  10.584  69.141  1.00  0.00    -0.214 C  
ENDROOT
BRANCH   2   3
HETATM    3  CA  UNL     1     -11.134  10.292  69.211  1.00  0.00    -0.245 C  
BRANCH   3   4
HETATM    4  C   UNL     1     -11.842  11.028  70.381  1.00  0.00    -0.367 C  
HETATM    5  H   UNL     1     -12.443  10.680  72.264  1.00  0.00     0.000 HD 
HETATM    6  O   UNL     1     -12.010  10.229  71.548  1.00  0.00    -0.358 OA 
ENDBRANCH   3   4
BRANCH   3   7
HETATM    7  N   UNL     1     -11.670  10.628  67.876  1.00  0.00    -0.724 NA 
HETATM    8  H   UNL     1     -12.247  11.468  67.919  1.00  0.00     0.000 HD 
BRANCH   7   9
HETATM    9  C   UNL     1     -10.633  10.764  66.843  1.00  0.00    -0.258 C  
BRANCH   9  10
HETATM   10  C   UNL     1     -11.013  11.873  65.838  1.00  0.00    -0.307 C  
BRANCH  10  11
HETATM   11  N   UNL     1     -12.339  12.436  66.144  1.00  0.00    -0.517 NA 
HETATM   12  H   UNL     1     -12.665  12.126  67.060  1.00  0.00     0.000 HD 
BRANCH  11  13
HETATM   13  CA  UNL     1     -12.373  13.917  66.041  1.00  0.00    -0.475 C  
BRANCH  13  14
HETATM   14  C   UNL     1     -11.937  14.333  64.617  1.00  0.00    -0.455 C  
HETATM   15  H   UNL     1     -10.671  15.606  63.797  1.00  0.00     0.000 HD 
HETATM   16  O   UNL     1     -10.939  15.351  64.672  1.00  0.00    -0.397 OA 
ENDBRANCH  13  14
BRANCH  13  17
HETATM   17  C   UNL     1     -11.526  14.651  67.100  1.00  0.00    -0.380 C  
HETATM   18  C   UNL     1     -11.858  14.300  68.544  1.00  0.00    -0.382 C  
ENDBRANCH  13  17
ENDBRANCH  11  13
ENDBRANCH  10  11
ENDBRANCH   9  10
ENDBRANCH   7   9
ENDBRANCH   3   7
ENDBRANCH   2   3
TORSDOF 9
ENDMDL
MODEL       89
REMARK 921   NORMALIZED FREE ENERGY PREDICTED BY IDOCK:   -3.60 KCAL/MOL
REMARK 922        TOTAL FREE ENERGY PREDICTED BY IDOCK:   -5.90 KCAL/MOL
REMARK 923 INTER-LIGAND FREE ENERGY PREDICTED BY IDOCK:   -5.28 KCAL/MOL
REMARK 924 INTRA-LIGAND FREE ENERGY PREDICTED BY IDOCK:   -0.62 KCAL/MOL
REMARK 927      BINDING AFFINITY PREDICTED BY RF-SCORE:    0.00 PKD
ROOT
HETATM    1  C   UNL     1     -11.350   6.296  69.462  1.00  0.00    -0.475 C  
HETATM    2  C   UNL     1     -11.128   6.016  70.942  1.00  0.00    -0.352 C  
ENDROOT
BRANCH   2   3
HETATM    3  CA  UNL     1     -12.030   6.846  71.885  1.00  0.00    -0.327 C  
BRANCH   3   4
HETATM    4  C   UNL     1     -11.237   7.554  73.017  1.00  0.00    -0.322 C  
HETATM    5  H   UNL     1      -9.479   8.481  73.301  1.00  0.00     0.000 HD 
HETATM    6  O   UNL     1      -9.964   8.047  72.609  1.00  0.00    -0.237 OA 
ENDBRANCH   3   4
BRANCH   3   7
HETATM    7  N   UNL     1     -12.786   7.768  71.012  1.00  0.00    -0.540 NA 
HETATM    8  H   UNL     1     -13.371   7.248  70.358  1.00  0.00     0.000 HD 
BRANCH   7   9
HETATM    9  C   UNL     1     -13.587   8.753  71.753  1.00  0.00    -0.410 C  
BRANCH   9  10
HETATM   10  C   UNL     1     -13.157  10.189  71.379  1.00  0.00    -0.416 C  
BRANCH  10  11
HETATM   11  N   UNL     1     -12.612  10.241  70.011  1.00  0.00    -0.547 NA 
HETATM   12  H   UNL     1     -13.276  10.676  69.370  1.00  0.00     0.000 HD 
BRANCH  11  13
HETATM   13  CA  UNL     1     -11.289  10.912  69.945  1.00  0.00    -0.305 C  
BRANCH  13  14
HETATM   14  C   UNL     1     -11.315  11.965  68.813  1.00  0.00    -0.274 C  
HETATM   15  H   UNL     1     -12.114  12.151  67.017  1.00  0.00     0.000 HD 
HETATM   16  O   UNL     1     -12.098  11.504  67.713  1.00  0.00    -0.626 OA 
ENDBRANCH  13  14
BRANCH  13  17
HETATM   17  C   UNL     1     -10.095   9.954  69.762  1.00  0.00    -0.274 C  
HETATM   18  C   UNL     1      -8.883  10.562  69.069  1.00  0.00    -0.174 C  
ENDBRANCH  13  17
ENDBRANCH  11  13
ENDBRANCH  10  11
ENDBRANCH   9  10
ENDBRANCH   7   9
ENDBRANCH   3   7
ENDBRANCH   2   3
TORSDOF 9
ENDMDL
MODEL       90
REMARK 921   NORMALIZED FREE ENERGY PREDICTED BY IDOCK:   -3.60 KCAL/MOL
REMARK 922        TOTAL FREE ENERGY PREDICTED BY IDOCK:   -5.90 KCAL/MOL
REMARK 923 INTER-LIGAND FREE ENERGY PREDICTED BY IDOCK:   -5.50 KCAL/MOL
REMARK 924 INTRA-LIGAND FREE ENERGY PREDICTED BY IDOCK:   -0.41 KCAL/MOL
REMARK 927      BINDING AFFINITY PREDICTED BY RF-SCORE:    0.00 PKD
ROOT
HETATM    1  C   UNL     1      -9.761  20.504  67.249  1.00  0.00    -0.600 C  
HETATM    2  C   UNL     1      -9.921  19.066  67.722  1.00  0.00    -0.426 C  
ENDROOT
BRANCH   2   3
HETATM    3  CA  UNL     1      -9.315  18.013  66.765  1.00  0.00    -0.284 C  
BRANCH   3   4
HETATM    4  C   UNL     1      -7.765  18.084  66.688  1.00  0.00    -0.238 C  
HETATM    5  H   UNL     1      -6.316  18.415  65.338  1.00  0.00     0.000 HD 
HETATM    6  O   UNL     1      -7.264  18.371  65.385  1.00  0.00    -0.534 OA 
ENDBRANCH   3   4
BRANCH   3   7
HETATM    7  N   UNL     1      -9.835  16.707  67.220  1.00  0.00    -0.250 NA 
HETATM    8  H   UNL     1     -10.765  16.536  66.838  1.00  0.00     0.000 HD 
BRANCH   7   9
HETATM    9  C   UNL     1      -8.937  15.582  66.924  1.00  0.00    -0.246 C  
BRANCH   9  10
HETATM   10  C   UNL     1      -9.731  14.399  66.329  1.00  0.00    -0.310 C  
BRANCH  10  11
HETATM   11  N   UNL     1     -11.153  14.745  66.160  1.00  0.00    -0.336 NA 
HETATM   12  H   UNL     1     -11.322  15.156  65.241  1.00  0.00     0.000 HD 
BRANCH  11  13
HETATM   13  CA  UNL     1     -12.058  13.593  66.402  1.00  0.00    -0.433 C  
BRANCH  13  14
HETATM   14  C   UNL     1     -11.875  13.106  67.859  1.00  0.00    -0.348 C  
HETATM   15  H   UNL     1     -11.984  11.401  68.847  1.00  0.00     0.000 HD 
HETATM   16  O   UNL     1     -12.097  11.700  67.952  1.00  0.00    -0.613 OA 
ENDBRANCH  13  14
BRANCH  13  17
HETATM   17  C   UNL     1     -11.879  12.421  65.416  1.00  0.00    -0.460 C  
HETATM   18  C   UNL     1     -12.762  12.483  64.177  1.00  0.00    -0.417 C  
ENDBRANCH  13  17
ENDBRANCH  11  13
ENDBRANCH  10  11
ENDBRANCH   9  10
ENDBRANCH   7   9
ENDBRANCH   3   7
ENDBRANCH   2   3
TORSDOF 9
ENDMDL
MODEL       91
REMARK 921   NORMALIZED FREE ENERGY PREDICTED BY IDOCK:   -3.60 KCAL/MOL
REMARK 922        TOTAL FREE ENERGY PREDICTED BY IDOCK:   -5.90 KCAL/MOL
REMARK 923 INTER-LIGAND FREE ENERGY PREDICTED BY IDOCK:   -5.09 KCAL/MOL
REMARK 924 INTRA-LIGAND FREE ENERGY PREDICTED BY IDOCK:   -0.81 KCAL/MOL
REMARK 927      BINDING AFFINITY PREDICTED BY RF-SCORE:    0.00 PKD
ROOT
HETATM    1  C   UNL     1     -10.767  19.523  67.304  1.00  0.00    -0.604 C  
HETATM    2  C   UNL     1     -10.324  18.547  66.224  1.00  0.00    -0.459 C  
ENDROOT
BRANCH   2   3
HETATM    3  CA  UNL     1      -9.845  17.179  66.764  1.00  0.00    -0.285 C  
BRANCH   3   4
HETATM    4  C   UNL     1     -10.771  16.606  67.872  1.00  0.00    -0.344 C  
HETATM    5  H   UNL     1     -10.740  16.224  69.843  1.00  0.00     0.000 HD 
HETATM    6  O   UNL     1     -10.174  16.574  69.165  1.00  0.00    -0.263 OA 
ENDBRANCH   3   4
BRANCH   3   7
HETATM    7  N   UNL     1      -9.709  16.303  65.582  1.00  0.00    -0.500 NA 
HETATM    8  H   UNL     1      -9.188  15.458  65.817  1.00  0.00     0.000 HD 
BRANCH   7   9
HETATM    9  C   UNL     1     -10.993  15.964  64.952  1.00  0.00    -0.411 C  
BRANCH   9  10
HETATM   10  C   UNL     1     -11.052  14.456  64.623  1.00  0.00    -0.354 C  
BRANCH  10  11
HETATM   11  N   UNL     1     -10.006  13.714  65.347  1.00  0.00    -0.499 NA 
HETATM   12  H   UNL     1      -9.220  14.321  65.578  1.00  0.00     0.000 HD 
BRANCH  11  13
HETATM   13  CA  UNL     1     -10.522  13.027  66.559  1.00  0.00    -0.277 C  
BRANCH  13  14
HETATM   14  C   UNL     1      -9.445  13.084  67.667  1.00  0.00    -0.201 C  
HETATM   15  H   UNL     1      -7.733  14.012  67.985  1.00  0.00     0.000 HD 
HETATM   16  O   UNL     1      -8.394  13.977  67.304  1.00  0.00    -0.191 OA 
ENDBRANCH  13  14
BRANCH  13  17
HETATM   17  C   UNL     1     -10.978  11.573  66.323  1.00  0.00    -0.328 C  
HETATM   18  C   UNL     1     -11.218  10.761  67.590  1.00  0.00    -0.370 C  
ENDBRANCH  13  17
ENDBRANCH  11  13
ENDBRANCH  10  11
ENDBRANCH   9  10
ENDBRANCH   7   9
ENDBRANCH   3   7
ENDBRANCH   2   3
TORSDOF 9
ENDMDL
MODEL       92
REMARK 921   NORMALIZED FREE ENERGY PREDICTED BY IDOCK:   -3.59 KCAL/MOL
REMARK 922        TOTAL FREE ENERGY PREDICTED BY IDOCK:   -5.89 KCAL/MOL
REMARK 923 INTER-LIGAND FREE ENERGY PREDICTED BY IDOCK:   -5.45 KCAL/MOL
REMARK 924 INTRA-LIGAND FREE ENERGY PREDICTED BY IDOCK:   -0.45 KCAL/MOL
REMARK 927      BINDING AFFINITY PREDICTED BY RF-SCORE:    0.00 PKD
ROOT
HETATM    1  C   UNL     1     -11.870  13.223  64.276  1.00  0.00    -0.469 C  
HETATM    2  C   UNL     1     -12.788  13.786  65.352  1.00  0.00    -0.455 C  
ENDROOT
BRANCH   2   3
HETATM    3  CA  UNL     1     -12.215  13.693  66.785  1.00  0.00    -0.369 C  
BRANCH   3   4
HETATM    4  C   UNL     1     -11.372  12.410  67.021  1.00  0.00    -0.327 C  
HETATM    5  H   UNL     1     -11.565  10.581  67.825  1.00  0.00     0.000 HD 
HETATM    6  O   UNL     1     -12.081  11.366  67.681  1.00  0.00    -0.630 OA 
ENDBRANCH   3   4
BRANCH   3   7
HETATM    7  N   UNL     1     -11.471  14.950  67.005  1.00  0.00    -0.349 NA 
HETATM    8  H   UNL     1     -11.806  15.427  67.842  1.00  0.00     0.000 HD 
BRANCH   7   9
HETATM    9  C   UNL     1     -10.014  14.768  67.059  1.00  0.00    -0.238 C  
BRANCH   9  10
HETATM   10  C   UNL     1      -9.336  15.479  65.868  1.00  0.00    -0.319 C  
BRANCH  10  11
HETATM   11  N   UNL     1      -9.925  16.810  65.637  1.00  0.00    -0.575 NA 
HETATM   12  H   UNL     1     -10.944  16.767  65.662  1.00  0.00     0.000 HD 
BRANCH  11  13
HETATM   13  CA  UNL     1      -9.413  17.837  66.579  1.00  0.00    -0.290 C  
BRANCH  13  14
HETATM   14  C   UNL     1     -10.057  19.200  66.237  1.00  0.00    -0.431 C  
HETATM   15  H   UNL     1     -11.539  20.318  66.908  1.00  0.00     0.000 HD 
HETATM   16  O   UNL     1     -11.144  19.480  67.118  1.00  0.00    -0.446 OA 
ENDBRANCH  13  14
BRANCH  13  17
HETATM   17  C   UNL     1      -7.876  17.960  66.615  1.00  0.00    -0.272 C  
HETATM   18  C   UNL     1      -7.310  19.162  65.871  1.00  0.00    -0.278 C  
ENDBRANCH  13  17
ENDBRANCH  11  13
ENDBRANCH  10  11
ENDBRANCH   9  10
ENDBRANCH   7   9
ENDBRANCH   3   7
ENDBRANCH   2   3
TORSDOF 9
ENDMDL
MODEL       93
REMARK 921   NORMALIZED FREE ENERGY PREDICTED BY IDOCK:   -3.58 KCAL/MOL
REMARK 922        TOTAL FREE ENERGY PREDICTED BY IDOCK:   -5.87 KCAL/MOL
REMARK 923 INTER-LIGAND FREE ENERGY PREDICTED BY IDOCK:   -5.27 KCAL/MOL
REMARK 924 INTRA-LIGAND FREE ENERGY PREDICTED BY IDOCK:   -0.61 KCAL/MOL
REMARK 927      BINDING AFFINITY PREDICTED BY RF-SCORE:    0.00 PKD
ROOT
HETATM    1  C   UNL     1      -9.870   9.648  66.180  1.00  0.00    -0.334 C  
HETATM    2  C   UNL     1     -10.970   9.638  67.232  1.00  0.00    -0.107 C  
ENDROOT
BRANCH   2   3
HETATM    3  CA  UNL     1     -11.018  10.909  68.111  1.00  0.00    -0.249 C  
BRANCH   3   4
HETATM    4  C   UNL     1     -10.960  12.222  67.284  1.00  0.00    -0.256 C  
HETATM    5  H   UNL     1     -12.040  13.213  65.912  1.00  0.00     0.000 HD 
HETATM    6  O   UNL     1     -12.076  12.409  66.418  1.00  0.00    -0.607 OA 
ENDBRANCH   3   4
BRANCH   3   7
HETATM    7  N   UNL     1     -12.229  10.777  68.947  1.00  0.00    -0.795 NA 
HETATM    8  H   UNL     1     -12.560   9.813  68.953  1.00  0.00     0.000 HD 
BRANCH   7   9
HETATM    9  C   UNL     1     -12.053  11.275  70.319  1.00  0.00    -0.373 C  
BRANCH   9  10
HETATM   10  C   UNL     1     -12.639  10.272  71.337  1.00  0.00    -0.434 C  
BRANCH  10  11
HETATM   11  N   UNL     1     -12.855   8.952  70.718  1.00  0.00    -0.473 NA 
HETATM   12  H   UNL     1     -12.770   9.007  69.702  1.00  0.00     0.000 HD 
BRANCH  11  13
HETATM   13  CA  UNL     1     -11.963   7.903  71.272  1.00  0.00    -0.298 C  
BRANCH  13  14
HETATM   14  C   UNL     1     -11.397   8.387  72.628  1.00  0.00    -0.276 C  
HETATM   15  H   UNL     1     -10.293   7.652  74.089  1.00  0.00     0.000 HD 
HETATM   16  O   UNL     1     -10.641   7.354  73.256  1.00  0.00    -0.337 OA 
ENDBRANCH  13  14
BRANCH  13  17
HETATM   17  C   UNL     1     -10.817   7.476  70.332  1.00  0.00    -0.255 C  
HETATM   18  C   UNL     1     -10.973   6.092  69.717  1.00  0.00    -0.471 C  
ENDBRANCH  13  17
ENDBRANCH  11  13
ENDBRANCH  10  11
ENDBRANCH   9  10
ENDBRANCH   7   9
ENDBRANCH   3   7
ENDBRANCH   2   3
TORSDOF 9
ENDMDL
MODEL       94
REMARK 921   NORMALIZED FREE ENERGY PREDICTED BY IDOCK:   -3.57 KCAL/MOL
REMARK 922        TOTAL FREE ENERGY PREDICTED BY IDOCK:   -5.86 KCAL/MOL
REMARK 923 INTER-LIGAND FREE ENERGY PREDICTED BY IDOCK:   -5.39 KCAL/MOL
REMARK 924 INTRA-LIGAND FREE ENERGY PREDICTED BY IDOCK:   -0.47 KCAL/MOL
REMARK 927      BINDING AFFINITY PREDICTED BY RF-SCORE:    0.00 PKD
ROOT
HETATM    1  C   UNL     1      -9.118  18.041  66.591  1.00  0.00    -0.290 C  
HETATM    2  C   UNL     1     -10.415  17.490  66.016  1.00  0.00    -0.274 C  
ENDROOT
BRANCH   2   3
HETATM    3  CA  UNL     1     -10.459  15.948  65.916  1.00  0.00    -0.359 C  
BRANCH   3   4
HETATM    4  C   UNL     1     -11.270  15.440  64.693  1.00  0.00    -0.364 C  
HETATM    5  H   UNL     1     -12.317  16.172  63.144  1.00  0.00     0.000 HD 
HETATM    6  O   UNL     1     -11.821  16.482  63.893  1.00  0.00    -1.059 OA 
ENDBRANCH   3   4
BRANCH   3   7
HETATM    7  N   UNL     1      -9.050  15.503  65.930  1.00  0.00    -0.398 NA 
HETATM    8  H   UNL     1      -8.435  16.259  66.230  1.00  0.00     0.000 HD 
BRANCH   7   9
HETATM    9  C   UNL     1      -8.823  14.297  66.739  1.00  0.00    -0.182 C  
BRANCH   9  10
HETATM   10  C   UNL     1      -9.413  14.478  68.155  1.00  0.00    -0.208 C  
BRANCH  10  11
HETATM   11  N   UNL     1      -9.633  13.176  68.809  1.00  0.00    -0.411 NA 
HETATM   12  H   UNL     1      -9.126  13.121  69.693  1.00  0.00     0.000 HD 
BRANCH  11  13
HETATM   13  CA  UNL     1     -11.072  12.865  69.000  1.00  0.00    -0.233 C  
BRANCH  13  14
HETATM   14  C   UNL     1     -11.554  11.971  67.834  1.00  0.00    -0.337 C  
HETATM   15  H   UNL     1     -12.503  10.255  67.614  1.00  0.00     0.000 HD 
HETATM   16  O   UNL     1     -12.207  10.804  68.331  1.00  0.00    -0.470 OA 
ENDBRANCH  13  14
BRANCH  13  17
HETATM   17  C   UNL     1     -11.981  14.104  69.141  1.00  0.00    -0.388 C  
HETATM   18  C   UNL     1     -12.646  14.262  70.501  1.00  0.00    -0.418 C  
ENDBRANCH  13  17
ENDBRANCH  11  13
ENDBRANCH  10  11
ENDBRANCH   9  10
ENDBRANCH   7   9
ENDBRANCH   3   7
ENDBRANCH   2   3
TORSDOF 9
ENDMDL
MODEL       95
REMARK 921   NORMALIZED FREE ENERGY PREDICTED BY IDOCK:   -3.57 KCAL/MOL
REMARK 922        TOTAL FREE ENERGY PREDICTED BY IDOCK:   -5.86 KCAL/MOL
REMARK 923 INTER-LIGAND FREE ENERGY PREDICTED BY IDOCK:   -5.39 KCAL/MOL
REMARK 924 INTRA-LIGAND FREE ENERGY PREDICTED BY IDOCK:   -0.47 KCAL/MOL
REMARK 927      BINDING AFFINITY PREDICTED BY RF-SCORE:    0.00 PKD
ROOT
HETATM    1  C   UNL     1      -9.808  15.339  66.014  1.00  0.00    -0.357 C  
HETATM    2  C   UNL     1     -10.831  15.008  64.937  1.00  0.00    -0.430 C  
ENDROOT
BRANCH   2   3
HETATM    3  CA  UNL     1     -11.101  13.495  64.764  1.00  0.00    -0.359 C  
BRANCH   3   4
HETATM    4  C   UNL     1     -12.271  13.194  63.788  1.00  0.00    -0.456 C  
HETATM    5  H   UNL     1     -13.996  12.168  63.741  1.00  0.00     0.000 HD 
HETATM    6  O   UNL     1     -13.280  12.352  64.338  1.00  0.00    -0.816 OA 
ENDBRANCH   3   4
BRANCH   3   7
HETATM    7  N   UNL     1      -9.811  12.899  64.359  1.00  0.00    -0.601 NA 
HETATM    8  H   UNL     1      -9.240  12.683  65.176  1.00  0.00     0.000 HD 
BRANCH   7   9
HETATM    9  C   UNL     1      -9.955  11.717  63.498  1.00  0.00    -0.405 C  
BRANCH   9  10
HETATM   10  C   UNL     1      -9.322  10.479  64.170  1.00  0.00    -0.267 C  
BRANCH  10  11
HETATM   11  N   UNL     1      -9.104  10.709  65.608  1.00  0.00    -0.176 NA 
HETATM   12  H   UNL     1      -9.061  11.707  65.816  1.00  0.00     0.000 HD 
BRANCH  11  13
HETATM   13  CA  UNL     1     -10.114  10.030  66.459  1.00  0.00    -0.232 C  
BRANCH  13  14
HETATM   14  C   UNL     1     -10.572  11.004  67.570  1.00  0.00    -0.227 C  
HETATM   15  H   UNL     1     -12.232  11.933  68.097  1.00  0.00     0.000 HD 
HETATM   16  O   UNL     1     -11.951  11.335  67.414  1.00  0.00    -0.581 OA 
ENDBRANCH  13  14
BRANCH  13  17
HETATM   17  C   UNL     1      -9.642   8.696  67.072  1.00  0.00    -0.240 C  
HETATM   18  C   UNL     1     -10.401   8.256  68.316  1.00  0.00    -0.242 C  
ENDBRANCH  13  17
ENDBRANCH  11  13
ENDBRANCH  10  11
ENDBRANCH   9  10
ENDBRANCH   7   9
ENDBRANCH   3   7
ENDBRANCH   2   3
TORSDOF 9
ENDMDL
MODEL       96
REMARK 921   NORMALIZED FREE ENERGY PREDICTED BY IDOCK:   -3.56 KCAL/MOL
REMARK 922        TOTAL FREE ENERGY PREDICTED BY IDOCK:   -5.84 KCAL/MOL
REMARK 923 INTER-LIGAND FREE ENERGY PREDICTED BY IDOCK:   -5.44 KCAL/MOL
REMARK 924 INTRA-LIGAND FREE ENERGY PREDICTED BY IDOCK:   -0.40 KCAL/MOL
REMARK 927      BINDING AFFINITY PREDICTED BY RF-SCORE:    0.00 PKD
ROOT
HETATM    1  C   UNL     1     -11.929  13.682  68.393  1.00  0.00    -0.391 C  
HETATM    2  C   UNL     1     -12.035  13.284  66.927  1.00  0.00    -0.430 C  
ENDROOT
BRANCH   2   3
HETATM    3  CA  UNL     1     -11.185  14.154  65.972  1.00  0.00    -0.319 C  
BRANCH   3   4
HETATM    4  C   UNL     1     -12.007  14.739  64.791  1.00  0.00    -0.404 C  
HETATM    5  H   UNL     1     -12.946  14.120  63.128  1.00  0.00     0.000 HD 
HETATM    6  O   UNL     1     -12.444  13.762  63.851  1.00  0.00    -0.695 OA 
ENDBRANCH   3   4
BRANCH   3   7
HETATM    7  N   UNL     1     -10.542  15.176  66.822  1.00  0.00    -0.292 NA 
HETATM    8  H   UNL     1      -9.624  14.860  67.136  1.00  0.00     0.000 HD 
BRANCH   7   9
HETATM    9  C   UNL     1     -10.446  16.496  66.182  1.00  0.00    -0.294 C  
BRANCH   9  10
HETATM   10  C   UNL     1     -10.461  17.615  67.246  1.00  0.00    -0.338 C  
BRANCH  10  11
HETATM   11  N   UNL     1     -10.183  18.929  66.639  1.00  0.00    -0.377 NA 
HETATM   12  H   UNL     1     -11.028  19.499  66.600  1.00  0.00     0.000 HD 
BRANCH  11  13
HETATM   13  CA  UNL     1      -9.081  19.655  67.320  1.00  0.00    -0.317 C  
BRANCH  13  14
HETATM   14  C   UNL     1      -7.970  19.965  66.290  1.00  0.00    -0.327 C  
HETATM   15  H   UNL     1      -6.848  18.960  65.014  1.00  0.00     0.000 HD 
HETATM   16  O   UNL     1      -7.531  18.770  65.647  1.00  0.00    -0.488 OA 
ENDBRANCH  13  14
BRANCH  13  17
HETATM   17  C   UNL     1      -8.493  18.923  68.543  1.00  0.00    -0.384 C  
HETATM   18  C   UNL     1      -7.259  19.576  69.151  1.00  0.00    -0.382 C  
ENDBRANCH  13  17
ENDBRANCH  11  13
ENDBRANCH  10  11
ENDBRANCH   9  10
ENDBRANCH   7   9
ENDBRANCH   3   7
ENDBRANCH   2   3
TORSDOF 9
ENDMDL
MODEL       97
REMARK 921   NORMALIZED FREE ENERGY PREDICTED BY IDOCK:   -3.55 KCAL/MOL
REMARK 922        TOTAL FREE ENERGY PREDICTED BY IDOCK:   -5.83 KCAL/MOL
REMARK 923 INTER-LIGAND FREE ENERGY PREDICTED BY IDOCK:   -5.41 KCAL/MOL
REMARK 924 INTRA-LIGAND FREE ENERGY PREDICTED BY IDOCK:   -0.42 KCAL/MOL
REMARK 927      BINDING AFFINITY PREDICTED BY RF-SCORE:    0.00 PKD
ROOT
HETATM    1  C   UNL     1     -13.552  12.861  72.049  1.00  0.00    -0.499 C  
HETATM    2  C   UNL     1     -12.682  13.852  71.288  1.00  0.00    -0.444 C  
ENDROOT
BRANCH   2   3
HETATM    3  CA  UNL     1     -13.128  15.326  71.430  1.00  0.00    -0.454 C  
BRANCH   3   4
HETATM    4  C   UNL     1     -12.348  16.094  72.532  1.00  0.00    -0.480 C  
HETATM    5  H   UNL     1     -10.816  15.811  73.798  1.00  0.00     0.000 HD 
HETATM    6  O   UNL     1     -11.293  15.341  73.124  1.00  0.00    -0.227 OA 
ENDBRANCH   3   4
BRANCH   3   7
HETATM    7  N   UNL     1     -13.004  15.917  70.082  1.00  0.00    -0.660 NA 
HETATM    8  H   UNL     1     -13.070  16.934  70.125  1.00  0.00     0.000 HD 
BRANCH   7   9
HETATM    9  C   UNL     1     -11.784  15.506  69.372  1.00  0.00    -0.367 C  
BRANCH   9  10
HETATM   10  C   UNL     1     -10.894  16.732  69.073  1.00  0.00    -0.291 C  
BRANCH  10  11
HETATM   11  N   UNL     1     -10.750  16.943  67.622  1.00  0.00    -0.321 NA 
HETATM   12  H   UNL     1     -11.379  17.678  67.296  1.00  0.00     0.000 HD 
BRANCH  11  13
HETATM   13  CA  UNL     1      -9.349  17.223  67.217  1.00  0.00    -0.237 C  
BRANCH  13  14
HETATM   14  C   UNL     1      -9.311  18.545  66.415  1.00  0.00    -0.282 C  
HETATM   15  H   UNL     1     -10.590  19.931  65.834  1.00  0.00     0.000 HD 
HETATM   16  O   UNL     1     -10.614  19.119  66.327  1.00  0.00    -0.432 OA 
ENDBRANCH  13  14
BRANCH  13  17
HETATM   17  C   UNL     1      -8.676  16.088  66.419  1.00  0.00    -0.362 C  
HETATM   18  C   UNL     1      -9.624  15.015  65.903  1.00  0.00    -0.356 C  
ENDBRANCH  13  17
ENDBRANCH  11  13
ENDBRANCH  10  11
ENDBRANCH   9  10
ENDBRANCH   7   9
ENDBRANCH   3   7
ENDBRANCH   2   3
TORSDOF 9
ENDMDL
MODEL       98
REMARK 921   NORMALIZED FREE ENERGY PREDICTED BY IDOCK:   -3.55 KCAL/MOL
REMARK 922        TOTAL FREE ENERGY PREDICTED BY IDOCK:   -5.83 KCAL/MOL
REMARK 923 INTER-LIGAND FREE ENERGY PREDICTED BY IDOCK:   -5.57 KCAL/MOL
REMARK 924 INTRA-LIGAND FREE ENERGY PREDICTED BY IDOCK:   -0.26 KCAL/MOL
REMARK 927      BINDING AFFINITY PREDICTED BY RF-SCORE:    0.00 PKD
ROOT
HETATM    1  C   UNL     1     -11.773  12.984  67.418  1.00  0.00    -0.427 C  
HETATM    2  C   UNL     1     -12.133  13.619  66.082  1.00  0.00    -0.477 C  
ENDROOT
BRANCH   2   3
HETATM    3  CA  UNL     1     -11.161  13.268  64.932  1.00  0.00    -0.328 C  
BRANCH   3   4
HETATM    4  C   UNL     1     -11.686  12.129  64.017  1.00  0.00    -0.430 C  
HETATM    5  H   UNL     1     -13.282  11.696  62.879  1.00  0.00     0.000 HD 
HETATM    6  O   UNL     1     -12.961  12.393  63.439  1.00  0.00    -0.723 OA 
ENDBRANCH   3   4
BRANCH   3   7
HETATM    7  N   UNL     1     -10.902  14.538  64.222  1.00  0.00    -0.543 NA 
HETATM    8  H   UNL     1     -11.566  14.668  63.459  1.00  0.00     0.000 HD 
BRANCH   7   9
HETATM    9  C   UNL     1     -10.890  15.713  65.106  1.00  0.00    -0.431 C  
BRANCH   9  10
HETATM   10  C   UNL     1      -9.502  15.881  65.763  1.00  0.00    -0.281 C  
BRANCH  10  11
HETATM   11  N   UNL     1      -9.197  17.302  66.002  1.00  0.00    -0.514 NA 
HETATM   12  H   UNL     1      -9.918  17.903  65.603  1.00  0.00     0.000 HD 
BRANCH  11  13
HETATM   13  CA  UNL     1      -8.981  17.610  67.438  1.00  0.00    -0.231 C  
BRANCH  13  14
HETATM   14  C   UNL     1     -10.344  17.925  68.096  1.00  0.00    -0.389 C  
HETATM   15  H   UNL     1     -11.628  17.015  69.288  1.00  0.00     0.000 HD 
HETATM   16  O   UNL     1     -10.790  16.821  68.883  1.00  0.00    -0.320 OA 
ENDBRANCH  13  14
BRANCH  13  17
HETATM   17  C   UNL     1      -7.978  18.752  67.703  1.00  0.00    -0.269 C  
HETATM   18  C   UNL     1      -6.676  18.658  66.919  1.00  0.00    -0.206 C  
ENDBRANCH  13  17
ENDBRANCH  11  13
ENDBRANCH  10  11
ENDBRANCH   9  10
ENDBRANCH   7   9
ENDBRANCH   3   7
ENDBRANCH   2   3
TORSDOF 9
ENDMDL
MODEL       99
REMARK 921   NORMALIZED FREE ENERGY PREDICTED BY IDOCK:   -3.55 KCAL/MOL
REMARK 922        TOTAL FREE ENERGY PREDICTED BY IDOCK:   -5.82 KCAL/MOL
REMARK 923 INTER-LIGAND FREE ENERGY PREDICTED BY IDOCK:   -5.18 KCAL/MOL
REMARK 924 INTRA-LIGAND FREE ENERGY PREDICTED BY IDOCK:   -0.64 KCAL/MOL
REMARK 927      BINDING AFFINITY PREDICTED BY RF-SCORE:    0.00 PKD
ROOT
HETATM    1  C   UNL     1     -10.357  19.883  67.111  1.00  0.00    -0.581 C  
HETATM    2  C   UNL     1     -10.591  18.386  67.260  1.00  0.00    -0.435 C  
ENDROOT
BRANCH   2   3
HETATM    3  CA  UNL     1      -9.911  17.528  66.168  1.00  0.00    -0.270 C  
BRANCH   3   4
HETATM    4  C   UNL     1      -8.409  17.257  66.454  1.00  0.00    -0.280 C  
HETATM    5  H   UNL     1      -6.601  17.841  65.807  1.00  0.00     0.000 HD 
HETATM    6  O   UNL     1      -7.520  18.007  65.632  1.00  0.00    -0.542 OA 
ENDBRANCH   3   4
BRANCH   3   7
HETATM    7  N   UNL     1     -10.731  16.304  66.049  1.00  0.00    -0.262 NA 
HETATM    8  H   UNL     1     -11.536  16.466  65.444  1.00  0.00     0.000 HD 
BRANCH   7   9
HETATM    9  C   UNL     1      -9.970  15.130  65.598  1.00  0.00    -0.354 C  
BRANCH   9  10
HETATM   10  C   UNL     1     -10.630  13.830  66.109  1.00  0.00    -0.291 C  
BRANCH  10  11
HETATM   11  N   UNL     1     -11.968  14.097  66.665  1.00  0.00    -0.427 NA 
HETATM   12  H   UNL     1     -12.698  13.746  66.044  1.00  0.00     0.000 HD 
BRANCH  11  13
HETATM   13  CA  UNL     1     -12.136  13.562  68.040  1.00  0.00    -0.262 C  
BRANCH  13  14
HETATM   14  C   UNL     1     -11.347  14.453  69.027  1.00  0.00    -0.269 C  
HETATM   15  H   UNL     1     -11.353  16.340  69.607  1.00  0.00     0.000 HD 
HETATM   16  O   UNL     1     -11.838  15.793  69.000  1.00  0.00    -0.391 OA 
ENDBRANCH  13  14
BRANCH  13  17
HETATM   17  C   UNL     1     -11.729  12.083  68.205  1.00  0.00    -0.398 C  
HETATM   18  C   UNL     1     -11.885  11.527  69.614  1.00  0.00    -0.421 C  
ENDBRANCH  13  17
ENDBRANCH  11  13
ENDBRANCH  10  11
ENDBRANCH   9  10
ENDBRANCH   7   9
ENDBRANCH   3   7
ENDBRANCH   2   3
TORSDOF 9
ENDMDL
MODEL      100
REMARK 921   NORMALIZED FREE ENERGY PREDICTED BY IDOCK:   -3.54 KCAL/MOL
REMARK 922        TOTAL FREE ENERGY PREDICTED BY IDOCK:   -5.81 KCAL/MOL
REMARK 923 INTER-LIGAND FREE ENERGY PREDICTED BY IDOCK:   -5.48 KCAL/MOL
REMARK 924 INTRA-LIGAND FREE ENERGY PREDICTED BY IDOCK:   -0.33 KCAL/MOL
REMARK 927      BINDING AFFINITY PREDICTED BY RF-SCORE:    0.00 PKD
ROOT
HETATM    1  C   UNL     1     -10.526   8.173  70.442  1.00  0.00    -0.217 C  
HETATM    2  C   UNL     1     -10.812   9.424  71.262  1.00  0.00    -0.431 C  
ENDROOT
BRANCH   2   3
HETATM    3  CA  UNL     1     -12.026  10.243  70.764  1.00  0.00    -0.360 C  
BRANCH   3   4
HETATM    4  C   UNL     1     -13.084  10.495  71.872  1.00  0.00    -0.462 C  
HETATM    5  H   UNL     1     -14.457   9.484  72.932  1.00  0.00     0.000 HD 
HETATM    6  O   UNL     1     -13.810   9.330  72.254  1.00  0.00    -0.453 OA 
ENDBRANCH   3   4
BRANCH   3   7
HETATM    7  N   UNL     1     -11.465  11.477  70.176  1.00  0.00    -0.496 NA 
HETATM    8  H   UNL     1     -10.473  11.563  70.393  1.00  0.00     0.000 HD 
BRANCH   7   9
HETATM    9  C   UNL     1     -11.692  11.593  68.728  1.00  0.00    -0.330 C  
BRANCH   9  10
HETATM   10  C   UNL     1     -11.777  13.077  68.311  1.00  0.00    -0.353 C  
BRANCH  10  11
HETATM   11  N   UNL     1     -11.197  13.287  66.973  1.00  0.00    -0.283 NA 
HETATM   12  H   UNL     1     -10.178  13.317  67.017  1.00  0.00     0.000 HD 
BRANCH  11  13
HETATM   13  CA  UNL     1     -11.658  12.281  65.982  1.00  0.00    -0.393 C  
BRANCH  13  14
HETATM   14  C   UNL     1     -10.424  11.630  65.315  1.00  0.00    -0.273 C  
HETATM   15  H   UNL     1      -8.473  11.576  65.605  1.00  0.00     0.000 HD 
HETATM   16  O   UNL     1      -9.230  11.976  66.016  1.00  0.00    -0.221 OA 
ENDBRANCH  13  14
BRANCH  13  17
HETATM   17  C   UNL     1     -12.622  12.833  64.912  1.00  0.00    -0.541 C  
HETATM   18  C   UNL     1     -12.371  12.326  63.499  1.00  0.00    -0.670 C  
ENDBRANCH  13  17
ENDBRANCH  11  13
ENDBRANCH  10  11
ENDBRANCH   9  10
ENDBRANCH   7   9
ENDBRANCH   3   7
ENDBRANCH   2   3
TORSDOF 9
ENDMDL
MODEL      101
REMARK 921   NORMALIZED FREE ENERGY PREDICTED BY IDOCK:   -3.53 KCAL/MOL
REMARK 922        TOTAL FREE ENERGY PREDICTED BY IDOCK:   -5.79 KCAL/MOL
REMARK 923 INTER-LIGAND FREE ENERGY PREDICTED BY IDOCK:   -5.27 KCAL/MOL
REMARK 924 INTRA-LIGAND FREE ENERGY PREDICTED BY IDOCK:   -0.52 KCAL/MOL
REMARK 927      BINDING AFFINITY PREDICTED BY RF-SCORE:    0.00 PKD
ROOT
HETATM    1  C   UNL     1     -11.187   6.290  69.158  1.00  0.00    -0.439 C  
HETATM    2  C   UNL     1     -11.167   6.245  70.679  1.00  0.00    -0.401 C  
ENDROOT
BRANCH   2   3
HETATM    3  CA  UNL     1     -11.875   7.441  71.358  1.00  0.00    -0.300 C  
BRANCH   3   4
HETATM    4  C   UNL     1     -11.345   7.729  72.789  1.00  0.00    -0.389 C  
HETATM    5  H   UNL     1     -10.462   6.767  74.313  1.00  0.00     0.000 HD 
HETATM    6  O   UNL     1     -10.787   6.590  73.438  1.00  0.00    -0.268 OA 
ENDBRANCH   3   4
BRANCH   3   7
HETATM    7  N   UNL     1     -11.733   8.576  70.424  1.00  0.00    -0.476 NA 
HETATM    8  H   UNL     1     -12.355   8.465  69.622  1.00  0.00     0.000 HD 
BRANCH   7   9
HETATM    9  C   UNL     1     -11.934   9.887  71.058  1.00  0.00    -0.365 C  
BRANCH   9  10
HETATM   10  C   UNL     1     -11.727  11.022  70.031  1.00  0.00    -0.355 C  
BRANCH  10  11
HETATM   11  N   UNL     1     -12.326  10.677  68.730  1.00  0.00    -0.784 NA 
HETATM   12  H   UNL     1     -13.273  11.048  68.655  1.00  0.00     0.000 HD 
BRANCH  11  13
HETATM   13  CA  UNL     1     -11.491  11.109  67.580  1.00  0.00    -0.250 C  
BRANCH  13  14
HETATM   14  C   UNL     1     -10.028  10.677  67.830  1.00  0.00    -0.167 C  
HETATM   15  H   UNL     1      -9.000   8.994  67.904  1.00  0.00     0.000 HD 
HETATM   16  O   UNL     1      -9.899   9.259  67.751  1.00  0.00    -0.158 OA 
ENDBRANCH  13  14
BRANCH  13  17
HETATM   17  C   UNL     1     -11.563  12.618  67.269  1.00  0.00    -0.428 C  
HETATM   18  C   UNL     1     -12.201  12.968  65.931  1.00  0.00    -0.493 C  
ENDBRANCH  13  17
ENDBRANCH  11  13
ENDBRANCH  10  11
ENDBRANCH   9  10
ENDBRANCH   7   9
ENDBRANCH   3   7
ENDBRANCH   2   3
TORSDOF 9
ENDMDL
MODEL      102
REMARK 921   NORMALIZED FREE ENERGY PREDICTED BY IDOCK:   -3.52 KCAL/MOL
REMARK 922        TOTAL FREE ENERGY PREDICTED BY IDOCK:   -5.78 KCAL/MOL
REMARK 923 INTER-LIGAND FREE ENERGY PREDICTED BY IDOCK:   -5.41 KCAL/MOL
REMARK 924 INTRA-LIGAND FREE ENERGY PREDICTED BY IDOCK:   -0.37 KCAL/MOL
REMARK 927      BINDING AFFINITY PREDICTED BY RF-SCORE:    0.00 PKD
ROOT
HETATM    1  C   UNL     1     -10.776   6.317  69.529  1.00  0.00    -0.365 C  
HETATM    2  C   UNL     1     -11.747   6.468  70.692  1.00  0.00    -0.436 C  
ENDROOT
BRANCH   2   3
HETATM    3  CA  UNL     1     -12.023   7.935  71.099  1.00  0.00    -0.285 C  
BRANCH   3   4
HETATM    4  C   UNL     1     -11.661   8.233  72.579  1.00  0.00    -0.383 C  
HETATM    5  H   UNL     1     -10.156   7.934  73.874  1.00  0.00     0.000 HD 
HETATM    6  O   UNL     1     -10.378   7.751  72.968  1.00  0.00    -0.295 OA 
ENDBRANCH   3   4
BRANCH   3   7
HETATM    7  N   UNL     1     -11.294   8.769  70.121  1.00  0.00    -0.430 NA 
HETATM    8  H   UNL     1     -11.715   8.690  69.195  1.00  0.00     0.000 HD 
BRANCH   7   9
HETATM    9  C   UNL     1     -11.180  10.178  70.522  1.00  0.00    -0.336 C  
BRANCH   9  10
HETATM   10  C   UNL     1     -12.238  11.035  69.792  1.00  0.00    -0.318 C  
BRANCH  10  11
HETATM   11  N   UNL     1     -12.049  10.982  68.332  1.00  0.00    -0.786 NA 
HETATM   12  H   UNL     1     -12.828  10.502  67.881  1.00  0.00     0.000 HD 
BRANCH  11  13
HETATM   13  CA  UNL     1     -11.830  12.322  67.732  1.00  0.00    -0.273 C  
BRANCH  13  14
HETATM   14  C   UNL     1     -11.454  12.152  66.242  1.00  0.00    -0.374 C  
HETATM   15  H   UNL     1     -12.338  12.342  64.487  1.00  0.00     0.000 HD 
HETATM   16  O   UNL     1     -12.570  12.447  65.403  1.00  0.00    -0.637 OA 
ENDBRANCH  13  14
BRANCH  13  17
HETATM   17  C   UNL     1     -10.778  13.184  68.458  1.00  0.00    -0.277 C  
HETATM   18  C   UNL     1      -9.382  13.143  67.851  1.00  0.00    -0.215 C  
ENDBRANCH  13  17
ENDBRANCH  11  13
ENDBRANCH  10  11
ENDBRANCH   9  10
ENDBRANCH   7   9
ENDBRANCH   3   7
ENDBRANCH   2   3
TORSDOF 9
ENDMDL
MODEL      103
REMARK 921   NORMALIZED FREE ENERGY PREDICTED BY IDOCK:   -3.52 KCAL/MOL
REMARK 922        TOTAL FREE ENERGY PREDICTED BY IDOCK:   -5.78 KCAL/MOL
REMARK 923 INTER-LIGAND FREE ENERGY PREDICTED BY IDOCK:   -5.40 KCAL/MOL
REMARK 924 INTRA-LIGAND FREE ENERGY PREDICTED BY IDOCK:   -0.38 KCAL/MOL
REMARK 927      BINDING AFFINITY PREDICTED BY RF-SCORE:    0.00 PKD
ROOT
HETATM    1  C   UNL     1     -11.242  11.854  63.686  1.00  0.00    -0.522 C  
HETATM    2  C   UNL     1     -12.123  13.091  63.584  1.00  0.00    -0.604 C  
ENDROOT
BRANCH   2   3
HETATM    3  CA  UNL     1     -11.859  14.149  64.681  1.00  0.00    -0.431 C  
BRANCH   3   4
HETATM    4  C   UNL     1     -12.400  15.557  64.310  1.00  0.00     0.004 C  
HETATM    5  H   UNL     1     -11.720  17.417  63.980  1.00  0.00     0.000 HD 
HETATM    6  O   UNL     1     -11.389  16.555  64.207  1.00  0.00    -1.020 OA 
ENDBRANCH   3   4
BRANCH   3   7
HETATM    7  N   UNL     1     -12.433  13.593  65.924  1.00  0.00    -0.461 NA 
HETATM    8  H   UNL     1     -12.628  12.597  65.817  1.00  0.00     0.000 HD 
BRANCH   7   9
HETATM    9  C   UNL     1     -11.603  13.835  67.112  1.00  0.00    -0.364 C  
BRANCH   9  10
HETATM   10  C   UNL     1     -11.108  12.499  67.708  1.00  0.00    -0.249 C  
BRANCH  10  11
HETATM   11  N   UNL     1     -10.877  12.617  69.158  1.00  0.00    -0.426 NA 
HETATM   12  H   UNL     1     -10.455  13.516  69.389  1.00  0.00     0.000 HD 
BRANCH  11  13
HETATM   13  CA  UNL     1     -12.108  12.386  69.957  1.00  0.00    -0.263 C  
BRANCH  13  14
HETATM   14  C   UNL     1     -12.078  13.300  71.203  1.00  0.00     0.052 C  
HETATM   15  H   UNL     1     -11.922  15.229  71.589  1.00  0.00     0.000 HD 
HETATM   16  O   UNL     1     -11.940  14.668  70.823  1.00  0.00    -0.283 OA 
ENDBRANCH  13  14
BRANCH  13  17
HETATM   17  C   UNL     1     -12.335  10.917  70.369  1.00  0.00    -0.436 C  
HETATM   18  C   UNL     1     -11.065  10.116  70.623  1.00  0.00    -0.397 C  
ENDBRANCH  13  17
ENDBRANCH  11  13
ENDBRANCH  10  11
ENDBRANCH   9  10
ENDBRANCH   7   9
ENDBRANCH   3   7
ENDBRANCH   2   3
TORSDOF 9
ENDMDL
MODEL      104
REMARK 921   NORMALIZED FREE ENERGY PREDICTED BY IDOCK:   -3.51 KCAL/MOL
REMARK 922        TOTAL FREE ENERGY PREDICTED BY IDOCK:   -5.76 KCAL/MOL
REMARK 923 INTER-LIGAND FREE ENERGY PREDICTED BY IDOCK:   -5.08 KCAL/MOL
REMARK 924 INTRA-LIGAND FREE ENERGY PREDICTED BY IDOCK:   -0.68 KCAL/MOL
REMARK 927      BINDING AFFINITY PREDICTED BY RF-SCORE:    0.00 PKD
ROOT
HETATM    1  C   UNL     1     -10.637   7.000  67.347  1.00  0.00    -0.372 C  
HETATM    2  C   UNL     1      -9.393   7.871  67.241  1.00  0.00    -0.180 C  
ENDROOT
BRANCH   2   3
HETATM    3  CA  UNL     1      -9.684   9.351  66.901  1.00  0.00    -0.186 C  
BRANCH   3   4
HETATM    4  C   UNL     1      -9.322   9.721  65.437  1.00  0.00    -0.252 C  
HETATM    5  H   UNL     1     -10.161  10.569  63.823  1.00  0.00     0.000 HD 
HETATM    6  O   UNL     1     -10.383  10.343  64.719  1.00  0.00    -0.320 OA 
ENDBRANCH   3   4
BRANCH   3   7
HETATM    7  N   UNL     1     -11.104   9.572  67.244  1.00  0.00    -0.293 NA 
HETATM    8  H   UNL     1     -11.565   8.689  67.459  1.00  0.00     0.000 HD 
BRANCH   7   9
HETATM    9  C   UNL     1     -11.301  10.540  68.332  1.00  0.00    -0.262 C  
BRANCH   9  10
HETATM   10  C   UNL     1     -11.304  11.982  67.779  1.00  0.00    -0.303 C  
BRANCH  10  11
HETATM   11  N   UNL     1     -11.990  12.050  66.477  1.00  0.00    -0.601 NA 
HETATM   12  H   UNL     1     -12.872  11.538  66.502  1.00  0.00     0.000 HD 
BRANCH  11  13
HETATM   13  CA  UNL     1     -12.198  13.444  66.009  1.00  0.00    -0.437 C  
BRANCH  13  14
HETATM   14  C   UNL     1     -11.699  13.565  64.550  1.00  0.00    -0.397 C  
HETATM   15  H   UNL     1     -12.377  14.269  62.835  1.00  0.00     0.000 HD 
HETATM   16  O   UNL     1     -12.684  14.194  63.731  1.00  0.00    -0.761 OA 
ENDBRANCH  13  14
BRANCH  13  17
HETATM   17  C   UNL     1     -11.538  14.521  66.895  1.00  0.00    -0.399 C  
HETATM   18  C   UNL     1     -10.567  15.443  66.170  1.00  0.00    -0.321 C  
ENDBRANCH  13  17
ENDBRANCH  11  13
ENDBRANCH  10  11
ENDBRANCH   9  10
ENDBRANCH   7   9
ENDBRANCH   3   7
ENDBRANCH   2   3
TORSDOF 9
ENDMDL
MODEL      105
REMARK 921   NORMALIZED FREE ENERGY PREDICTED BY IDOCK:   -3.49 KCAL/MOL
REMARK 922        TOTAL FREE ENERGY PREDICTED BY IDOCK:   -5.74 KCAL/MOL
REMARK 923 INTER-LIGAND FREE ENERGY PREDICTED BY IDOCK:   -5.41 KCAL/MOL
REMARK 924 INTRA-LIGAND FREE ENERGY PREDICTED BY IDOCK:   -0.33 KCAL/MOL
REMARK 927      BINDING AFFINITY PREDICTED BY RF-SCORE:    0.00 PKD
ROOT
HETATM    1  C   UNL     1      -9.462   8.343  72.160  1.00  0.00    -0.360 C  
HETATM    2  C   UNL     1     -10.868   8.060  72.670  1.00  0.00    -0.436 C  
ENDROOT
BRANCH   2   3
HETATM    3  CA  UNL     1     -11.993   8.605  71.759  1.00  0.00    -0.336 C  
BRANCH   3   4
HETATM    4  C   UNL     1     -13.376   8.653  72.464  1.00  0.00    -0.292 C  
HETATM    5  H   UNL     1     -15.182   7.785  72.346  1.00  0.00     0.000 HD 
HETATM    6  O   UNL     1     -14.336   7.756  71.915  1.00  0.00    -0.405 OA 
ENDBRANCH   3   4
BRANCH   3   7
HETATM    7  N   UNL     1     -11.519   9.918  71.275  1.00  0.00    -0.375 NA 
HETATM    8  H   UNL     1     -10.834   9.802  70.529  1.00  0.00     0.000 HD 
BRANCH   7   9
HETATM    9  C   UNL     1     -12.605  10.813  70.849  1.00  0.00    -0.401 C  
BRANCH   9  10
HETATM   10  C   UNL     1     -12.125  11.740  69.710  1.00  0.00    -0.269 C  
BRANCH  10  11
HETATM   11  N   UNL     1     -12.259  11.084  68.398  1.00  0.00    -0.780 NA 
HETATM   12  H   UNL     1     -13.037  11.480  67.869  1.00  0.00     0.000 HD 
BRANCH  11  13
HETATM   13  CA  UNL     1     -11.004  11.119  67.606  1.00  0.00    -0.269 C  
BRANCH  13  14
HETATM   14  C   UNL     1     -11.094  12.263  66.570  1.00  0.00    -0.299 C  
HETATM   15  H   UNL     1     -12.401  12.930  65.250  1.00  0.00     0.000 HD 
HETATM   16  O   UNL     1     -12.346  12.227  65.887  1.00  0.00    -0.618 OA 
ENDBRANCH  13  14
BRANCH  13  17
HETATM   17  C   UNL     1     -10.649   9.789  66.912  1.00  0.00    -0.243 C  
HETATM   18  C   UNL     1      -9.708   9.916  65.721  1.00  0.00    -0.332 C  
ENDBRANCH  13  17
ENDBRANCH  11  13
ENDBRANCH  10  11
ENDBRANCH   9  10
ENDBRANCH   7   9
ENDBRANCH   3   7
ENDBRANCH   2   3
TORSDOF 9
ENDMDL
MODEL      106
REMARK 921   NORMALIZED FREE ENERGY PREDICTED BY IDOCK:   -3.48 KCAL/MOL
REMARK 922        TOTAL FREE ENERGY PREDICTED BY IDOCK:   -5.73 KCAL/MOL
REMARK 923 INTER-LIGAND FREE ENERGY PREDICTED BY IDOCK:   -5.41 KCAL/MOL
REMARK 924 INTRA-LIGAND FREE ENERGY PREDICTED BY IDOCK:   -0.31 KCAL/MOL
REMARK 927      BINDING AFFINITY PREDICTED BY RF-SCORE:    0.00 PKD
ROOT
HETATM    1  C   UNL     1      -9.939  10.004  65.246  1.00  0.00    -0.368 C  
HETATM    2  C   UNL     1     -10.512  10.920  66.319  1.00  0.00    -0.304 C  
ENDROOT
BRANCH   2   3
HETATM    3  CA  UNL     1     -10.763  10.224  67.677  1.00  0.00    -0.288 C  
BRANCH   3   4
HETATM    4  C   UNL     1      -9.525  10.255  68.614  1.00  0.00    -0.169 C  
HETATM    5  H   UNL     1      -7.850  11.325  68.898  1.00  0.00     0.000 HD 
HETATM    6  O   UNL     1      -8.607  11.306  68.324  1.00  0.00    -0.140 OA 
ENDBRANCH   3   4
BRANCH   3   7
HETATM    7  N   UNL     1     -11.964  10.871  68.246  1.00  0.00    -0.788 NA 
HETATM    8  H   UNL     1     -12.746  10.217  68.277  1.00  0.00     0.000 HD 
BRANCH   7   9
HETATM    9  C   UNL     1     -11.736  11.473  69.567  1.00  0.00    -0.346 C  
BRANCH   9  10
HETATM   10  C   UNL     1     -11.884  13.009  69.494  1.00  0.00    -0.323 C  
BRANCH  10  11
HETATM   11  N   UNL     1     -11.753  13.619  70.829  1.00  0.00    -0.501 NA 
HETATM   12  H   UNL     1     -10.879  13.338  71.274  1.00  0.00     0.000 HD 
BRANCH  11  13
HETATM   13  CA  UNL     1     -11.885  15.098  70.801  1.00  0.00    -0.324 C  
BRANCH  13  14
HETATM   14  C   UNL     1     -10.638  15.703  70.115  1.00  0.00    -0.334 C  
HETATM   15  H   UNL     1     -10.247  16.847  68.555  1.00  0.00     0.000 HD 
HETATM   16  O   UNL     1     -11.014  16.475  68.976  1.00  0.00    -0.309 OA 
ENDBRANCH  13  14
BRANCH  13  17
HETATM   17  C   UNL     1     -12.109  15.746  72.182  1.00  0.00    -0.570 C  
HETATM   18  C   UNL     1     -13.504  15.555  72.763  1.00  0.00    -0.650 C  
ENDBRANCH  13  17
ENDBRANCH  11  13
ENDBRANCH  10  11
ENDBRANCH   9  10
ENDBRANCH   7   9
ENDBRANCH   3   7
ENDBRANCH   2   3
TORSDOF 9
ENDMDL
MODEL      107
REMARK 921   NORMALIZED FREE ENERGY PREDICTED BY IDOCK:   -3.48 KCAL/MOL
REMARK 922        TOTAL FREE ENERGY PREDICTED BY IDOCK:   -5.71 KCAL/MOL
REMARK 923 INTER-LIGAND FREE ENERGY PREDICTED BY IDOCK:   -5.35 KCAL/MOL
REMARK 924 INTRA-LIGAND FREE ENERGY PREDICTED BY IDOCK:   -0.36 KCAL/MOL
REMARK 927      BINDING AFFINITY PREDICTED BY RF-SCORE:    0.00 PKD
ROOT
HETATM    1  C   UNL     1     -10.605  12.111  63.822  1.00  0.00    -0.482 C  
HETATM    2  C   UNL     1     -11.742  13.050  64.201  1.00  0.00    -0.470 C  
ENDROOT
BRANCH   2   3
HETATM    3  CA  UNL     1     -11.277  14.412  64.766  1.00  0.00    -0.387 C  
BRANCH   3   4
HETATM    4  C   UNL     1     -12.255  15.573  64.437  1.00  0.00    -0.079 C  
HETATM    5  H   UNL     1     -12.223  17.425  63.663  1.00  0.00     0.000 HD 
HETATM    6  O   UNL     1     -11.624  16.715  63.864  1.00  0.00    -1.204 OA 
ENDBRANCH   3   4
BRANCH   3   7
HETATM    7  N   UNL     1     -11.063  14.197  66.212  1.00  0.00    -0.314 NA 
HETATM    8  H   UNL     1     -11.056  15.086  66.713  1.00  0.00     0.000 HD 
BRANCH   7   9
HETATM    9  C   UNL     1     -12.030  13.269  66.816  1.00  0.00    -0.382 C  
BRANCH   9  10
HETATM   10  C   UNL     1     -11.311  12.274  67.754  1.00  0.00    -0.301 C  
BRANCH  10  11
HETATM   11  N   UNL     1     -11.418  10.895  67.247  1.00  0.00    -0.451 NA 
HETATM   12  H   UNL     1     -10.889  10.781  66.382  1.00  0.00     0.000 HD 
BRANCH  11  13
HETATM   13  CA  UNL     1     -11.017   9.880  68.254  1.00  0.00    -0.196 C  
BRANCH  13  14
HETATM   14  C   UNL     1     -10.358  10.595  69.456  1.00  0.00    -0.182 C  
HETATM   15  H   UNL     1     -10.142  10.285  71.393  1.00  0.00     0.000 HD 
HETATM   16  O   UNL     1     -10.548   9.845  70.655  1.00  0.00    -0.296 OA 
ENDBRANCH  13  14
BRANCH  13  17
HETATM   17  C   UNL     1     -10.091   8.772  67.711  1.00  0.00    -0.261 C  
HETATM   18  C   UNL     1      -9.767   8.876  66.227  1.00  0.00    -0.345 C  
ENDBRANCH  13  17
ENDBRANCH  11  13
ENDBRANCH  10  11
ENDBRANCH   9  10
ENDBRANCH   7   9
ENDBRANCH   3   7
ENDBRANCH   2   3
TORSDOF 9
ENDMDL
MODEL      108
REMARK 921   NORMALIZED FREE ENERGY PREDICTED BY IDOCK:   -3.46 KCAL/MOL
REMARK 922        TOTAL FREE ENERGY PREDICTED BY IDOCK:   -5.69 KCAL/MOL
REMARK 923 INTER-LIGAND FREE ENERGY PREDICTED BY IDOCK:   -5.20 KCAL/MOL
REMARK 924 INTRA-LIGAND FREE ENERGY PREDICTED BY IDOCK:   -0.49 KCAL/MOL
REMARK 927      BINDING AFFINITY PREDICTED BY RF-SCORE:    0.00 PKD
ROOT
HETATM    1  C   UNL     1     -10.686  16.943  68.559  1.00  0.00    -0.359 C  
HETATM    2  C   UNL     1     -11.719  15.901  68.966  1.00  0.00    -0.377 C  
ENDROOT
BRANCH   2   3
HETATM    3  CA  UNL     1     -11.301  15.036  70.177  1.00  0.00    -0.269 C  
BRANCH   3   4
HETATM    4  C   UNL     1     -12.217  15.240  71.415  1.00  0.00    -0.352 C  
HETATM    5  H   UNL     1     -12.303  16.348  73.086  1.00  0.00     0.000 HD 
HETATM    6  O   UNL     1     -11.742  16.223  72.329  1.00  0.00    -0.498 OA 
ENDBRANCH   3   4
BRANCH   3   7
HETATM    7  N   UNL     1     -11.259  13.644  69.683  1.00  0.00    -0.445 NA 
HETATM    8  H   UNL     1     -11.560  12.993  70.409  1.00  0.00     0.000 HD 
BRANCH   7   9
HETATM    9  C   UNL     1     -12.029  13.437  68.448  1.00  0.00    -0.324 C  
BRANCH   9  10
HETATM   10  C   UNL     1     -11.497  12.207  67.680  1.00  0.00    -0.331 C  
BRANCH  10  11
HETATM   11  N   UNL     1     -12.065  12.142  66.322  1.00  0.00    -0.589 NA 
HETATM   12  H   UNL     1     -12.817  12.822  66.208  1.00  0.00     0.000 HD 
BRANCH  11  13
HETATM   13  CA  UNL     1     -11.038  12.302  65.261  1.00  0.00    -0.316 C  
BRANCH  13  14
HETATM   14  C   UNL     1      -9.756  11.547  65.682  1.00  0.00    -0.232 C  
HETATM   15  H   UNL     1      -8.985   9.745  65.445  1.00  0.00     0.000 HD 
HETATM   16  O   UNL     1      -9.773  10.209  65.186  1.00  0.00    -0.262 OA 
ENDBRANCH  13  14
BRANCH  13  17
HETATM   17  C   UNL     1     -10.709  13.766  64.905  1.00  0.00    -0.410 C  
HETATM   18  C   UNL     1     -11.920  14.669  64.715  1.00  0.00    -0.439 C  
ENDBRANCH  13  17
ENDBRANCH  11  13
ENDBRANCH  10  11
ENDBRANCH   9  10
ENDBRANCH   7   9
ENDBRANCH   3   7
ENDBRANCH   2   3
TORSDOF 9
ENDMDL
MODEL      109
REMARK 921   NORMALIZED FREE ENERGY PREDICTED BY IDOCK:   -3.46 KCAL/MOL
REMARK 922        TOTAL FREE ENERGY PREDICTED BY IDOCK:   -5.69 KCAL/MOL
REMARK 923 INTER-LIGAND FREE ENERGY PREDICTED BY IDOCK:   -5.10 KCAL/MOL
REMARK 924 INTRA-LIGAND FREE ENERGY PREDICTED BY IDOCK:   -0.59 KCAL/MOL
REMARK 927      BINDING AFFINITY PREDICTED BY RF-SCORE:    0.00 PKD
ROOT
HETATM    1  C   UNL     1     -11.644   6.505  70.433  1.00  0.00    -0.470 C  
HETATM    2  C   UNL     1     -12.313   6.806  71.766  1.00  0.00    -0.400 C  
ENDROOT
BRANCH   2   3
HETATM    3  CA  UNL     1     -11.645   7.949  72.566  1.00  0.00    -0.386 C  
BRANCH   3   4
HETATM    4  C   UNL     1     -10.230   7.579  73.087  1.00  0.00    -0.327 C  
HETATM    5  H   UNL     1      -8.321   8.160  72.867  1.00  0.00     0.000 HD 
HETATM    6  O   UNL     1      -9.187   8.386  72.548  1.00  0.00    -0.239 OA 
ENDBRANCH   3   4
BRANCH   3   7
HETATM    7  N   UNL     1     -11.670   9.130  71.679  1.00  0.00    -0.353 NA 
HETATM    8  H   UNL     1     -11.456   8.864  70.718  1.00  0.00     0.000 HD 
BRANCH   7   9
HETATM    9  C   UNL     1     -12.931   9.884  71.740  1.00  0.00    -0.449 C  
BRANCH   9  10
HETATM   10  C   UNL     1     -12.711  11.343  71.285  1.00  0.00    -0.393 C  
BRANCH  10  11
HETATM   11  N   UNL     1     -11.538  11.452  70.400  1.00  0.00    -0.490 NA 
HETATM   12  H   UNL     1     -10.918  10.650  70.514  1.00  0.00     0.000 HD 
BRANCH  11  13
HETATM   13  CA  UNL     1     -11.909  11.639  68.974  1.00  0.00    -0.328 C  
BRANCH  13  14
HETATM   14  C   UNL     1     -11.148  10.602  68.115  1.00  0.00    -0.285 C  
HETATM   15  H   UNL     1     -10.288   8.845  68.379  1.00  0.00     0.000 HD 
HETATM   16  O   UNL     1     -10.756   9.482  68.907  1.00  0.00    -0.222 OA 
ENDBRANCH  13  14
BRANCH  13  17
HETATM   17  C   UNL     1     -11.672  13.064  68.434  1.00  0.00    -0.386 C  
HETATM   18  C   UNL     1     -12.051  14.186  69.392  1.00  0.00    -0.372 C  
ENDBRANCH  13  17
ENDBRANCH  11  13
ENDBRANCH  10  11
ENDBRANCH   9  10
ENDBRANCH   7   9
ENDBRANCH   3   7
ENDBRANCH   2   3
TORSDOF 9
ENDMDL
MODEL      110
REMARK 921   NORMALIZED FREE ENERGY PREDICTED BY IDOCK:   -3.44 KCAL/MOL
REMARK 922        TOTAL FREE ENERGY PREDICTED BY IDOCK:   -5.66 KCAL/MOL
REMARK 923 INTER-LIGAND FREE ENERGY PREDICTED BY IDOCK:   -5.05 KCAL/MOL
REMARK 924 INTRA-LIGAND FREE ENERGY PREDICTED BY IDOCK:   -0.61 KCAL/MOL
REMARK 927      BINDING AFFINITY PREDICTED BY RF-SCORE:    0.00 PKD
ROOT
HETATM    1  C   UNL     1      -8.745  17.884  66.351  1.00  0.00    -0.249 C  
HETATM    2  C   UNL     1     -10.162  17.594  65.876  1.00  0.00    -0.240 C  
ENDROOT
BRANCH   2   3
HETATM    3  CA  UNL     1     -10.590  16.116  66.028  1.00  0.00    -0.295 C  
BRANCH   3   4
HETATM    4  C   UNL     1     -11.209  15.526  64.732  1.00  0.00    -0.390 C  
HETATM    5  H   UNL     1     -11.927  16.145  62.963  1.00  0.00     0.000 HD 
HETATM    6  O   UNL     1     -11.549  16.506  63.756  1.00  0.00    -1.109 OA 
ENDBRANCH   3   4
BRANCH   3   7
HETATM    7  N   UNL     1      -9.391  15.396  66.505  1.00  0.00    -0.260 NA 
HETATM    8  H   UNL     1      -9.011  15.840  67.340  1.00  0.00     0.000 HD 
BRANCH   7   9
HETATM    9  C   UNL     1      -9.622  13.963  66.738  1.00  0.00    -0.283 C  
BRANCH   9  10
HETATM   10  C   UNL     1      -9.510  13.635  68.243  1.00  0.00    -0.213 C  
BRANCH  10  11
HETATM   11  N   UNL     1     -10.832  13.346  68.823  1.00  0.00    -0.250 NA 
HETATM   12  H   UNL     1     -10.768  12.618  69.535  1.00  0.00     0.000 HD 
BRANCH  11  13
HETATM   13  CA  UNL     1     -11.502  14.558  69.361  1.00  0.00    -0.285 C  
BRANCH  13  14
HETATM   14  C   UNL     1     -10.429  15.515  69.930  1.00  0.00    -0.313 C  
HETATM   15  H   UNL     1      -9.826  17.370  69.625  1.00  0.00     0.000 HD 
HETATM   16  O   UNL     1     -10.485  16.782  69.275  1.00  0.00    -0.311 OA 
ENDBRANCH  13  14
BRANCH  13  17
HETATM   17  C   UNL     1     -12.587  14.272  70.419  1.00  0.00    -0.405 C  
HETATM   18  C   UNL     1     -12.603  15.235  71.599  1.00  0.00    -0.446 C  
ENDBRANCH  13  17
ENDBRANCH  11  13
ENDBRANCH  10  11
ENDBRANCH   9  10
ENDBRANCH   7   9
ENDBRANCH   3   7
ENDBRANCH   2   3
TORSDOF 9
ENDMDL
MODEL      111
REMARK 921   NORMALIZED FREE ENERGY PREDICTED BY IDOCK:   -3.43 KCAL/MOL
REMARK 922        TOTAL FREE ENERGY PREDICTED BY IDOCK:   -5.65 KCAL/MOL
REMARK 923 INTER-LIGAND FREE ENERGY PREDICTED BY IDOCK:   -5.11 KCAL/MOL
REMARK 924 INTRA-LIGAND FREE ENERGY PREDICTED BY IDOCK:   -0.53 KCAL/MOL
REMARK 927      BINDING AFFINITY PREDICTED BY RF-SCORE:    0.00 PKD
ROOT
HETATM    1  C   UNL     1     -12.811  11.723  63.463  1.00  0.00    -0.347 C  
HETATM    2  C   UNL     1     -11.436  12.133  63.970  1.00  0.00    -0.488 C  
ENDROOT
BRANCH   2   3
HETATM    3  CA  UNL     1     -11.189  13.660  63.966  1.00  0.00    -0.164 C  
BRANCH   3   4
HETATM    4  C   UNL     1     -12.365  14.467  64.582  1.00  0.00    -0.418 C  
HETATM    5  H   UNL     1     -13.439  16.122  64.215  1.00  0.00     0.000 HD 
HETATM    6  O   UNL     1     -12.720  15.629  63.839  1.00  0.00    -0.697 OA 
ENDBRANCH   3   4
BRANCH   3   7
HETATM    7  N   UNL     1      -9.897  13.861  64.652  1.00  0.00    -0.597 NA 
HETATM    8  H   UNL     1      -9.157  14.060  63.979  1.00  0.00     0.000 HD 
BRANCH   7   9
HETATM    9  C   UNL     1      -9.941  14.896  65.696  1.00  0.00    -0.358 C  
BRANCH   9  10
HETATM   10  C   UNL     1      -9.158  14.438  66.945  1.00  0.00    -0.251 C  
BRANCH  10  11
HETATM   11  N   UNL     1      -9.525  13.063  67.328  1.00  0.00    -0.217 NA 
HETATM   12  H   UNL     1      -8.694  12.505  67.526  1.00  0.00     0.000 HD 
BRANCH  11  13
HETATM   13  CA  UNL     1     -10.480  13.018  68.464  1.00  0.00    -0.249 C  
BRANCH  13  14
HETATM   14  C   UNL     1     -11.857  12.543  67.945  1.00  0.00    -0.323 C  
HETATM   15  H   UNL     1     -13.154  11.114  68.360  1.00  0.00     0.000 HD 
HETATM   16  O   UNL     1     -12.307  11.405  68.679  1.00  0.00    -0.491 OA 
ENDBRANCH  13  14
BRANCH  13  17
HETATM   17  C   UNL     1     -10.622  14.348  69.232  1.00  0.00    -0.190 C  
HETATM   18  C   UNL     1     -12.020  14.952  69.219  1.00  0.00    -0.326 C  
ENDBRANCH  13  17
ENDBRANCH  11  13
ENDBRANCH  10  11
ENDBRANCH   9  10
ENDBRANCH   7   9
ENDBRANCH   3   7
ENDBRANCH   2   3
TORSDOF 9
ENDMDL
MODEL      112
REMARK 921   NORMALIZED FREE ENERGY PREDICTED BY IDOCK:   -3.43 KCAL/MOL
REMARK 922        TOTAL FREE ENERGY PREDICTED BY IDOCK:   -5.64 KCAL/MOL
REMARK 923 INTER-LIGAND FREE ENERGY PREDICTED BY IDOCK:   -4.99 KCAL/MOL
REMARK 924 INTRA-LIGAND FREE ENERGY PREDICTED BY IDOCK:   -0.65 KCAL/MOL
REMARK 927      BINDING AFFINITY PREDICTED BY RF-SCORE:    0.00 PKD
ROOT
HETATM    1  C   UNL     1      -9.067   9.629  65.465  1.00  0.00    -0.252 C  
HETATM    2  C   UNL     1      -9.997  10.765  65.865  1.00  0.00    -0.304 C  
ENDROOT
BRANCH   2   3
HETATM    3  CA  UNL     1     -10.531  10.667  67.314  1.00  0.00    -0.246 C  
BRANCH   3   4
HETATM    4  C   UNL     1      -9.470  11.055  68.379  1.00  0.00    -0.182 C  
HETATM    5  H   UNL     1      -8.534  10.255  69.965  1.00  0.00     0.000 HD 
HETATM    6  O   UNL     1      -9.183  10.018  69.313  1.00  0.00    -0.178 OA 
ENDBRANCH   3   4
BRANCH   3   7
HETATM    7  N   UNL     1     -11.752  11.497  67.351  1.00  0.00    -0.609 NA 
HETATM    8  H   UNL     1     -12.586  10.911  67.403  1.00  0.00     0.000 HD 
BRANCH   7   9
HETATM    9  C   UNL     1     -11.751  12.495  68.429  1.00  0.00    -0.328 C  
BRANCH   9  10
HETATM   10  C   UNL     1     -11.827  13.923  67.844  1.00  0.00    -0.378 C  
BRANCH  10  11
HETATM   11  N   UNL     1     -10.884  14.089  66.725  1.00  0.00    -0.292 NA 
HETATM   12  H   UNL     1     -10.466  13.196  66.463  1.00  0.00     0.000 HD 
BRANCH  11  13
HETATM   13  CA  UNL     1     -11.500  14.754  65.548  1.00  0.00    -0.329 C  
BRANCH  13  14
HETATM   14  C   UNL     1     -11.710  13.706  64.431  1.00  0.00    -0.411 C  
HETATM   15  H   UNL     1     -13.094  12.401  63.902  1.00  0.00     0.000 HD 
HETATM   16  O   UNL     1     -12.965  13.045  64.589  1.00  0.00    -0.720 OA 
ENDBRANCH  13  14
BRANCH  13  17
HETATM   17  C   UNL     1     -10.708  15.963  65.011  1.00  0.00    -0.426 C  
HETATM   18  C   UNL     1     -10.284  16.975  66.067  1.00  0.00    -0.337 C  
ENDBRANCH  13  17
ENDBRANCH  11  13
ENDBRANCH  10  11
ENDBRANCH   9  10
ENDBRANCH   7   9
ENDBRANCH   3   7
ENDBRANCH   2   3
TORSDOF 9
ENDMDL
MODEL      113
REMARK 921   NORMALIZED FREE ENERGY PREDICTED BY IDOCK:   -3.42 KCAL/MOL
REMARK 922        TOTAL FREE ENERGY PREDICTED BY IDOCK:   -5.63 KCAL/MOL
REMARK 923 INTER-LIGAND FREE ENERGY PREDICTED BY IDOCK:   -5.24 KCAL/MOL
REMARK 924 INTRA-LIGAND FREE ENERGY PREDICTED BY IDOCK:   -0.38 KCAL/MOL
REMARK 927      BINDING AFFINITY PREDICTED BY RF-SCORE:    0.00 PKD
ROOT
HETATM    1  C   UNL     1      -8.898   8.471  71.828  1.00  0.00    -0.278 C  
HETATM    2  C   UNL     1     -10.302   8.296  72.390  1.00  0.00    -0.402 C  
ENDROOT
BRANCH   2   3
HETATM    3  CA  UNL     1     -11.429   8.477  71.347  1.00  0.00    -0.287 C  
BRANCH   3   4
HETATM    4  C   UNL     1     -12.168   7.153  71.015  1.00  0.00    -0.343 C  
HETATM    5  H   UNL     1     -13.857   6.182  71.501  1.00  0.00     0.000 HD 
HETATM    6  O   UNL     1     -13.405   6.992  71.704  1.00  0.00    -0.369 OA 
ENDBRANCH   3   4
BRANCH   3   7
HETATM    7  N   UNL     1     -12.307   9.538  71.882  1.00  0.00    -0.381 NA 
HETATM    8  H   UNL     1     -11.808  10.110  72.564  1.00  0.00     0.000 HD 
BRANCH   7   9
HETATM    9  C   UNL     1     -12.910  10.382  70.840  1.00  0.00    -0.392 C  
BRANCH   9  10
HETATM   10  C   UNL     1     -11.821  10.938  69.897  1.00  0.00    -0.349 C  
BRANCH  10  11
HETATM   11  N   UNL     1     -12.118  10.612  68.491  1.00  0.00    -0.819 NA 
HETATM   12  H   UNL     1     -13.099  10.789  68.275  1.00  0.00     0.000 HD 
BRANCH  11  13
HETATM   13  CA  UNL     1     -11.226  11.317  67.536  1.00  0.00    -0.291 C  
BRANCH  13  14
HETATM   14  C   UNL     1      -9.830  11.484  68.180  1.00  0.00    -0.194 C  
HETATM   15  H   UNL     1      -8.399  12.844  68.218  1.00  0.00     0.000 HD 
HETATM   16  O   UNL     1      -9.257  12.741  67.822  1.00  0.00    -0.183 OA 
ENDBRANCH  13  14
BRANCH  13  17
HETATM   17  C   UNL     1     -11.761  12.679  67.049  1.00  0.00    -0.438 C  
HETATM   18  C   UNL     1     -12.142  12.730  65.575  1.00  0.00    -0.517 C  
ENDBRANCH  13  17
ENDBRANCH  11  13
ENDBRANCH  10  11
ENDBRANCH   9  10
ENDBRANCH   7   9
ENDBRANCH   3   7
ENDBRANCH   2   3
TORSDOF 9
ENDMDL
MODEL      114
REMARK 921   NORMALIZED FREE ENERGY PREDICTED BY IDOCK:   -3.41 KCAL/MOL
REMARK 922        TOTAL FREE ENERGY PREDICTED BY IDOCK:   -5.62 KCAL/MOL
REMARK 923 INTER-LIGAND FREE ENERGY PREDICTED BY IDOCK:   -5.23 KCAL/MOL
REMARK 924 INTRA-LIGAND FREE ENERGY PREDICTED BY IDOCK:   -0.39 KCAL/MOL
REMARK 927      BINDING AFFINITY PREDICTED BY RF-SCORE:    0.00 PKD
ROOT
HETATM    1  C   UNL     1      -8.698   9.482  70.263  1.00  0.00    -0.270 C  
HETATM    2  C   UNL     1      -9.734  10.300  69.505  1.00  0.00    -0.235 C  
ENDROOT
BRANCH   2   3
HETATM    3  CA  UNL     1     -11.196   9.869  69.768  1.00  0.00    -0.235 C  
BRANCH   3   4
HETATM    4  C   UNL     1     -11.544   9.793  71.280  1.00  0.00    -0.390 C  
HETATM    5  H   UNL     1     -13.064  10.216  72.521  1.00  0.00     0.000 HD 
HETATM    6  O   UNL     1     -12.851  10.263  71.596  1.00  0.00    -0.391 OA 
ENDBRANCH   3   4
BRANCH   3   7
HETATM    7  N   UNL     1     -12.038  10.813  69.004  1.00  0.00    -0.701 NA 
HETATM    8  H   UNL     1     -12.905  11.009  69.504  1.00  0.00     0.000 HD 
BRANCH   7   9
HETATM    9  C   UNL     1     -11.348  12.061  68.651  1.00  0.00    -0.277 C  
BRANCH   9  10
HETATM   10  C   UNL     1     -12.149  13.283  69.153  1.00  0.00    -0.238 C  
BRANCH  10  11
HETATM   11  N   UNL     1     -12.270  14.307  68.102  1.00  0.00    -0.580 NA 
HETATM   12  H   UNL     1     -11.847  15.187  68.399  1.00  0.00     0.000 HD 
BRANCH  11  13
HETATM   13  CA  UNL     1     -11.715  13.862  66.798  1.00  0.00    -0.399 C  
BRANCH  13  14
HETATM   14  C   UNL     1     -10.474  14.720  66.460  1.00  0.00    -0.291 C  
HETATM   15  H   UNL     1      -8.597  14.417  65.930  1.00  0.00     0.000 HD 
HETATM   16  O   UNL     1      -9.359  13.890  66.138  1.00  0.00    -0.213 OA 
ENDBRANCH  13  14
BRANCH  13  17
HETATM   17  C   UNL     1     -12.723  13.889  65.632  1.00  0.00    -0.534 C  
HETATM   18  C   UNL     1     -12.250  14.633  64.390  1.00  0.00    -0.473 C  
ENDBRANCH  13  17
ENDBRANCH  11  13
ENDBRANCH  10  11
ENDBRANCH   9  10
ENDBRANCH   7   9
ENDBRANCH   3   7
ENDBRANCH   2   3
TORSDOF 9
ENDMDL
MODEL      115
REMARK 921   NORMALIZED FREE ENERGY PREDICTED BY IDOCK:   -3.41 KCAL/MOL
REMARK 922        TOTAL FREE ENERGY PREDICTED BY IDOCK:   -5.62 KCAL/MOL
REMARK 923 INTER-LIGAND FREE ENERGY PREDICTED BY IDOCK:   -5.34 KCAL/MOL
REMARK 924 INTRA-LIGAND FREE ENERGY PREDICTED BY IDOCK:   -0.27 KCAL/MOL
REMARK 927      BINDING AFFINITY PREDICTED BY RF-SCORE:    0.00 PKD
ROOT
HETATM    1  C   UNL     1     -11.964  16.048  71.908  1.00  0.00    -0.606 C  
HETATM    2  C   UNL     1     -13.006  15.369  71.030  1.00  0.00    -0.556 C  
ENDROOT
BRANCH   2   3
HETATM    3  CA  UNL     1     -12.410  14.542  69.866  1.00  0.00    -0.298 C  
BRANCH   3   4
HETATM    4  C   UNL     1     -11.467  15.370  68.952  1.00  0.00    -0.342 C  
HETATM    5  H   UNL     1     -11.022  15.581  67.006  1.00  0.00     0.000 HD 
HETATM    6  O   UNL     1     -11.599  15.074  67.565  1.00  0.00    -0.344 OA 
ENDBRANCH   3   4
BRANCH   3   7
HETATM    7  N   UNL     1     -11.764  13.370  70.494  1.00  0.00    -0.532 NA 
HETATM    8  H   UNL     1     -12.146  13.203  71.425  1.00  0.00     0.000 HD 
BRANCH   7   9
HETATM    9  C   UNL     1     -11.837  12.152  69.675  1.00  0.00    -0.322 C  
BRANCH   9  10
HETATM   10  C   UNL     1     -11.896  10.898  70.576  1.00  0.00    -0.360 C  
BRANCH  10  11
HETATM   11  N   UNL     1     -10.606  10.186  70.579  1.00  0.00    -0.410 NA 
HETATM   12  H   UNL     1      -9.901  10.709  71.099  1.00  0.00     0.000 HD 
BRANCH  11  13
HETATM   13  CA  UNL     1     -10.719   8.795  71.087  1.00  0.00    -0.248 C  
BRANCH  13  14
HETATM   14  C   UNL     1     -11.940   8.700  72.030  1.00  0.00    -0.372 C  
HETATM   15  H   UNL     1     -13.563   7.589  72.202  1.00  0.00     0.000 HD 
HETATM   16  O   UNL     1     -12.812   7.647  71.622  1.00  0.00    -0.330 OA 
ENDBRANCH  13  14
BRANCH  13  17
HETATM   17  C   UNL     1      -9.452   8.267  71.791  1.00  0.00    -0.274 C  
HETATM   18  C   UNL     1      -9.637   7.898  73.256  1.00  0.00    -0.351 C  
ENDBRANCH  13  17
ENDBRANCH  11  13
ENDBRANCH  10  11
ENDBRANCH   9  10
ENDBRANCH   7   9
ENDBRANCH   3   7
ENDBRANCH   2   3
TORSDOF 9
ENDMDL
MODEL      116
REMARK 921   NORMALIZED FREE ENERGY PREDICTED BY IDOCK:   -3.41 KCAL/MOL
REMARK 922        TOTAL FREE ENERGY PREDICTED BY IDOCK:   -5.62 KCAL/MOL
REMARK 923 INTER-LIGAND FREE ENERGY PREDICTED BY IDOCK:   -5.02 KCAL/MOL
REMARK 924 INTRA-LIGAND FREE ENERGY PREDICTED BY IDOCK:   -0.59 KCAL/MOL
REMARK 927      BINDING AFFINITY PREDICTED BY RF-SCORE:    0.00 PKD
ROOT
HETATM    1  C   UNL     1     -10.976   7.318  71.324  1.00  0.00    -0.264 C  
HETATM    2  C   UNL     1     -11.177   8.666  72.001  1.00  0.00    -0.434 C  
ENDROOT
BRANCH   2   3
HETATM    3  CA  UNL     1     -12.036   9.661  71.186  1.00  0.00    -0.362 C  
BRANCH   3   4
HETATM    4  C   UNL     1     -13.204  10.271  72.009  1.00  0.00    -0.411 C  
HETATM    5  H   UNL     1     -13.977  12.066  72.465  1.00  0.00     0.000 HD 
HETATM    6  O   UNL     1     -13.263  11.694  71.962  1.00  0.00    -0.501 OA 
ENDBRANCH   3   4
BRANCH   3   7
HETATM    7  N   UNL     1     -11.092  10.663  70.648  1.00  0.00    -0.405 NA 
HETATM    8  H   UNL     1     -10.142  10.469  70.963  1.00  0.00     0.000 HD 
BRANCH   7   9
HETATM    9  C   UNL     1     -11.140  10.786  69.184  1.00  0.00    -0.249 C  
BRANCH   9  10
HETATM   10  C   UNL     1     -11.751  12.144  68.776  1.00  0.00    -0.321 C  
BRANCH  10  11
HETATM   11  N   UNL     1     -11.445  13.186  69.772  1.00  0.00    -0.488 NA 
HETATM   12  H   UNL     1     -10.796  12.837  70.478  1.00  0.00     0.000 HD 
BRANCH  11  13
HETATM   13  CA  UNL     1     -10.940  14.439  69.157  1.00  0.00    -0.265 C  
BRANCH  13  14
HETATM   14  C   UNL     1     -11.169  15.611  70.140  1.00  0.00    -0.336 C  
HETATM   15  H   UNL     1     -11.006  17.578  70.122  1.00  0.00     0.000 HD 
HETATM   16  O   UNL     1     -10.865  16.858  69.518  1.00  0.00    -0.303 OA 
ENDBRANCH  13  14
BRANCH  13  17
HETATM   17  C   UNL     1     -11.549  14.765  67.778  1.00  0.00    -0.378 C  
HETATM   18  C   UNL     1     -10.540  14.901  66.646  1.00  0.00    -0.305 C  
ENDBRANCH  13  17
ENDBRANCH  11  13
ENDBRANCH  10  11
ENDBRANCH   9  10
ENDBRANCH   7   9
ENDBRANCH   3   7
ENDBRANCH   2   3
TORSDOF 9
ENDMDL
MODEL      117
REMARK 921   NORMALIZED FREE ENERGY PREDICTED BY IDOCK:   -3.41 KCAL/MOL
REMARK 922        TOTAL FREE ENERGY PREDICTED BY IDOCK:   -5.61 KCAL/MOL
REMARK 923 INTER-LIGAND FREE ENERGY PREDICTED BY IDOCK:   -5.19 KCAL/MOL
REMARK 924 INTRA-LIGAND FREE ENERGY PREDICTED BY IDOCK:   -0.42 KCAL/MOL
REMARK 927      BINDING AFFINITY PREDICTED BY RF-SCORE:    0.00 PKD
ROOT
HETATM    1  C   UNL     1     -10.179   9.344  66.596  1.00  0.00    -0.319 C  
HETATM    2  C   UNL     1     -10.367   9.581  68.088  1.00  0.00    -0.251 C  
ENDROOT
BRANCH   2   3
HETATM    3  CA  UNL     1     -10.939  10.974  68.440  1.00  0.00    -0.230 C  
BRANCH   3   4
HETATM    4  C   UNL     1     -11.994  10.927  69.579  1.00  0.00    -0.330 C  
HETATM    5  H   UNL     1     -12.142  10.375  71.503  1.00  0.00     0.000 HD 
HETATM    6  O   UNL     1     -11.496  10.404  70.807  1.00  0.00    -0.328 OA 
ENDBRANCH   3   4
BRANCH   3   7
HETATM    7  N   UNL     1      -9.770  11.827  68.739  1.00  0.00    -0.384 NA 
HETATM    8  H   UNL     1      -8.903  11.350  68.491  1.00  0.00     0.000 HD 
BRANCH   7   9
HETATM    9  C   UNL     1      -9.833  13.152  68.106  1.00  0.00    -0.228 C  
BRANCH   9  10
HETATM   10  C   UNL     1      -9.338  13.077  66.645  1.00  0.00    -0.241 C  
BRANCH  10  11
HETATM   11  N   UNL     1      -9.591  14.342  65.933  1.00  0.00    -0.488 NA 
HETATM   12  H   UNL     1      -8.716  14.800  65.679  1.00  0.00     0.000 HD 
BRANCH  11  13
HETATM   13  CA  UNL     1     -10.465  14.168  64.744  1.00  0.00    -0.408 C  
BRANCH  13  14
HETATM   14  C   UNL     1     -11.269  15.468  64.515  1.00  0.00    -0.315 C  
HETATM   15  H   UNL     1     -11.034  17.401  64.842  1.00  0.00     0.000 HD 
HETATM   16  O   UNL     1     -10.539  16.602  64.983  1.00  0.00    -0.683 OA 
ENDBRANCH  13  14
BRANCH  13  17
HETATM   17  C   UNL     1     -11.413  12.953  64.820  1.00  0.00    -0.360 C  
HETATM   18  C   UNL     1     -12.030  12.535  63.492  1.00  0.00    -0.629 C  
ENDBRANCH  13  17
ENDBRANCH  11  13
ENDBRANCH  10  11
ENDBRANCH   9  10
ENDBRANCH   7   9
ENDBRANCH   3   7
ENDBRANCH   2   3
TORSDOF 9
ENDMDL
MODEL      118
REMARK 921   NORMALIZED FREE ENERGY PREDICTED BY IDOCK:   -3.41 KCAL/MOL
REMARK 922        TOTAL FREE ENERGY PREDICTED BY IDOCK:   -5.61 KCAL/MOL
REMARK 923 INTER-LIGAND FREE ENERGY PREDICTED BY IDOCK:   -4.89 KCAL/MOL
REMARK 924 INTRA-LIGAND FREE ENERGY PREDICTED BY IDOCK:   -0.72 KCAL/MOL
REMARK 927      BINDING AFFINITY PREDICTED BY RF-SCORE:    0.00 PKD
ROOT
HETATM    1  C   UNL     1     -10.939  15.929  69.655  1.00  0.00    -0.319 C  
HETATM    2  C   UNL     1     -11.063  16.955  68.538  1.00  0.00    -0.213 C  
ENDROOT
BRANCH   2   3
HETATM    3  CA  UNL     1      -9.724  17.613  68.130  1.00  0.00    -0.310 C  
BRANCH   3   4
HETATM    4  C   UNL     1      -9.546  19.041  68.714  1.00  0.00    -0.396 C  
HETATM    5  H   UNL     1     -10.278  20.894  68.470  1.00  0.00     0.000 HD 
HETATM    6  O   UNL     1     -10.387  20.020  68.112  1.00  0.00    -0.421 OA 
ENDBRANCH   3   4
BRANCH   3   7
HETATM    7  N   UNL     1      -8.668  16.662  68.534  1.00  0.00    -0.232 NA 
HETATM    8  H   UNL     1      -9.067  15.876  69.047  1.00  0.00     0.000 HD 
BRANCH   7   9
HETATM    9  C   UNL     1      -7.847  16.185  67.412  1.00  0.00    -0.154 C  
BRANCH   9  10
HETATM   10  C   UNL     1      -8.550  15.018  66.685  1.00  0.00    -0.211 C  
BRANCH  10  11
HETATM   11  N   UNL     1      -9.173  15.472  65.430  1.00  0.00    -0.249 NA 
HETATM   12  H   UNL     1      -8.493  15.488  64.669  1.00  0.00     0.000 HD 
BRANCH  11  13
HETATM   13  CA  UNL     1     -10.369  14.672  65.059  1.00  0.00    -0.402 C  
BRANCH  13  14
HETATM   14  C   UNL     1     -11.411  15.602  64.397  1.00  0.00    -0.262 C  
HETATM   15  H   UNL     1     -11.652  17.539  64.099  1.00  0.00     0.000 HD 
HETATM   16  O   UNL     1     -11.011  16.968  64.506  1.00  0.00    -1.031 OA 
ENDBRANCH  13  14
BRANCH  13  17
HETATM   17  C   UNL     1     -11.005  13.895  66.230  1.00  0.00    -0.298 C  
HETATM   18  C   UNL     1     -12.510  14.078  66.379  1.00  0.00    -0.395 C  
ENDBRANCH  13  17
ENDBRANCH  11  13
ENDBRANCH  10  11
ENDBRANCH   9  10
ENDBRANCH   7   9
ENDBRANCH   3   7
ENDBRANCH   2   3
TORSDOF 9
ENDMDL
MODEL      119
REMARK 921   NORMALIZED FREE ENERGY PREDICTED BY IDOCK:   -3.39 KCAL/MOL
REMARK 922        TOTAL FREE ENERGY PREDICTED BY IDOCK:   -5.58 KCAL/MOL
REMARK 923 INTER-LIGAND FREE ENERGY PREDICTED BY IDOCK:   -5.19 KCAL/MOL
REMARK 924 INTRA-LIGAND FREE ENERGY PREDICTED BY IDOCK:   -0.39 KCAL/MOL
REMARK 927      BINDING AFFINITY PREDICTED BY RF-SCORE:    0.00 PKD
ROOT
HETATM    1  C   UNL     1      -9.983  10.165  64.950  1.00  0.00    -0.358 C  
HETATM    2  C   UNL     1     -10.778  11.450  65.137  1.00  0.00    -0.332 C  
ENDROOT
BRANCH   2   3
HETATM    3  CA  UNL     1     -10.791  12.372  63.896  1.00  0.00    -0.420 C  
BRANCH   3   4
HETATM    4  C   UNL     1     -12.226  12.732  63.422  1.00  0.00    -0.504 C  
HETATM    5  H   UNL     1     -14.136  12.367  63.920  1.00  0.00     0.000 HD 
HETATM    6  O   UNL     1     -13.258  12.147  64.210  1.00  0.00    -0.768 OA 
ENDBRANCH   3   4
BRANCH   3   7
HETATM    7  N   UNL     1      -9.965  13.543  64.255  1.00  0.00    -0.752 NA 
HETATM    8  H   UNL     1      -9.487  13.914  63.433  1.00  0.00     0.000 HD 
BRANCH   7   9
HETATM    9  C   UNL     1     -10.716  14.604  64.941  1.00  0.00    -0.427 C  
BRANCH   9  10
HETATM   10  C   UNL     1      -9.783  15.413  65.869  1.00  0.00    -0.357 C  
BRANCH  10  11
HETATM   11  N   UNL     1      -8.826  14.532  66.559  1.00  0.00    -0.454 NA 
HETATM   12  H   UNL     1      -8.028  14.318  65.960  1.00  0.00     0.000 HD 
BRANCH  11  13
HETATM   13  CA  UNL     1      -8.379  15.079  67.865  1.00  0.00    -0.148 C  
BRANCH  13  14
HETATM   14  C   UNL     1      -9.110  16.416  68.128  1.00  0.00    -0.201 C  
HETATM   15  H   UNL     1     -10.134  17.249  69.596  1.00  0.00     0.000 HD 
HETATM   16  O   UNL     1      -9.685  16.427  69.434  1.00  0.00    -0.234 OA 
ENDBRANCH  13  14
BRANCH  13  17
HETATM   17  C   UNL     1      -6.853  15.265  67.991  1.00  0.00    -0.152 C  
HETATM   18  C   UNL     1      -6.152  14.243  68.877  1.00  0.00    -0.087 C  
ENDBRANCH  13  17
ENDBRANCH  11  13
ENDBRANCH  10  11
ENDBRANCH   9  10
ENDBRANCH   7   9
ENDBRANCH   3   7
ENDBRANCH   2   3
TORSDOF 9
ENDMDL
MODEL      120
REMARK 921   NORMALIZED FREE ENERGY PREDICTED BY IDOCK:   -3.39 KCAL/MOL
REMARK 922        TOTAL FREE ENERGY PREDICTED BY IDOCK:   -5.58 KCAL/MOL
REMARK 923 INTER-LIGAND FREE ENERGY PREDICTED BY IDOCK:   -5.28 KCAL/MOL
REMARK 924 INTRA-LIGAND FREE ENERGY PREDICTED BY IDOCK:   -0.29 KCAL/MOL
REMARK 927      BINDING AFFINITY PREDICTED BY RF-SCORE:    0.00 PKD
ROOT
HETATM    1  C   UNL     1      -8.952   9.237  69.745  1.00  0.00    -0.180 C  
HETATM    2  C   UNL     1      -9.571   9.320  71.133  1.00  0.00    -0.305 C  
ENDROOT
BRANCH   2   3
HETATM    3  CA  UNL     1     -11.115   9.238  71.144  1.00  0.00    -0.341 C  
BRANCH   3   4
HETATM    4  C   UNL     1     -11.675   8.471  72.374  1.00  0.00    -0.358 C  
HETATM    5  H   UNL     1     -12.295   6.628  72.872  1.00  0.00     0.000 HD 
HETATM    6  O   UNL     1     -11.953   7.097  72.120  1.00  0.00    -0.292 OA 
ENDBRANCH   3   4
BRANCH   3   7
HETATM    7  N   UNL     1     -11.594  10.631  71.036  1.00  0.00    -0.294 NA 
HETATM    8  H   UNL     1     -11.486  10.977  70.082  1.00  0.00     0.000 HD 
BRANCH   7   9
HETATM    9  C   UNL     1     -12.976  10.815  71.501  1.00  0.00    -0.456 C  
BRANCH   9  10
HETATM   10  C   UNL     1     -13.240  12.299  71.839  1.00  0.00    -0.376 C  
BRANCH  10  11
HETATM   11  N   UNL     1     -12.246  13.175  71.195  1.00  0.00    -0.383 NA 
HETATM   12  H   UNL     1     -11.845  12.728  70.370  1.00  0.00     0.000 HD 
BRANCH  11  13
HETATM   13  CA  UNL     1     -12.791  14.515  70.862  1.00  0.00    -0.360 C  
BRANCH  13  14
HETATM   14  C   UNL     1     -11.626  15.529  70.789  1.00  0.00    -0.367 C  
HETATM   15  H   UNL     1     -10.828  16.735  69.445  1.00  0.00     0.000 HD 
HETATM   16  O   UNL     1     -11.544  16.112  69.489  1.00  0.00    -0.316 OA 
ENDBRANCH  13  14
BRANCH  13  17
HETATM   17  C   UNL     1     -13.884  15.018  71.826  1.00  0.00    -0.576 C  
HETATM   18  C   UNL     1     -13.372  15.803  73.026  1.00  0.00    -0.679 C  
ENDBRANCH  13  17
ENDBRANCH  11  13
ENDBRANCH  10  11
ENDBRANCH   9  10
ENDBRANCH   7   9
ENDBRANCH   3   7
ENDBRANCH   2   3
TORSDOF 9
ENDMDL
MODEL      121
REMARK 921   NORMALIZED FREE ENERGY PREDICTED BY IDOCK:   -3.38 KCAL/MOL
REMARK 922        TOTAL FREE ENERGY PREDICTED BY IDOCK:   -5.57 KCAL/MOL
REMARK 923 INTER-LIGAND FREE ENERGY PREDICTED BY IDOCK:   -5.26 KCAL/MOL
REMARK 924 INTRA-LIGAND FREE ENERGY PREDICTED BY IDOCK:   -0.31 KCAL/MOL
REMARK 927      BINDING AFFINITY PREDICTED BY RF-SCORE:    0.00 PKD
ROOT
HETATM    1  C   UNL     1     -14.374   8.263  71.352  1.00  0.00    -0.461 C  
HETATM    2  C   UNL     1     -13.560   9.142  72.290  1.00  0.00    -0.548 C  
ENDROOT
BRANCH   2   3
HETATM    3  CA  UNL     1     -12.263   9.705  71.664  1.00  0.00    -0.402 C  
BRANCH   3   4
HETATM    4  C   UNL     1     -11.265   8.595  71.233  1.00  0.00    -0.276 C  
HETATM    5  H   UNL     1     -10.305   7.958  69.590  1.00  0.00     0.000 HD 
HETATM    6  O   UNL     1     -10.915   8.637  69.853  1.00  0.00    -0.234 OA 
ENDBRANCH   3   4
BRANCH   3   7
HETATM    7  N   UNL     1     -12.697  10.585  70.560  1.00  0.00    -0.420 NA 
HETATM    8  H   UNL     1     -13.535  10.216  70.111  1.00  0.00     0.000 HD 
BRANCH   7   9
HETATM    9  C   UNL     1     -12.899  11.983  70.968  1.00  0.00    -0.187 C  
BRANCH   9  10
HETATM   10  C   UNL     1     -11.878  12.904  70.266  1.00  0.00    -0.213 C  
BRANCH  10  11
HETATM   11  N   UNL     1     -12.558  13.933  69.460  1.00  0.00    -0.344 NA 
HETATM   12  H   UNL     1     -13.544  13.704  69.332  1.00  0.00     0.000 HD 
BRANCH  11  13
HETATM   13  CA  UNL     1     -12.397  15.300  70.017  1.00  0.00    -0.328 C  
BRANCH  13  14
HETATM   14  C   UNL     1     -10.895  15.667  70.025  1.00  0.00    -0.330 C  
HETATM   15  H   UNL     1      -9.725  17.023  69.196  1.00  0.00     0.000 HD 
HETATM   16  O   UNL     1     -10.647  16.798  69.190  1.00  0.00    -0.316 OA 
ENDBRANCH  13  14
BRANCH  13  17
HETATM   17  C   UNL     1     -13.006  15.494  71.421  1.00  0.00    -0.553 C  
HETATM   18  C   UNL     1     -12.032  15.983  72.483  1.00  0.00    -0.649 C  
ENDBRANCH  13  17
ENDBRANCH  11  13
ENDBRANCH  10  11
ENDBRANCH   9  10
ENDBRANCH   7   9
ENDBRANCH   3   7
ENDBRANCH   2   3
TORSDOF 9
ENDMDL
MODEL      122
REMARK 921   NORMALIZED FREE ENERGY PREDICTED BY IDOCK:   -3.37 KCAL/MOL
REMARK 922        TOTAL FREE ENERGY PREDICTED BY IDOCK:   -5.56 KCAL/MOL
REMARK 923 INTER-LIGAND FREE ENERGY PREDICTED BY IDOCK:   -5.15 KCAL/MOL
REMARK 924 INTRA-LIGAND FREE ENERGY PREDICTED BY IDOCK:   -0.41 KCAL/MOL
REMARK 927      BINDING AFFINITY PREDICTED BY RF-SCORE:    0.00 PKD
ROOT
HETATM    1  C   UNL     1      -8.679  10.902  65.650  1.00  0.00    -0.190 C  
HETATM    2  C   UNL     1      -9.341  11.995  66.478  1.00  0.00    -0.226 C  
ENDROOT
BRANCH   2   3
HETATM    3  CA  UNL     1     -10.336  12.875  65.685  1.00  0.00    -0.282 C  
BRANCH   3   4
HETATM    4  C   UNL     1     -11.738  12.956  66.348  1.00  0.00    -0.395 C  
HETATM    5  H   UNL     1     -12.855  11.959  67.685  1.00  0.00     0.000 HD 
HETATM    6  O   UNL     1     -11.998  11.909  67.279  1.00  0.00    -0.605 OA 
ENDBRANCH   3   4
BRANCH   3   7
HETATM    7  N   UNL     1      -9.672  14.184  65.519  1.00  0.00    -0.539 NA 
HETATM    8  H   UNL     1      -9.384  14.323  64.550  1.00  0.00     0.000 HD 
BRANCH   7   9
HETATM    9  C   UNL     1     -10.484  15.317  65.987  1.00  0.00    -0.317 C  
BRANCH   9  10
HETATM   10  C   UNL     1      -9.798  16.016  67.181  1.00  0.00    -0.236 C  
BRANCH  10  11
HETATM   11  N   UNL     1     -10.704  16.986  67.820  1.00  0.00    -0.342 NA 
HETATM   12  H   UNL     1     -11.054  16.629  68.710  1.00  0.00     0.000 HD 
BRANCH  11  13
HETATM   13  CA  UNL     1     -10.085  18.325  67.990  1.00  0.00    -0.364 C  
BRANCH  13  14
HETATM   14  C   UNL     1     -10.776  19.324  67.033  1.00  0.00    -0.464 C  
HETATM   15  H   UNL     1     -10.713  19.780  65.114  1.00  0.00     0.000 HD 
HETATM   16  O   UNL     1     -10.288  19.166  65.702  1.00  0.00    -0.511 OA 
ENDBRANCH  13  14
BRANCH  13  17
HETATM   17  C   UNL     1      -8.557  18.353  67.788  1.00  0.00    -0.278 C  
HETATM   18  C   UNL     1      -7.822  19.420  68.589  1.00  0.00    -0.399 C  
ENDBRANCH  13  17
ENDBRANCH  11  13
ENDBRANCH  10  11
ENDBRANCH   9  10
ENDBRANCH   7   9
ENDBRANCH   3   7
ENDBRANCH   2   3
TORSDOF 9
ENDMDL
MODEL      123
REMARK 921   NORMALIZED FREE ENERGY PREDICTED BY IDOCK:   -3.36 KCAL/MOL
REMARK 922        TOTAL FREE ENERGY PREDICTED BY IDOCK:   -5.54 KCAL/MOL
REMARK 923 INTER-LIGAND FREE ENERGY PREDICTED BY IDOCK:   -5.25 KCAL/MOL
REMARK 924 INTRA-LIGAND FREE ENERGY PREDICTED BY IDOCK:   -0.29 KCAL/MOL
REMARK 927      BINDING AFFINITY PREDICTED BY RF-SCORE:    0.00 PKD
ROOT
HETATM    1  C   UNL     1     -13.729  15.775  72.893  1.00  0.00    -0.631 C  
HETATM    2  C   UNL     1     -12.944  14.504  72.600  1.00  0.00    -0.538 C  
ENDROOT
BRANCH   2   3
HETATM    3  CA  UNL     1     -12.701  14.243  71.095  1.00  0.00    -0.360 C  
BRANCH   3   4
HETATM    4  C   UNL     1     -11.753  15.286  70.442  1.00  0.00    -0.310 C  
HETATM    5  H   UNL     1     -11.538  16.283  68.714  1.00  0.00     0.000 HD 
HETATM    6  O   UNL     1     -12.118  15.645  69.113  1.00  0.00    -0.344 OA 
ENDBRANCH   3   4
BRANCH   3   7
HETATM    7  N   UNL     1     -12.218  12.849  71.001  1.00  0.00    -0.410 NA 
HETATM    8  H   UNL     1     -11.253  12.779  71.322  1.00  0.00     0.000 HD 
BRANCH   7   9
HETATM    9  C   UNL     1     -13.072  11.883  71.706  1.00  0.00    -0.360 C  
BRANCH   9  10
HETATM   10  C   UNL     1     -12.842  10.458  71.159  1.00  0.00    -0.414 C  
BRANCH  10  11
HETATM   11  N   UNL     1     -12.845   9.464  72.247  1.00  0.00    -0.390 NA 
HETATM   12  H   UNL     1     -13.776   9.066  72.374  1.00  0.00     0.000 HD 
BRANCH  11  13
HETATM   13  CA  UNL     1     -11.830   8.397  72.055  1.00  0.00    -0.353 C  
BRANCH  13  14
HETATM   14  C   UNL     1     -10.702   8.933  71.143  1.00  0.00    -0.263 C  
HETATM   15  H   UNL     1      -8.795   9.410  71.316  1.00  0.00     0.000 HD 
HETATM   16  O   UNL     1      -9.488   9.082  71.877  1.00  0.00    -0.313 OA 
ENDBRANCH  13  14
BRANCH  13  17
HETATM   17  C   UNL     1     -12.393   7.074  71.497  1.00  0.00    -0.420 C  
HETATM   18  C   UNL     1     -11.950   5.822  72.243  1.00  0.00    -0.147 C  
ENDBRANCH  13  17
ENDBRANCH  11  13
ENDBRANCH  10  11
ENDBRANCH   9  10
ENDBRANCH   7   9
ENDBRANCH   3   7
ENDBRANCH   2   3
TORSDOF 9
ENDMDL
MODEL      124
REMARK 921   NORMALIZED FREE ENERGY PREDICTED BY IDOCK:   -3.34 KCAL/MOL
REMARK 922        TOTAL FREE ENERGY PREDICTED BY IDOCK:   -5.51 KCAL/MOL
REMARK 923 INTER-LIGAND FREE ENERGY PREDICTED BY IDOCK:   -5.05 KCAL/MOL
REMARK 924 INTRA-LIGAND FREE ENERGY PREDICTED BY IDOCK:   -0.47 KCAL/MOL
REMARK 927      BINDING AFFINITY PREDICTED BY RF-SCORE:    0.00 PKD
ROOT
HETATM    1  C   UNL     1      -7.126  18.965  69.076  1.00  0.00    -0.339 C  
HETATM    2  C   UNL     1      -7.713  18.887  67.674  1.00  0.00    -0.259 C  
ENDROOT
BRANCH   2   3
HETATM    3  CA  UNL     1      -9.245  19.087  67.616  1.00  0.00    -0.294 C  
BRANCH   3   4
HETATM    4  C   UNL     1      -9.849  18.756  66.224  1.00  0.00    -0.353 C  
HETATM    5  H   UNL     1     -11.259  19.440  64.969  1.00  0.00     0.000 HD 
HETATM    6  O   UNL     1     -10.889  19.642  65.820  1.00  0.00    -0.468 OA 
ENDBRANCH   3   4
BRANCH   3   7
HETATM    7  N   UNL     1      -9.799  18.278  68.721  1.00  0.00    -0.366 NA 
HETATM    8  H   UNL     1     -10.569  18.767  69.176  1.00  0.00     0.000 HD 
BRANCH   7   9
HETATM    9  C   UNL     1     -10.213  16.928  68.309  1.00  0.00    -0.318 C  
BRANCH   9  10
HETATM   10  C   UNL     1      -9.607  15.866  69.252  1.00  0.00    -0.266 C  
BRANCH  10  11
HETATM   11  N   UNL     1     -10.449  15.673  70.446  1.00  0.00    -0.310 NA 
HETATM   12  H   UNL     1     -10.324  16.439  71.108  1.00  0.00     0.000 HD 
BRANCH  11  13
HETATM   13  CA  UNL     1     -11.884  15.486  70.113  1.00  0.00    -0.356 C  
BRANCH  13  14
HETATM   14  C   UNL     1     -12.739  15.838  71.352  1.00  0.00    -0.447 C  
HETATM   15  H   UNL     1     -12.432  16.319  73.242  1.00  0.00     0.000 HD 
HETATM   16  O   UNL     1     -11.907  16.102  72.480  1.00  0.00    -0.494 OA 
ENDBRANCH  13  14
BRANCH  13  17
HETATM   17  C   UNL     1     -12.240  14.077  69.594  1.00  0.00    -0.383 C  
HETATM   18  C   UNL     1     -12.373  13.010  70.672  1.00  0.00    -0.391 C  
ENDBRANCH  13  17
ENDBRANCH  11  13
ENDBRANCH  10  11
ENDBRANCH   9  10
ENDBRANCH   7   9
ENDBRANCH   3   7
ENDBRANCH   2   3
TORSDOF 9
ENDMDL
MODEL      125
REMARK 921   NORMALIZED FREE ENERGY PREDICTED BY IDOCK:   -3.34 KCAL/MOL
REMARK 922        TOTAL FREE ENERGY PREDICTED BY IDOCK:   -5.50 KCAL/MOL
REMARK 923 INTER-LIGAND FREE ENERGY PREDICTED BY IDOCK:   -5.18 KCAL/MOL
REMARK 924 INTRA-LIGAND FREE ENERGY PREDICTED BY IDOCK:   -0.33 KCAL/MOL
REMARK 927      BINDING AFFINITY PREDICTED BY RF-SCORE:    0.00 PKD
ROOT
HETATM    1  C   UNL     1      -9.556   8.318  72.497  1.00  0.00    -0.365 C  
HETATM    2  C   UNL     1     -10.965   7.836  72.811  1.00  0.00    -0.447 C  
ENDROOT
BRANCH   2   3
HETATM    3  CA  UNL     1     -12.020   8.227  71.750  1.00  0.00    -0.316 C  
BRANCH   3   4
HETATM    4  C   UNL     1     -13.090   7.125  71.523  1.00  0.00    -0.375 C  
HETATM    5  H   UNL     1     -15.063   6.957  71.191  1.00  0.00     0.000 HD 
HETATM    6  O   UNL     1     -14.408   7.631  71.330  1.00  0.00    -0.433 OA 
ENDBRANCH   3   4
BRANCH   3   7
HETATM    7  N   UNL     1     -12.574   9.523  72.191  1.00  0.00    -0.359 NA 
HETATM    8  H   UNL     1     -12.020   9.912  72.954  1.00  0.00     0.000 HD 
BRANCH   7   9
HETATM    9  C   UNL     1     -12.717  10.501  71.103  1.00  0.00    -0.418 C  
BRANCH   9  10
HETATM   10  C   UNL     1     -11.453  10.512  70.216  1.00  0.00    -0.333 C  
BRANCH  10  11
HETATM   11  N   UNL     1     -11.110  11.882  69.797  1.00  0.00    -0.475 NA 
HETATM   12  H   UNL     1     -10.100  11.992  69.700  1.00  0.00     0.000 HD 
BRANCH  11  13
HETATM   13  CA  UNL     1     -11.812  12.296  68.555  1.00  0.00    -0.307 C  
BRANCH  13  14
HETATM   14  C   UNL     1     -11.184  11.557  67.351  1.00  0.00    -0.304 C  
HETATM   15  H   UNL     1     -10.436  12.026  65.586  1.00  0.00     0.000 HD 
HETATM   16  O   UNL     1     -10.821  12.480  66.326  1.00  0.00    -0.258 OA 
ENDBRANCH  13  14
BRANCH  13  17
HETATM   17  C   UNL     1     -11.825  13.818  68.306  1.00  0.00    -0.413 C  
HETATM   18  C   UNL     1     -11.859  14.675  69.565  1.00  0.00    -0.374 C  
ENDBRANCH  13  17
ENDBRANCH  11  13
ENDBRANCH  10  11
ENDBRANCH   9  10
ENDBRANCH   7   9
ENDBRANCH   3   7
ENDBRANCH   2   3
TORSDOF 9
ENDMDL
MODEL      126
REMARK 921   NORMALIZED FREE ENERGY PREDICTED BY IDOCK:   -3.33 KCAL/MOL
REMARK 922        TOTAL FREE ENERGY PREDICTED BY IDOCK:   -5.49 KCAL/MOL
REMARK 923 INTER-LIGAND FREE ENERGY PREDICTED BY IDOCK:   -5.23 KCAL/MOL
REMARK 924 INTRA-LIGAND FREE ENERGY PREDICTED BY IDOCK:   -0.27 KCAL/MOL
REMARK 927      BINDING AFFINITY PREDICTED BY RF-SCORE:    0.00 PKD
ROOT
HETATM    1  C   UNL     1     -14.043  14.125  72.225  1.00  0.00    -0.630 C  
HETATM    2  C   UNL     1     -13.884  15.054  71.029  1.00  0.00    -0.379 C  
ENDROOT
BRANCH   2   3
HETATM    3  CA  UNL     1     -12.479  15.023  70.385  1.00  0.00    -0.356 C  
BRANCH   3   4
HETATM    4  C   UNL     1     -11.501  16.054  71.011  1.00  0.00    -0.417 C  
HETATM    5  H   UNL     1     -10.442  16.329  72.694  1.00  0.00     0.000 HD 
HETATM    6  O   UNL     1     -11.041  15.699  72.311  1.00  0.00    -0.204 OA 
ENDBRANCH   3   4
BRANCH   3   7
HETATM    7  N   UNL     1     -12.021  13.621  70.485  1.00  0.00    -0.475 NA 
HETATM    8  H   UNL     1     -12.578  13.107  71.167  1.00  0.00     0.000 HD 
BRANCH   7   9
HETATM    9  C   UNL     1     -12.000  12.918  69.194  1.00  0.00    -0.259 C  
BRANCH   9  10
HETATM   10  C   UNL     1     -10.901  13.500  68.279  1.00  0.00    -0.259 C  
BRANCH  10  11
HETATM   11  N   UNL     1     -11.190  13.225  66.861  1.00  0.00    -0.296 NA 
HETATM   12  H   UNL     1     -11.743  12.374  66.759  1.00  0.00     0.000 HD 
BRANCH  11  13
HETATM   13  CA  UNL     1     -11.843  14.370  66.175  1.00  0.00    -0.382 C  
BRANCH  13  14
HETATM   14  C   UNL     1     -12.565  13.853  64.909  1.00  0.00    -0.347 C  
HETATM   15  H   UNL     1     -13.358  12.160  64.275  1.00  0.00     0.000 HD 
HETATM   16  O   UNL     1     -12.914  12.477  65.053  1.00  0.00    -0.779 OA 
ENDBRANCH  13  14
BRANCH  13  17
HETATM   17  C   UNL     1     -10.891  15.529  65.818  1.00  0.00    -0.337 C  
HETATM   18  C   UNL     1      -9.463  15.110  65.494  1.00  0.00    -0.106 C  
ENDBRANCH  13  17
ENDBRANCH  11  13
ENDBRANCH  10  11
ENDBRANCH   9  10
ENDBRANCH   7   9
ENDBRANCH   3   7
ENDBRANCH   2   3
TORSDOF 9
ENDMDL
MODEL      127
REMARK 921   NORMALIZED FREE ENERGY PREDICTED BY IDOCK:   -3.33 KCAL/MOL
REMARK 922        TOTAL FREE ENERGY PREDICTED BY IDOCK:   -5.49 KCAL/MOL
REMARK 923 INTER-LIGAND FREE ENERGY PREDICTED BY IDOCK:   -5.25 KCAL/MOL
REMARK 924 INTRA-LIGAND FREE ENERGY PREDICTED BY IDOCK:   -0.23 KCAL/MOL
REMARK 927      BINDING AFFINITY PREDICTED BY RF-SCORE:    0.00 PKD
ROOT
HETATM    1  C   UNL     1     -11.269  11.580  63.459  1.00  0.00    -0.412 C  
HETATM    2  C   UNL     1     -10.268  12.662  63.838  1.00  0.00    -0.340 C  
ENDROOT
BRANCH   2   3
HETATM    3  CA  UNL     1     -10.697  13.525  65.047  1.00  0.00    -0.357 C  
BRANCH   3   4
HETATM    4  C   UNL     1     -12.032  13.056  65.686  1.00  0.00    -0.429 C  
HETATM    5  H   UNL     1     -13.986  13.515  65.656  1.00  0.00     0.000 HD 
HETATM    6  O   UNL     1     -13.169  13.803  65.265  1.00  0.00    -0.755 OA 
ENDBRANCH   3   4
BRANCH   3   7
HETATM    7  N   UNL     1      -9.549  13.516  65.977  1.00  0.00    -0.462 NA 
HETATM    8  H   UNL     1      -8.792  12.937  65.611  1.00  0.00     0.000 HD 
BRANCH   7   9
HETATM    9  C   UNL     1      -9.057  14.859  66.316  1.00  0.00    -0.227 C  
BRANCH   9  10
HETATM   10  C   UNL     1     -10.085  15.933  65.896  1.00  0.00    -0.352 C  
BRANCH  10  11
HETATM   11  N   UNL     1      -9.769  17.237  66.504  1.00  0.00    -0.276 NA 
HETATM   12  H   UNL     1     -10.288  17.987  66.048  1.00  0.00     0.000 HD 
BRANCH  11  13
HETATM   13  CA  UNL     1      -9.987  17.254  67.973  1.00  0.00    -0.304 C  
BRANCH  13  14
HETATM   14  C   UNL     1     -11.382  16.663  68.282  1.00  0.00    -0.121 C  
HETATM   15  H   UNL     1     -12.122  15.117  69.261  1.00  0.00     0.000 HD 
HETATM   16  O   UNL     1     -11.264  15.480  69.071  1.00  0.00    -0.263 OA 
ENDBRANCH  13  14
BRANCH  13  17
HETATM   17  C   UNL     1      -9.833  18.643  68.625  1.00  0.00    -0.427 C  
HETATM   18  C   UNL     1     -10.485  19.788  67.861  1.00  0.00    -0.531 C  
ENDBRANCH  13  17
ENDBRANCH  11  13
ENDBRANCH  10  11
ENDBRANCH   9  10
ENDBRANCH   7   9
ENDBRANCH   3   7
ENDBRANCH   2   3
TORSDOF 9
ENDMDL
MODEL      128
REMARK 921   NORMALIZED FREE ENERGY PREDICTED BY IDOCK:   -3.33 KCAL/MOL
REMARK 922        TOTAL FREE ENERGY PREDICTED BY IDOCK:   -5.49 KCAL/MOL
REMARK 923 INTER-LIGAND FREE ENERGY PREDICTED BY IDOCK:   -5.06 KCAL/MOL
REMARK 924 INTRA-LIGAND FREE ENERGY PREDICTED BY IDOCK:   -0.43 KCAL/MOL
REMARK 927      BINDING AFFINITY PREDICTED BY RF-SCORE:    0.00 PKD
ROOT
HETATM    1  C   UNL     1      -9.525  11.179  66.132  1.00  0.00    -0.229 C  
HETATM    2  C   UNL     1     -10.859  11.741  65.661  1.00  0.00    -0.342 C  
ENDROOT
BRANCH   2   3
HETATM    3  CA  UNL     1     -10.751  12.693  64.448  1.00  0.00    -0.359 C  
BRANCH   3   4
HETATM    4  C   UNL     1     -12.128  13.021  63.808  1.00  0.00    -0.502 C  
HETATM    5  H   UNL     1     -14.083  12.721  64.153  1.00  0.00     0.000 HD 
HETATM    6  O   UNL     1     -13.241  12.520  64.544  1.00  0.00    -0.832 OA 
ENDBRANCH   3   4
BRANCH   3   7
HETATM    7  N   UNL     1     -10.015  13.880  64.930  1.00  0.00    -0.615 NA 
HETATM    8  H   UNL     1      -9.581  14.377  64.152  1.00  0.00     0.000 HD 
BRANCH   7   9
HETATM    9  C   UNL     1     -10.838  14.793  65.736  1.00  0.00    -0.331 C  
BRANCH   9  10
HETATM   10  C   UNL     1     -10.483  16.263  65.419  1.00  0.00    -0.343 C  
BRANCH  10  11
HETATM   11  N   UNL     1     -10.329  17.051  66.654  1.00  0.00    -0.312 NA 
HETATM   12  H   UNL     1     -11.138  16.934  67.265  1.00  0.00     0.000 HD 
BRANCH  11  13
HETATM   13  CA  UNL     1      -9.067  16.747  67.376  1.00  0.00    -0.216 C  
BRANCH  13  14
HETATM   14  C   UNL     1      -9.342  16.763  68.897  1.00  0.00    -0.233 C  
HETATM   15  H   UNL     1     -10.810  16.259  70.116  1.00  0.00     0.000 HD 
HETATM   16  O   UNL     1     -10.642  16.249  69.181  1.00  0.00    -0.250 OA 
ENDBRANCH  13  14
BRANCH  13  17
HETATM   17  C   UNL     1      -7.892  17.683  67.029  1.00  0.00    -0.239 C  
HETATM   18  C   UNL     1      -6.651  16.984  66.491  1.00  0.00    -0.254 C  
ENDBRANCH  13  17
ENDBRANCH  11  13
ENDBRANCH  10  11
ENDBRANCH   9  10
ENDBRANCH   7   9
ENDBRANCH   3   7
ENDBRANCH   2   3
TORSDOF 9
ENDMDL
MODEL      129
REMARK 921   NORMALIZED FREE ENERGY PREDICTED BY IDOCK:   -3.32 KCAL/MOL
REMARK 922        TOTAL FREE ENERGY PREDICTED BY IDOCK:   -5.48 KCAL/MOL
REMARK 923 INTER-LIGAND FREE ENERGY PREDICTED BY IDOCK:   -5.26 KCAL/MOL
REMARK 924 INTRA-LIGAND FREE ENERGY PREDICTED BY IDOCK:   -0.21 KCAL/MOL
REMARK 927      BINDING AFFINITY PREDICTED BY RF-SCORE:    0.00 PKD
ROOT
HETATM    1  C   UNL     1     -13.417  13.547  72.461  1.00  0.00    -0.660 C  
HETATM    2  C   UNL     1     -13.160  12.426  71.464  1.00  0.00    -0.362 C  
ENDROOT
BRANCH   2   3
HETATM    3  CA  UNL     1     -12.072  12.750  70.414  1.00  0.00    -0.302 C  
BRANCH   3   4
HETATM    4  C   UNL     1     -11.938  11.656  69.320  1.00  0.00    -0.317 C  
HETATM    5  H   UNL     1     -11.571   9.688  69.165  1.00  0.00     0.000 HD 
HETATM    6  O   UNL     1     -11.653  10.358  69.834  1.00  0.00    -0.257 OA 
ENDBRANCH   3   4
BRANCH   3   7
HETATM    7  N   UNL     1     -12.407  14.089  69.886  1.00  0.00    -0.333 NA 
HETATM    8  H   UNL     1     -13.061  14.568  70.505  1.00  0.00     0.000 HD 
BRANCH   7   9
HETATM    9  C   UNL     1     -11.229  14.929  69.626  1.00  0.00    -0.275 C  
BRANCH   9  10
HETATM   10  C   UNL     1     -11.633  16.202  68.850  1.00  0.00    -0.298 C  
BRANCH  10  11
HETATM   11  N   UNL     1     -10.747  17.330  69.182  1.00  0.00    -0.350 NA 
HETATM   12  H   UNL     1     -10.048  17.055  69.873  1.00  0.00     0.000 HD 
BRANCH  11  13
HETATM   13  CA  UNL     1     -10.104  17.929  67.985  1.00  0.00    -0.358 C  
BRANCH  13  14
HETATM   14  C   UNL     1      -8.619  18.220  68.301  1.00  0.00    -0.285 C  
HETATM   15  H   UNL     1      -7.574  19.631  69.203  1.00  0.00     0.000 HD 
HETATM   16  O   UNL     1      -8.486  19.453  69.008  1.00  0.00    -0.345 OA 
ENDBRANCH  13  14
BRANCH  13  17
HETATM   17  C   UNL     1     -10.801  19.199  67.453  1.00  0.00    -0.533 C  
HETATM   18  C   UNL     1     -10.571  19.488  65.976  1.00  0.00    -0.589 C  
ENDBRANCH  13  17
ENDBRANCH  11  13
ENDBRANCH  10  11
ENDBRANCH   9  10
ENDBRANCH   7   9
ENDBRANCH   3   7
ENDBRANCH   2   3
TORSDOF 9
ENDMDL
MODEL      130
REMARK 921   NORMALIZED FREE ENERGY PREDICTED BY IDOCK:   -3.32 KCAL/MOL
REMARK 922        TOTAL FREE ENERGY PREDICTED BY IDOCK:   -5.47 KCAL/MOL
REMARK 923 INTER-LIGAND FREE ENERGY PREDICTED BY IDOCK:   -4.84 KCAL/MOL
REMARK 924 INTRA-LIGAND FREE ENERGY PREDICTED BY IDOCK:   -0.63 KCAL/MOL
REMARK 927      BINDING AFFINITY PREDICTED BY RF-SCORE:    0.00 PKD
ROOT
HETATM    1  C   UNL     1     -12.980  15.630  72.695  1.00  0.00    -0.554 C  
HETATM    2  C   UNL     1     -13.581  14.231  72.707  1.00  0.00    -0.538 C  
ENDROOT
BRANCH   2   3
HETATM    3  CA  UNL     1     -13.363  13.437  71.398  1.00  0.00    -0.190 C  
BRANCH   3   4
HETATM    4  C   UNL     1     -12.758  14.300  70.257  1.00  0.00    -0.249 C  
HETATM    5  H   UNL     1     -11.082  14.423  69.159  1.00  0.00     0.000 HD 
HETATM    6  O   UNL     1     -11.452  13.895  69.858  1.00  0.00    -0.248 OA 
ENDBRANCH   3   4
BRANCH   3   7
HETATM    7  N   UNL     1     -12.540  12.267  71.769  1.00  0.00    -0.113 NA 
HETATM    8  H   UNL     1     -12.489  12.168  72.783  1.00  0.00     0.000 HD 
BRANCH   7   9
HETATM    9  C   UNL     1     -12.987  11.014  71.146  1.00  0.00    -0.324 C  
BRANCH   9  10
HETATM   10  C   UNL     1     -11.959  10.534  70.098  1.00  0.00    -0.316 C  
BRANCH  10  11
HETATM   11  N   UNL     1     -12.346  10.959  68.741  1.00  0.00    -0.772 NA 
HETATM   12  H   UNL     1     -12.879  11.829  68.769  1.00  0.00     0.000 HD 
BRANCH  11  13
HETATM   13  CA  UNL     1     -11.186  11.076  67.822  1.00  0.00    -0.308 C  
BRANCH  13  14
HETATM   14  C   UNL     1     -11.566  12.004  66.646  1.00  0.00    -0.319 C  
HETATM   15  H   UNL     1     -11.014  13.765  65.946  1.00  0.00     0.000 HD 
HETATM   16  O   UNL     1     -10.781  13.195  66.669  1.00  0.00    -0.275 OA 
ENDBRANCH  13  14
BRANCH  13  17
HETATM   17  C   UNL     1     -10.650   9.728  67.295  1.00  0.00    -0.320 C  
HETATM   18  C   UNL     1      -9.730   9.831  66.086  1.00  0.00    -0.309 C  
ENDBRANCH  13  17
ENDBRANCH  11  13
ENDBRANCH  10  11
ENDBRANCH   9  10
ENDBRANCH   7   9
ENDBRANCH   3   7
ENDBRANCH   2   3
TORSDOF 9
ENDMDL
MODEL      131
REMARK 921   NORMALIZED FREE ENERGY PREDICTED BY IDOCK:   -3.31 KCAL/MOL
REMARK 922        TOTAL FREE ENERGY PREDICTED BY IDOCK:   -5.47 KCAL/MOL
REMARK 923 INTER-LIGAND FREE ENERGY PREDICTED BY IDOCK:   -5.21 KCAL/MOL
REMARK 924 INTRA-LIGAND FREE ENERGY PREDICTED BY IDOCK:   -0.25 KCAL/MOL
REMARK 927      BINDING AFFINITY PREDICTED BY RF-SCORE:    0.00 PKD
ROOT
HETATM    1  C   UNL     1     -13.890   7.431  71.597  1.00  0.00    -0.490 C  
HETATM    2  C   UNL     1     -12.497   6.894  71.295  1.00  0.00    -0.409 C  
ENDROOT
BRANCH   2   3
HETATM    3  CA  UNL     1     -11.480   7.978  70.867  1.00  0.00    -0.276 C  
BRANCH   3   4
HETATM    4  C   UNL     1     -10.442   7.462  69.834  1.00  0.00    -0.231 C  
HETATM    5  H   UNL     1     -10.366   6.326  68.181  1.00  0.00     0.000 HD 
HETATM    6  O   UNL     1     -11.001   6.641  68.813  1.00  0.00    -0.263 OA 
ENDBRANCH   3   4
BRANCH   3   7
HETATM    7  N   UNL     1     -12.285   9.121  70.390  1.00  0.00    -0.458 NA 
HETATM    8  H   UNL     1     -13.253   9.037  70.703  1.00  0.00     0.000 HD 
BRANCH   7   9
HETATM    9  C   UNL     1     -11.729  10.428  70.768  1.00  0.00    -0.368 C  
BRANCH   9  10
HETATM   10  C   UNL     1     -12.318  11.544  69.877  1.00  0.00    -0.180 C  
BRANCH  10  11
HETATM   11  N   UNL     1     -11.377  12.670  69.744  1.00  0.00    -0.496 NA 
HETATM   12  H   UNL     1     -10.675  12.476  69.030  1.00  0.00     0.000 HD 
BRANCH  11  13
HETATM   13  CA  UNL     1     -12.060  13.962  69.483  1.00  0.00    -0.342 C  
BRANCH  13  14
HETATM   14  C   UNL     1     -11.472  14.593  68.200  1.00  0.00    -0.323 C  
HETATM   15  H   UNL     1     -11.721  14.423  66.250  1.00  0.00     0.000 HD 
HETATM   16  O   UNL     1     -12.083  14.035  67.038  1.00  0.00    -0.427 OA 
ENDBRANCH  13  14
BRANCH  13  17
HETATM   17  C   UNL     1     -11.999  14.965  70.654  1.00  0.00    -0.363 C  
HETATM   18  C   UNL     1     -13.345  15.308  71.277  1.00  0.00    -0.586 C  
ENDBRANCH  13  17
ENDBRANCH  11  13
ENDBRANCH  10  11
ENDBRANCH   9  10
ENDBRANCH   7   9
ENDBRANCH   3   7
ENDBRANCH   2   3
TORSDOF 9
ENDMDL
MODEL      132
REMARK 921   NORMALIZED FREE ENERGY PREDICTED BY IDOCK:   -3.30 KCAL/MOL
REMARK 922        TOTAL FREE ENERGY PREDICTED BY IDOCK:   -5.44 KCAL/MOL
REMARK 923 INTER-LIGAND FREE ENERGY PREDICTED BY IDOCK:   -4.88 KCAL/MOL
REMARK 924 INTRA-LIGAND FREE ENERGY PREDICTED BY IDOCK:   -0.57 KCAL/MOL
REMARK 927      BINDING AFFINITY PREDICTED BY RF-SCORE:    0.00 PKD
ROOT
HETATM    1  C   UNL     1     -10.736  17.042  68.525  1.00  0.00    -0.352 C  
HETATM    2  C   UNL     1     -11.304  15.633  68.424  1.00  0.00    -0.365 C  
ENDROOT
BRANCH   2   3
HETATM    3  CA  UNL     1     -11.303  14.853  69.759  1.00  0.00    -0.283 C  
BRANCH   3   4
HETATM    4  C   UNL     1     -12.720  14.709  70.379  1.00  0.00    -0.316 C  
HETATM    5  H   UNL     1     -13.710  13.534  71.672  1.00  0.00     0.000 HD 
HETATM    6  O   UNL     1     -12.843  13.622  71.292  1.00  0.00    -0.337 OA 
ENDBRANCH   3   4
BRANCH   3   7
HETATM    7  N   UNL     1     -10.638  13.565  69.473  1.00  0.00    -0.413 NA 
HETATM    8  H   UNL     1     -10.595  12.987  70.312  1.00  0.00     0.000 HD 
BRANCH   7   9
HETATM    9  C   UNL     1     -11.250  12.823  68.362  1.00  0.00    -0.278 C  
BRANCH   9  10
HETATM   10  C   UNL     1     -11.865  11.500  68.869  1.00  0.00    -0.341 C  
BRANCH  10  11
HETATM   11  N   UNL     1     -11.417  11.197  70.239  1.00  0.00    -0.450 NA 
HETATM   12  H   UNL     1     -11.790  11.876  70.904  1.00  0.00     0.000 HD 
BRANCH  11  13
HETATM   13  CA  UNL     1     -11.743   9.810  70.658  1.00  0.00    -0.300 C  
BRANCH  13  14
HETATM   14  C   UNL     1     -12.661   9.861  71.901  1.00  0.00    -0.381 C  
HETATM   15  H   UNL     1     -14.390   9.093  72.465  1.00  0.00     0.000 HD 
HETATM   16  O   UNL     1     -13.826   9.062  71.701  1.00  0.00    -0.390 OA 
ENDBRANCH  13  14
BRANCH  13  17
HETATM   17  C   UNL     1     -10.514   8.919  70.930  1.00  0.00    -0.299 C  
HETATM   18  C   UNL     1     -10.332   8.501  72.383  1.00  0.00    -0.372 C  
ENDBRANCH  13  17
ENDBRANCH  11  13
ENDBRANCH  10  11
ENDBRANCH   9  10
ENDBRANCH   7   9
ENDBRANCH   3   7
ENDBRANCH   2   3
TORSDOF 9
ENDMDL
MODEL      133
REMARK 921   NORMALIZED FREE ENERGY PREDICTED BY IDOCK:   -3.30 KCAL/MOL
REMARK 922        TOTAL FREE ENERGY PREDICTED BY IDOCK:   -5.44 KCAL/MOL
REMARK 923 INTER-LIGAND FREE ENERGY PREDICTED BY IDOCK:   -5.06 KCAL/MOL
REMARK 924 INTRA-LIGAND FREE ENERGY PREDICTED BY IDOCK:   -0.38 KCAL/MOL
REMARK 927      BINDING AFFINITY PREDICTED BY RF-SCORE:    0.00 PKD
ROOT
HETATM    1  C   UNL     1      -8.566  16.209  67.483  1.00  0.00    -0.189 C  
HETATM    2  C   UNL     1      -9.182  15.768  66.163  1.00  0.00    -0.385 C  
ENDROOT
BRANCH   2   3
HETATM    3  CA  UNL     1     -10.728  15.810  66.141  1.00  0.00    -0.290 C  
BRANCH   3   4
HETATM    4  C   UNL     1     -11.328  15.391  64.771  1.00  0.00    -0.376 C  
HETATM    5  H   UNL     1     -12.041  16.232  63.094  1.00  0.00     0.000 HD 
HETATM    6  O   UNL     1     -11.674  16.489  63.932  1.00  0.00    -1.148 OA 
ENDBRANCH   3   4
BRANCH   3   7
HETATM    7  N   UNL     1     -11.171  14.971  67.274  1.00  0.00    -0.335 NA 
HETATM    8  H   UNL     1     -11.595  15.544  68.003  1.00  0.00     0.000 HD 
BRANCH   7   9
HETATM    9  C   UNL     1     -12.073  13.880  66.878  1.00  0.00    -0.430 C  
BRANCH   9  10
HETATM   10  C   UNL     1     -11.903  12.669  67.821  1.00  0.00    -0.323 C  
BRANCH  10  11
HETATM   11  N   UNL     1     -10.484  12.295  67.955  1.00  0.00    -0.208 NA 
HETATM   12  H   UNL     1      -9.941  13.061  68.354  1.00  0.00     0.000 HD 
BRANCH  11  13
HETATM   13  CA  UNL     1     -10.289  11.044  68.730  1.00  0.00    -0.199 C  
BRANCH  13  14
HETATM   14  C   UNL     1      -9.615   9.989  67.822  1.00  0.00    -0.148 C  
HETATM   15  H   UNL     1     -10.128   8.318  66.905  1.00  0.00     0.000 HD 
HETATM   16  O   UNL     1     -10.542   8.966  67.463  1.00  0.00    -0.271 OA 
ENDBRANCH  13  14
BRANCH  13  17
HETATM   17  C   UNL     1     -11.578  10.472  69.355  1.00  0.00    -0.318 C  
HETATM   18  C   UNL     1     -11.483  10.149  70.840  1.00  0.00    -0.444 C  
ENDBRANCH  13  17
ENDBRANCH  11  13
ENDBRANCH  10  11
ENDBRANCH   9  10
ENDBRANCH   7   9
ENDBRANCH   3   7
ENDBRANCH   2   3
TORSDOF 9
ENDMDL
MODEL      134
REMARK 921   NORMALIZED FREE ENERGY PREDICTED BY IDOCK:   -3.25 KCAL/MOL
REMARK 922        TOTAL FREE ENERGY PREDICTED BY IDOCK:   -5.37 KCAL/MOL
REMARK 923 INTER-LIGAND FREE ENERGY PREDICTED BY IDOCK:   -4.81 KCAL/MOL
REMARK 924 INTRA-LIGAND FREE ENERGY PREDICTED BY IDOCK:   -0.56 KCAL/MOL
REMARK 927      BINDING AFFINITY PREDICTED BY RF-SCORE:    0.00 PKD
ROOT
HETATM    1  C   UNL     1     -10.513  16.965  69.061  1.00  0.00    -0.341 C  
HETATM    2  C   UNL     1     -11.529  15.891  69.424  1.00  0.00    -0.351 C  
ENDROOT
BRANCH   2   3
HETATM    3  CA  UNL     1     -11.395  15.354  70.868  1.00  0.00    -0.359 C  
BRANCH   3   4
HETATM    4  C   UNL     1     -12.459  15.940  71.836  1.00  0.00    -0.459 C  
HETATM    5  H   UNL     1     -12.565  16.845  73.624  1.00  0.00     0.000 HD 
HETATM    6  O   UNL     1     -11.913  16.487  73.033  1.00  0.00    -0.530 OA 
ENDBRANCH   3   4
BRANCH   3   7
HETATM    7  N   UNL     1     -11.430  13.882  70.756  1.00  0.00    -0.464 NA 
HETATM    8  H   UNL     1     -11.704  13.458  71.643  1.00  0.00     0.000 HD 
BRANCH   7   9
HETATM    9  C   UNL     1     -12.283  13.397  69.662  1.00  0.00    -0.221 C  
BRANCH   9  10
HETATM   10  C   UNL     1     -11.666  12.139  69.012  1.00  0.00    -0.322 C  
BRANCH  10  11
HETATM   11  N   UNL     1     -10.216  12.302  68.811  1.00  0.00    -0.390 NA 
HETATM   12  H   UNL     1      -9.691  11.644  69.387  1.00  0.00     0.000 HD 
BRANCH  11  13
HETATM   13  CA  UNL     1      -9.818  12.196  67.384  1.00  0.00    -0.189 C  
BRANCH  13  14
HETATM   14  C   UNL     1      -9.592  13.617  66.817  1.00  0.00    -0.275 C  
HETATM   15  H   UNL     1     -10.648  14.989  65.870  1.00  0.00     0.000 HD 
HETATM   16  O   UNL     1     -10.787  14.116  66.218  1.00  0.00    -0.295 OA 
ENDBRANCH  13  14
BRANCH  13  17
HETATM   17  C   UNL     1     -10.811  11.414  66.500  1.00  0.00    -0.334 C  
HETATM   18  C   UNL     1     -10.267  10.117  65.915  1.00  0.00    -0.281 C  
ENDBRANCH  13  17
ENDBRANCH  11  13
ENDBRANCH  10  11
ENDBRANCH   9  10
ENDBRANCH   7   9
ENDBRANCH   3   7
ENDBRANCH   2   3
TORSDOF 9
ENDMDL
MODEL      135
REMARK 921   NORMALIZED FREE ENERGY PREDICTED BY IDOCK:   -3.24 KCAL/MOL
REMARK 922        TOTAL FREE ENERGY PREDICTED BY IDOCK:   -5.36 KCAL/MOL
REMARK 923 INTER-LIGAND FREE ENERGY PREDICTED BY IDOCK:   -4.94 KCAL/MOL
REMARK 924 INTRA-LIGAND FREE ENERGY PREDICTED BY IDOCK:   -0.42 KCAL/MOL
REMARK 927      BINDING AFFINITY PREDICTED BY RF-SCORE:    0.00 PKD
ROOT
HETATM    1  C   UNL     1      -7.299  19.621  68.471  1.00  0.00    -0.371 C  
HETATM    2  C   UNL     1      -8.696  19.128  68.122  1.00  0.00    -0.360 C  
ENDROOT
BRANCH   2   3
HETATM    3  CA  UNL     1      -8.766  18.287  66.826  1.00  0.00    -0.272 C  
BRANCH   3   4
HETATM    4  C   UNL     1      -7.370  17.830  66.323  1.00  0.00    -0.299 C  
HETATM    5  H   UNL     1      -6.098  18.189  64.812  1.00  0.00     0.000 HD 
HETATM    6  O   UNL     1      -6.952  18.469  65.120  1.00  0.00    -0.516 OA 
ENDBRANCH   3   4
BRANCH   3   7
HETATM    7  N   UNL     1      -9.694  17.174  67.117  1.00  0.00    -0.254 NA 
HETATM    8  H   UNL     1      -9.938  16.674  66.262  1.00  0.00     0.000 HD 
BRANCH   7   9
HETATM    9  C   UNL     1      -9.192  16.244  68.138  1.00  0.00    -0.199 C  
BRANCH   9  10
HETATM   10  C   UNL     1      -9.587  14.792  67.787  1.00  0.00    -0.209 C  
BRANCH  10  11
HETATM   11  N   UNL     1      -9.945  14.032  68.997  1.00  0.00    -0.421 NA 
HETATM   12  H   UNL     1      -9.831  14.603  69.835  1.00  0.00     0.000 HD 
BRANCH  11  13
HETATM   13  CA  UNL     1     -11.310  13.452  68.930  1.00  0.00    -0.287 C  
BRANCH  13  14
HETATM   14  C   UNL     1     -11.905  13.726  67.529  1.00  0.00    -0.387 C  
HETATM   15  H   UNL     1     -12.499  12.673  65.969  1.00  0.00     0.000 HD 
HETATM   16  O   UNL     1     -12.133  12.504  66.830  1.00  0.00    -0.546 OA 
ENDBRANCH  13  14
BRANCH  13  17
HETATM   17  C   UNL     1     -12.270  13.948  70.031  1.00  0.00    -0.408 C  
HETATM   18  C   UNL     1     -12.153  15.429  70.366  1.00  0.00    -0.408 C  
ENDBRANCH  13  17
ENDBRANCH  11  13
ENDBRANCH  10  11
ENDBRANCH   9  10
ENDBRANCH   7   9
ENDBRANCH   3   7
ENDBRANCH   2   3
TORSDOF 9
ENDMDL
MODEL      136
REMARK 921   NORMALIZED FREE ENERGY PREDICTED BY IDOCK:   -3.23 KCAL/MOL
REMARK 922        TOTAL FREE ENERGY PREDICTED BY IDOCK:   -5.34 KCAL/MOL
REMARK 923 INTER-LIGAND FREE ENERGY PREDICTED BY IDOCK:   -4.92 KCAL/MOL
REMARK 924 INTRA-LIGAND FREE ENERGY PREDICTED BY IDOCK:   -0.42 KCAL/MOL
REMARK 927      BINDING AFFINITY PREDICTED BY RF-SCORE:    0.00 PKD
ROOT
HETATM    1  C   UNL     1     -11.016   8.555  72.042  1.00  0.00    -0.410 C  
HETATM    2  C   UNL     1     -11.178   9.177  70.662  1.00  0.00    -0.322 C  
ENDROOT
BRANCH   2   3
HETATM    3  CA  UNL     1      -9.854   9.663  70.027  1.00  0.00    -0.246 C  
BRANCH   3   4
HETATM    4  C   UNL     1      -9.386   8.776  68.842  1.00  0.00    -0.145 C  
HETATM    5  H   UNL     1     -10.060   7.265  67.705  1.00  0.00     0.000 HD 
HETATM    6  O   UNL     1     -10.346   7.807  68.431  1.00  0.00    -0.197 OA 
ENDBRANCH   3   4
BRANCH   3   7
HETATM    7  N   UNL     1     -10.075  11.079  69.668  1.00  0.00    -0.429 NA 
HETATM    8  H   UNL     1      -9.197  11.527  69.406  1.00  0.00     0.000 HD 
BRANCH   7   9
HETATM    9  C   UNL     1     -11.088  11.267  68.619  1.00  0.00    -0.232 C  
BRANCH   9  10
HETATM   10  C   UNL     1     -12.079  12.383  69.018  1.00  0.00    -0.136 C  
BRANCH  10  11
HETATM   11  N   UNL     1     -11.713  12.979  70.315  1.00  0.00    -0.542 NA 
HETATM   12  H   UNL     1     -10.701  12.986  70.441  1.00  0.00     0.000 HD 
BRANCH  11  13
HETATM   13  CA  UNL     1     -12.284  14.337  70.505  1.00  0.00    -0.356 C  
BRANCH  13  14
HETATM   14  C   UNL     1     -11.233  15.232  71.203  1.00  0.00    -0.330 C  
HETATM   15  H   UNL     1     -11.222  16.831  72.359  1.00  0.00     0.000 HD 
HETATM   16  O   UNL     1     -11.868  16.282  71.930  1.00  0.00    -0.496 OA 
ENDBRANCH  13  14
BRANCH  13  17
HETATM   17  C   UNL     1     -13.617  14.367  71.279  1.00  0.00    -0.389 C  
HETATM   18  C   UNL     1     -13.778  13.273  72.326  1.00  0.00    -0.686 C  
ENDBRANCH  13  17
ENDBRANCH  11  13
ENDBRANCH  10  11
ENDBRANCH   9  10
ENDBRANCH   7   9
ENDBRANCH   3   7
ENDBRANCH   2   3
TORSDOF 9
ENDMDL
MODEL      137
REMARK 921   NORMALIZED FREE ENERGY PREDICTED BY IDOCK:   -3.22 KCAL/MOL
REMARK 922        TOTAL FREE ENERGY PREDICTED BY IDOCK:   -5.32 KCAL/MOL
REMARK 923 INTER-LIGAND FREE ENERGY PREDICTED BY IDOCK:   -4.98 KCAL/MOL
REMARK 924 INTRA-LIGAND FREE ENERGY PREDICTED BY IDOCK:   -0.34 KCAL/MOL
REMARK 927      BINDING AFFINITY PREDICTED BY RF-SCORE:    0.00 PKD
ROOT
HETATM    1  C   UNL     1     -11.043   6.419  73.069  1.00  0.00    -0.231 C  
HETATM    2  C   UNL     1     -11.640   7.737  72.596  1.00  0.00    -0.398 C  
ENDROOT
BRANCH   2   3
HETATM    3  CA  UNL     1     -12.548   7.611  71.351  1.00  0.00    -0.333 C  
BRANCH   3   4
HETATM    4  C   UNL     1     -14.061   7.686  71.692  1.00  0.00    -0.434 C  
HETATM    5  H   UNL     1     -15.336   8.825  72.744  1.00  0.00     0.000 HD 
HETATM    6  O   UNL     1     -14.410   8.779  72.536  1.00  0.00    -0.562 OA 
ENDBRANCH   3   4
BRANCH   3   7
HETATM    7  N   UNL     1     -12.091   8.655  70.411  1.00  0.00    -0.454 NA 
HETATM    8  H   UNL     1     -12.819   8.873  69.731  1.00  0.00     0.000 HD 
BRANCH   7   9
HETATM    9  C   UNL     1     -11.619   9.878  71.076  1.00  0.00    -0.389 C  
BRANCH   9  10
HETATM   10  C   UNL     1     -12.244  11.127  70.419  1.00  0.00    -0.369 C  
BRANCH  10  11
HETATM   11  N   UNL     1     -11.203  12.064  69.961  1.00  0.00    -0.475 NA 
HETATM   12  H   UNL     1     -10.879  11.821  69.025  1.00  0.00     0.000 HD 
BRANCH  11  13
HETATM   13  CA  UNL     1     -11.639  13.483  70.022  1.00  0.00    -0.164 C  
BRANCH  13  14
HETATM   14  C   UNL     1     -12.485  13.696  71.299  1.00  0.00    -0.326 C  
HETATM   15  H   UNL     1     -14.028  14.794  71.854  1.00  0.00     0.000 HD 
HETATM   16  O   UNL     1     -13.508  14.663  71.070  1.00  0.00    -0.380 OA 
ENDBRANCH  13  14
BRANCH  13  17
HETATM   17  C   UNL     1     -12.409  13.968  68.777  1.00  0.00    -0.074 C  
HETATM   18  C   UNL     1     -11.636  13.882  67.468  1.00  0.00    -0.392 C  
ENDBRANCH  13  17
ENDBRANCH  11  13
ENDBRANCH  10  11
ENDBRANCH   9  10
ENDBRANCH   7   9
ENDBRANCH   3   7
ENDBRANCH   2   3
TORSDOF 9
ENDMDL
MODEL      138
REMARK 921   NORMALIZED FREE ENERGY PREDICTED BY IDOCK:   -3.22 KCAL/MOL
REMARK 922        TOTAL FREE ENERGY PREDICTED BY IDOCK:   -5.32 KCAL/MOL
REMARK 923 INTER-LIGAND FREE ENERGY PREDICTED BY IDOCK:   -4.78 KCAL/MOL
REMARK 924 INTRA-LIGAND FREE ENERGY PREDICTED BY IDOCK:   -0.54 KCAL/MOL
REMARK 927      BINDING AFFINITY PREDICTED BY RF-SCORE:    0.00 PKD
ROOT
HETATM    1  C   UNL     1     -11.100   7.660  72.914  1.00  0.00    -0.448 C  
HETATM    2  C   UNL     1     -11.706   7.222  71.588  1.00  0.00    -0.316 C  
ENDROOT
BRANCH   2   3
HETATM    3  CA  UNL     1     -10.666   6.955  70.474  1.00  0.00    -0.235 C  
BRANCH   3   4
HETATM    4  C   UNL     1     -10.553   5.453  70.097  1.00  0.00    -0.274 C  
HETATM    5  H   UNL     1      -9.728   4.291  68.683  1.00  0.00     0.000 HD 
HETATM    6  O   UNL     1      -9.797   5.210  68.914  1.00  0.00    -0.147 OA 
ENDBRANCH   3   4
BRANCH   3   7
HETATM    7  N   UNL     1     -11.048   7.831  69.348  1.00  0.00    -0.446 NA 
HETATM    8  H   UNL     1     -11.857   8.403  69.593  1.00  0.00     0.000 HD 
BRANCH   7   9
HETATM    9  C   UNL     1      -9.946   8.673  68.860  1.00  0.00    -0.189 C  
BRANCH   9  10
HETATM   10  C   UNL     1     -10.416  10.135  68.693  1.00  0.00    -0.202 C  
BRANCH  10  11
HETATM   11  N   UNL     1     -11.886  10.220  68.657  1.00  0.00    -0.682 NA 
HETATM   12  H   UNL     1     -12.309   9.464  69.197  1.00  0.00     0.000 HD 
BRANCH  11  13
HETATM   13  CA  UNL     1     -12.397  11.542  69.101  1.00  0.00    -0.004 C  
BRANCH  13  14
HETATM   14  C   UNL     1     -11.698  12.652  68.282  1.00  0.00    -0.342 C  
HETATM   15  H   UNL     1     -11.745  13.346  66.435  1.00  0.00     0.000 HD 
HETATM   16  O   UNL     1     -12.175  12.663  66.938  1.00  0.00    -0.489 OA 
ENDBRANCH  13  14
BRANCH  13  17
HETATM   17  C   UNL     1     -12.248  11.810  70.612  1.00  0.00    -0.443 C  
HETATM   18  C   UNL     1     -12.923  10.788  71.516  1.00  0.00    -0.562 C  
ENDBRANCH  13  17
ENDBRANCH  11  13
ENDBRANCH  10  11
ENDBRANCH   9  10
ENDBRANCH   7   9
ENDBRANCH   3   7
ENDBRANCH   2   3
TORSDOF 9
ENDMDL
MODEL      139
REMARK 921   NORMALIZED FREE ENERGY PREDICTED BY IDOCK:   -3.22 KCAL/MOL
REMARK 922        TOTAL FREE ENERGY PREDICTED BY IDOCK:   -5.32 KCAL/MOL
REMARK 923 INTER-LIGAND FREE ENERGY PREDICTED BY IDOCK:   -5.07 KCAL/MOL
REMARK 924 INTRA-LIGAND FREE ENERGY PREDICTED BY IDOCK:   -0.25 KCAL/MOL
REMARK 927      BINDING AFFINITY PREDICTED BY RF-SCORE:    0.00 PKD
ROOT
HETATM    1  C   UNL     1     -10.583  10.044  67.847  1.00  0.00    -0.298 C  
HETATM    2  C   UNL     1     -10.213  11.008  68.967  1.00  0.00    -0.217 C  
ENDROOT
BRANCH   2   3
HETATM    3  CA  UNL     1     -11.246  12.134  69.199  1.00  0.00    -0.244 C  
BRANCH   3   4
HETATM    4  C   UNL     1     -12.138  11.893  70.448  1.00  0.00    -0.333 C  
HETATM    5  H   UNL     1     -12.458  10.491  71.849  1.00  0.00     0.000 HD 
HETATM    6  O   UNL     1     -11.913  10.639  71.085  1.00  0.00    -0.342 OA 
ENDBRANCH   3   4
BRANCH   3   7
HETATM    7  N   UNL     1     -10.470  13.390  69.249  1.00  0.00    -0.438 NA 
HETATM    8  H   UNL     1      -9.758  13.404  68.518  1.00  0.00     0.000 HD 
BRANCH   7   9
HETATM    9  C   UNL     1     -11.303  14.599  69.184  1.00  0.00    -0.281 C  
BRANCH   9  10
HETATM   10  C   UNL     1     -11.278  15.198  67.761  1.00  0.00    -0.323 C  
BRANCH  10  11
HETATM   11  N   UNL     1     -10.726  16.564  67.770  1.00  0.00    -0.337 NA 
HETATM   12  H   UNL     1     -10.016  16.666  68.495  1.00  0.00     0.000 HD 
BRANCH  11  13
HETATM   13  CA  UNL     1     -10.197  16.979  66.445  1.00  0.00    -0.326 C  
BRANCH  13  14
HETATM   14  C   UNL     1      -8.726  16.520  66.324  1.00  0.00    -0.333 C  
HETATM   15  H   UNL     1      -7.021  17.261  65.659  1.00  0.00     0.000 HD 
HETATM   16  O   UNL     1      -7.926  17.543  65.733  1.00  0.00    -0.548 OA 
ENDBRANCH  13  14
BRANCH  13  17
HETATM   17  C   UNL     1     -10.317  18.488  66.154  1.00  0.00    -0.457 C  
HETATM   18  C   UNL     1     -10.662  19.351  67.361  1.00  0.00    -0.594 C  
ENDBRANCH  13  17
ENDBRANCH  11  13
ENDBRANCH  10  11
ENDBRANCH   9  10
ENDBRANCH   7   9
ENDBRANCH   3   7
ENDBRANCH   2   3
TORSDOF 9
ENDMDL
MODEL      140
REMARK 921   NORMALIZED FREE ENERGY PREDICTED BY IDOCK:   -3.21 KCAL/MOL
REMARK 922        TOTAL FREE ENERGY PREDICTED BY IDOCK:   -5.31 KCAL/MOL
REMARK 923 INTER-LIGAND FREE ENERGY PREDICTED BY IDOCK:   -4.77 KCAL/MOL
REMARK 924 INTRA-LIGAND FREE ENERGY PREDICTED BY IDOCK:   -0.54 KCAL/MOL
REMARK 927      BINDING AFFINITY PREDICTED BY RF-SCORE:    0.00 PKD
ROOT
HETATM    1  C   UNL     1     -11.128  14.885  69.848  1.00  0.00    -0.288 C  
HETATM    2  C   UNL     1     -11.723  15.869  68.851  1.00  0.00    -0.376 C  
ENDROOT
BRANCH   2   3
HETATM    3  CA  UNL     1     -10.673  16.675  68.052  1.00  0.00    -0.350 C  
BRANCH   3   4
HETATM    4  C   UNL     1     -10.223  17.973  68.776  1.00  0.00    -0.354 C  
HETATM    5  H   UNL     1      -8.624  19.181  68.896  1.00  0.00     0.000 HD 
HETATM    6  O   UNL     1      -8.899  18.386  68.453  1.00  0.00    -0.306 OA 
ENDBRANCH   3   4
BRANCH   3   7
HETATM    7  N   UNL     1      -9.571  15.732  67.769  1.00  0.00    -0.213 NA 
HETATM    8  H   UNL     1      -9.756  14.823  68.193  1.00  0.00     0.000 HD 
BRANCH   7   9
HETATM    9  C   UNL     1      -9.277  15.586  66.336  1.00  0.00    -0.305 C  
BRANCH   9  10
HETATM   10  C   UNL     1      -9.311  14.098  65.926  1.00  0.00    -0.001 C  
BRANCH  10  11
HETATM   11  N   UNL     1     -10.383  13.840  64.950  1.00  0.00    -0.480 NA 
HETATM   12  H   UNL     1     -10.038  13.936  63.995  1.00  0.00     0.000 HD 
BRANCH  11  13
HETATM   13  CA  UNL     1     -11.039  12.523  65.150  1.00  0.00    -0.299 C  
BRANCH  13  14
HETATM   14  C   UNL     1     -12.572  12.707  65.076  1.00  0.00    -0.430 C  
HETATM   15  H   UNL     1     -13.859  14.203  65.074  1.00  0.00     0.000 HD 
HETATM   16  O   UNL     1     -12.917  14.091  65.120  1.00  0.00    -0.744 OA 
ENDBRANCH  13  14
BRANCH  13  17
HETATM   17  C   UNL     1     -10.644  11.804  66.456  1.00  0.00    -0.289 C  
HETATM   18  C   UNL     1     -11.687  11.866  67.564  1.00  0.00    -0.335 C  
ENDBRANCH  13  17
ENDBRANCH  11  13
ENDBRANCH  10  11
ENDBRANCH   9  10
ENDBRANCH   7   9
ENDBRANCH   3   7
ENDBRANCH   2   3
TORSDOF 9
ENDMDL
MODEL      141
REMARK 921   NORMALIZED FREE ENERGY PREDICTED BY IDOCK:   -3.21 KCAL/MOL
REMARK 922        TOTAL FREE ENERGY PREDICTED BY IDOCK:   -5.31 KCAL/MOL
REMARK 923 INTER-LIGAND FREE ENERGY PREDICTED BY IDOCK:   -4.99 KCAL/MOL
REMARK 924 INTRA-LIGAND FREE ENERGY PREDICTED BY IDOCK:   -0.32 KCAL/MOL
REMARK 927      BINDING AFFINITY PREDICTED BY RF-SCORE:    0.00 PKD
ROOT
HETATM    1  C   UNL     1      -6.996  19.962  65.826  1.00  0.00    -0.317 C  
HETATM    2  C   UNL     1      -6.678  18.476  65.926  1.00  0.00    -0.310 C  
ENDROOT
BRANCH   2   3
HETATM    3  CA  UNL     1      -7.848  17.612  66.453  1.00  0.00    -0.283 C  
BRANCH   3   4
HETATM    4  C   UNL     1      -7.756  17.332  67.978  1.00  0.00    -0.202 C  
HETATM    5  H   UNL     1      -7.751  18.333  69.718  1.00  0.00     0.000 HD 
HETATM    6  O   UNL     1      -7.806  18.505  68.785  1.00  0.00    -0.312 OA 
ENDBRANCH   3   4
BRANCH   3   7
HETATM    7  N   UNL     1      -9.083  18.312  66.043  1.00  0.00    -0.513 NA 
HETATM    8  H   UNL     1      -9.041  18.572  65.058  1.00  0.00     0.000 HD 
BRANCH   7   9
HETATM    9  C   UNL     1     -10.309  17.554  66.329  1.00  0.00    -0.335 C  
BRANCH   9  10
HETATM   10  C   UNL     1     -10.281  16.188  65.608  1.00  0.00    -0.364 C  
BRANCH  10  11
HETATM   11  N   UNL     1     -10.781  15.115  66.484  1.00  0.00    -0.305 NA 
HETATM   12  H   UNL     1     -11.255  15.501  67.301  1.00  0.00     0.000 HD 
BRANCH  11  13
HETATM   13  CA  UNL     1     -11.653  14.149  65.769  1.00  0.00    -0.343 C  
BRANCH  13  14
HETATM   14  C   UNL     1     -11.907  12.927  66.682  1.00  0.00    -0.395 C  
HETATM   15  H   UNL     1     -12.146  12.578  68.610  1.00  0.00     0.000 HD 
HETATM   16  O   UNL     1     -11.990  13.328  68.049  1.00  0.00    -0.350 OA 
ENDBRANCH  13  14
BRANCH  13  17
HETATM   17  C   UNL     1     -11.114  13.694  64.397  1.00  0.00    -0.378 C  
HETATM   18  C   UNL     1     -12.159  13.109  63.457  1.00  0.00    -0.585 C  
ENDBRANCH  13  17
ENDBRANCH  11  13
ENDBRANCH  10  11
ENDBRANCH   9  10
ENDBRANCH   7   9
ENDBRANCH   3   7
ENDBRANCH   2   3
TORSDOF 9
ENDMDL
MODEL      142
REMARK 921   NORMALIZED FREE ENERGY PREDICTED BY IDOCK:   -3.21 KCAL/MOL
REMARK 922        TOTAL FREE ENERGY PREDICTED BY IDOCK:   -5.31 KCAL/MOL
REMARK 923 INTER-LIGAND FREE ENERGY PREDICTED BY IDOCK:   -5.05 KCAL/MOL
REMARK 924 INTRA-LIGAND FREE ENERGY PREDICTED BY IDOCK:   -0.27 KCAL/MOL
REMARK 927      BINDING AFFINITY PREDICTED BY RF-SCORE:    0.00 PKD
ROOT
HETATM    1  C   UNL     1      -8.283   7.174  68.378  1.00  0.00    -0.125 C  
HETATM    2  C   UNL     1      -9.144   8.354  67.951  1.00  0.00    -0.137 C  
ENDROOT
BRANCH   2   3
HETATM    3  CA  UNL     1     -10.629   8.238  68.367  1.00  0.00    -0.099 C  
BRANCH   3   4
HETATM    4  C   UNL     1     -10.826   7.498  69.718  1.00  0.00    -0.225 C  
HETATM    5  H   UNL     1     -11.812   5.917  70.465  1.00  0.00     0.000 HD 
HETATM    6  O   UNL     1     -11.692   6.370  69.639  1.00  0.00    -0.389 OA 
ENDBRANCH   3   4
BRANCH   3   7
HETATM    7  N   UNL     1     -11.161   9.616  68.353  1.00  0.00    -0.481 NA 
HETATM    8  H   UNL     1     -10.906  10.110  69.208  1.00  0.00     0.000 HD 
BRANCH   7   9
HETATM    9  C   UNL     1     -10.760  10.388  67.168  1.00  0.00    -0.256 C  
BRANCH   9  10
HETATM   10  C   UNL     1     -11.235  11.852  67.290  1.00  0.00    -0.317 C  
BRANCH  10  11
HETATM   11  N   UNL     1     -12.117  12.220  66.170  1.00  0.00    -0.627 NA 
HETATM   12  H   UNL     1     -13.013  11.736  66.236  1.00  0.00     0.000 HD 
BRANCH  11  13
HETATM   13  CA  UNL     1     -12.312  13.688  66.050  1.00  0.00    -0.445 C  
BRANCH  13  14
HETATM   14  C   UNL     1     -11.593  14.189  64.776  1.00  0.00    -0.396 C  
HETATM   15  H   UNL     1     -12.083  15.081  63.085  1.00  0.00     0.000 HD 
HETATM   16  O   UNL     1     -12.525  14.773  63.867  1.00  0.00    -0.811 OA 
ENDBRANCH  13  14
BRANCH  13  17
HETATM   17  C   UNL     1     -11.855  14.496  67.281  1.00  0.00    -0.419 C  
HETATM   18  C   UNL     1     -10.733  15.490  67.017  1.00  0.00    -0.321 C  
ENDBRANCH  13  17
ENDBRANCH  11  13
ENDBRANCH  10  11
ENDBRANCH   9  10
ENDBRANCH   7   9
ENDBRANCH   3   7
ENDBRANCH   2   3
TORSDOF 9
ENDMDL
MODEL      143
REMARK 921   NORMALIZED FREE ENERGY PREDICTED BY IDOCK:   -3.20 KCAL/MOL
REMARK 922        TOTAL FREE ENERGY PREDICTED BY IDOCK:   -5.30 KCAL/MOL
REMARK 923 INTER-LIGAND FREE ENERGY PREDICTED BY IDOCK:   -4.96 KCAL/MOL
REMARK 924 INTRA-LIGAND FREE ENERGY PREDICTED BY IDOCK:   -0.34 KCAL/MOL
REMARK 927      BINDING AFFINITY PREDICTED BY RF-SCORE:    0.00 PKD
ROOT
HETATM    1  C   UNL     1     -14.165   7.838  71.459  1.00  0.00    -0.540 C  
HETATM    2  C   UNL     1     -13.022   6.858  71.686  1.00  0.00    -0.359 C  
ENDROOT
BRANCH   2   3
HETATM    3  CA  UNL     1     -11.662   7.331  71.121  1.00  0.00    -0.303 C  
BRANCH   3   4
HETATM    4  C   UNL     1     -11.320   6.692  69.748  1.00  0.00    -0.354 C  
HETATM    5  H   UNL     1     -10.520   5.008  69.003  1.00  0.00     0.000 HD 
HETATM    6  O   UNL     1     -10.729   5.399  69.843  1.00  0.00    -0.316 OA 
ENDBRANCH   3   4
BRANCH   3   7
HETATM    7  N   UNL     1     -11.725   8.807  71.099  1.00  0.00    -0.284 NA 
HETATM    8  H   UNL     1     -11.297   9.199  71.938  1.00  0.00     0.000 HD 
BRANCH   7   9
HETATM    9  C   UNL     1     -11.139   9.401  69.890  1.00  0.00    -0.200 C  
BRANCH   9  10
HETATM   10  C   UNL     1     -11.793  10.767  69.587  1.00  0.00    -0.320 C  
BRANCH  10  11
HETATM   11  N   UNL     1     -12.039  10.930  68.144  1.00  0.00    -0.790 NA 
HETATM   12  H   UNL     1     -12.827  11.555  67.976  1.00  0.00     0.000 HD 
BRANCH  11  13
HETATM   13  CA  UNL     1     -10.834  11.380  67.402  1.00  0.00    -0.254 C  
BRANCH  13  14
HETATM   14  C   UNL     1     -10.216  12.594  68.133  1.00  0.00    -0.240 C  
HETATM   15  H   UNL     1      -8.523  13.608  68.095  1.00  0.00     0.000 HD 
HETATM   16  O   UNL     1      -8.902  12.861  67.646  1.00  0.00    -0.166 OA 
ENDBRANCH  13  14
BRANCH  13  17
HETATM   17  C   UNL     1     -11.086  11.716  65.917  1.00  0.00    -0.320 C  
HETATM   18  C   UNL     1     -12.086  12.838  65.673  1.00  0.00    -0.514 C  
ENDBRANCH  13  17
ENDBRANCH  11  13
ENDBRANCH  10  11
ENDBRANCH   9  10
ENDBRANCH   7   9
ENDBRANCH   3   7
ENDBRANCH   2   3
TORSDOF 9
ENDMDL
MODEL      144
REMARK 921   NORMALIZED FREE ENERGY PREDICTED BY IDOCK:   -3.20 KCAL/MOL
REMARK 922        TOTAL FREE ENERGY PREDICTED BY IDOCK:   -5.30 KCAL/MOL
REMARK 923 INTER-LIGAND FREE ENERGY PREDICTED BY IDOCK:   -4.91 KCAL/MOL
REMARK 924 INTRA-LIGAND FREE ENERGY PREDICTED BY IDOCK:   -0.39 KCAL/MOL
REMARK 927      BINDING AFFINITY PREDICTED BY RF-SCORE:    0.00 PKD
ROOT
HETATM    1  C   UNL     1     -10.904  10.976  69.031  1.00  0.00    -0.274 C  
HETATM    2  C   UNL     1     -11.008  10.391  67.629  1.00  0.00    -0.374 C  
ENDROOT
BRANCH   2   3
HETATM    3  CA  UNL     1      -9.648  10.013  66.998  1.00  0.00    -0.172 C  
BRANCH   3   4
HETATM    4  C   UNL     1      -9.619   8.564  66.438  1.00  0.00    -0.245 C  
HETATM    5  H   UNL     1     -10.665   6.855  66.568  1.00  0.00     0.000 HD 
HETATM    6  O   UNL     1     -10.682   7.741  66.911  1.00  0.00    -0.345 OA 
ENDBRANCH   3   4
BRANCH   3   7
HETATM    7  N   UNL     1      -9.369  11.053  65.987  1.00  0.00    -0.194 NA 
HETATM    8  H   UNL     1      -8.430  10.943  65.604  1.00  0.00     0.000 HD 
BRANCH   7   9
HETATM    9  C   UNL     1     -10.366  11.106  64.908  1.00  0.00    -0.313 C  
BRANCH   9  10
HETATM   10  C   UNL     1     -10.771  12.568  64.618  1.00  0.00    -0.311 C  
BRANCH  10  11
HETATM   11  N   UNL     1     -10.790  13.370  65.854  1.00  0.00    -0.273 NA 
HETATM   12  H   UNL     1      -9.862  13.416  66.274  1.00  0.00     0.000 HD 
BRANCH  11  13
HETATM   13  CA  UNL     1     -11.350  14.730  65.648  1.00  0.00    -0.343 C  
BRANCH  13  14
HETATM   14  C   UNL     1     -12.272  14.713  64.407  1.00  0.00    -0.452 C  
HETATM   15  H   UNL     1     -12.851  15.980  63.008  1.00  0.00     0.000 HD 
HETATM   16  O   UNL     1     -12.285  15.991  63.771  1.00  0.00    -0.895 OA 
ENDBRANCH  13  14
BRANCH  13  17
HETATM   17  C   UNL     1     -10.291  15.844  65.519  1.00  0.00    -0.425 C  
HETATM   18  C   UNL     1     -10.132  16.725  66.751  1.00  0.00    -0.295 C  
ENDBRANCH  13  17
ENDBRANCH  11  13
ENDBRANCH  10  11
ENDBRANCH   9  10
ENDBRANCH   7   9
ENDBRANCH   3   7
ENDBRANCH   2   3
TORSDOF 9
ENDMDL
MODEL      145
REMARK 921   NORMALIZED FREE ENERGY PREDICTED BY IDOCK:   -3.20 KCAL/MOL
REMARK 922        TOTAL FREE ENERGY PREDICTED BY IDOCK:   -5.29 KCAL/MOL
REMARK 923 INTER-LIGAND FREE ENERGY PREDICTED BY IDOCK:   -4.90 KCAL/MOL
REMARK 924 INTRA-LIGAND FREE ENERGY PREDICTED BY IDOCK:   -0.39 KCAL/MOL
REMARK 927      BINDING AFFINITY PREDICTED BY RF-SCORE:    0.00 PKD
ROOT
HETATM    1  C   UNL     1     -10.949   9.053  71.583  1.00  0.00    -0.435 C  
HETATM    2  C   UNL     1     -11.538  10.229  70.816  1.00  0.00    -0.446 C  
ENDROOT
BRANCH   2   3
HETATM    3  CA  UNL     1     -10.980  10.394  69.383  1.00  0.00    -0.251 C  
BRANCH   3   4
HETATM    4  C   UNL     1     -10.375   9.082  68.812  1.00  0.00    -0.215 C  
HETATM    5  H   UNL     1     -10.367   8.018  67.110  1.00  0.00     0.000 HD 
HETATM    6  O   UNL     1     -10.737   8.820  67.459  1.00  0.00    -0.253 OA 
ENDBRANCH   3   4
BRANCH   3   7
HETATM    7  N   UNL     1     -12.090  10.944  68.579  1.00  0.00    -0.812 NA 
HETATM    8  H   UNL     1     -12.939  11.019  69.139  1.00  0.00     0.000 HD 
BRANCH   7   9
HETATM    9  C   UNL     1     -11.772  12.231  67.943  1.00  0.00    -0.347 C  
BRANCH   9  10
HETATM   10  C   UNL     1     -10.480  12.826  68.544  1.00  0.00    -0.238 C  
BRANCH  10  11
HETATM   11  N   UNL     1     -10.006  13.974  67.752  1.00  0.00    -0.232 NA 
HETATM   12  H   UNL     1      -9.529  13.663  66.906  1.00  0.00     0.000 HD 
BRANCH  11  13
HETATM   13  CA  UNL     1     -11.089  14.937  67.429  1.00  0.00    -0.325 C  
BRANCH  13  14
HETATM   14  C   UNL     1     -10.691  15.740  66.170  1.00  0.00    -0.290 C  
HETATM   15  H   UNL     1      -9.132  15.880  64.967  1.00  0.00     0.000 HD 
HETATM   16  O   UNL     1      -9.376  15.387  65.741  1.00  0.00    -0.325 OA 
ENDBRANCH  13  14
BRANCH  13  17
HETATM   17  C   UNL     1     -11.461  15.891  68.582  1.00  0.00    -0.391 C  
HETATM   18  C   UNL     1     -10.557  17.108  68.727  1.00  0.00    -0.336 C  
ENDBRANCH  13  17
ENDBRANCH  11  13
ENDBRANCH  10  11
ENDBRANCH   9  10
ENDBRANCH   7   9
ENDBRANCH   3   7
ENDBRANCH   2   3
TORSDOF 9
ENDMDL
MODEL      146
REMARK 921   NORMALIZED FREE ENERGY PREDICTED BY IDOCK:   -3.19 KCAL/MOL
REMARK 922        TOTAL FREE ENERGY PREDICTED BY IDOCK:   -5.28 KCAL/MOL
REMARK 923 INTER-LIGAND FREE ENERGY PREDICTED BY IDOCK:   -4.82 KCAL/MOL
REMARK 924 INTRA-LIGAND FREE ENERGY PREDICTED BY IDOCK:   -0.47 KCAL/MOL
REMARK 927      BINDING AFFINITY PREDICTED BY RF-SCORE:    0.00 PKD
ROOT
HETATM    1  C   UNL     1     -12.761  15.477  70.585  1.00  0.00    -0.487 C  
HETATM    2  C   UNL     1     -11.408  15.827  69.981  1.00  0.00    -0.354 C  
ENDROOT
BRANCH   2   3
HETATM    3  CA  UNL     1     -11.113  15.123  68.636  1.00  0.00    -0.271 C  
BRANCH   3   4
HETATM    4  C   UNL     1     -10.779  16.116  67.491  1.00  0.00    -0.304 C  
HETATM    5  H   UNL     1     -10.629  18.093  67.177  1.00  0.00     0.000 HD 
HETATM    6  O   UNL     1     -10.834  17.486  67.879  1.00  0.00    -0.374 OA 
ENDBRANCH   3   4
BRANCH   3   7
HETATM    7  N   UNL     1     -10.041  14.147  68.919  1.00  0.00    -0.358 NA 
HETATM    8  H   UNL     1     -10.418  13.200  68.971  1.00  0.00     0.000 HD 
BRANCH   7   9
HETATM    9  C   UNL     1      -8.925  14.209  67.965  1.00  0.00    -0.183 C  
BRANCH   9  10
HETATM   10  C   UNL     1      -8.830  12.896  67.158  1.00  0.00    -0.210 C  
BRANCH  10  11
HETATM   11  N   UNL     1      -9.533  13.013  65.869  1.00  0.00    -0.464 NA 
HETATM   12  H   UNL     1      -8.913  12.783  65.092  1.00  0.00     0.000 HD 
BRANCH  11  13
HETATM   13  CA  UNL     1     -10.776  12.201  65.816  1.00  0.00    -0.267 C  
BRANCH  13  14
HETATM   14  C   UNL     1     -10.479  10.873  65.080  1.00  0.00    -0.261 C  
HETATM   15  H   UNL     1      -9.047  10.128  63.945  1.00  0.00     0.000 HD 
HETATM   16  O   UNL     1      -9.229  10.944  64.397  1.00  0.00    -0.207 OA 
ENDBRANCH  13  14
BRANCH  13  17
HETATM   17  C   UNL     1     -11.980  12.917  65.172  1.00  0.00    -0.452 C  
HETATM   18  C   UNL     1     -12.365  12.410  63.788  1.00  0.00    -0.625 C  
ENDBRANCH  13  17
ENDBRANCH  11  13
ENDBRANCH  10  11
ENDBRANCH   9  10
ENDBRANCH   7   9
ENDBRANCH   3   7
ENDBRANCH   2   3
TORSDOF 9
ENDMDL
MODEL      147
REMARK 921   NORMALIZED FREE ENERGY PREDICTED BY IDOCK:   -3.19 KCAL/MOL
REMARK 922        TOTAL FREE ENERGY PREDICTED BY IDOCK:   -5.28 KCAL/MOL
REMARK 923 INTER-LIGAND FREE ENERGY PREDICTED BY IDOCK:   -4.80 KCAL/MOL
REMARK 924 INTRA-LIGAND FREE ENERGY PREDICTED BY IDOCK:   -0.48 KCAL/MOL
REMARK 927      BINDING AFFINITY PREDICTED BY RF-SCORE:    0.00 PKD
ROOT
HETATM    1  C   UNL     1      -9.914  10.194  65.460  1.00  0.00    -0.363 C  
HETATM    2  C   UNL     1     -10.782  11.032  66.388  1.00  0.00    -0.286 C  
ENDROOT
BRANCH   2   3
HETATM    3  CA  UNL     1     -10.857  10.498  67.837  1.00  0.00    -0.282 C  
BRANCH   3   4
HETATM    4  C   UNL     1      -9.609  10.865  68.685  1.00  0.00    -0.190 C  
HETATM    5  H   UNL     1      -8.209  12.299  68.803  1.00  0.00     0.000 HD 
HETATM    6  O   UNL     1      -8.973  12.075  68.284  1.00  0.00    -0.184 OA 
ENDBRANCH   3   4
BRANCH   3   7
HETATM    7  N   UNL     1     -12.130  11.008  68.389  1.00  0.00    -0.786 NA 
HETATM    8  H   UNL     1     -12.917  10.453  68.052  1.00  0.00     0.000 HD 
BRANCH   7   9
HETATM    9  C   UNL     1     -12.142  11.090  69.856  1.00  0.00    -0.361 C  
BRANCH   9  10
HETATM   10  C   UNL     1     -12.200  12.564  70.314  1.00  0.00    -0.267 C  
BRANCH  10  11
HETATM   11  N   UNL     1     -12.179  13.480  69.160  1.00  0.00    -0.269 NA 
HETATM   12  H   UNL     1     -13.108  13.573  68.751  1.00  0.00     0.000 HD 
BRANCH  11  13
HETATM   13  CA  UNL     1     -11.607  14.810  69.492  1.00  0.00    -0.304 C  
BRANCH  13  14
HETATM   14  C   UNL     1     -12.503  15.493  70.551  1.00  0.00    -0.427 C  
HETATM   15  H   UNL     1     -12.296  16.248  72.363  1.00  0.00     0.000 HD 
HETATM   16  O   UNL     1     -11.746  15.828  71.713  1.00  0.00    -0.393 OA 
ENDBRANCH  13  14
BRANCH  13  17
HETATM   17  C   UNL     1     -11.402  15.739  68.278  1.00  0.00    -0.354 C  
HETATM   18  C   UNL     1     -11.147  15.024  66.958  1.00  0.00    -0.334 C  
ENDBRANCH  13  17
ENDBRANCH  11  13
ENDBRANCH  10  11
ENDBRANCH   9  10
ENDBRANCH   7   9
ENDBRANCH   3   7
ENDBRANCH   2   3
TORSDOF 9
ENDMDL
MODEL      148
REMARK 921   NORMALIZED FREE ENERGY PREDICTED BY IDOCK:   -3.19 KCAL/MOL
REMARK 922        TOTAL FREE ENERGY PREDICTED BY IDOCK:   -5.28 KCAL/MOL
REMARK 923 INTER-LIGAND FREE ENERGY PREDICTED BY IDOCK:   -4.91 KCAL/MOL
REMARK 924 INTRA-LIGAND FREE ENERGY PREDICTED BY IDOCK:   -0.37 KCAL/MOL
REMARK 927      BINDING AFFINITY PREDICTED BY RF-SCORE:    0.00 PKD
ROOT
HETATM    1  C   UNL     1     -12.266  11.962  63.595  1.00  0.00    -0.586 C  
HETATM    2  C   UNL     1     -11.083  12.489  64.395  1.00  0.00    -0.383 C  
ENDROOT
BRANCH   2   3
HETATM    3  CA  UNL     1     -10.923  14.026  64.351  1.00  0.00    -0.265 C  
BRANCH   3   4
HETATM    4  C   UNL     1     -12.263  14.783  64.564  1.00  0.00    -0.428 C  
HETATM    5  H   UNL     1     -13.201  16.438  63.925  1.00  0.00     0.000 HD 
HETATM    6  O   UNL     1     -12.382  15.976  63.794  1.00  0.00    -0.858 OA 
ENDBRANCH   3   4
BRANCH   3   7
HETATM    7  N   UNL     1      -9.883  14.353  65.348  1.00  0.00    -0.541 NA 
HETATM    8  H   UNL     1      -8.952  14.192  64.964  1.00  0.00     0.000 HD 
BRANCH   7   9
HETATM    9  C   UNL     1      -9.994  15.715  65.888  1.00  0.00    -0.351 C  
BRANCH   9  10
HETATM   10  C   UNL     1      -8.602  16.256  66.281  1.00  0.00    -0.339 C  
BRANCH  10  11
HETATM   11  N   UNL     1      -7.727  15.172  66.761  1.00  0.00    -0.269 NA 
HETATM   12  H   UNL     1      -6.761  15.329  66.475  1.00  0.00     0.000 HD 
BRANCH  11  13
HETATM   13  CA  UNL     1      -7.820  14.966  68.229  1.00  0.00    -0.122 C  
BRANCH  13  14
HETATM   14  C   UNL     1      -8.256  13.508  68.506  1.00  0.00    -0.104 C  
HETATM   15  H   UNL     1      -8.722  11.904  67.453  1.00  0.00     0.000 HD 
HETATM   16  O   UNL     1      -8.454  12.800  67.283  1.00  0.00    -0.179 OA 
ENDBRANCH  13  14
BRANCH  13  17
HETATM   17  C   UNL     1      -8.754  15.955  68.956  1.00  0.00    -0.236 C  
HETATM   18  C   UNL     1     -10.019  15.336  69.537  1.00  0.00    -0.247 C  
ENDBRANCH  13  17
ENDBRANCH  11  13
ENDBRANCH  10  11
ENDBRANCH   9  10
ENDBRANCH   7   9
ENDBRANCH   3   7
ENDBRANCH   2   3
TORSDOF 9
ENDMDL
MODEL      149
REMARK 921   NORMALIZED FREE ENERGY PREDICTED BY IDOCK:   -3.18 KCAL/MOL
REMARK 922        TOTAL FREE ENERGY PREDICTED BY IDOCK:   -5.26 KCAL/MOL
REMARK 923 INTER-LIGAND FREE ENERGY PREDICTED BY IDOCK:   -4.87 KCAL/MOL
REMARK 924 INTRA-LIGAND FREE ENERGY PREDICTED BY IDOCK:   -0.39 KCAL/MOL
REMARK 927      BINDING AFFINITY PREDICTED BY RF-SCORE:    0.00 PKD
ROOT
HETATM    1  C   UNL     1     -13.335  14.245  71.399  1.00  0.00    -0.411 C  
HETATM    2  C   UNL     1     -12.509  13.611  70.288  1.00  0.00    -0.335 C  
ENDROOT
BRANCH   2   3
HETATM    3  CA  UNL     1     -11.949  12.212  70.636  1.00  0.00    -0.137 C  
BRANCH   3   4
HETATM    4  C   UNL     1     -13.049  11.119  70.712  1.00  0.00     0.002 C  
HETATM    5  H   UNL     1     -13.549   9.529  71.831  1.00  0.00     0.000 HD 
HETATM    6  O   UNL     1     -12.875  10.198  71.785  1.00  0.00    -0.397 OA 
ENDBRANCH   3   4
BRANCH   3   7
HETATM    7  N   UNL     1     -10.897  11.938  69.635  1.00  0.00    -0.450 NA 
HETATM    8  H   UNL     1     -10.248  11.231  69.978  1.00  0.00     0.000 HD 
BRANCH   7   9
HETATM    9  C   UNL     1     -11.426  11.563  68.316  1.00  0.00    -0.299 C  
BRANCH   9  10
HETATM   10  C   UNL     1     -10.552  12.162  67.192  1.00  0.00    -0.226 C  
BRANCH  10  11
HETATM   11  N   UNL     1     -11.344  12.401  65.974  1.00  0.00    -0.335 NA 
HETATM   12  H   UNL     1     -12.075  11.697  65.869  1.00  0.00     0.000 HD 
BRANCH  11  13
HETATM   13  CA  UNL     1     -11.913  13.772  65.917  1.00  0.00    -0.406 C  
BRANCH  13  14
HETATM   14  C   UNL     1     -12.274  14.108  64.452  1.00  0.00    -0.439 C  
HETATM   15  H   UNL     1     -13.045  13.173  62.893  1.00  0.00     0.000 HD 
HETATM   16  O   UNL     1     -12.822  12.967  63.793  1.00  0.00    -0.683 OA 
ENDBRANCH  13  14
BRANCH  13  17
HETATM   17  C   UNL     1     -11.004  14.866  66.513  1.00  0.00    -0.327 C  
HETATM   18  C   UNL     1     -10.310  15.754  65.488  1.00  0.00    -0.430 C  
ENDBRANCH  13  17
ENDBRANCH  11  13
ENDBRANCH  10  11
ENDBRANCH   9  10
ENDBRANCH   7   9
ENDBRANCH   3   7
ENDBRANCH   2   3
TORSDOF 9
ENDMDL
MODEL      150
REMARK 921   NORMALIZED FREE ENERGY PREDICTED BY IDOCK:   -3.18 KCAL/MOL
REMARK 922        TOTAL FREE ENERGY PREDICTED BY IDOCK:   -5.26 KCAL/MOL
REMARK 923 INTER-LIGAND FREE ENERGY PREDICTED BY IDOCK:   -4.93 KCAL/MOL
REMARK 924 INTRA-LIGAND FREE ENERGY PREDICTED BY IDOCK:   -0.33 KCAL/MOL
REMARK 927      BINDING AFFINITY PREDICTED BY RF-SCORE:    0.00 PKD
ROOT
HETATM    1  C   UNL     1      -9.552  19.892  66.413  1.00  0.00    -0.537 C  
HETATM    2  C   UNL     1      -8.579  18.724  66.337  1.00  0.00    -0.294 C  
ENDROOT
BRANCH   2   3
HETATM    3  CA  UNL     1      -8.951  17.530  67.247  1.00  0.00    -0.235 C  
BRANCH   3   4
HETATM    4  C   UNL     1     -10.454  17.508  67.636  1.00  0.00    -0.370 C  
HETATM    5  H   UNL     1     -11.635  16.878  69.131  1.00  0.00     0.000 HD 
HETATM    6  O   UNL     1     -10.716  16.891  68.893  1.00  0.00    -0.329 OA 
ENDBRANCH   3   4
BRANCH   3   7
HETATM    7  N   UNL     1      -8.497  16.320  66.530  1.00  0.00    -0.273 NA 
HETATM    8  H   UNL     1      -7.884  15.759  67.121  1.00  0.00     0.000 HD 
BRANCH   7   9
HETATM    9  C   UNL     1      -9.599  15.504  66.001  1.00  0.00    -0.345 C  
BRANCH   9  10
HETATM   10  C   UNL     1      -9.444  14.033  66.445  1.00  0.00    -0.259 C  
BRANCH  10  11
HETATM   11  N   UNL     1     -10.079  13.117  65.482  1.00  0.00    -0.368 NA 
HETATM   12  H   UNL     1      -9.468  12.328  65.271  1.00  0.00     0.000 HD 
BRANCH  11  13
HETATM   13  CA  UNL     1     -11.417  12.651  65.927  1.00  0.00    -0.363 C  
BRANCH  13  14
HETATM   14  C   UNL     1     -11.262  11.294  66.652  1.00  0.00    -0.177 C  
HETATM   15  H   UNL     1     -10.092   9.709  66.537  1.00  0.00     0.000 HD 
HETATM   16  O   UNL     1     -10.187  10.543  66.091  1.00  0.00    -0.235 OA 
ENDBRANCH  13  14
BRANCH  13  17
HETATM   17  C   UNL     1     -12.465  12.545  64.800  1.00  0.00    -0.532 C  
HETATM   18  C   UNL     1     -11.944  12.866  63.406  1.00  0.00    -0.612 C  
ENDBRANCH  13  17
ENDBRANCH  11  13
ENDBRANCH  10  11
ENDBRANCH   9  10
ENDBRANCH   7   9
ENDBRANCH   3   7
ENDBRANCH   2   3
TORSDOF 9
ENDMDL
MODEL      151
REMARK 921   NORMALIZED FREE ENERGY PREDICTED BY IDOCK:   -3.17 KCAL/MOL
REMARK 922        TOTAL FREE ENERGY PREDICTED BY IDOCK:   -5.25 KCAL/MOL
REMARK 923 INTER-LIGAND FREE ENERGY PREDICTED BY IDOCK:   -4.45 KCAL/MOL
REMARK 924 INTRA-LIGAND FREE ENERGY PREDICTED BY IDOCK:   -0.80 KCAL/MOL
REMARK 927      BINDING AFFINITY PREDICTED BY RF-SCORE:    0.00 PKD
ROOT
HETATM    1  C   UNL     1      -9.060  10.986  62.605  1.00  0.00    -0.375 C  
HETATM    2  C   UNL     1      -9.873  11.910  63.499  1.00  0.00    -0.359 C  
ENDROOT
BRANCH   2   3
HETATM    3  CA  UNL     1     -10.822  11.175  64.475  1.00  0.00    -0.250 C  
BRANCH   3   4
HETATM    4  C   UNL     1     -10.168  10.880  65.852  1.00  0.00    -0.257 C  
HETATM    5  H   UNL     1      -8.782  11.653  67.082  1.00  0.00     0.000 HD 
HETATM    6  O   UNL     1      -9.182  11.833  66.239  1.00  0.00    -0.216 OA 
ENDBRANCH   3   4
BRANCH   3   7
HETATM    7  N   UNL     1     -12.042  12.004  64.553  1.00  0.00    -0.297 NA 
HETATM    8  H   UNL     1     -12.542  11.829  65.425  1.00  0.00     0.000 HD 
BRANCH   7   9
HETATM    9  C   UNL     1     -11.787  13.441  64.378  1.00  0.00    -0.408 C  
BRANCH   9  10
HETATM   10  C   UNL     1     -12.175  14.217  65.656  1.00  0.00    -0.400 C  
BRANCH  10  11
HETATM   11  N   UNL     1     -11.095  14.167  66.656  1.00  0.00    -0.307 NA 
HETATM   12  H   UNL     1     -10.418  14.914  66.502  1.00  0.00     0.000 HD 
BRANCH  11  13
HETATM   13  CA  UNL     1     -11.603  14.189  68.052  1.00  0.00    -0.334 C  
BRANCH  13  14
HETATM   14  C   UNL     1     -11.655  15.653  68.546  1.00  0.00    -0.370 C  
HETATM   15  H   UNL     1     -12.365  16.639  70.102  1.00  0.00     0.000 HD 
HETATM   16  O   UNL     1     -12.333  15.739  69.798  1.00  0.00    -0.319 OA 
ENDBRANCH  13  14
BRANCH  13  17
HETATM   17  C   UNL     1     -10.801  13.315  69.038  1.00  0.00    -0.212 C  
HETATM   18  C   UNL     1     -11.522  12.065  69.522  1.00  0.00    -0.351 C  
ENDBRANCH  13  17
ENDBRANCH  11  13
ENDBRANCH  10  11
ENDBRANCH   9  10
ENDBRANCH   7   9
ENDBRANCH   3   7
ENDBRANCH   2   3
TORSDOF 9
ENDMDL
MODEL      152
REMARK 921   NORMALIZED FREE ENERGY PREDICTED BY IDOCK:   -3.17 KCAL/MOL
REMARK 922        TOTAL FREE ENERGY PREDICTED BY IDOCK:   -5.24 KCAL/MOL
REMARK 923 INTER-LIGAND FREE ENERGY PREDICTED BY IDOCK:   -4.85 KCAL/MOL
REMARK 924 INTRA-LIGAND FREE ENERGY PREDICTED BY IDOCK:   -0.39 KCAL/MOL
REMARK 927      BINDING AFFINITY PREDICTED BY RF-SCORE:    0.00 PKD
ROOT
HETATM    1  C   UNL     1     -10.638   6.924  73.591  1.00  0.00    -0.371 C  
HETATM    2  C   UNL     1     -11.223   6.305  72.329  1.00  0.00    -0.325 C  
ENDROOT
BRANCH   2   3
HETATM    3  CA  UNL     1     -12.356   7.137  71.683  1.00  0.00    -0.362 C  
BRANCH   3   4
HETATM    4  C   UNL     1     -12.411   8.598  72.205  1.00  0.00    -0.386 C  
HETATM    5  H   UNL     1     -13.764   9.977  72.750  1.00  0.00     0.000 HD 
HETATM    6  O   UNL     1     -13.731   9.082  72.431  1.00  0.00    -0.453 OA 
ENDBRANCH   3   4
BRANCH   3   7
HETATM    7  N   UNL     1     -12.156   7.025  70.223  1.00  0.00    -0.618 NA 
HETATM    8  H   UNL     1     -12.365   7.910  69.762  1.00  0.00     0.000 HD 
BRANCH   7   9
HETATM    9  C   UNL     1     -10.816   6.549  69.850  1.00  0.00    -0.286 C  
BRANCH   9  10
HETATM   10  C   UNL     1     -10.043   7.650  69.092  1.00  0.00    -0.194 C  
BRANCH  10  11
HETATM   11  N   UNL     1     -10.956   8.695  68.596  1.00  0.00    -0.439 NA 
HETATM   12  H   UNL     1     -11.394   9.194  69.371  1.00  0.00     0.000 HD 
BRANCH  11  13
HETATM   13  CA  UNL     1     -10.294   9.640  67.661  1.00  0.00    -0.237 C  
BRANCH  13  14
HETATM   14  C   UNL     1     -11.158  10.917  67.540  1.00  0.00    -0.310 C  
HETATM   15  H   UNL     1     -11.053  12.803  68.112  1.00  0.00     0.000 HD 
HETATM   16  O   UNL     1     -10.522  12.019  68.186  1.00  0.00    -0.190 OA 
ENDBRANCH  13  14
BRANCH  13  17
HETATM   17  C   UNL     1      -9.999   9.055  66.265  1.00  0.00    -0.352 C  
HETATM   18  C   UNL     1      -9.532  10.069  65.229  1.00  0.00    -0.323 C  
ENDBRANCH  13  17
ENDBRANCH  11  13
ENDBRANCH  10  11
ENDBRANCH   9  10
ENDBRANCH   7   9
ENDBRANCH   3   7
ENDBRANCH   2   3
TORSDOF 9
ENDMDL
MODEL      153
REMARK 921   NORMALIZED FREE ENERGY PREDICTED BY IDOCK:   -3.15 KCAL/MOL
REMARK 922        TOTAL FREE ENERGY PREDICTED BY IDOCK:   -5.22 KCAL/MOL
REMARK 923 INTER-LIGAND FREE ENERGY PREDICTED BY IDOCK:   -4.86 KCAL/MOL
REMARK 924 INTRA-LIGAND FREE ENERGY PREDICTED BY IDOCK:   -0.35 KCAL/MOL
REMARK 927      BINDING AFFINITY PREDICTED BY RF-SCORE:    0.00 PKD
ROOT
HETATM    1  C   UNL     1      -8.143   9.992  66.650  1.00  0.00    -0.118 C  
HETATM    2  C   UNL     1      -9.404  10.749  67.042  1.00  0.00    -0.174 C  
ENDROOT
BRANCH   2   3
HETATM    3  CA  UNL     1     -10.677   9.873  67.096  1.00  0.00    -0.207 C  
BRANCH   3   4
HETATM    4  C   UNL     1     -10.396   8.421  67.569  1.00  0.00    -0.265 C  
HETATM    5  H   UNL     1     -10.266   7.366  69.272  1.00  0.00     0.000 HD 
HETATM    6  O   UNL     1     -10.438   8.255  68.983  1.00  0.00    -0.219 OA 
ENDBRANCH   3   4
BRANCH   3   7
HETATM    7  N   UNL     1     -11.636  10.608  67.948  1.00  0.00    -0.687 NA 
HETATM    8  H   UNL     1     -11.626  10.243  68.900  1.00  0.00     0.000 HD 
BRANCH   7   9
HETATM    9  C   UNL     1     -11.427  12.063  67.946  1.00  0.00    -0.330 C  
BRANCH   9  10
HETATM   10  C   UNL     1     -12.035  12.698  69.216  1.00  0.00    -0.246 C  
BRANCH  10  11
HETATM   11  N   UNL     1     -12.398  14.106  68.984  1.00  0.00    -0.537 NA 
HETATM   12  H   UNL     1     -13.245  14.176  68.418  1.00  0.00     0.000 HD 
BRANCH  11  13
HETATM   13  CA  UNL     1     -12.534  14.880  70.244  1.00  0.00    -0.336 C  
BRANCH  13  14
HETATM   14  C   UNL     1     -11.327  15.836  70.381  1.00  0.00    -0.374 C  
HETATM   15  H   UNL     1     -10.182  16.914  69.187  1.00  0.00     0.000 HD 
HETATM   16  O   UNL     1     -10.924  16.327  69.103  1.00  0.00    -0.285 OA 
ENDBRANCH  13  14
BRANCH  13  17
HETATM   17  C   UNL     1     -12.685  14.016  71.512  1.00  0.00    -0.443 C  
HETATM   18  C   UNL     1     -14.043  14.105  72.193  1.00  0.00    -0.643 C  
ENDBRANCH  13  17
ENDBRANCH  11  13
ENDBRANCH  10  11
ENDBRANCH   9  10
ENDBRANCH   7   9
ENDBRANCH   3   7
ENDBRANCH   2   3
TORSDOF 9
ENDMDL
MODEL      154
REMARK 921   NORMALIZED FREE ENERGY PREDICTED BY IDOCK:   -3.14 KCAL/MOL
REMARK 922        TOTAL FREE ENERGY PREDICTED BY IDOCK:   -5.21 KCAL/MOL
REMARK 923 INTER-LIGAND FREE ENERGY PREDICTED BY IDOCK:   -4.87 KCAL/MOL
REMARK 924 INTRA-LIGAND FREE ENERGY PREDICTED BY IDOCK:   -0.34 KCAL/MOL
REMARK 927      BINDING AFFINITY PREDICTED BY RF-SCORE:    0.00 PKD
ROOT
HETATM    1  C   UNL     1     -11.588  15.134  68.753  1.00  0.00    -0.369 C  
HETATM    2  C   UNL     1     -11.760  14.038  67.710  1.00  0.00    -0.403 C  
ENDROOT
BRANCH   2   3
HETATM    3  CA  UNL     1     -11.153  14.379  66.329  1.00  0.00    -0.331 C  
BRANCH   3   4
HETATM    4  C   UNL     1     -12.121  14.082  65.150  1.00  0.00    -0.410 C  
HETATM    5  H   UNL     1     -14.075  13.767  64.820  1.00  0.00     0.000 HD 
HETATM    6  O   UNL     1     -13.484  13.948  65.541  1.00  0.00    -0.657 OA 
ENDBRANCH   3   4
BRANCH   3   7
HETATM    7  N   UNL     1     -10.723  15.790  66.414  1.00  0.00    -0.303 NA 
HETATM    8  H   UNL     1     -10.817  16.139  67.368  1.00  0.00     0.000 HD 
BRANCH   7   9
HETATM    9  C   UNL     1      -9.363  16.020  65.907  1.00  0.00    -0.300 C  
BRANCH   9  10
HETATM   10  C   UNL     1      -8.838  17.396  66.374  1.00  0.00    -0.242 C  
BRANCH  10  11
HETATM   11  N   UNL     1      -7.484  17.652  65.854  1.00  0.00    -0.506 NA 
HETATM   12  H   UNL     1      -7.522  18.096  64.937  1.00  0.00     0.000 HD 
BRANCH  11  13
HETATM   13  CA  UNL     1      -6.647  18.441  66.794  1.00  0.00    -0.187 C  
BRANCH  13  14
HETATM   14  C   UNL     1      -5.789  17.473  67.640  1.00  0.00    -0.138 C  
HETATM   15  H   UNL     1      -5.060  15.646  67.468  1.00  0.00     0.000 HD 
HETATM   16  O   UNL     1      -5.588  16.241  66.948  1.00  0.00    -0.347 OA 
ENDBRANCH  13  14
BRANCH  13  17
HETATM   17  C   UNL     1      -7.441  19.397  67.707  1.00  0.00    -0.296 C  
HETATM   18  C   UNL     1      -6.840  19.611  69.090  1.00  0.00    -0.383 C  
ENDBRANCH  13  17
ENDBRANCH  11  13
ENDBRANCH  10  11
ENDBRANCH   9  10
ENDBRANCH   7   9
ENDBRANCH   3   7
ENDBRANCH   2   3
TORSDOF 9
ENDMDL
MODEL      155
REMARK 921   NORMALIZED FREE ENERGY PREDICTED BY IDOCK:   -3.14 KCAL/MOL
REMARK 922        TOTAL FREE ENERGY PREDICTED BY IDOCK:   -5.21 KCAL/MOL
REMARK 923 INTER-LIGAND FREE ENERGY PREDICTED BY IDOCK:   -4.86 KCAL/MOL
REMARK 924 INTRA-LIGAND FREE ENERGY PREDICTED BY IDOCK:   -0.35 KCAL/MOL
REMARK 927      BINDING AFFINITY PREDICTED BY RF-SCORE:    0.00 PKD
ROOT
HETATM    1  C   UNL     1      -9.369  10.734  64.597  1.00  0.00    -0.271 C  
HETATM    2  C   UNL     1     -10.617  11.125  63.818  1.00  0.00    -0.422 C  
ENDROOT
BRANCH   2   3
HETATM    3  CA  UNL     1     -10.703  12.631  63.477  1.00  0.00    -0.297 C  
BRANCH   3   4
HETATM    4  C   UNL     1     -12.164  13.145  63.361  1.00  0.00    -0.444 C  
HETATM    5  H   UNL     1     -14.036  12.424  63.287  1.00  0.00     0.000 HD 
HETATM    6  O   UNL     1     -13.142  12.109  63.357  1.00  0.00    -0.752 OA 
ENDBRANCH   3   4
BRANCH   3   7
HETATM    7  N   UNL     1      -9.901  13.325  64.506  1.00  0.00    -0.611 NA 
HETATM    8  H   UNL     1      -8.919  13.365  64.232  1.00  0.00     0.000 HD 
BRANCH   7   9
HETATM    9  C   UNL     1     -10.404  14.666  64.836  1.00  0.00    -0.350 C  
BRANCH   9  10
HETATM   10  C   UNL     1      -9.744  15.185  66.133  1.00  0.00    -0.310 C  
BRANCH  10  11
HETATM   11  N   UNL     1      -8.997  14.114  66.815  1.00  0.00    -0.355 NA 
HETATM   12  H   UNL     1      -8.875  13.307  66.203  1.00  0.00     0.000 HD 
BRANCH  11  13
HETATM   13  CA  UNL     1      -7.693  14.576  67.355  1.00  0.00    -0.192 C  
BRANCH  13  14
HETATM   14  C   UNL     1      -6.735  13.367  67.459  1.00  0.00    -0.140 C  
HETATM   15  H   UNL     1      -4.787  13.048  67.419  1.00  0.00     0.000 HD 
HETATM   16  O   UNL     1      -5.376  13.791  67.354  1.00  0.00    -0.343 OA 
ENDBRANCH  13  14
BRANCH  13  17
HETATM   17  C   UNL     1      -7.786  15.310  68.708  1.00  0.00    -0.147 C  
HETATM   18  C   UNL     1      -7.536  16.811  68.644  1.00  0.00    -0.222 C  
ENDBRANCH  13  17
ENDBRANCH  11  13
ENDBRANCH  10  11
ENDBRANCH   9  10
ENDBRANCH   7   9
ENDBRANCH   3   7
ENDBRANCH   2   3
TORSDOF 9
ENDMDL
MODEL      156
REMARK 921   NORMALIZED FREE ENERGY PREDICTED BY IDOCK:   -3.14 KCAL/MOL
REMARK 922        TOTAL FREE ENERGY PREDICTED BY IDOCK:   -5.20 KCAL/MOL
REMARK 923 INTER-LIGAND FREE ENERGY PREDICTED BY IDOCK:   -4.69 KCAL/MOL
REMARK 924 INTRA-LIGAND FREE ENERGY PREDICTED BY IDOCK:   -0.51 KCAL/MOL
REMARK 927      BINDING AFFINITY PREDICTED BY RF-SCORE:    0.00 PKD
ROOT
HETATM    1  C   UNL     1     -12.056  11.279  70.628  1.00  0.00    -0.480 C  
HETATM    2  C   UNL     1     -11.462  10.632  69.385  1.00  0.00    -0.356 C  
ENDROOT
BRANCH   2   3
HETATM    3  CA  UNL     1      -9.937  10.840  69.230  1.00  0.00    -0.159 C  
BRANCH   3   4
HETATM    4  C   UNL     1      -9.112   9.568  69.566  1.00  0.00    -0.185 C  
HETATM    5  H   UNL     1      -7.918   8.861  71.016  1.00  0.00     0.000 HD 
HETATM    6  O   UNL     1      -8.422   9.639  70.810  1.00  0.00    -0.245 OA 
ENDBRANCH   3   4
BRANCH   3   7
HETATM    7  N   UNL     1      -9.736  11.341  67.854  1.00  0.00    -0.173 NA 
HETATM    8  H   UNL     1      -8.887  11.902  67.795  1.00  0.00     0.000 HD 
BRANCH   7   9
HETATM    9  C   UNL     1      -9.730  10.279  66.838  1.00  0.00    -0.186 C  
BRANCH   9  10
HETATM   10  C   UNL     1     -10.289  10.809  65.499  1.00  0.00    -0.241 C  
BRANCH  10  11
HETATM   11  N   UNL     1     -10.461  12.272  65.538  1.00  0.00    -0.256 NA 
HETATM   12  H   UNL     1      -9.782  12.736  64.934  1.00  0.00     0.000 HD 
BRANCH  11  13
HETATM   13  CA  UNL     1     -11.845  12.697  65.207  1.00  0.00    -0.408 C  
BRANCH  13  14
HETATM   14  C   UNL     1     -11.832  13.451  63.857  1.00  0.00    -0.439 C  
HETATM   15  H   UNL     1     -12.718  15.026  63.062  1.00  0.00     0.000 HD 
HETATM   16  O   UNL     1     -12.726  14.562  63.892  1.00  0.00    -0.782 OA 
ENDBRANCH  13  14
BRANCH  13  17
HETATM   17  C   UNL     1     -12.529  13.550  66.295  1.00  0.00    -0.384 C  
HETATM   18  C   UNL     1     -11.582  14.186  67.303  1.00  0.00    -0.399 C  
ENDBRANCH  13  17
ENDBRANCH  11  13
ENDBRANCH  10  11
ENDBRANCH   9  10
ENDBRANCH   7   9
ENDBRANCH   3   7
ENDBRANCH   2   3
TORSDOF 9
ENDMDL
MODEL      157
REMARK 921   NORMALIZED FREE ENERGY PREDICTED BY IDOCK:   -3.13 KCAL/MOL
REMARK 922        TOTAL FREE ENERGY PREDICTED BY IDOCK:   -5.18 KCAL/MOL
REMARK 923 INTER-LIGAND FREE ENERGY PREDICTED BY IDOCK:   -4.61 KCAL/MOL
REMARK 924 INTRA-LIGAND FREE ENERGY PREDICTED BY IDOCK:   -0.57 KCAL/MOL
REMARK 927      BINDING AFFINITY PREDICTED BY RF-SCORE:    0.00 PKD
ROOT
HETATM    1  C   UNL     1      -9.653   9.313  68.341  1.00  0.00    -0.158 C  
HETATM    2  C   UNL     1      -9.621  10.354  67.231  1.00  0.00    -0.182 C  
ENDROOT
BRANCH   2   3
HETATM    3  CA  UNL     1      -8.841   9.912  65.971  1.00  0.00    -0.146 C  
BRANCH   3   4
HETATM    4  C   UNL     1      -8.015   8.615  66.191  1.00  0.00    -0.106 C  
HETATM    5  H   UNL     1      -7.969   6.708  65.565  1.00  0.00     0.000 HD 
HETATM    6  O   UNL     1      -8.475   7.502  65.430  1.00  0.00    -0.140 OA 
ENDBRANCH   3   4
BRANCH   3   7
HETATM    7  N   UNL     1      -9.844   9.810  64.890  1.00  0.00    -0.421 NA 
HETATM    8  H   UNL     1     -10.759  10.121  65.217  1.00  0.00     0.000 HD 
BRANCH   7   9
HETATM    9  C   UNL     1      -9.460  10.524  63.664  1.00  0.00    -0.304 C  
BRANCH   9  10
HETATM   10  C   UNL     1     -10.463  11.661  63.365  1.00  0.00    -0.426 C  
BRANCH  10  11
HETATM   11  N   UNL     1      -9.949  12.959  63.834  1.00  0.00    -0.724 NA 
HETATM   12  H   UNL     1     -10.122  13.691  63.144  1.00  0.00     0.000 HD 
BRANCH  11  13
HETATM   13  CA  UNL     1     -10.486  13.343  65.164  1.00  0.00    -0.347 C  
BRANCH  13  14
HETATM   14  C   UNL     1     -11.927  12.799  65.302  1.00  0.00    -0.429 C  
HETATM   15  H   UNL     1     -13.102  12.145  66.747  1.00  0.00     0.000 HD 
HETATM   16  O   UNL     1     -12.217  12.480  66.662  1.00  0.00    -0.552 OA 
ENDBRANCH  13  14
BRANCH  13  17
HETATM   17  C   UNL     1     -10.452  14.858  65.454  1.00  0.00    -0.406 C  
HETATM   18  C   UNL     1      -9.674  15.257  66.701  1.00  0.00    -0.268 C  
ENDBRANCH  13  17
ENDBRANCH  11  13
ENDBRANCH  10  11
ENDBRANCH   9  10
ENDBRANCH   7   9
ENDBRANCH   3   7
ENDBRANCH   2   3
TORSDOF 9
ENDMDL
MODEL      158
REMARK 921   NORMALIZED FREE ENERGY PREDICTED BY IDOCK:   -3.12 KCAL/MOL
REMARK 922        TOTAL FREE ENERGY PREDICTED BY IDOCK:   -5.17 KCAL/MOL
REMARK 923 INTER-LIGAND FREE ENERGY PREDICTED BY IDOCK:   -4.74 KCAL/MOL
REMARK 924 INTRA-LIGAND FREE ENERGY PREDICTED BY IDOCK:   -0.43 KCAL/MOL
REMARK 927      BINDING AFFINITY PREDICTED BY RF-SCORE:    0.00 PKD
ROOT
HETATM    1  C   UNL     1     -13.363  11.859  71.988  1.00  0.00    -0.425 C  
HETATM    2  C   UNL     1     -12.812  10.564  71.407  1.00  0.00    -0.551 C  
ENDROOT
BRANCH   2   3
HETATM    3  CA  UNL     1     -12.891   9.355  72.368  1.00  0.00    -0.319 C  
BRANCH   3   4
HETATM    4  C   UNL     1     -14.135   8.459  72.116  1.00  0.00    -0.387 C  
HETATM    5  H   UNL     1     -14.579   6.594  71.523  1.00  0.00     0.000 HD 
HETATM    6  O   UNL     1     -13.818   7.142  71.677  1.00  0.00    -0.375 OA 
ENDBRANCH   3   4
BRANCH   3   7
HETATM    7  N   UNL     1     -11.602   8.647  72.233  1.00  0.00    -0.368 NA 
HETATM    8  H   UNL     1     -11.751   7.645  72.113  1.00  0.00     0.000 HD 
BRANCH   7   9
HETATM    9  C   UNL     1     -10.751   9.177  71.157  1.00  0.00    -0.310 C  
BRANCH   9  10
HETATM   10  C   UNL     1     -10.339   8.048  70.188  1.00  0.00    -0.215 C  
BRANCH  10  11
HETATM   11  N   UNL     1     -10.971   8.224  68.868  1.00  0.00    -0.427 NA 
HETATM   12  H   UNL     1     -11.613   9.016  68.874  1.00  0.00     0.000 HD 
BRANCH  11  13
HETATM   13  CA  UNL     1      -9.980   8.349  67.769  1.00  0.00    -0.186 C  
BRANCH  13  14
HETATM   14  C   UNL     1     -10.288   9.629  66.957  1.00  0.00    -0.248 C  
HETATM   15  H   UNL     1     -10.043  10.272  65.107  1.00  0.00     0.000 HD 
HETATM   16  O   UNL     1      -9.853   9.486  65.606  1.00  0.00    -0.297 OA 
ENDBRANCH  13  14
BRANCH  13  17
HETATM   17  C   UNL     1      -9.903   7.124  66.835  1.00  0.00    -0.271 C  
HETATM   18  C   UNL     1     -10.989   6.080  67.054  1.00  0.00    -0.364 C  
ENDBRANCH  13  17
ENDBRANCH  11  13
ENDBRANCH  10  11
ENDBRANCH   9  10
ENDBRANCH   7   9
ENDBRANCH   3   7
ENDBRANCH   2   3
TORSDOF 9
ENDMDL
MODEL      159
REMARK 921   NORMALIZED FREE ENERGY PREDICTED BY IDOCK:   -3.11 KCAL/MOL
REMARK 922        TOTAL FREE ENERGY PREDICTED BY IDOCK:   -5.16 KCAL/MOL
REMARK 923 INTER-LIGAND FREE ENERGY PREDICTED BY IDOCK:   -4.81 KCAL/MOL
REMARK 924 INTRA-LIGAND FREE ENERGY PREDICTED BY IDOCK:   -0.34 KCAL/MOL
REMARK 927      BINDING AFFINITY PREDICTED BY RF-SCORE:    0.00 PKD
ROOT
HETATM    1  C   UNL     1     -10.358   8.687  67.015  1.00  0.00    -0.368 C  
HETATM    2  C   UNL     1     -10.301   9.899  67.933  1.00  0.00    -0.256 C  
ENDROOT
BRANCH   2   3
HETATM    3  CA  UNL     1     -11.333   9.871  69.084  1.00  0.00    -0.039 C  
BRANCH   3   4
HETATM    4  C   UNL     1     -10.677   9.915  70.491  1.00  0.00    -0.317 C  
HETATM    5  H   UNL     1      -8.907   9.546  71.363  1.00  0.00     0.000 HD 
HETATM    6  O   UNL     1      -9.308   9.519  70.502  1.00  0.00    -0.252 OA 
ENDBRANCH   3   4
BRANCH   3   7
HETATM    7  N   UNL     1     -12.264  10.988  68.819  1.00  0.00    -0.744 NA 
HETATM    8  H   UNL     1     -12.519  11.459  69.687  1.00  0.00     0.000 HD 
BRANCH   7   9
HETATM    9  C   UNL     1     -11.755  11.953  67.834  1.00  0.00    -0.298 C  
BRANCH   9  10
HETATM   10  C   UNL     1     -11.730  13.376  68.435  1.00  0.00    -0.355 C  
BRANCH  10  11
HETATM   11  N   UNL     1     -12.197  14.374  67.458  1.00  0.00    -0.619 NA 
HETATM   12  H   UNL     1     -13.053  14.826  67.778  1.00  0.00     0.000 HD 
BRANCH  11  13
HETATM   13  CA  UNL     1     -11.157  15.380  67.122  1.00  0.00    -0.291 C  
BRANCH  13  14
HETATM   14  C   UNL     1     -10.301  14.848  65.950  1.00  0.00    -0.314 C  
HETATM   15  H   UNL     1     -10.233  15.053  63.988  1.00  0.00     0.000 HD 
HETATM   16  O   UNL     1     -10.760  15.380  64.708  1.00  0.00    -0.415 OA 
ENDBRANCH  13  14
BRANCH  13  17
HETATM   17  C   UNL     1     -10.257  15.789  68.306  1.00  0.00    -0.225 C  
HETATM   18  C   UNL     1     -10.002  17.284  68.433  1.00  0.00    -0.322 C  
ENDBRANCH  13  17
ENDBRANCH  11  13
ENDBRANCH  10  11
ENDBRANCH   9  10
ENDBRANCH   7   9
ENDBRANCH   3   7
ENDBRANCH   2   3
TORSDOF 9
ENDMDL
MODEL      160
REMARK 921   NORMALIZED FREE ENERGY PREDICTED BY IDOCK:   -3.11 KCAL/MOL
REMARK 922        TOTAL FREE ENERGY PREDICTED BY IDOCK:   -5.15 KCAL/MOL
REMARK 923 INTER-LIGAND FREE ENERGY PREDICTED BY IDOCK:   -4.62 KCAL/MOL
REMARK 924 INTRA-LIGAND FREE ENERGY PREDICTED BY IDOCK:   -0.53 KCAL/MOL
REMARK 927      BINDING AFFINITY PREDICTED BY RF-SCORE:    0.00 PKD
ROOT
HETATM    1  C   UNL     1      -7.735  17.005  66.508  1.00  0.00    -0.327 C  
HETATM    2  C   UNL     1      -9.255  16.926  66.483  1.00  0.00    -0.295 C  
ENDROOT
BRANCH   2   3
HETATM    3  CA  UNL     1      -9.836  15.668  67.169  1.00  0.00    -0.229 C  
BRANCH   3   4
HETATM    4  C   UNL     1     -10.664  15.998  68.441  1.00  0.00    -0.289 C  
HETATM    5  H   UNL     1     -10.489  15.927  70.439  1.00  0.00     0.000 HD 
HETATM    6  O   UNL     1      -9.983  15.725  69.661  1.00  0.00    -0.271 OA 
ENDBRANCH   3   4
BRANCH   3   7
HETATM    7  N   UNL     1     -10.597  14.953  66.124  1.00  0.00    -0.307 NA 
HETATM    8  H   UNL     1     -10.002  14.281  65.640  1.00  0.00     0.000 HD 
BRANCH   7   9
HETATM    9  C   UNL     1     -11.815  14.302  66.626  1.00  0.00    -0.421 C  
BRANCH   9  10
HETATM   10  C   UNL     1     -11.837  12.812  66.222  1.00  0.00    -0.423 C  
BRANCH  10  11
HETATM   11  N   UNL     1     -11.955  11.942  67.406  1.00  0.00    -0.601 NA 
HETATM   12  H   UNL     1     -11.758  10.970  67.166  1.00  0.00     0.000 HD 
BRANCH  11  13
HETATM   13  CA  UNL     1     -11.107  12.394  68.538  1.00  0.00    -0.258 C  
BRANCH  13  14
HETATM   14  C   UNL     1      -9.892  11.446  68.666  1.00  0.00    -0.193 C  
HETATM   15  H   UNL     1      -8.023  11.384  68.035  1.00  0.00     0.000 HD 
HETATM   16  O   UNL     1      -8.769  11.966  67.955  1.00  0.00    -0.158 OA 
ENDBRANCH  13  14
BRANCH  13  17
HETATM   17  C   UNL     1     -11.848  12.506  69.886  1.00  0.00    -0.373 C  
HETATM   18  C   UNL     1     -12.104  11.181  70.591  1.00  0.00    -0.477 C  
ENDBRANCH  13  17
ENDBRANCH  11  13
ENDBRANCH  10  11
ENDBRANCH   9  10
ENDBRANCH   7   9
ENDBRANCH   3   7
ENDBRANCH   2   3
TORSDOF 9
ENDMDL
MODEL      161
REMARK 921   NORMALIZED FREE ENERGY PREDICTED BY IDOCK:   -3.10 KCAL/MOL
REMARK 922        TOTAL FREE ENERGY PREDICTED BY IDOCK:   -5.14 KCAL/MOL
REMARK 923 INTER-LIGAND FREE ENERGY PREDICTED BY IDOCK:   -4.70 KCAL/MOL
REMARK 924 INTRA-LIGAND FREE ENERGY PREDICTED BY IDOCK:   -0.44 KCAL/MOL
REMARK 927      BINDING AFFINITY PREDICTED BY RF-SCORE:    0.00 PKD
ROOT
HETATM    1  C   UNL     1     -10.158  17.852  68.557  1.00  0.00    -0.392 C  
HETATM    2  C   UNL     1     -11.058  16.709  68.109  1.00  0.00    -0.285 C  
ENDROOT
BRANCH   2   3
HETATM    3  CA  UNL     1     -10.976  15.451  69.004  1.00  0.00    -0.252 C  
BRANCH   3   4
HETATM    4  C   UNL     1     -11.429  15.715  70.466  1.00  0.00    -0.360 C  
HETATM    5  H   UNL     1     -13.120  15.935  71.525  1.00  0.00     0.000 HD 
HETATM    6  O   UNL     1     -12.843  15.774  70.630  1.00  0.00    -0.438 OA 
ENDBRANCH   3   4
BRANCH   3   7
HETATM    7  N   UNL     1     -11.761  14.410  68.309  1.00  0.00    -0.328 NA 
HETATM    8  H   UNL     1     -12.716  14.380  68.665  1.00  0.00     0.000 HD 
BRANCH   7   9
HETATM    9  C   UNL     1     -11.756  14.550  66.846  1.00  0.00    -0.382 C  
BRANCH   9  10
HETATM   10  C   UNL     1     -11.848  13.164  66.170  1.00  0.00    -0.401 C  
BRANCH  10  11
HETATM   11  N   UNL     1     -11.965  12.091  67.173  1.00  0.00    -0.598 NA 
HETATM   12  H   UNL     1     -12.890  11.662  67.142  1.00  0.00     0.000 HD 
BRANCH  11  13
HETATM   13  CA  UNL     1     -10.898  11.066  67.045  1.00  0.00    -0.279 C  
BRANCH  13  14
HETATM   14  C   UNL     1     -10.137  10.961  68.387  1.00  0.00    -0.183 C  
HETATM   15  H   UNL     1      -9.486   9.532  69.582  1.00  0.00     0.000 HD 
HETATM   16  O   UNL     1      -9.954   9.596  68.758  1.00  0.00    -0.163 OA 
ENDBRANCH  13  14
BRANCH  13  17
HETATM   17  C   UNL     1      -9.913  11.310  65.884  1.00  0.00    -0.277 C  
HETATM   18  C   UNL     1      -9.612  10.086  65.029  1.00  0.00    -0.362 C  
ENDBRANCH  13  17
ENDBRANCH  11  13
ENDBRANCH  10  11
ENDBRANCH   9  10
ENDBRANCH   7   9
ENDBRANCH   3   7
ENDBRANCH   2   3
TORSDOF 9
ENDMDL
MODEL      162
REMARK 921   NORMALIZED FREE ENERGY PREDICTED BY IDOCK:   -3.10 KCAL/MOL
REMARK 922        TOTAL FREE ENERGY PREDICTED BY IDOCK:   -5.14 KCAL/MOL
REMARK 923 INTER-LIGAND FREE ENERGY PREDICTED BY IDOCK:   -4.44 KCAL/MOL
REMARK 924 INTRA-LIGAND FREE ENERGY PREDICTED BY IDOCK:   -0.71 KCAL/MOL
REMARK 927      BINDING AFFINITY PREDICTED BY RF-SCORE:    0.00 PKD
ROOT
HETATM    1  C   UNL     1     -11.732  11.937  68.891  1.00  0.00    -0.381 C  
HETATM    2  C   UNL     1     -11.423  10.899  69.961  1.00  0.00    -0.411 C  
ENDROOT
BRANCH   2   3
HETATM    3  CA  UNL     1     -10.706   9.636  69.429  1.00  0.00    -0.228 C  
BRANCH   3   4
HETATM    4  C   UNL     1      -9.159   9.727  69.530  1.00  0.00    -0.216 C  
HETATM    5  H   UNL     1      -7.709   9.618  70.914  1.00  0.00     0.000 HD 
HETATM    6  O   UNL     1      -8.656   9.562  70.853  1.00  0.00    -0.259 OA 
ENDBRANCH   3   4
BRANCH   3   7
HETATM    7  N   UNL     1     -11.291   8.499  70.169  1.00  0.00    -0.438 NA 
HETATM    8  H   UNL     1     -10.559   7.891  70.536  1.00  0.00     0.000 HD 
BRANCH   7   9
HETATM    9  C   UNL     1     -12.212   8.907  71.240  1.00  0.00    -0.299 C  
BRANCH   9  10
HETATM   10  C   UNL     1     -11.883   8.158  72.550  1.00  0.00    -0.376 C  
BRANCH  10  11
HETATM   11  N   UNL     1     -10.427   8.062  72.756  1.00  0.00    -0.331 NA 
HETATM   12  H   UNL     1     -10.047   8.948  73.092  1.00  0.00     0.000 HD 
BRANCH  11  13
HETATM   13  CA  UNL     1     -10.046   6.944  73.655  1.00  0.00    -0.318 C  
BRANCH  13  14
HETATM   14  C   UNL     1      -8.691   7.274  74.324  1.00  0.00    -0.213 C  
HETATM   15  H   UNL     1      -7.397   8.764  74.329  1.00  0.00     0.000 HD 
HETATM   16  O   UNL     1      -8.229   8.561  73.917  1.00  0.00    -0.369 OA 
ENDBRANCH  13  14
BRANCH  13  17
HETATM   17  C   UNL     1      -9.986   5.564  72.968  1.00  0.00    -0.196 C  
HETATM   18  C   UNL     1     -11.129   4.621  73.319  1.00  0.00    -0.403 C  
ENDBRANCH  13  17
ENDBRANCH  11  13
ENDBRANCH  10  11
ENDBRANCH   9  10
ENDBRANCH   7   9
ENDBRANCH   3   7
ENDBRANCH   2   3
TORSDOF 9
ENDMDL
MODEL      163
REMARK 921   NORMALIZED FREE ENERGY PREDICTED BY IDOCK:   -3.10 KCAL/MOL
REMARK 922        TOTAL FREE ENERGY PREDICTED BY IDOCK:   -5.14 KCAL/MOL
REMARK 923 INTER-LIGAND FREE ENERGY PREDICTED BY IDOCK:   -4.85 KCAL/MOL
REMARK 924 INTRA-LIGAND FREE ENERGY PREDICTED BY IDOCK:   -0.29 KCAL/MOL
REMARK 927      BINDING AFFINITY PREDICTED BY RF-SCORE:    0.00 PKD
ROOT
HETATM    1  C   UNL     1     -10.210   9.439  66.449  1.00  0.00    -0.300 C  
HETATM    2  C   UNL     1     -10.121  10.376  67.645  1.00  0.00    -0.223 C  
ENDROOT
BRANCH   2   3
HETATM    3  CA  UNL     1     -11.394  11.222  67.882  1.00  0.00    -0.299 C  
BRANCH   3   4
HETATM    4  C   UNL     1     -12.032  10.983  69.278  1.00  0.00    -0.339 C  
HETATM    5  H   UNL     1     -11.539  10.237  71.075  1.00  0.00     0.000 HD 
HETATM    6  O   UNL     1     -11.149  10.383  70.221  1.00  0.00    -0.288 OA 
ENDBRANCH   3   4
BRANCH   3   7
HETATM    7  N   UNL     1     -10.998  12.624  67.634  1.00  0.00    -0.233 NA 
HETATM    8  H   UNL     1     -10.632  12.734  66.688  1.00  0.00     0.000 HD 
BRANCH   7   9
HETATM    9  C   UNL     1     -12.073  13.592  67.890  1.00  0.00    -0.269 C  
BRANCH   9  10
HETATM   10  C   UNL     1     -11.903  14.839  66.996  1.00  0.00    -0.271 C  
BRANCH  10  11
HETATM   11  N   UNL     1     -10.767  15.663  67.444  1.00  0.00    -0.306 NA 
HETATM   12  H   UNL     1     -10.095  15.104  67.971  1.00  0.00     0.000 HD 
BRANCH  11  13
HETATM   13  CA  UNL     1     -10.101  16.382  66.328  1.00  0.00    -0.331 C  
BRANCH  13  14
HETATM   14  C   UNL     1     -10.537  15.745  64.988  1.00  0.00    -0.371 C  
HETATM   15  H   UNL     1     -11.545  16.287  63.380  1.00  0.00     0.000 HD 
HETATM   16  O   UNL     1     -11.278  16.678  64.204  1.00  0.00    -1.103 OA 
ENDBRANCH  13  14
BRANCH  13  17
HETATM   17  C   UNL     1      -8.563  16.431  66.427  1.00  0.00    -0.358 C  
HETATM   18  C   UNL     1      -7.933  17.748  65.995  1.00  0.00    -0.164 C  
ENDBRANCH  13  17
ENDBRANCH  11  13
ENDBRANCH  10  11
ENDBRANCH   9  10
ENDBRANCH   7   9
ENDBRANCH   3   7
ENDBRANCH   2   3
TORSDOF 9
ENDMDL
MODEL      164
REMARK 921   NORMALIZED FREE ENERGY PREDICTED BY IDOCK:   -3.10 KCAL/MOL
REMARK 922        TOTAL FREE ENERGY PREDICTED BY IDOCK:   -5.14 KCAL/MOL
REMARK 923 INTER-LIGAND FREE ENERGY PREDICTED BY IDOCK:   -4.79 KCAL/MOL
REMARK 924 INTRA-LIGAND FREE ENERGY PREDICTED BY IDOCK:   -0.35 KCAL/MOL
REMARK 927      BINDING AFFINITY PREDICTED BY RF-SCORE:    0.00 PKD
ROOT
HETATM    1  C   UNL     1      -9.473   9.905  64.770  1.00  0.00    -0.356 C  
HETATM    2  C   UNL     1     -10.127  11.218  65.175  1.00  0.00    -0.326 C  
ENDROOT
BRANCH   2   3
HETATM    3  CA  UNL     1     -11.037  11.114  66.421  1.00  0.00    -0.138 C  
BRANCH   3   4
HETATM    4  C   UNL     1     -10.240  11.089  67.754  1.00  0.00    -0.183 C  
HETATM    5  H   UNL     1     -10.174  10.057  69.475  1.00  0.00     0.000 HD 
HETATM    6  O   UNL     1     -10.662  10.073  68.659  1.00  0.00    -0.209 OA 
ENDBRANCH   3   4
BRANCH   3   7
HETATM    7  N   UNL     1     -11.996  12.233  66.315  1.00  0.00    -0.626 NA 
HETATM    8  H   UNL     1     -12.950  11.884  66.228  1.00  0.00     0.000 HD 
BRANCH   7   9
HETATM    9  C   UNL     1     -11.894  13.200  67.417  1.00  0.00    -0.361 C  
BRANCH   9  10
HETATM   10  C   UNL     1     -11.533  14.601  66.876  1.00  0.00    -0.363 C  
BRANCH  10  11
HETATM   11  N   UNL     1     -11.491  15.595  67.962  1.00  0.00    -0.328 NA 
HETATM   12  H   UNL     1     -11.147  15.177  68.827  1.00  0.00     0.000 HD 
BRANCH  11  13
HETATM   13  CA  UNL     1     -10.705  16.803  67.605  1.00  0.00    -0.305 C  
BRANCH  13  14
HETATM   14  C   UNL     1      -9.431  16.369  66.844  1.00  0.00    -0.235 C  
HETATM   15  H   UNL     1      -8.505  16.846  65.167  1.00  0.00     0.000 HD 
HETATM   16  O   UNL     1      -9.288  17.113  65.635  1.00  0.00    -0.515 OA 
ENDBRANCH  13  14
BRANCH  13  17
HETATM   17  C   UNL     1     -10.337  17.703  68.803  1.00  0.00    -0.348 C  
HETATM   18  C   UNL     1      -9.996  19.143  68.444  1.00  0.00    -0.493 C  
ENDBRANCH  13  17
ENDBRANCH  11  13
ENDBRANCH  10  11
ENDBRANCH   9  10
ENDBRANCH   7   9
ENDBRANCH   3   7
ENDBRANCH   2   3
TORSDOF 9
ENDMDL
MODEL      165
REMARK 921   NORMALIZED FREE ENERGY PREDICTED BY IDOCK:   -3.10 KCAL/MOL
REMARK 922        TOTAL FREE ENERGY PREDICTED BY IDOCK:   -5.14 KCAL/MOL
REMARK 923 INTER-LIGAND FREE ENERGY PREDICTED BY IDOCK:   -4.84 KCAL/MOL
REMARK 924 INTRA-LIGAND FREE ENERGY PREDICTED BY IDOCK:   -0.29 KCAL/MOL
REMARK 927      BINDING AFFINITY PREDICTED BY RF-SCORE:    0.00 PKD
ROOT
HETATM    1  C   UNL     1     -10.629   5.194  66.253  1.00  0.00    -0.325 C  
HETATM    2  C   UNL     1      -9.919   6.255  67.083  1.00  0.00    -0.189 C  
ENDROOT
BRANCH   2   3
HETATM    3  CA  UNL     1     -10.506   7.677  66.929  1.00  0.00    -0.318 C  
BRANCH   3   4
HETATM    4  C   UNL     1     -10.511   8.480  68.258  1.00  0.00    -0.171 C  
HETATM    5  H   UNL     1     -11.022   8.242  70.185  1.00  0.00     0.000 HD 
HETATM    6  O   UNL     1     -11.019   7.751  69.372  1.00  0.00    -0.165 OA 
ENDBRANCH   3   4
BRANCH   3   7
HETATM    7  N   UNL     1      -9.734   8.316  65.843  1.00  0.00    -0.456 NA 
HETATM    8  H   UNL     1      -9.903   7.845  64.954  1.00  0.00     0.000 HD 
BRANCH   7   9
HETATM    9  C   UNL     1      -9.979   9.760  65.720  1.00  0.00    -0.279 C  
BRANCH   9  10
HETATM   10  C   UNL     1      -9.117  10.361  64.589  1.00  0.00    -0.222 C  
BRANCH  10  11
HETATM   11  N   UNL     1      -9.655  11.657  64.142  1.00  0.00    -0.422 NA 
HETATM   12  H   UNL     1      -9.699  11.703  63.124  1.00  0.00     0.000 HD 
BRANCH  11  13
HETATM   13  CA  UNL     1     -10.974  11.972  64.747  1.00  0.00    -0.311 C  
BRANCH  13  14
HETATM   14  C   UNL     1     -12.049  11.982  63.636  1.00  0.00    -0.527 C  
HETATM   15  H   UNL     1     -14.009  12.173  63.510  1.00  0.00     0.000 HD 
HETATM   16  O   UNL     1     -13.349  12.166  64.194  1.00  0.00    -0.750 OA 
ENDBRANCH  13  14
BRANCH  13  17
HETATM   17  C   UNL     1     -11.012  13.291  65.546  1.00  0.00    -0.297 C  
HETATM   18  C   UNL     1     -10.768  14.549  64.723  1.00  0.00    -0.414 C  
ENDBRANCH  13  17
ENDBRANCH  11  13
ENDBRANCH  10  11
ENDBRANCH   9  10
ENDBRANCH   7   9
ENDBRANCH   3   7
ENDBRANCH   2   3
TORSDOF 9
ENDMDL
MODEL      166
REMARK 921   NORMALIZED FREE ENERGY PREDICTED BY IDOCK:   -3.08 KCAL/MOL
REMARK 922        TOTAL FREE ENERGY PREDICTED BY IDOCK:   -5.10 KCAL/MOL
REMARK 923 INTER-LIGAND FREE ENERGY PREDICTED BY IDOCK:   -4.46 KCAL/MOL
REMARK 924 INTRA-LIGAND FREE ENERGY PREDICTED BY IDOCK:   -0.64 KCAL/MOL
REMARK 927      BINDING AFFINITY PREDICTED BY RF-SCORE:    0.00 PKD
ROOT
HETATM    1  C   UNL     1      -8.461  15.430  69.327  1.00  0.00    -0.258 C  
HETATM    2  C   UNL     1      -9.956  15.540  69.062  1.00  0.00    -0.233 C  
ENDROOT
BRANCH   2   3
HETATM    3  CA  UNL     1     -10.338  15.495  67.564  1.00  0.00    -0.271 C  
BRANCH   3   4
HETATM    4  C   UNL     1     -11.722  14.837  67.309  1.00  0.00    -0.347 C  
HETATM    5  H   UNL     1     -12.582  13.024  67.353  1.00  0.00     0.000 HD 
HETATM    6  O   UNL     1     -11.736  13.426  67.508  1.00  0.00    -0.325 OA 
ENDBRANCH   3   4
BRANCH   3   7
HETATM    7  N   UNL     1     -10.236  16.887  67.080  1.00  0.00    -0.291 NA 
HETATM    8  H   UNL     1     -10.678  16.985  66.166  1.00  0.00     0.000 HD 
BRANCH   7   9
HETATM    9  C   UNL     1     -10.772  17.877  68.025  1.00  0.00    -0.294 C  
BRANCH   9  10
HETATM   10  C   UNL     1     -10.246  19.289  67.684  1.00  0.00    -0.407 C  
BRANCH  10  11
HETATM   11  N   UNL     1      -8.882  19.488  68.203  1.00  0.00    -0.323 NA 
HETATM   12  H   UNL     1      -8.601  18.708  68.798  1.00  0.00     0.000 HD 
BRANCH  11  13
HETATM   13  CA  UNL     1      -7.886  19.724  67.128  1.00  0.00    -0.273 C  
BRANCH  13  14
HETATM   14  C   UNL     1      -7.046  18.441  66.928  1.00  0.00    -0.200 C  
HETATM   15  H   UNL     1      -7.065  16.860  65.746  1.00  0.00     0.000 HD 
HETATM   16  O   UNL     1      -7.581  17.648  65.869  1.00  0.00    -0.487 OA 
ENDBRANCH  13  14
BRANCH  13  17
HETATM   17  C   UNL     1      -6.966  20.939  67.364  1.00  0.00    -0.426 C  
HETATM   18  C   UNL     1      -5.754  20.666  68.246  1.00  0.00    -0.328 C  
ENDBRANCH  13  17
ENDBRANCH  11  13
ENDBRANCH  10  11
ENDBRANCH   9  10
ENDBRANCH   7   9
ENDBRANCH   3   7
ENDBRANCH   2   3
TORSDOF 9
ENDMDL
MODEL      167
REMARK 921   NORMALIZED FREE ENERGY PREDICTED BY IDOCK:   -3.06 KCAL/MOL
REMARK 922        TOTAL FREE ENERGY PREDICTED BY IDOCK:   -5.07 KCAL/MOL
REMARK 923 INTER-LIGAND FREE ENERGY PREDICTED BY IDOCK:   -4.68 KCAL/MOL
REMARK 924 INTRA-LIGAND FREE ENERGY PREDICTED BY IDOCK:   -0.40 KCAL/MOL
REMARK 927      BINDING AFFINITY PREDICTED BY RF-SCORE:    0.00 PKD
ROOT
HETATM    1  C   UNL     1     -11.903  12.471  63.828  1.00  0.00    -0.577 C  
HETATM    2  C   UNL     1     -11.810  13.048  65.234  1.00  0.00    -0.413 C  
ENDROOT
BRANCH   2   3
HETATM    3  CA  UNL     1     -11.366  14.529  65.282  1.00  0.00    -0.353 C  
BRANCH   3   4
HETATM    4  C   UNL     1     -12.072  15.410  64.216  1.00  0.00    -0.166 C  
HETATM    5  H   UNL     1     -11.924  17.241  63.406  1.00  0.00     0.000 HD 
HETATM    6  O   UNL     1     -11.492  16.702  64.058  1.00  0.00    -1.192 OA 
ENDBRANCH   3   4
BRANCH   3   7
HETATM    7  N   UNL     1     -11.592  14.972  66.674  1.00  0.00    -0.263 NA 
HETATM    8  H   UNL     1     -11.964  14.209  67.240  1.00  0.00     0.000 HD 
BRANCH   7   9
HETATM    9  C   UNL     1     -10.399  15.554  67.305  1.00  0.00    -0.267 C  
BRANCH   9  10
HETATM   10  C   UNL     1      -9.115  14.980  66.666  1.00  0.00    -0.280 C  
BRANCH  10  11
HETATM   11  N   UNL     1      -8.095  14.694  67.689  1.00  0.00    -0.158 NA 
HETATM   12  H   UNL     1      -7.883  13.696  67.724  1.00  0.00     0.000 HD 
BRANCH  11  13
HETATM   13  CA  UNL     1      -6.857  15.494  67.507  1.00  0.00    -0.195 C  
BRANCH  13  14
HETATM   14  C   UNL     1      -5.638  14.639  67.923  1.00  0.00    -0.102 C  
HETATM   15  H   UNL     1      -4.933  12.834  67.548  1.00  0.00     0.000 HD 
HETATM   16  O   UNL     1      -5.682  13.359  67.293  1.00  0.00    -0.353 OA 
ENDBRANCH  13  14
BRANCH  13  17
HETATM   17  C   UNL     1      -6.852  16.842  68.258  1.00  0.00    -0.155 C  
HETATM   18  C   UNL     1      -7.000  18.072  67.373  1.00  0.00    -0.204 C  
ENDBRANCH  13  17
ENDBRANCH  11  13
ENDBRANCH  10  11
ENDBRANCH   9  10
ENDBRANCH   7   9
ENDBRANCH   3   7
ENDBRANCH   2   3
TORSDOF 9
ENDMDL
MODEL      168
REMARK 921   NORMALIZED FREE ENERGY PREDICTED BY IDOCK:   -3.06 KCAL/MOL
REMARK 922        TOTAL FREE ENERGY PREDICTED BY IDOCK:   -5.07 KCAL/MOL
REMARK 923 INTER-LIGAND FREE ENERGY PREDICTED BY IDOCK:   -4.71 KCAL/MOL
REMARK 924 INTRA-LIGAND FREE ENERGY PREDICTED BY IDOCK:   -0.36 KCAL/MOL
REMARK 927      BINDING AFFINITY PREDICTED BY RF-SCORE:    0.00 PKD
ROOT
HETATM    1  C   UNL     1     -10.766  17.058  68.784  1.00  0.00    -0.313 C  
HETATM    2  C   UNL     1     -11.592  15.786  68.652  1.00  0.00    -0.392 C  
ENDROOT
BRANCH   2   3
HETATM    3  CA  UNL     1     -11.404  14.785  69.815  1.00  0.00    -0.283 C  
BRANCH   3   4
HETATM    4  C   UNL     1     -12.718  14.500  70.591  1.00  0.00    -0.360 C  
HETATM    5  H   UNL     1     -14.249  15.498  71.423  1.00  0.00     0.000 HD 
HETATM    6  O   UNL     1     -13.444  15.673  70.948  1.00  0.00    -0.569 OA 
ENDBRANCH   3   4
BRANCH   3   7
HETATM    7  N   UNL     1     -10.786  13.583  69.217  1.00  0.00    -0.433 NA 
HETATM    8  H   UNL     1     -11.217  12.735  69.584  1.00  0.00     0.000 HD 
BRANCH   7   9
HETATM    9  C   UNL     1     -10.808  13.583  67.747  1.00  0.00    -0.253 C  
BRANCH   9  10
HETATM   10  C   UNL     1      -9.509  12.963  67.188  1.00  0.00    -0.229 C  
BRANCH  10  11
HETATM   11  N   UNL     1      -9.659  12.609  65.766  1.00  0.00    -0.428 NA 
HETATM   12  H   UNL     1      -9.145  13.259  65.171  1.00  0.00     0.000 HD 
BRANCH  11  13
HETATM   13  CA  UNL     1      -9.270  11.204  65.478  1.00  0.00    -0.216 C  
BRANCH  13  14
HETATM   14  C   UNL     1     -10.176  10.651  64.354  1.00  0.00    -0.330 C  
HETATM   15  H   UNL     1     -11.729  11.266  63.302  1.00  0.00     0.000 HD 
HETATM   16  O   UNL     1     -11.172  11.606  63.993  1.00  0.00    -0.361 OA 
ENDBRANCH  13  14
BRANCH  13  17
HETATM   17  C   UNL     1      -9.300  10.269  66.705  1.00  0.00    -0.192 C  
HETATM   18  C   UNL     1     -10.154   9.020  66.540  1.00  0.00    -0.354 C  
ENDBRANCH  13  17
ENDBRANCH  11  13
ENDBRANCH  10  11
ENDBRANCH   9  10
ENDBRANCH   7   9
ENDBRANCH   3   7
ENDBRANCH   2   3
TORSDOF 9
ENDMDL
MODEL      169
REMARK 921   NORMALIZED FREE ENERGY PREDICTED BY IDOCK:   -3.06 KCAL/MOL
REMARK 922        TOTAL FREE ENERGY PREDICTED BY IDOCK:   -5.07 KCAL/MOL
REMARK 923 INTER-LIGAND FREE ENERGY PREDICTED BY IDOCK:   -4.43 KCAL/MOL
REMARK 924 INTRA-LIGAND FREE ENERGY PREDICTED BY IDOCK:   -0.65 KCAL/MOL
REMARK 927      BINDING AFFINITY PREDICTED BY RF-SCORE:    0.00 PKD
ROOT
HETATM    1  C   UNL     1      -7.180  16.681  68.969  1.00  0.00    -0.222 C  
HETATM    2  C   UNL     1      -8.296  15.758  69.438  1.00  0.00    -0.215 C  
ENDROOT
BRANCH   2   3
HETATM    3  CA  UNL     1      -9.666  16.035  68.776  1.00  0.00    -0.226 C  
BRANCH   3   4
HETATM    4  C   UNL     1     -10.790  16.331  69.807  1.00  0.00    -0.356 C  
HETATM    5  H   UNL     1     -12.709  15.854  70.153  1.00  0.00     0.000 HD 
HETATM    6  O   UNL     1     -12.022  15.674  69.523  1.00  0.00    -0.359 OA 
ENDBRANCH   3   4
BRANCH   3   7
HETATM    7  N   UNL     1      -9.434  17.128  67.810  1.00  0.00    -0.250 NA 
HETATM    8  H   UNL     1      -8.471  17.113  67.472  1.00  0.00     0.000 HD 
BRANCH   7   9
HETATM    9  C   UNL     1     -10.379  17.127  66.684  1.00  0.00    -0.310 C  
BRANCH   9  10
HETATM   10  C   UNL     1     -10.542  15.700  66.116  1.00  0.00    -0.320 C  
BRANCH  10  11
HETATM   11  N   UNL     1     -11.944  15.256  66.191  1.00  0.00     0.186 NA 
HETATM   12  H   UNL     1     -12.528  15.777  65.537  1.00  0.00     0.000 HD 
BRANCH  11  13
HETATM   13  CA  UNL     1     -12.095  13.792  65.990  1.00  0.00    -0.436 C  
BRANCH  13  14
HETATM   14  C   UNL     1     -11.568  13.054  67.242  1.00  0.00    -0.356 C  
HETATM   15  H   UNL     1     -11.602  11.220  67.971  1.00  0.00     0.000 HD 
HETATM   16  O   UNL     1     -11.926  11.673  67.201  1.00  0.00    -0.614 OA 
ENDBRANCH  13  14
BRANCH  13  17
HETATM   17  C   UNL     1     -11.415  13.249  64.716  1.00  0.00    -0.355 C  
HETATM   18  C   UNL     1     -12.341  12.513  63.757  1.00  0.00    -0.595 C  
ENDBRANCH  13  17
ENDBRANCH  11  13
ENDBRANCH  10  11
ENDBRANCH   9  10
ENDBRANCH   7   9
ENDBRANCH   3   7
ENDBRANCH   2   3
TORSDOF 9
ENDMDL
MODEL      170
REMARK 921   NORMALIZED FREE ENERGY PREDICTED BY IDOCK:   -3.05 KCAL/MOL
REMARK 922        TOTAL FREE ENERGY PREDICTED BY IDOCK:   -5.07 KCAL/MOL
REMARK 923 INTER-LIGAND FREE ENERGY PREDICTED BY IDOCK:   -4.82 KCAL/MOL
REMARK 924 INTRA-LIGAND FREE ENERGY PREDICTED BY IDOCK:   -0.25 KCAL/MOL
REMARK 927      BINDING AFFINITY PREDICTED BY RF-SCORE:    0.00 PKD
ROOT
HETATM    1  C   UNL     1     -12.693  14.297  70.411  1.00  0.00    -0.355 C  
HETATM    2  C   UNL     1     -11.887  14.811  69.227  1.00  0.00    -0.352 C  
ENDROOT
BRANCH   2   3
HETATM    3  CA  UNL     1     -11.414  13.705  68.255  1.00  0.00    -0.313 C  
BRANCH   3   4
HETATM    4  C   UNL     1     -12.148  13.745  66.887  1.00  0.00    -0.413 C  
HETATM    5  H   UNL     1     -12.599  12.524  65.358  1.00  0.00     0.000 HD 
HETATM    6  O   UNL     1     -12.149  12.500  66.195  1.00  0.00    -0.571 OA 
ENDBRANCH   3   4
BRANCH   3   7
HETATM    7  N   UNL     1      -9.948  13.856  68.155  1.00  0.00    -0.233 NA 
HETATM    8  H   UNL     1      -9.653  13.883  67.179  1.00  0.00     0.000 HD 
BRANCH   7   9
HETATM    9  C   UNL     1      -9.426  15.018  68.888  1.00  0.00    -0.211 C  
BRANCH   9  10
HETATM   10  C   UNL     1      -8.891  16.082  67.904  1.00  0.00    -0.180 C  
BRANCH  10  11
HETATM   11  N   UNL     1      -9.099  17.442  68.428  1.00  0.00    -0.268 NA 
HETATM   12  H   UNL     1      -8.380  17.686  69.110  1.00  0.00     0.000 HD 
BRANCH  11  13
HETATM   13  CA  UNL     1      -9.183  18.465  67.355  1.00  0.00    -0.271 C  
BRANCH  13  14
HETATM   14  C   UNL     1      -8.179  19.601  67.662  1.00  0.00    -0.300 C  
HETATM   15  H   UNL     1      -7.055  20.178  69.178  1.00  0.00     0.000 HD 
HETATM   16  O   UNL     1      -7.672  19.480  68.990  1.00  0.00    -0.362 OA 
ENDBRANCH  13  14
BRANCH  13  17
HETATM   17  C   UNL     1     -10.596  19.041  67.130  1.00  0.00    -0.545 C  
HETATM   18  C   UNL     1     -10.754  19.883  65.872  1.00  0.00    -0.445 C  
ENDBRANCH  13  17
ENDBRANCH  11  13
ENDBRANCH  10  11
ENDBRANCH   9  10
ENDBRANCH   7   9
ENDBRANCH   3   7
ENDBRANCH   2   3
TORSDOF 9
ENDMDL
MODEL      171
REMARK 921   NORMALIZED FREE ENERGY PREDICTED BY IDOCK:   -3.05 KCAL/MOL
REMARK 922        TOTAL FREE ENERGY PREDICTED BY IDOCK:   -5.06 KCAL/MOL
REMARK 923 INTER-LIGAND FREE ENERGY PREDICTED BY IDOCK:   -4.72 KCAL/MOL
REMARK 924 INTRA-LIGAND FREE ENERGY PREDICTED BY IDOCK:   -0.34 KCAL/MOL
REMARK 927      BINDING AFFINITY PREDICTED BY RF-SCORE:    0.00 PKD
ROOT
HETATM    1  C   UNL     1      -9.737  10.121  65.140  1.00  0.00    -0.370 C  
HETATM    2  C   UNL     1     -10.621  10.542  66.305  1.00  0.00    -0.203 C  
ENDROOT
BRANCH   2   3
HETATM    3  CA  UNL     1     -11.029  12.034  66.284  1.00  0.00    -0.299 C  
BRANCH   3   4
HETATM    4  C   UNL     1     -11.781  12.477  67.568  1.00  0.00    -0.374 C  
HETATM    5  H   UNL     1     -11.403  12.874  69.499  1.00  0.00     0.000 HD 
HETATM    6  O   UNL     1     -10.943  12.602  68.714  1.00  0.00    -0.238 OA 
ENDBRANCH   3   4
BRANCH   3   7
HETATM    7  N   UNL     1      -9.785  12.788  66.024  1.00  0.00    -0.338 NA 
HETATM    8  H   UNL     1      -9.157  12.254  65.423  1.00  0.00     0.000 HD 
BRANCH   7   9
HETATM    9  C   UNL     1     -10.016  14.130  65.472  1.00  0.00    -0.295 C  
BRANCH   9  10
HETATM   10  C   UNL     1      -9.117  15.168  66.178  1.00  0.00    -0.241 C  
BRANCH  10  11
HETATM   11  N   UNL     1      -9.590  16.540  65.927  1.00  0.00    -0.483 NA 
HETATM   12  H   UNL     1     -10.501  16.533  65.467  1.00  0.00     0.000 HD 
BRANCH  11  13
HETATM   13  CA  UNL     1      -9.620  17.373  67.156  1.00  0.00    -0.265 C  
BRANCH  13  14
HETATM   14  C   UNL     1      -9.913  16.465  68.373  1.00  0.00    -0.238 C  
HETATM   15  H   UNL     1     -11.466  15.520  69.142  1.00  0.00     0.000 HD 
HETATM   16  O   UNL     1     -11.286  16.078  68.395  1.00  0.00    -0.355 OA 
ENDBRANCH  13  14
BRANCH  13  17
HETATM   17  C   UNL     1     -10.617  18.548  67.107  1.00  0.00    -0.439 C  
HETATM   18  C   UNL     1     -10.309  19.693  68.063  1.00  0.00    -0.579 C  
ENDBRANCH  13  17
ENDBRANCH  11  13
ENDBRANCH  10  11
ENDBRANCH   9  10
ENDBRANCH   7   9
ENDBRANCH   3   7
ENDBRANCH   2   3
TORSDOF 9
ENDMDL
MODEL      172
REMARK 921   NORMALIZED FREE ENERGY PREDICTED BY IDOCK:   -3.04 KCAL/MOL
REMARK 922        TOTAL FREE ENERGY PREDICTED BY IDOCK:   -5.05 KCAL/MOL
REMARK 923 INTER-LIGAND FREE ENERGY PREDICTED BY IDOCK:   -4.49 KCAL/MOL
REMARK 924 INTRA-LIGAND FREE ENERGY PREDICTED BY IDOCK:   -0.57 KCAL/MOL
REMARK 927      BINDING AFFINITY PREDICTED BY RF-SCORE:    0.00 PKD
ROOT
HETATM    1  C   UNL     1     -10.387  10.706  68.925  1.00  0.00    -0.225 C  
HETATM    2  C   UNL     1     -11.281  10.385  70.115  1.00  0.00    -0.393 C  
ENDROOT
BRANCH   2   3
HETATM    3  CA  UNL     1     -12.375  11.443  70.388  1.00  0.00    -0.319 C  
BRANCH   3   4
HETATM    4  C   UNL     1     -13.036  11.287  71.785  1.00  0.00    -0.414 C  
HETATM    5  H   UNL     1     -13.445   9.854  73.130  1.00  0.00     0.000 HD 
HETATM    6  O   UNL     1     -13.040   9.949  72.276  1.00  0.00    -0.418 OA 
ENDBRANCH   3   4
BRANCH   3   7
HETATM    7  N   UNL     1     -11.731  12.755  70.171  1.00  0.00    -0.535 NA 
HETATM    8  H   UNL     1     -11.603  12.934  69.175  1.00  0.00     0.000 HD 
BRANCH   7   9
HETATM    9  C   UNL     1     -12.440  13.871  70.813  1.00  0.00    -0.375 C  
BRANCH   9  10
HETATM   10  C   UNL     1     -12.145  15.195  70.075  1.00  0.00    -0.345 C  
BRANCH  10  11
HETATM   11  N   UNL     1     -11.556  14.944  68.749  1.00  0.00    -0.308 NA 
HETATM   12  H   UNL     1     -12.264  15.006  68.017  1.00  0.00     0.000 HD 
BRANCH  11  13
HETATM   13  CA  UNL     1     -10.405  15.834  68.453  1.00  0.00    -0.233 C  
BRANCH  13  14
HETATM   14  C   UNL     1      -9.117  15.198  69.025  1.00  0.00    -0.218 C  
HETATM   15  H   UNL     1      -8.270  13.416  69.069  1.00  0.00     0.000 HD 
HETATM   16  O   UNL     1      -9.062  13.806  68.718  1.00  0.00    -0.108 OA 
ENDBRANCH  13  14
BRANCH  13  17
HETATM   17  C   UNL     1     -10.567  17.280  68.965  1.00  0.00    -0.247 C  
HETATM   18  C   UNL     1      -9.556  18.275  68.411  1.00  0.00    -0.350 C  
ENDBRANCH  13  17
ENDBRANCH  11  13
ENDBRANCH  10  11
ENDBRANCH   9  10
ENDBRANCH   7   9
ENDBRANCH   3   7
ENDBRANCH   2   3
TORSDOF 9
ENDMDL
MODEL      173
REMARK 921   NORMALIZED FREE ENERGY PREDICTED BY IDOCK:   -3.04 KCAL/MOL
REMARK 922        TOTAL FREE ENERGY PREDICTED BY IDOCK:   -5.05 KCAL/MOL
REMARK 923 INTER-LIGAND FREE ENERGY PREDICTED BY IDOCK:   -4.83 KCAL/MOL
REMARK 924 INTRA-LIGAND FREE ENERGY PREDICTED BY IDOCK:   -0.22 KCAL/MOL
REMARK 927      BINDING AFFINITY PREDICTED BY RF-SCORE:    0.00 PKD
ROOT
HETATM    1  C   UNL     1     -10.243   8.970  66.942  1.00  0.00    -0.339 C  
HETATM    2  C   UNL     1     -10.056   9.713  68.257  1.00  0.00    -0.203 C  
ENDROOT
BRANCH   2   3
HETATM    3  CA  UNL     1     -11.218   9.526  69.261  1.00  0.00    -0.000 C  
BRANCH   3   4
HETATM    4  C   UNL     1     -10.769   9.659  70.742  1.00  0.00    -0.331 C  
HETATM    5  H   UNL     1     -11.516   9.432  72.591  1.00  0.00     0.000 HD 
HETATM    6  O   UNL     1     -11.791   9.351  71.685  1.00  0.00    -0.351 OA 
ENDBRANCH   3   4
BRANCH   3   7
HETATM    7  N   UNL     1     -12.258  10.495  68.859  1.00  0.00    -0.773 NA 
HETATM    8  H   UNL     1     -13.043  10.473  69.509  1.00  0.00     0.000 HD 
BRANCH   7   9
HETATM    9  C   UNL     1     -11.753  11.867  68.701  1.00  0.00    -0.323 C  
BRANCH   9  10
HETATM   10  C   UNL     1     -12.061  12.704  69.962  1.00  0.00    -0.269 C  
BRANCH  10  11
HETATM   11  N   UNL     1     -12.384  14.097  69.609  1.00  0.00    -0.430 NA 
HETATM   12  H   UNL     1     -13.371  14.193  69.370  1.00  0.00     0.000 HD 
BRANCH  11  13
HETATM   13  CA  UNL     1     -11.996  15.064  70.667  1.00  0.00    -0.318 C  
BRANCH  13  14
HETATM   14  C   UNL     1     -13.254  15.458  71.476  1.00  0.00    -0.490 C  
HETATM   15  H   UNL     1     -14.234  14.795  73.056  1.00  0.00     0.000 HD 
HETATM   16  O   UNL     1     -13.461  14.553  72.559  1.00  0.00    -0.411 OA 
ENDBRANCH  13  14
BRANCH  13  17
HETATM   17  C   UNL     1     -11.272  16.323  70.148  1.00  0.00    -0.340 C  
HETATM   18  C   UNL     1     -10.372  16.095  68.941  1.00  0.00    -0.250 C  
ENDBRANCH  13  17
ENDBRANCH  11  13
ENDBRANCH  10  11
ENDBRANCH   9  10
ENDBRANCH   7   9
ENDBRANCH   3   7
ENDBRANCH   2   3
TORSDOF 9
ENDMDL
MODEL      174
REMARK 921   NORMALIZED FREE ENERGY PREDICTED BY IDOCK:   -3.03 KCAL/MOL
REMARK 922        TOTAL FREE ENERGY PREDICTED BY IDOCK:   -5.04 KCAL/MOL
REMARK 923 INTER-LIGAND FREE ENERGY PREDICTED BY IDOCK:   -4.31 KCAL/MOL
REMARK 924 INTRA-LIGAND FREE ENERGY PREDICTED BY IDOCK:   -0.73 KCAL/MOL
REMARK 927      BINDING AFFINITY PREDICTED BY RF-SCORE:    0.00 PKD
ROOT
HETATM    1  C   UNL     1     -11.015   6.885  67.108  1.00  0.00    -0.427 C  
HETATM    2  C   UNL     1      -9.738   7.651  66.794  1.00  0.00    -0.290 C  
ENDROOT
BRANCH   2   3
HETATM    3  CA  UNL     1      -9.911   9.188  66.766  1.00  0.00    -0.254 C  
BRANCH   3   4
HETATM    4  C   UNL     1      -9.910   9.773  65.328  1.00  0.00    -0.265 C  
HETATM    5  H   UNL     1      -9.378  11.451  64.362  1.00  0.00     0.000 HD 
HETATM    6  O   UNL     1      -9.380  11.093  65.242  1.00  0.00    -0.216 OA 
ENDBRANCH   3   4
BRANCH   3   7
HETATM    7  N   UNL     1     -11.146   9.468  67.528  1.00  0.00    -0.421 NA 
HETATM    8  H   UNL     1     -11.521   8.611  67.935  1.00  0.00     0.000 HD 
BRANCH   7   9
HETATM    9  C   UNL     1     -10.978  10.502  68.559  1.00  0.00    -0.252 C  
BRANCH   9  10
HETATM   10  C   UNL     1     -10.927   9.862  69.964  1.00  0.00    -0.291 C  
BRANCH  10  11
HETATM   11  N   UNL     1     -11.979   8.843  70.121  1.00  0.00    -0.372 NA 
HETATM   12  H   UNL     1     -12.309   8.516  69.213  1.00  0.00     0.000 HD 
BRANCH  11  13
HETATM   13  CA  UNL     1     -11.554   7.704  70.974  1.00  0.00    -0.282 C  
BRANCH  13  14
HETATM   14  C   UNL     1     -11.683   8.112  72.460  1.00  0.00    -0.394 C  
HETATM   15  H   UNL     1     -12.983   9.066  73.598  1.00  0.00     0.000 HD 
HETATM   16  O   UNL     1     -12.904   8.815  72.685  1.00  0.00    -0.383 OA 
ENDBRANCH  13  14
BRANCH  13  17
HETATM   17  C   UNL     1     -10.133   7.181  70.680  1.00  0.00    -0.198 C  
HETATM   18  C   UNL     1     -10.031   5.675  70.478  1.00  0.00    -0.265 C  
ENDBRANCH  13  17
ENDBRANCH  11  13
ENDBRANCH  10  11
ENDBRANCH   9  10
ENDBRANCH   7   9
ENDBRANCH   3   7
ENDBRANCH   2   3
TORSDOF 9
ENDMDL
MODEL      175
REMARK 921   NORMALIZED FREE ENERGY PREDICTED BY IDOCK:   -3.02 KCAL/MOL
REMARK 922        TOTAL FREE ENERGY PREDICTED BY IDOCK:   -5.02 KCAL/MOL
REMARK 923 INTER-LIGAND FREE ENERGY PREDICTED BY IDOCK:   -4.77 KCAL/MOL
REMARK 924 INTRA-LIGAND FREE ENERGY PREDICTED BY IDOCK:   -0.26 KCAL/MOL
REMARK 927      BINDING AFFINITY PREDICTED BY RF-SCORE:    0.00 PKD
ROOT
HETATM    1  C   UNL     1      -8.411  14.547  67.607  1.00  0.00    -0.188 C  
HETATM    2  C   UNL     1      -9.501  13.670  67.007  1.00  0.00    -0.252 C  
ENDROOT
BRANCH   2   3
HETATM    3  CA  UNL     1     -10.765  13.539  67.889  1.00  0.00    -0.247 C  
BRANCH   3   4
HETATM    4  C   UNL     1     -12.026  13.123  67.084  1.00  0.00    -0.341 C  
HETATM    5  H   UNL     1     -13.336  13.909  65.782  1.00  0.00     0.000 HD 
HETATM    6  O   UNL     1     -12.565  14.164  66.274  1.00  0.00    -0.449 OA 
ENDBRANCH   3   4
BRANCH   3   7
HETATM    7  N   UNL     1     -10.406  12.601  68.972  1.00  0.00    -0.436 NA 
HETATM    8  H   UNL     1     -10.255  13.102  69.848  1.00  0.00     0.000 HD 
BRANCH   7   9
HETATM    9  C   UNL     1     -11.379  11.515  69.155  1.00  0.00    -0.286 C  
BRANCH   9  10
HETATM   10  C   UNL     1     -10.657  10.154  69.257  1.00  0.00    -0.230 C  
BRANCH  10  11
HETATM   11  N   UNL     1     -11.505   9.152  69.927  1.00  0.00    -0.442 NA 
HETATM   12  H   UNL     1     -11.062   8.234  69.918  1.00  0.00     0.000 HD 
BRANCH  11  13
HETATM   13  CA  UNL     1     -11.882   9.548  71.307  1.00  0.00    -0.373 C  
BRANCH  13  14
HETATM   14  C   UNL     1     -11.369   8.476  72.297  1.00  0.00    -0.371 C  
HETATM   15  H   UNL     1     -10.117   6.951  72.268  1.00  0.00     0.000 HD 
HETATM   16  O   UNL     1     -10.432   7.609  71.660  1.00  0.00    -0.197 OA 
ENDBRANCH  13  14
BRANCH  13  17
HETATM   17  C   UNL     1     -13.391   9.793  71.513  1.00  0.00    -0.468 C  
HETATM   18  C   UNL     1     -14.094   8.773  72.398  1.00  0.00    -0.485 C  
ENDBRANCH  13  17
ENDBRANCH  11  13
ENDBRANCH  10  11
ENDBRANCH   9  10
ENDBRANCH   7   9
ENDBRANCH   3   7
ENDBRANCH   2   3
TORSDOF 9
ENDMDL
MODEL      176
REMARK 921   NORMALIZED FREE ENERGY PREDICTED BY IDOCK:   -3.02 KCAL/MOL
REMARK 922        TOTAL FREE ENERGY PREDICTED BY IDOCK:   -5.01 KCAL/MOL
REMARK 923 INTER-LIGAND FREE ENERGY PREDICTED BY IDOCK:   -4.64 KCAL/MOL
REMARK 924 INTRA-LIGAND FREE ENERGY PREDICTED BY IDOCK:   -0.37 KCAL/MOL
REMARK 927      BINDING AFFINITY PREDICTED BY RF-SCORE:    0.00 PKD
ROOT
HETATM    1  C   UNL     1     -10.975   6.425  66.938  1.00  0.00    -0.413 C  
HETATM    2  C   UNL     1     -10.999   6.946  68.368  1.00  0.00    -0.198 C  
ENDROOT
BRANCH   2   3
HETATM    3  CA  UNL     1     -10.321   8.324  68.551  1.00  0.00    -0.199 C  
BRANCH   3   4
HETATM    4  C   UNL     1      -8.796   8.295  68.258  1.00  0.00    -0.140 C  
HETATM    5  H   UNL     1      -7.079   7.760  69.150  1.00  0.00     0.000 HD 
HETATM    6  O   UNL     1      -8.012   7.779  69.329  1.00  0.00    -0.120 OA 
ENDBRANCH   3   4
BRANCH   3   7
HETATM    7  N   UNL     1     -11.079   9.263  67.698  1.00  0.00    -0.447 NA 
HETATM    8  H   UNL     1     -11.946   8.835  67.371  1.00  0.00     0.000 HD 
BRANCH   7   9
HETATM    9  C   UNL     1     -11.350  10.555  68.343  1.00  0.00    -0.262 C  
BRANCH   9  10
HETATM   10  C   UNL     1     -10.951  11.720  67.410  1.00  0.00    -0.262 C  
BRANCH  10  11
HETATM   11  N   UNL     1     -10.636  11.231  66.057  1.00  0.00    -0.264 NA 
HETATM   12  H   UNL     1     -11.102  10.343  65.871  1.00  0.00     0.000 HD 
BRANCH  11  13
HETATM   13  CA  UNL     1     -10.945  12.227  64.999  1.00  0.00    -0.302 C  
BRANCH  13  14
HETATM   14  C   UNL     1     -12.389  12.743  65.201  1.00  0.00    -0.496 C  
HETATM   15  H   UNL     1     -14.192  12.327  64.514  1.00  0.00     0.000 HD 
HETATM   16  O   UNL     1     -13.305  12.009  64.390  1.00  0.00    -0.657 OA 
ENDBRANCH  13  14
BRANCH  13  17
HETATM   17  C   UNL     1     -10.754  11.709  63.559  1.00  0.00    -0.495 C  
HETATM   18  C   UNL     1      -9.703  10.619  63.402  1.00  0.00    -0.387 C  
ENDBRANCH  13  17
ENDBRANCH  11  13
ENDBRANCH  10  11
ENDBRANCH   9  10
ENDBRANCH   7   9
ENDBRANCH   3   7
ENDBRANCH   2   3
TORSDOF 9
ENDMDL
MODEL      177
REMARK 921   NORMALIZED FREE ENERGY PREDICTED BY IDOCK:   -3.00 KCAL/MOL
REMARK 922        TOTAL FREE ENERGY PREDICTED BY IDOCK:   -4.99 KCAL/MOL
REMARK 923 INTER-LIGAND FREE ENERGY PREDICTED BY IDOCK:   -4.65 KCAL/MOL
REMARK 924 INTRA-LIGAND FREE ENERGY PREDICTED BY IDOCK:   -0.34 KCAL/MOL
REMARK 927      BINDING AFFINITY PREDICTED BY RF-SCORE:    0.00 PKD
ROOT
HETATM    1  C   UNL     1      -7.840  13.003  67.567  1.00  0.00    -0.178 C  
HETATM    2  C   UNL     1      -9.311  13.341  67.364  1.00  0.00    -0.217 C  
ENDROOT
BRANCH   2   3
HETATM    3  CA  UNL     1      -9.907  12.800  66.043  1.00  0.00    -0.255 C  
BRANCH   3   4
HETATM    4  C   UNL     1     -11.302  12.144  66.230  1.00  0.00    -0.357 C  
HETATM    5  H   UNL     1     -12.132  10.545  67.117  1.00  0.00     0.000 HD 
HETATM    6  O   UNL     1     -11.278  10.947  67.002  1.00  0.00    -0.303 OA 
ENDBRANCH   3   4
BRANCH   3   7
HETATM    7  N   UNL     1      -9.900  13.939  65.102  1.00  0.00    -0.595 NA 
HETATM    8  H   UNL     1      -9.773  13.614  64.143  1.00  0.00     0.000 HD 
BRANCH   7   9
HETATM    9  C   UNL     1     -11.089  14.796  65.207  1.00  0.00    -0.370 C  
BRANCH   9  10
HETATM   10  C   UNL     1     -10.697  16.284  65.074  1.00  0.00    -0.298 C  
BRANCH  10  11
HETATM   11  N   UNL     1     -10.662  16.943  66.391  1.00  0.00    -0.160 NA 
HETATM   12  H   UNL     1     -10.412  16.281  67.125  1.00  0.00     0.000 HD 
BRANCH  11  13
HETATM   13  CA  UNL     1      -9.768  18.129  66.417  1.00  0.00    -0.327 C  
BRANCH  13  14
HETATM   14  C   UNL     1      -8.521  17.801  67.270  1.00  0.00    -0.231 C  
HETATM   15  H   UNL     1      -6.861  16.750  67.075  1.00  0.00     0.000 HD 
HETATM   16  O   UNL     1      -7.628  16.951  66.551  1.00  0.00    -0.234 OA 
ENDBRANCH  13  14
BRANCH  13  17
HETATM   17  C   UNL     1     -10.438  19.424  66.918  1.00  0.00    -0.569 C  
HETATM   18  C   UNL     1     -10.255  19.710  68.402  1.00  0.00    -0.553 C  
ENDBRANCH  13  17
ENDBRANCH  11  13
ENDBRANCH  10  11
ENDBRANCH   9  10
ENDBRANCH   7   9
ENDBRANCH   3   7
ENDBRANCH   2   3
TORSDOF 9
ENDMDL
MODEL      178
REMARK 921   NORMALIZED FREE ENERGY PREDICTED BY IDOCK:   -2.99 KCAL/MOL
REMARK 922        TOTAL FREE ENERGY PREDICTED BY IDOCK:   -4.97 KCAL/MOL
REMARK 923 INTER-LIGAND FREE ENERGY PREDICTED BY IDOCK:   -4.54 KCAL/MOL
REMARK 924 INTRA-LIGAND FREE ENERGY PREDICTED BY IDOCK:   -0.43 KCAL/MOL
REMARK 927      BINDING AFFINITY PREDICTED BY RF-SCORE:    0.00 PKD
ROOT
HETATM    1  C   UNL     1     -11.365  15.141  68.278  1.00  0.00    -0.338 C  
HETATM    2  C   UNL     1     -11.963  14.703  66.948  1.00  0.00    -0.294 C  
ENDROOT
BRANCH   2   3
HETATM    3  CA  UNL     1     -11.089  13.698  66.162  1.00  0.00    -0.295 C  
BRANCH   3   4
HETATM    4  C   UNL     1     -10.332  14.350  64.973  1.00  0.00    -0.421 C  
HETATM    5  H   UNL     1     -10.041  16.160  64.156  1.00  0.00     0.000 HD 
HETATM    6  O   UNL     1     -10.505  15.761  64.883  1.00  0.00    -0.499 OA 
ENDBRANCH   3   4
BRANCH   3   7
HETATM    7  N   UNL     1     -10.207  13.062  67.162  1.00  0.00    -0.241 NA 
HETATM    8  H   UNL     1     -10.521  13.275  68.108  1.00  0.00     0.000 HD 
BRANCH   7   9
HETATM    9  C   UNL     1     -10.060  11.611  66.977  1.00  0.00    -0.209 C  
BRANCH   9  10
HETATM   10  C   UNL     1     -10.467  10.859  68.263  1.00  0.00    -0.179 C  
BRANCH  10  11
HETATM   11  N   UNL     1     -11.774  11.324  68.759  1.00  0.00    -0.332 NA 
HETATM   12  H   UNL     1     -12.468  11.329  68.012  1.00  0.00     0.000 HD 
BRANCH  11  13
HETATM   13  CA  UNL     1     -12.256  10.546  69.928  1.00  0.00    -0.218 C  
BRANCH  13  14
HETATM   14  C   UNL     1     -12.658  11.525  71.055  1.00  0.00    -0.357 C  
HETATM   15  H   UNL     1     -12.559  13.467  71.399  1.00  0.00     0.000 HD 
HETATM   16  O   UNL     1     -12.312  12.865  70.706  1.00  0.00    -0.368 OA 
ENDBRANCH  13  14
BRANCH  13  17
HETATM   17  C   UNL     1     -11.254   9.499  70.456  1.00  0.00    -0.345 C  
HETATM   18  C   UNL     1     -11.543   8.982  71.859  1.00  0.00    -0.441 C  
ENDBRANCH  13  17
ENDBRANCH  11  13
ENDBRANCH  10  11
ENDBRANCH   9  10
ENDBRANCH   7   9
ENDBRANCH   3   7
ENDBRANCH   2   3
TORSDOF 9
ENDMDL
MODEL      179
REMARK 921   NORMALIZED FREE ENERGY PREDICTED BY IDOCK:   -2.98 KCAL/MOL
REMARK 922        TOTAL FREE ENERGY PREDICTED BY IDOCK:   -4.96 KCAL/MOL
REMARK 923 INTER-LIGAND FREE ENERGY PREDICTED BY IDOCK:   -4.46 KCAL/MOL
REMARK 924 INTRA-LIGAND FREE ENERGY PREDICTED BY IDOCK:   -0.50 KCAL/MOL
REMARK 927      BINDING AFFINITY PREDICTED BY RF-SCORE:    0.00 PKD
ROOT
HETATM    1  C   UNL     1     -10.257   4.754  66.060  1.00  0.00    -0.308 C  
HETATM    2  C   UNL     1     -10.650   5.569  67.284  1.00  0.00    -0.294 C  
ENDROOT
BRANCH   2   3
HETATM    3  CA  UNL     1      -9.494   6.400  67.890  1.00  0.00    -0.115 C  
BRANCH   3   4
HETATM    4  C   UNL     1      -9.418   7.841  67.318  1.00  0.00    -0.148 C  
HETATM    5  H   UNL     1     -10.594   9.188  66.405  1.00  0.00     0.000 HD 
HETATM    6  O   UNL     1     -10.641   8.305  66.754  1.00  0.00    -0.306 OA 
ENDBRANCH   3   4
BRANCH   3   7
HETATM    7  N   UNL     1      -9.681   6.343  69.354  1.00  0.00    -0.145 NA 
HETATM    8  H   UNL     1      -9.448   7.238  69.783  1.00  0.00     0.000 HD 
BRANCH   7   9
HETATM    9  C   UNL     1     -11.026   5.908  69.758  1.00  0.00    -0.382 C  
BRANCH   9  10
HETATM   10  C   UNL     1     -11.412   6.536  71.115  1.00  0.00    -0.326 C  
BRANCH  10  11
HETATM   11  N   UNL     1     -12.484   7.534  70.953  1.00  0.00    -0.533 NA 
HETATM   12  H   UNL     1     -13.353   7.209  71.378  1.00  0.00     0.000 HD 
BRANCH  11  13
HETATM   13  CA  UNL     1     -12.106   8.873  71.472  1.00  0.00    -0.330 C  
BRANCH  13  14
HETATM   14  C   UNL     1     -13.214   9.887  71.104  1.00  0.00    -0.347 C  
HETATM   15  H   UNL     1     -13.942  11.573  71.828  1.00  0.00     0.000 HD 
HETATM   16  O   UNL     1     -13.261  10.950  72.054  1.00  0.00    -0.492 OA 
ENDBRANCH  13  14
BRANCH  13  17
HETATM   17  C   UNL     1     -10.731   9.379  70.991  1.00  0.00    -0.407 C  
HETATM   18  C   UNL     1     -10.765  10.240  69.735  1.00  0.00    -0.328 C  
ENDBRANCH  13  17
ENDBRANCH  11  13
ENDBRANCH  10  11
ENDBRANCH   9  10
ENDBRANCH   7   9
ENDBRANCH   3   7
ENDBRANCH   2   3
TORSDOF 9
ENDMDL
MODEL      180
REMARK 921   NORMALIZED FREE ENERGY PREDICTED BY IDOCK:   -2.97 KCAL/MOL
REMARK 922        TOTAL FREE ENERGY PREDICTED BY IDOCK:   -4.95 KCAL/MOL
REMARK 923 INTER-LIGAND FREE ENERGY PREDICTED BY IDOCK:   -4.47 KCAL/MOL
REMARK 924 INTRA-LIGAND FREE ENERGY PREDICTED BY IDOCK:   -0.48 KCAL/MOL
REMARK 927      BINDING AFFINITY PREDICTED BY RF-SCORE:    0.00 PKD
ROOT
HETATM    1  C   UNL     1      -9.338   8.142  67.562  1.00  0.00    -0.165 C  
HETATM    2  C   UNL     1     -10.588   7.344  67.220  1.00  0.00    -0.393 C  
ENDROOT
BRANCH   2   3
HETATM    3  CA  UNL     1     -10.782   6.073  68.079  1.00  0.00    -0.282 C  
BRANCH   3   4
HETATM    4  C   UNL     1     -10.165   4.802  67.433  1.00  0.00    -0.078 C  
HETATM    5  H   UNL     1     -10.058   3.896  65.645  1.00  0.00     0.000 HD 
HETATM    6  O   UNL     1     -10.436   4.673  66.041  1.00  0.00    -0.290 OA 
ENDBRANCH   3   4
BRANCH   3   7
HETATM    7  N   UNL     1     -10.231   6.398  69.411  1.00  0.00    -0.182 NA 
HETATM    8  H   UNL     1     -10.022   7.394  69.481  1.00  0.00     0.000 HD 
BRANCH   7   9
HETATM    9  C   UNL     1     -11.090   5.968  70.523  1.00  0.00    -0.314 C  
BRANCH   9  10
HETATM   10  C   UNL     1     -12.244   6.973  70.735  1.00  0.00    -0.295 C  
BRANCH  10  11
HETATM   11  N   UNL     1     -12.211   7.540  72.094  1.00  0.00    -0.419 NA 
HETATM   12  H   UNL     1     -11.496   7.085  72.663  1.00  0.00     0.000 HD 
BRANCH  11  13
HETATM   13  CA  UNL     1     -12.037   9.014  72.099  1.00  0.00    -0.342 C  
BRANCH  13  14
HETATM   14  C   UNL     1     -13.408   9.683  72.355  1.00  0.00    -0.338 C  
HETATM   15  H   UNL     1     -15.199   9.136  72.980  1.00  0.00     0.000 HD 
HETATM   16  O   UNL     1     -14.357   8.725  72.823  1.00  0.00    -0.569 OA 
ENDBRANCH  13  14
BRANCH  13  17
HETATM   17  C   UNL     1     -11.389   9.585  70.822  1.00  0.00    -0.387 C  
HETATM   18  C   UNL     1     -11.706  11.048  70.538  1.00  0.00    -0.416 C  
ENDBRANCH  13  17
ENDBRANCH  11  13
ENDBRANCH  10  11
ENDBRANCH   9  10
ENDBRANCH   7   9
ENDBRANCH   3   7
ENDBRANCH   2   3
TORSDOF 9
ENDMDL
MODEL      181
REMARK 921   NORMALIZED FREE ENERGY PREDICTED BY IDOCK:   -2.97 KCAL/MOL
REMARK 922        TOTAL FREE ENERGY PREDICTED BY IDOCK:   -4.94 KCAL/MOL
REMARK 923 INTER-LIGAND FREE ENERGY PREDICTED BY IDOCK:   -4.32 KCAL/MOL
REMARK 924 INTRA-LIGAND FREE ENERGY PREDICTED BY IDOCK:   -0.62 KCAL/MOL
REMARK 927      BINDING AFFINITY PREDICTED BY RF-SCORE:    0.00 PKD
ROOT
HETATM    1  C   UNL     1     -11.142   6.635  67.034  1.00  0.00    -0.395 C  
HETATM    2  C   UNL     1      -9.831   7.371  66.795  1.00  0.00    -0.290 C  
ENDROOT
BRANCH   2   3
HETATM    3  CA  UNL     1      -9.935   8.909  66.920  1.00  0.00    -0.247 C  
BRANCH   3   4
HETATM    4  C   UNL     1      -9.905   9.634  65.547  1.00  0.00    -0.281 C  
HETATM    5  H   UNL     1     -10.574  11.325  64.697  1.00  0.00     0.000 HD 
HETATM    6  O   UNL     1     -10.593  10.882  65.537  1.00  0.00    -0.243 OA 
ENDBRANCH   3   4
BRANCH   3   7
HETATM    7  N   UNL     1     -11.157   9.167  67.710  1.00  0.00    -0.474 NA 
HETATM    8  H   UNL     1     -11.733   8.327  67.768  1.00  0.00     0.000 HD 
BRANCH   7   9
HETATM    9  C   UNL     1     -10.886   9.705  69.050  1.00  0.00    -0.183 C  
BRANCH   9  10
HETATM   10  C   UNL     1     -10.499  11.198  68.965  1.00  0.00    -0.206 C  
BRANCH  10  11
HETATM   11  N   UNL     1     -11.551  11.982  68.294  1.00  0.00    -0.312 NA 
HETATM   12  H   UNL     1     -12.400  11.428  68.176  1.00  0.00     0.000 HD 
BRANCH  11  13
HETATM   13  CA  UNL     1     -11.842  13.264  68.984  1.00  0.00    -0.321 C  
BRANCH  13  14
HETATM   14  C   UNL     1     -10.645  14.224  68.791  1.00  0.00    -0.252 C  
HETATM   15  H   UNL     1     -10.163  15.726  67.605  1.00  0.00     0.000 HD 
HETATM   16  O   UNL     1     -10.899  15.136  67.724  1.00  0.00    -0.275 OA 
ENDBRANCH  13  14
BRANCH  13  17
HETATM   17  C   UNL     1     -12.182  13.120  70.482  1.00  0.00    -0.405 C  
HETATM   18  C   UNL     1     -12.321  14.434  71.238  1.00  0.00    -0.432 C  
ENDBRANCH  13  17
ENDBRANCH  11  13
ENDBRANCH  10  11
ENDBRANCH   9  10
ENDBRANCH   7   9
ENDBRANCH   3   7
ENDBRANCH   2   3
TORSDOF 9
ENDMDL
MODEL      182
REMARK 921   NORMALIZED FREE ENERGY PREDICTED BY IDOCK:   -2.95 KCAL/MOL
REMARK 922        TOTAL FREE ENERGY PREDICTED BY IDOCK:   -4.91 KCAL/MOL
REMARK 923 INTER-LIGAND FREE ENERGY PREDICTED BY IDOCK:   -4.56 KCAL/MOL
REMARK 924 INTRA-LIGAND FREE ENERGY PREDICTED BY IDOCK:   -0.35 KCAL/MOL
REMARK 927      BINDING AFFINITY PREDICTED BY RF-SCORE:    0.00 PKD
ROOT
HETATM    1  C   UNL     1     -13.742  15.813  72.914  1.00  0.00    -0.631 C  
HETATM    2  C   UNL     1     -12.934  14.551  72.643  1.00  0.00    -0.538 C  
ENDROOT
BRANCH   2   3
HETATM    3  CA  UNL     1     -12.706  14.255  71.143  1.00  0.00    -0.360 C  
BRANCH   3   4
HETATM    4  C   UNL     1     -11.804  15.310  70.446  1.00  0.00    -0.324 C  
HETATM    5  H   UNL     1     -11.658  16.276  68.692  1.00  0.00     0.000 HD 
HETATM    6  O   UNL     1     -12.210  15.631  69.118  1.00  0.00    -0.298 OA 
ENDBRANCH   3   4
BRANCH   3   7
HETATM    7  N   UNL     1     -12.178  12.877  71.079  1.00  0.00    -0.410 NA 
HETATM    8  H   UNL     1     -12.298  12.402  71.974  1.00  0.00     0.000 HD 
BRANCH   7   9
HETATM    9  C   UNL     1     -12.753  12.078  69.987  1.00  0.00     0.285 C  
BRANCH   9  10
HETATM   10  C   UNL     1     -11.710  11.864  68.868  1.00  0.00    -0.323 C  
BRANCH  10  11
HETATM   11  N   UNL     1     -11.793  10.499  68.319  1.00  0.00    -0.785 NA 
HETATM   12  H   UNL     1     -12.358  10.481  67.470  1.00  0.00     0.000 HD 
BRANCH  11  13
HETATM   13  CA  UNL     1     -10.458   9.893  68.083  1.00  0.00    -0.215 C  
BRANCH  13  14
HETATM   14  C   UNL     1      -9.428  10.557  69.026  1.00  0.00    -0.201 C  
HETATM   15  H   UNL     1      -8.385  10.056  70.625  1.00  0.00     0.000 HD 
HETATM   16  O   UNL     1      -9.018   9.648  70.046  1.00  0.00    -0.207 OA 
ENDBRANCH  13  14
BRANCH  13  17
HETATM   17  C   UNL     1      -9.974   9.963  66.620  1.00  0.00    -0.277 C  
HETATM   18  C   UNL     1      -9.453   8.650  66.052  1.00  0.00    -0.278 C  
ENDBRANCH  13  17
ENDBRANCH  11  13
ENDBRANCH  10  11
ENDBRANCH   9  10
ENDBRANCH   7   9
ENDBRANCH   3   7
ENDBRANCH   2   3
TORSDOF 9
ENDMDL
MODEL      183
REMARK 921   NORMALIZED FREE ENERGY PREDICTED BY IDOCK:   -2.95 KCAL/MOL
REMARK 922        TOTAL FREE ENERGY PREDICTED BY IDOCK:   -4.91 KCAL/MOL
REMARK 923 INTER-LIGAND FREE ENERGY PREDICTED BY IDOCK:   -4.11 KCAL/MOL
REMARK 924 INTRA-LIGAND FREE ENERGY PREDICTED BY IDOCK:   -0.80 KCAL/MOL
REMARK 927      BINDING AFFINITY PREDICTED BY RF-SCORE:    0.00 PKD
ROOT
HETATM    1  C   UNL     1      -8.445  12.108  67.041  1.00  0.00    -0.183 C  
HETATM    2  C   UNL     1      -9.904  12.468  67.280  1.00  0.00    -0.204 C  
ENDROOT
BRANCH   2   3
HETATM    3  CA  UNL     1     -10.912  11.510  66.603  1.00  0.00    -0.296 C  
BRANCH   3   4
HETATM    4  C   UNL     1     -10.285  10.690  65.442  1.00  0.00    -0.273 C  
HETATM    5  H   UNL     1      -9.715   8.809  65.034  1.00  0.00     0.000 HD 
HETATM    6  O   UNL     1     -10.099   9.311  65.744  1.00  0.00    -0.268 OA 
ENDBRANCH   3   4
BRANCH   3   7
HETATM    7  N   UNL     1     -11.473  10.682  67.690  1.00  0.00    -0.577 NA 
HETATM    8  H   UNL     1     -10.819   9.948  67.960  1.00  0.00     0.000 HD 
BRANCH   7   9
HETATM    9  C   UNL     1     -11.894  11.460  68.863  1.00  0.00    -0.347 C  
BRANCH   9  10
HETATM   10  C   UNL     1     -11.760  10.615  70.149  1.00  0.00    -0.332 C  
BRANCH  10  11
HETATM   11  N   UNL     1     -10.357  10.238  70.392  1.00  0.00    -0.422 NA 
HETATM   12  H   UNL     1      -9.941  10.824  71.115  1.00  0.00     0.000 HD 
BRANCH  11  13
HETATM   13  CA  UNL     1     -10.197   8.798  70.717  1.00  0.00    -0.211 C  
BRANCH  13  14
HETATM   14  C   UNL     1      -9.564   8.075  69.505  1.00  0.00    -0.164 C  
HETATM   15  H   UNL     1      -8.509   8.562  67.909  1.00  0.00     0.000 HD 
HETATM   16  O   UNL     1      -8.898   9.006  68.654  1.00  0.00    -0.135 OA 
ENDBRANCH  13  14
BRANCH  13  17
HETATM   17  C   UNL     1     -11.498   8.091  71.147  1.00  0.00    -0.302 C  
HETATM   18  C   UNL     1     -11.625   7.832  72.642  1.00  0.00    -0.398 C  
ENDBRANCH  13  17
ENDBRANCH  11  13
ENDBRANCH  10  11
ENDBRANCH   9  10
ENDBRANCH   7   9
ENDBRANCH   3   7
ENDBRANCH   2   3
TORSDOF 9
ENDMDL
MODEL      184
REMARK 921   NORMALIZED FREE ENERGY PREDICTED BY IDOCK:   -2.94 KCAL/MOL
REMARK 922        TOTAL FREE ENERGY PREDICTED BY IDOCK:   -4.89 KCAL/MOL
REMARK 923 INTER-LIGAND FREE ENERGY PREDICTED BY IDOCK:   -4.57 KCAL/MOL
REMARK 924 INTRA-LIGAND FREE ENERGY PREDICTED BY IDOCK:   -0.32 KCAL/MOL
REMARK 927      BINDING AFFINITY PREDICTED BY RF-SCORE:    0.00 PKD
ROOT
HETATM    1  C   UNL     1      -8.307   9.100  64.409  1.00  0.00    -0.180 C  
HETATM    2  C   UNL     1      -8.871   8.687  65.762  1.00  0.00    -0.231 C  
ENDROOT
BRANCH   2   3
HETATM    3  CA  UNL     1      -9.977   9.625  66.300  1.00  0.00    -0.264 C  
BRANCH   3   4
HETATM    4  C   UNL     1     -10.143   9.547  67.842  1.00  0.00    -0.191 C  
HETATM    5  H   UNL     1     -10.518   8.189  69.272  1.00  0.00     0.000 HD 
HETATM    6  O   UNL     1     -10.417   8.236  68.328  1.00  0.00    -0.205 OA 
ENDBRANCH   3   4
BRANCH   3   7
HETATM    7  N   UNL     1      -9.642  10.973  65.798  1.00  0.00    -0.211 NA 
HETATM    8  H   UNL     1     -10.464  11.424  65.397  1.00  0.00     0.000 HD 
BRANCH   7   9
HETATM    9  C   UNL     1      -9.018  11.837  66.810  1.00  0.00    -0.196 C  
BRANCH   9  10
HETATM   10  C   UNL     1      -9.189  13.325  66.430  1.00  0.00    -0.119 C  
BRANCH  10  11
HETATM   11  N   UNL     1     -10.609  13.663  66.235  1.00  0.00    -0.286 NA 
HETATM   12  H   UNL     1     -10.943  14.281  66.975  1.00  0.00     0.000 HD 
BRANCH  11  13
HETATM   13  CA  UNL     1     -10.884  14.241  64.895  1.00  0.00    -0.416 C  
BRANCH  13  14
HETATM   14  C   UNL     1     -10.608  15.762  64.936  1.00  0.00    -0.284 C  
HETATM   15  H   UNL     1     -11.401  17.404  64.181  1.00  0.00     0.000 HD 
HETATM   16  O   UNL     1     -11.570  16.470  64.155  1.00  0.00    -1.052 OA 
ENDBRANCH  13  14
BRANCH  13  17
HETATM   17  C   UNL     1     -12.303  13.964  64.358  1.00  0.00    -0.400 C  
HETATM   18  C   UNL     1     -12.402  12.816  63.363  1.00  0.00    -0.531 C  
ENDBRANCH  13  17
ENDBRANCH  11  13
ENDBRANCH  10  11
ENDBRANCH   9  10
ENDBRANCH   7   9
ENDBRANCH   3   7
ENDBRANCH   2   3
TORSDOF 9
ENDMDL
MODEL      185
REMARK 921   NORMALIZED FREE ENERGY PREDICTED BY IDOCK:   -2.93 KCAL/MOL
REMARK 922        TOTAL FREE ENERGY PREDICTED BY IDOCK:   -4.88 KCAL/MOL
REMARK 923 INTER-LIGAND FREE ENERGY PREDICTED BY IDOCK:   -4.31 KCAL/MOL
REMARK 924 INTRA-LIGAND FREE ENERGY PREDICTED BY IDOCK:   -0.57 KCAL/MOL
REMARK 927      BINDING AFFINITY PREDICTED BY RF-SCORE:    0.00 PKD
ROOT
HETATM    1  C   UNL     1     -10.150   8.705  66.420  1.00  0.00    -0.294 C  
HETATM    2  C   UNL     1      -9.507   9.605  65.374  1.00  0.00    -0.343 C  
ENDROOT
BRANCH   2   3
HETATM    3  CA  UNL     1      -8.996  10.955  65.928  1.00  0.00    -0.192 C  
BRANCH   3   4
HETATM    4  C   UNL     1      -7.486  10.930  66.293  1.00  0.00    -0.129 C  
HETATM    5  H   UNL     1      -6.309  10.794  67.913  1.00  0.00     0.000 HD 
HETATM    6  O   UNL     1      -7.232  10.810  67.690  1.00  0.00    -0.089 OA 
ENDBRANCH   3   4
BRANCH   3   7
HETATM    7  N   UNL     1      -9.352  11.968  64.913  1.00  0.00    -0.426 NA 
HETATM    8  H   UNL     1      -9.050  11.672  63.985  1.00  0.00     0.000 HD 
BRANCH   7   9
HETATM    9  C   UNL     1     -10.780  12.316  64.908  1.00  0.00    -0.297 C  
BRANCH   9  10
HETATM   10  C   UNL     1     -11.019  13.632  65.680  1.00  0.00    -0.290 C  
BRANCH  10  11
HETATM   11  N   UNL     1     -11.885  13.411  66.852  1.00  0.00    -0.390 NA 
HETATM   12  H   UNL     1     -12.408  12.540  66.760  1.00  0.00     0.000 HD 
BRANCH  11  13
HETATM   13  CA  UNL     1     -11.137  13.450  68.134  1.00  0.00    -0.258 C  
BRANCH  13  14
HETATM   14  C   UNL     1     -11.014  12.013  68.690  1.00  0.00    -0.240 C  
HETATM   15  H   UNL     1     -11.938  10.283  68.466  1.00  0.00     0.000 HD 
HETATM   16  O   UNL     1     -12.014  11.166  68.125  1.00  0.00    -0.615 OA 
ENDBRANCH  13  14
BRANCH  13  17
HETATM   17  C   UNL     1     -11.743  14.389  69.198  1.00  0.00    -0.354 C  
HETATM   18  C   UNL     1     -11.556  15.876  68.924  1.00  0.00    -0.392 C  
ENDBRANCH  13  17
ENDBRANCH  11  13
ENDBRANCH  10  11
ENDBRANCH   9  10
ENDBRANCH   7   9
ENDBRANCH   3   7
ENDBRANCH   2   3
TORSDOF 9
ENDMDL
MODEL      186
REMARK 921   NORMALIZED FREE ENERGY PREDICTED BY IDOCK:   -2.92 KCAL/MOL
REMARK 922        TOTAL FREE ENERGY PREDICTED BY IDOCK:   -4.87 KCAL/MOL
REMARK 923 INTER-LIGAND FREE ENERGY PREDICTED BY IDOCK:   -4.19 KCAL/MOL
REMARK 924 INTRA-LIGAND FREE ENERGY PREDICTED BY IDOCK:   -0.68 KCAL/MOL
REMARK 927      BINDING AFFINITY PREDICTED BY RF-SCORE:    0.00 PKD
ROOT
HETATM    1  C   UNL     1     -10.516  17.283  69.175  1.00  0.00    -0.263 C  
HETATM    2  C   UNL     1     -11.510  16.140  69.329  1.00  0.00    -0.304 C  
ENDROOT
BRANCH   2   3
HETATM    3  CA  UNL     1     -11.415  15.396  70.682  1.00  0.00    -0.332 C  
BRANCH   3   4
HETATM    4  C   UNL     1     -12.526  15.813  71.683  1.00  0.00    -0.463 C  
HETATM    5  H   UNL     1     -12.730  16.315  73.616  1.00  0.00     0.000 HD 
HETATM    6  O   UNL     1     -12.050  16.060  73.004  1.00  0.00    -0.453 OA 
ENDBRANCH   3   4
BRANCH   3   7
HETATM    7  N   UNL     1     -11.413  13.956  70.351  1.00  0.00    -0.510 NA 
HETATM    8  H   UNL     1     -11.849  13.414  71.096  1.00  0.00     0.000 HD 
BRANCH   7   9
HETATM    9  C   UNL     1     -12.034  13.651  69.054  1.00  0.00    -0.353 C  
BRANCH   9  10
HETATM   10  C   UNL     1     -11.242  12.545  68.322  1.00  0.00    -0.266 C  
BRANCH  10  11
HETATM   11  N   UNL     1      -9.932  12.322  68.957  1.00  0.00    -0.417 NA 
HETATM   12  H   UNL     1      -9.853  11.366  69.305  1.00  0.00     0.000 HD 
BRANCH  11  13
HETATM   13  CA  UNL     1      -8.795  12.658  68.062  1.00  0.00    -0.195 C  
BRANCH  13  14
HETATM   14  C   UNL     1      -7.744  11.526  68.136  1.00  0.00    -0.120 C  
HETATM   15  H   UNL     1      -7.114  10.211  69.466  1.00  0.00     0.000 HD 
HETATM   16  O   UNL     1      -7.759  10.907  69.421  1.00  0.00    -0.134 OA 
ENDBRANCH  13  14
BRANCH  13  17
HETATM   17  C   UNL     1      -8.137  14.023  68.350  1.00  0.00    -0.148 C  
HETATM   18  C   UNL     1      -8.248  15.040  67.222  1.00  0.00    -0.236 C  
ENDBRANCH  13  17
ENDBRANCH  11  13
ENDBRANCH  10  11
ENDBRANCH   9  10
ENDBRANCH   7   9
ENDBRANCH   3   7
ENDBRANCH   2   3
TORSDOF 9
ENDMDL
MODEL      187
REMARK 921   NORMALIZED FREE ENERGY PREDICTED BY IDOCK:   -2.92 KCAL/MOL
REMARK 922        TOTAL FREE ENERGY PREDICTED BY IDOCK:   -4.87 KCAL/MOL
REMARK 923 INTER-LIGAND FREE ENERGY PREDICTED BY IDOCK:   -4.46 KCAL/MOL
REMARK 924 INTRA-LIGAND FREE ENERGY PREDICTED BY IDOCK:   -0.40 KCAL/MOL
REMARK 927      BINDING AFFINITY PREDICTED BY RF-SCORE:    0.00 PKD
ROOT
HETATM    1  C   UNL     1      -9.781  10.250  64.513  1.00  0.00    -0.395 C  
HETATM    2  C   UNL     1     -10.001  11.718  64.851  1.00  0.00    -0.280 C  
ENDROOT
BRANCH   2   3
HETATM    3  CA  UNL     1     -11.305  11.997  65.635  1.00  0.00    -0.329 C  
BRANCH   3   4
HETATM    4  C   UNL     1     -11.126  11.881  67.174  1.00  0.00    -0.293 C  
HETATM    5  H   UNL     1     -11.434  10.559  68.652  1.00  0.00     0.000 HD 
HETATM    6  O   UNL     1     -11.544  10.630  67.711  1.00  0.00    -0.501 OA 
ENDBRANCH   3   4
BRANCH   3   7
HETATM    7  N   UNL     1     -11.771  13.324  65.183  1.00  0.00    -0.318 NA 
HETATM    8  H   UNL     1     -12.616  13.238  64.619  1.00  0.00     0.000 HD 
BRANCH   7   9
HETATM    9  C   UNL     1     -11.974  14.281  66.280  1.00  0.00    -0.412 C  
BRANCH   9  10
HETATM   10  C   UNL     1     -10.840  15.329  66.301  1.00  0.00    -0.312 C  
BRANCH  10  11
HETATM   11  N   UNL     1     -10.896  16.149  67.524  1.00  0.00    -0.313 NA 
HETATM   12  H   UNL     1     -11.803  16.608  67.614  1.00  0.00     0.000 HD 
BRANCH  11  13
HETATM   13  CA  UNL     1     -10.565  15.378  68.749  1.00  0.00    -0.235 C  
BRANCH  13  14
HETATM   14  C   UNL     1     -11.600  15.710  69.848  1.00  0.00    -0.347 C  
HETATM   15  H   UNL     1     -13.185  14.857  70.659  1.00  0.00     0.000 HD 
HETATM   16  O   UNL     1     -12.549  14.653  69.983  1.00  0.00    -0.308 OA 
ENDBRANCH  13  14
BRANCH  13  17
HETATM   17  C   UNL     1      -9.132  15.597  69.274  1.00  0.00    -0.270 C  
HETATM   18  C   UNL     1      -8.087  14.643  68.710  1.00  0.00    -0.152 C  
ENDBRANCH  13  17
ENDBRANCH  11  13
ENDBRANCH  10  11
ENDBRANCH   9  10
ENDBRANCH   7   9
ENDBRANCH   3   7
ENDBRANCH   2   3
TORSDOF 9
ENDMDL
MODEL      188
REMARK 921   NORMALIZED FREE ENERGY PREDICTED BY IDOCK:   -2.92 KCAL/MOL
REMARK 922        TOTAL FREE ENERGY PREDICTED BY IDOCK:   -4.87 KCAL/MOL
REMARK 923 INTER-LIGAND FREE ENERGY PREDICTED BY IDOCK:   -4.19 KCAL/MOL
REMARK 924 INTRA-LIGAND FREE ENERGY PREDICTED BY IDOCK:   -0.67 KCAL/MOL
REMARK 927      BINDING AFFINITY PREDICTED BY RF-SCORE:    0.00 PKD
ROOT
HETATM    1  C   UNL     1      -8.778  11.765  66.920  1.00  0.00    -0.189 C  
HETATM    2  C   UNL     1      -9.489  12.030  68.240  1.00  0.00    -0.199 C  
ENDROOT
BRANCH   2   3
HETATM    3  CA  UNL     1     -11.029  12.106  68.125  1.00  0.00    -0.230 C  
BRANCH   3   4
HETATM    4  C   UNL     1     -11.639  13.300  68.908  1.00  0.00    -0.314 C  
HETATM    5  H   UNL     1     -12.528  13.680  70.667  1.00  0.00     0.000 HD 
HETATM    6  O   UNL     1     -12.155  12.949  70.188  1.00  0.00    -0.340 OA 
ENDBRANCH   3   4
BRANCH   3   7
HETATM    7  N   UNL     1     -11.326  12.120  66.678  1.00  0.00    -0.331 NA 
HETATM    8  H   UNL     1     -11.799  11.262  66.397  1.00  0.00     0.000 HD 
BRANCH   7   9
HETATM    9  C   UNL     1     -12.090  13.300  66.247  1.00  0.00    -0.414 C  
BRANCH   9  10
HETATM   10  C   UNL     1     -11.245  14.173  65.294  1.00  0.00    -0.326 C  
BRANCH  10  11
HETATM   11  N   UNL     1     -11.137  15.554  65.795  1.00  0.00    -0.268 NA 
HETATM   12  H   UNL     1     -12.035  15.886  66.149  1.00  0.00     0.000 HD 
BRANCH  11  13
HETATM   13  CA  UNL     1     -10.070  15.714  66.816  1.00  0.00    -0.272 C  
BRANCH  13  14
HETATM   14  C   UNL     1     -10.428  16.904  67.736  1.00  0.00    -0.340 C  
HETATM   15  H   UNL     1     -10.776  18.837  67.545  1.00  0.00     0.000 HD 
HETATM   16  O   UNL     1     -10.556  18.106  66.979  1.00  0.00    -0.378 OA 
ENDBRANCH  13  14
BRANCH  13  17
HETATM   17  C   UNL     1      -8.652  15.888  66.236  1.00  0.00    -0.348 C  
HETATM   18  C   UNL     1      -7.534  15.919  67.270  1.00  0.00    -0.244 C  
ENDBRANCH  13  17
ENDBRANCH  11  13
ENDBRANCH  10  11
ENDBRANCH   9  10
ENDBRANCH   7   9
ENDBRANCH   3   7
ENDBRANCH   2   3
TORSDOF 9
ENDMDL
MODEL      189
REMARK 921   NORMALIZED FREE ENERGY PREDICTED BY IDOCK:   -2.92 KCAL/MOL
REMARK 922        TOTAL FREE ENERGY PREDICTED BY IDOCK:   -4.86 KCAL/MOL
REMARK 923 INTER-LIGAND FREE ENERGY PREDICTED BY IDOCK:   -3.80 KCAL/MOL
REMARK 924 INTRA-LIGAND FREE ENERGY PREDICTED BY IDOCK:   -1.07 KCAL/MOL
REMARK 927      BINDING AFFINITY PREDICTED BY RF-SCORE:    0.00 PKD
ROOT
HETATM    1  C   UNL     1     -12.979  12.169  63.868  1.00  0.00    -0.323 C  
HETATM    2  C   UNL     1     -11.572  12.604  63.484  1.00  0.00    -0.584 C  
ENDROOT
BRANCH   2   3
HETATM    3  CA  UNL     1     -10.590  12.697  64.676  1.00  0.00    -0.333 C  
BRANCH   3   4
HETATM    4  C   UNL     1     -11.196  12.166  66.004  1.00  0.00    -0.336 C  
HETATM    5  H   UNL     1     -10.913  10.683  67.327  1.00  0.00     0.000 HD 
HETATM    6  O   UNL     1     -10.543  11.007  66.514  1.00  0.00    -0.249 OA 
ENDBRANCH   3   4
BRANCH   3   7
HETATM    7  N   UNL     1      -9.367  11.988  64.247  1.00  0.00    -0.419 NA 
HETATM    8  H   UNL     1      -9.053  11.339  64.969  1.00  0.00     0.000 HD 
BRANCH   7   9
HETATM    9  C   UNL     1      -9.510  11.299  62.956  1.00  0.00    -0.367 C  
BRANCH   9  10
HETATM   10  C   UNL     1      -9.066   9.825  63.078  1.00  0.00    -0.247 C  
BRANCH  10  11
HETATM   11  N   UNL     1      -9.395   9.279  64.406  1.00  0.00    -0.404 NA 
HETATM   12  H   UNL     1     -10.265   8.747  64.377  1.00  0.00     0.000 HD 
BRANCH  11  13
HETATM   13  CA  UNL     1      -8.293   8.467  64.983  1.00  0.00    -0.165 C  
BRANCH  13  14
HETATM   14  C   UNL     1      -7.066   9.378  65.220  1.00  0.00    -0.092 C  
HETATM   15  H   UNL     1      -6.629  10.980  66.287  1.00  0.00     0.000 HD 
HETATM   16  O   UNL     1      -7.383  10.421  66.141  1.00  0.00    -0.118 OA 
ENDBRANCH  13  14
BRANCH  13  17
HETATM   17  C   UNL     1      -7.897   7.237  64.142  1.00  0.00    -0.118 C  
HETATM   18  C   UNL     1      -6.424   7.165  63.762  1.00  0.00    -0.044 C  
ENDBRANCH  13  17
ENDBRANCH  11  13
ENDBRANCH  10  11
ENDBRANCH   9  10
ENDBRANCH   7   9
ENDBRANCH   3   7
ENDBRANCH   2   3
TORSDOF 9
ENDMDL
MODEL      190
REMARK 921   NORMALIZED FREE ENERGY PREDICTED BY IDOCK:   -2.92 KCAL/MOL
REMARK 922        TOTAL FREE ENERGY PREDICTED BY IDOCK:   -4.86 KCAL/MOL
REMARK 923 INTER-LIGAND FREE ENERGY PREDICTED BY IDOCK:   -4.18 KCAL/MOL
REMARK 924 INTRA-LIGAND FREE ENERGY PREDICTED BY IDOCK:   -0.68 KCAL/MOL
REMARK 927      BINDING AFFINITY PREDICTED BY RF-SCORE:    0.00 PKD
ROOT
HETATM    1  C   UNL     1     -11.372  10.536  70.096  1.00  0.00    -0.400 C  
HETATM    2  C   UNL     1     -11.642  10.467  68.599  1.00  0.00    -0.241 C  
ENDROOT
BRANCH   2   3
HETATM    3  CA  UNL     1     -10.523  11.080  67.725  1.00  0.00    -0.199 C  
BRANCH   3   4
HETATM    4  C   UNL     1     -11.059  11.738  66.425  1.00  0.00    -0.307 C  
HETATM    5  H   UNL     1     -12.382  13.136  65.853  1.00  0.00     0.000 HD 
HETATM    6  O   UNL     1     -12.054  12.733  66.648  1.00  0.00    -0.468 OA 
ENDBRANCH   3   4
BRANCH   3   7
HETATM    7  N   UNL     1      -9.784  12.007  68.608  1.00  0.00    -0.367 NA 
HETATM    8  H   UNL     1      -9.477  11.530  69.456  1.00  0.00     0.000 HD 
BRANCH   7   9
HETATM    9  C   UNL     1      -8.652  12.670  67.945  1.00  0.00    -0.181 C  
BRANCH   9  10
HETATM   10  C   UNL     1      -8.723  14.198  68.156  1.00  0.00    -0.181 C  
BRANCH  10  11
HETATM   11  N   UNL     1      -9.775  14.801  67.321  1.00  0.00    -0.227 NA 
HETATM   12  H   UNL     1     -10.226  14.097  66.736  1.00  0.00     0.000 HD 
BRANCH  11  13
HETATM   13  CA  UNL     1     -10.778  15.556  68.115  1.00  0.00    -0.282 C  
BRANCH  13  14
HETATM   14  C   UNL     1     -10.526  17.071  67.936  1.00  0.00    -0.354 C  
HETATM   15  H   UNL     1      -9.237  18.417  68.583  1.00  0.00     0.000 HD 
HETATM   16  O   UNL     1      -9.391  17.486  68.694  1.00  0.00    -0.280 OA 
ENDBRANCH  13  14
BRANCH  13  17
HETATM   17  C   UNL     1     -10.815  15.188  69.612  1.00  0.00    -0.297 C  
HETATM   18  C   UNL     1     -12.204  15.173  70.236  1.00  0.00    -0.395 C  
ENDBRANCH  13  17
ENDBRANCH  11  13
ENDBRANCH  10  11
ENDBRANCH   9  10
ENDBRANCH   7   9
ENDBRANCH   3   7
ENDBRANCH   2   3
TORSDOF 9
ENDMDL
MODEL      191
REMARK 921   NORMALIZED FREE ENERGY PREDICTED BY IDOCK:   -2.91 KCAL/MOL
REMARK 922        TOTAL FREE ENERGY PREDICTED BY IDOCK:   -4.85 KCAL/MOL
REMARK 923 INTER-LIGAND FREE ENERGY PREDICTED BY IDOCK:   -4.61 KCAL/MOL
REMARK 924 INTRA-LIGAND FREE ENERGY PREDICTED BY IDOCK:   -0.24 KCAL/MOL
REMARK 927      BINDING AFFINITY PREDICTED BY RF-SCORE:    0.00 PKD
ROOT
HETATM    1  C   UNL     1      -9.850  20.325  66.216  1.00  0.00    -0.471 C  
HETATM    2  C   UNL     1      -8.484  19.667  66.349  1.00  0.00    -0.382 C  
ENDROOT
BRANCH   2   3
HETATM    3  CA  UNL     1      -8.361  18.700  67.551  1.00  0.00    -0.265 C  
BRANCH   3   4
HETATM    4  C   UNL     1      -9.724  18.404  68.234  1.00  0.00    -0.344 C  
HETATM    5  H   UNL     1     -10.879  19.117  69.713  1.00  0.00     0.000 HD 
HETATM    6  O   UNL     1     -10.045  19.298  69.295  1.00  0.00    -0.355 OA 
ENDBRANCH   3   4
BRANCH   3   7
HETATM    7  N   UNL     1      -7.674  17.499  67.033  1.00  0.00    -0.203 NA 
HETATM    8  H   UNL     1      -7.342  16.915  67.800  1.00  0.00     0.000 HD 
BRANCH   7   9
HETATM    9  C   UNL     1      -8.490  16.714  66.097  1.00  0.00    -0.273 C  
BRANCH   9  10
HETATM   10  C   UNL     1      -8.861  15.349  66.716  1.00  0.00    -0.269 C  
BRANCH  10  11
HETATM   11  N   UNL     1      -9.968  14.714  65.981  1.00  0.00    -0.300 NA 
HETATM   12  H   UNL     1      -9.655  13.863  65.513  1.00  0.00     0.000 HD 
BRANCH  11  13
HETATM   13  CA  UNL     1     -11.150  14.447  66.839  1.00  0.00    -0.323 C  
BRANCH  13  14
HETATM   14  C   UNL     1     -10.776  14.724  68.313  1.00  0.00    -0.242 C  
HETATM   15  H   UNL     1     -11.580  15.627  69.873  1.00  0.00     0.000 HD 
HETATM   16  O   UNL     1     -11.811  15.457  68.967  1.00  0.00    -0.343 OA 
ENDBRANCH  13  14
BRANCH  13  17
HETATM   17  C   UNL     1     -11.740  13.030  66.690  1.00  0.00    -0.438 C  
HETATM   18  C   UNL     1     -11.469  12.358  65.351  1.00  0.00    -0.402 C  
ENDBRANCH  13  17
ENDBRANCH  11  13
ENDBRANCH  10  11
ENDBRANCH   9  10
ENDBRANCH   7   9
ENDBRANCH   3   7
ENDBRANCH   2   3
TORSDOF 9
ENDMDL
MODEL      192
REMARK 921   NORMALIZED FREE ENERGY PREDICTED BY IDOCK:   -2.91 KCAL/MOL
REMARK 922        TOTAL FREE ENERGY PREDICTED BY IDOCK:   -4.85 KCAL/MOL
REMARK 923 INTER-LIGAND FREE ENERGY PREDICTED BY IDOCK:   -4.46 KCAL/MOL
REMARK 924 INTRA-LIGAND FREE ENERGY PREDICTED BY IDOCK:   -0.39 KCAL/MOL
REMARK 927      BINDING AFFINITY PREDICTED BY RF-SCORE:    0.00 PKD
ROOT
HETATM    1  C   UNL     1      -8.693  10.232  65.070  1.00  0.00    -0.195 C  
HETATM    2  C   UNL     1     -10.153  10.137  65.490  1.00  0.00    -0.338 C  
ENDROOT
BRANCH   2   3
HETATM    3  CA  UNL     1     -10.376   9.437  66.850  1.00  0.00    -0.238 C  
BRANCH   3   4
HETATM    4  C   UNL     1      -9.051   9.117  67.594  1.00  0.00    -0.122 C  
HETATM    5  H   UNL     1      -7.950   7.530  68.139  1.00  0.00     0.000 HD 
HETATM    6  O   UNL     1      -8.761   7.726  67.685  1.00  0.00    -0.125 OA 
ENDBRANCH   3   4
BRANCH   3   7
HETATM    7  N   UNL     1     -11.296  10.311  67.608  1.00  0.00    -0.546 NA 
HETATM    8  H   UNL     1     -12.185   9.841  67.776  1.00  0.00     0.000 HD 
BRANCH   7   9
HETATM    9  C   UNL     1     -10.726  10.811  68.867  1.00  0.00    -0.222 C  
BRANCH   9  10
HETATM   10  C   UNL     1     -11.831  11.421  69.757  1.00  0.00    -0.364 C  
BRANCH  10  11
HETATM   11  N   UNL     1     -11.482  12.789  70.175  1.00  0.00    -0.519 NA 
HETATM   12  H   UNL     1     -10.490  12.975  70.026  1.00  0.00     0.000 HD 
BRANCH  11  13
HETATM   13  CA  UNL     1     -12.322  13.823  69.518  1.00  0.00    -0.209 C  
BRANCH  13  14
HETATM   14  C   UNL     1     -11.576  14.363  68.276  1.00  0.00    -0.328 C  
HETATM   15  H   UNL     1     -11.711  14.199  66.313  1.00  0.00     0.000 HD 
HETATM   16  O   UNL     1     -12.169  13.867  67.077  1.00  0.00    -0.421 OA 
ENDBRANCH  13  14
BRANCH  13  17
HETATM   17  C   UNL     1     -12.744  14.985  70.441  1.00  0.00    -0.371 C  
HETATM   18  C   UNL     1     -11.604  15.877  70.913  1.00  0.00    -0.456 C  
ENDBRANCH  13  17
ENDBRANCH  11  13
ENDBRANCH  10  11
ENDBRANCH   9  10
ENDBRANCH   7   9
ENDBRANCH   3   7
ENDBRANCH   2   3
TORSDOF 9
ENDMDL
MODEL      193
REMARK 921   NORMALIZED FREE ENERGY PREDICTED BY IDOCK:   -2.90 KCAL/MOL
REMARK 922        TOTAL FREE ENERGY PREDICTED BY IDOCK:   -4.83 KCAL/MOL
REMARK 923 INTER-LIGAND FREE ENERGY PREDICTED BY IDOCK:   -4.48 KCAL/MOL
REMARK 924 INTRA-LIGAND FREE ENERGY PREDICTED BY IDOCK:   -0.35 KCAL/MOL
REMARK 927      BINDING AFFINITY PREDICTED BY RF-SCORE:    0.00 PKD
ROOT
HETATM    1  C   UNL     1     -10.274  17.542  68.840  1.00  0.00    -0.353 C  
HETATM    2  C   UNL     1     -10.684  16.086  68.676  1.00  0.00    -0.281 C  
ENDROOT
BRANCH   2   3
HETATM    3  CA  UNL     1     -10.816  15.311  70.008  1.00  0.00    -0.286 C  
BRANCH   3   4
HETATM    4  C   UNL     1     -11.775  15.997  71.018  1.00  0.00    -0.417 C  
HETATM    5  H   UNL     1     -13.741  16.144  71.400  1.00  0.00     0.000 HD 
HETATM    6  O   UNL     1     -13.154  15.725  70.782  1.00  0.00    -0.522 OA 
ENDBRANCH   3   4
BRANCH   3   7
HETATM    7  N   UNL     1     -11.215  13.937  69.637  1.00  0.00    -0.424 NA 
HETATM    8  H   UNL     1     -12.012  13.630  70.195  1.00  0.00     0.000 HD 
BRANCH   7   9
HETATM    9  C   UNL     1     -11.491  13.773  68.203  1.00  0.00    -0.313 C  
BRANCH   9  10
HETATM   10  C   UNL     1     -10.689  12.583  67.631  1.00  0.00    -0.218 C  
BRANCH  10  11
HETATM   11  N   UNL     1     -11.294  11.298  68.021  1.00  0.00    -0.294 NA 
HETATM   12  H   UNL     1     -11.944  10.969  67.307  1.00  0.00     0.000 HD 
BRANCH  11  13
HETATM   13  CA  UNL     1     -10.283  10.259  68.340  1.00  0.00    -0.167 C  
BRANCH  13  14
HETATM   14  C   UNL     1     -10.040   9.390  67.084  1.00  0.00    -0.231 C  
HETATM   15  H   UNL     1     -10.627   7.636  66.393  1.00  0.00     0.000 HD 
HETATM   16  O   UNL     1     -10.776   8.170  67.165  1.00  0.00    -0.316 OA 
ENDBRANCH  13  14
BRANCH  13  17
HETATM   17  C   UNL     1     -10.638   9.371  69.550  1.00  0.00    -0.237 C  
HETATM   18  C   UNL     1     -11.490  10.048  70.615  1.00  0.00    -0.425 C  
ENDBRANCH  13  17
ENDBRANCH  11  13
ENDBRANCH  10  11
ENDBRANCH   9  10
ENDBRANCH   7   9
ENDBRANCH   3   7
ENDBRANCH   2   3
TORSDOF 9
ENDMDL
MODEL      194
REMARK 921   NORMALIZED FREE ENERGY PREDICTED BY IDOCK:   -2.90 KCAL/MOL
REMARK 922        TOTAL FREE ENERGY PREDICTED BY IDOCK:   -4.83 KCAL/MOL
REMARK 923 INTER-LIGAND FREE ENERGY PREDICTED BY IDOCK:   -4.49 KCAL/MOL
REMARK 924 INTRA-LIGAND FREE ENERGY PREDICTED BY IDOCK:   -0.34 KCAL/MOL
REMARK 927      BINDING AFFINITY PREDICTED BY RF-SCORE:    0.00 PKD
ROOT
HETATM    1  C   UNL     1     -10.487  16.585  68.043  1.00  0.00    -0.313 C  
HETATM    2  C   UNL     1     -11.041  15.180  67.850  1.00  0.00    -0.322 C  
ENDROOT
BRANCH   2   3
HETATM    3  CA  UNL     1     -10.934  14.279  69.103  1.00  0.00    -0.261 C  
BRANCH   3   4
HETATM    4  C   UNL     1     -12.309  13.991  69.763  1.00  0.00    -0.291 C  
HETATM    5  H   UNL     1     -13.107  12.811  71.178  1.00  0.00     0.000 HD 
HETATM    6  O   UNL     1     -12.265  12.987  70.774  1.00  0.00    -0.363 OA 
ENDBRANCH   3   4
BRANCH   3   7
HETATM    7  N   UNL     1     -10.209  13.068  68.667  1.00  0.00    -0.372 NA 
HETATM    8  H   UNL     1      -9.986  12.473  69.466  1.00  0.00     0.000 HD 
BRANCH   7   9
HETATM    9  C   UNL     1     -10.916  12.302  67.631  1.00  0.00    -0.244 C  
BRANCH   9  10
HETATM   10  C   UNL     1      -9.939  11.874  66.514  1.00  0.00    -0.202 C  
BRANCH  10  11
HETATM   11  N   UNL     1     -10.459  10.715  65.768  1.00  0.00    -0.205 NA 
HETATM   12  H   UNL     1     -11.386  10.452  66.103  1.00  0.00     0.000 HD 
BRANCH  11  13
HETATM   13  CA  UNL     1     -10.465  10.932  64.299  1.00  0.00    -0.335 C  
BRANCH  13  14
HETATM   14  C   UNL     1      -9.016  10.834  63.769  1.00  0.00    -0.162 C  
HETATM   15  H   UNL     1      -8.027  11.335  62.136  1.00  0.00     0.000 HD 
HETATM   16  O   UNL     1      -8.918  11.395  62.461  1.00  0.00    -0.321 OA 
ENDBRANCH  13  14
BRANCH  13  17
HETATM   17  C   UNL     1     -11.115  12.257  63.851  1.00  0.00    -0.475 C  
HETATM   18  C   UNL     1     -12.591  12.160  63.490  1.00  0.00    -0.621 C  
ENDBRANCH  13  17
ENDBRANCH  11  13
ENDBRANCH  10  11
ENDBRANCH   9  10
ENDBRANCH   7   9
ENDBRANCH   3   7
ENDBRANCH   2   3
TORSDOF 9
ENDMDL
MODEL      195
REMARK 921   NORMALIZED FREE ENERGY PREDICTED BY IDOCK:   -2.90 KCAL/MOL
REMARK 922        TOTAL FREE ENERGY PREDICTED BY IDOCK:   -4.83 KCAL/MOL
REMARK 923 INTER-LIGAND FREE ENERGY PREDICTED BY IDOCK:   -4.40 KCAL/MOL
REMARK 924 INTRA-LIGAND FREE ENERGY PREDICTED BY IDOCK:   -0.43 KCAL/MOL
REMARK 927      BINDING AFFINITY PREDICTED BY RF-SCORE:    0.00 PKD
ROOT
HETATM    1  C   UNL     1     -13.664  13.033  72.097  1.00  0.00    -0.547 C  
HETATM    2  C   UNL     1     -12.606  13.495  71.105  1.00  0.00    -0.438 C  
ENDROOT
BRANCH   2   3
HETATM    3  CA  UNL     1     -12.754  14.970  70.663  1.00  0.00    -0.376 C  
BRANCH   3   4
HETATM    4  C   UNL     1     -12.428  15.980  71.797  1.00  0.00    -0.401 C  
HETATM    5  H   UNL     1     -11.367  16.076  73.499  1.00  0.00     0.000 HD 
HETATM    6  O   UNL     1     -11.567  15.458  72.806  1.00  0.00    -0.460 OA 
ENDBRANCH   3   4
BRANCH   3   7
HETATM    7  N   UNL     1     -11.904  15.118  69.463  1.00  0.00    -0.316 NA 
HETATM    8  H   UNL     1     -12.477  15.210  68.625  1.00  0.00     0.000 HD 
BRANCH   7   9
HETATM    9  C   UNL     1     -10.942  16.225  69.559  1.00  0.00    -0.339 C  
BRANCH   9  10
HETATM   10  C   UNL     1      -9.495  15.683  69.565  1.00  0.00    -0.275 C  
BRANCH  10  11
HETATM   11  N   UNL     1      -9.103  15.199  68.230  1.00  0.00    -0.179 NA 
HETATM   12  H   UNL     1      -8.339  15.758  67.849  1.00  0.00     0.000 HD 
BRANCH  11  13
HETATM   13  CA  UNL     1      -8.763  13.754  68.219  1.00  0.00    -0.179 C  
BRANCH  13  14
HETATM   14  C   UNL     1      -7.419  13.558  67.479  1.00  0.00    -0.167 C  
HETATM   15  H   UNL     1      -5.928  14.688  66.850  1.00  0.00     0.000 HD 
HETATM   16  O   UNL     1      -6.754  14.808  67.304  1.00  0.00    -0.279 OA 
ENDBRANCH  13  14
BRANCH  13  17
HETATM   17  C   UNL     1      -9.851  12.846  67.610  1.00  0.00    -0.211 C  
HETATM   18  C   UNL     1     -10.328  11.718  68.515  1.00  0.00    -0.228 C  
ENDBRANCH  13  17
ENDBRANCH  11  13
ENDBRANCH  10  11
ENDBRANCH   9  10
ENDBRANCH   7   9
ENDBRANCH   3   7
ENDBRANCH   2   3
TORSDOF 9
ENDMDL
MODEL      196
REMARK 921   NORMALIZED FREE ENERGY PREDICTED BY IDOCK:   -2.90 KCAL/MOL
REMARK 922        TOTAL FREE ENERGY PREDICTED BY IDOCK:   -4.83 KCAL/MOL
REMARK 923 INTER-LIGAND FREE ENERGY PREDICTED BY IDOCK:   -4.54 KCAL/MOL
REMARK 924 INTRA-LIGAND FREE ENERGY PREDICTED BY IDOCK:   -0.29 KCAL/MOL
REMARK 927      BINDING AFFINITY PREDICTED BY RF-SCORE:    0.00 PKD
ROOT
HETATM    1  C   UNL     1      -8.123  18.351  68.412  1.00  0.00    -0.327 C  
HETATM    2  C   UNL     1      -9.078  18.703  67.281  1.00  0.00    -0.286 C  
ENDROOT
BRANCH   2   3
HETATM    3  CA  UNL     1     -10.303  17.765  67.171  1.00  0.00    -0.353 C  
BRANCH   3   4
HETATM    4  C   UNL     1     -10.351  16.983  65.830  1.00  0.00    -0.261 C  
HETATM    5  H   UNL     1     -10.876  17.266  63.913  1.00  0.00     0.000 HD 
HETATM    6  O   UNL     1     -10.847  17.745  64.733  1.00  0.00    -0.702 OA 
ENDBRANCH   3   4
BRANCH   3   7
HETATM    7  N   UNL     1     -10.259  16.902  68.369  1.00  0.00    -0.301 NA 
HETATM    8  H   UNL     1      -9.934  17.428  69.181  1.00  0.00     0.000 HD 
BRANCH   7   9
HETATM    9  C   UNL     1     -11.536  16.235  68.659  1.00  0.00    -0.216 C  
BRANCH   9  10
HETATM   10  C   UNL     1     -11.292  14.879  69.357  1.00  0.00    -0.290 C  
BRANCH  10  11
HETATM   11  N   UNL     1     -12.346  13.908  69.015  1.00  0.00    -0.449 NA 
HETATM   12  H   UNL     1     -12.810  14.165  68.143  1.00  0.00     0.000 HD 
BRANCH  11  13
HETATM   13  CA  UNL     1     -11.845  12.511  68.961  1.00  0.00    -0.296 C  
BRANCH  13  14
HETATM   14  C   UNL     1     -12.100  11.832  70.327  1.00  0.00    -0.342 C  
HETATM   15  H   UNL     1     -12.021  10.010  71.082  1.00  0.00     0.000 HD 
HETATM   16  O   UNL     1     -11.865  10.427  70.243  1.00  0.00    -0.270 OA 
ENDBRANCH  13  14
BRANCH  13  17
HETATM   17  C   UNL     1     -10.362  12.379  68.561  1.00  0.00    -0.232 C  
HETATM   18  C   UNL     1     -10.120  11.975  67.113  1.00  0.00    -0.217 C  
ENDBRANCH  13  17
ENDBRANCH  11  13
ENDBRANCH  10  11
ENDBRANCH   9  10
ENDBRANCH   7   9
ENDBRANCH   3   7
ENDBRANCH   2   3
TORSDOF 9
ENDMDL
MODEL      197
REMARK 921   NORMALIZED FREE ENERGY PREDICTED BY IDOCK:   -2.89 KCAL/MOL
REMARK 922        TOTAL FREE ENERGY PREDICTED BY IDOCK:   -4.82 KCAL/MOL
REMARK 923 INTER-LIGAND FREE ENERGY PREDICTED BY IDOCK:   -4.15 KCAL/MOL
REMARK 924 INTRA-LIGAND FREE ENERGY PREDICTED BY IDOCK:   -0.67 KCAL/MOL
REMARK 927      BINDING AFFINITY PREDICTED BY RF-SCORE:    0.00 PKD
ROOT
HETATM    1  C   UNL     1     -12.739  12.053  63.469  1.00  0.00    -0.567 C  
HETATM    2  C   UNL     1     -11.265  12.425  63.384  1.00  0.00    -0.492 C  
ENDROOT
BRANCH   2   3
HETATM    3  CA  UNL     1     -10.760  13.284  64.567  1.00  0.00    -0.411 C  
BRANCH   3   4
HETATM    4  C   UNL     1     -11.908  13.808  65.471  1.00  0.00    -0.363 C  
HETATM    5  H   UNL     1     -12.177  14.585  67.303  1.00  0.00     0.000 HD 
HETATM    6  O   UNL     1     -11.475  14.264  66.750  1.00  0.00    -0.337 OA 
ENDBRANCH   3   4
BRANCH   3   7
HETATM    7  N   UNL     1      -9.768  12.449  65.277  1.00  0.00    -0.444 NA 
HETATM    8  H   UNL     1     -10.113  12.185  66.199  1.00  0.00     0.000 HD 
BRANCH   7   9
HETATM    9  C   UNL     1      -9.351  11.262  64.518  1.00  0.00    -0.128 C  
BRANCH   9  10
HETATM   10  C   UNL     1      -9.522   9.987  65.373  1.00  0.00    -0.250 C  
BRANCH  10  11
HETATM   11  N   UNL     1     -10.560  10.172  66.401  1.00  0.00    -0.136 NA 
HETATM   12  H   UNL     1     -11.481   9.920  66.040  1.00  0.00     0.000 HD 
BRANCH  11  13
HETATM   13  CA  UNL     1     -10.262   9.440  67.658  1.00  0.00    -0.227 C  
BRANCH  13  14
HETATM   14  C   UNL     1      -9.332  10.308  68.538  1.00  0.00    -0.155 C  
HETATM   15  H   UNL     1      -9.039  12.227  68.892  1.00  0.00     0.000 HD 
HETATM   16  O   UNL     1      -9.610  11.694  68.351  1.00  0.00    -0.189 OA 
ENDBRANCH  13  14
BRANCH  13  17
HETATM   17  C   UNL     1      -9.655   8.037  67.452  1.00  0.00    -0.196 C  
HETATM   18  C   UNL     1     -10.448   6.896  68.074  1.00  0.00    -0.255 C  
ENDBRANCH  13  17
ENDBRANCH  11  13
ENDBRANCH  10  11
ENDBRANCH   9  10
ENDBRANCH   7   9
ENDBRANCH   3   7
ENDBRANCH   2   3
TORSDOF 9
ENDMDL
MODEL      198
REMARK 921   NORMALIZED FREE ENERGY PREDICTED BY IDOCK:   -2.89 KCAL/MOL
REMARK 922        TOTAL FREE ENERGY PREDICTED BY IDOCK:   -4.82 KCAL/MOL
REMARK 923 INTER-LIGAND FREE ENERGY PREDICTED BY IDOCK:   -4.15 KCAL/MOL
REMARK 924 INTRA-LIGAND FREE ENERGY PREDICTED BY IDOCK:   -0.67 KCAL/MOL
REMARK 927      BINDING AFFINITY PREDICTED BY RF-SCORE:    0.00 PKD
ROOT
HETATM    1  C   UNL     1     -10.004   9.768  65.715  1.00  0.00    -0.349 C  
HETATM    2  C   UNL     1      -9.813   8.579  66.647  1.00  0.00    -0.342 C  
ENDROOT
BRANCH   2   3
HETATM    3  CA  UNL     1     -10.415   8.777  68.058  1.00  0.00    -0.204 C  
BRANCH   3   4
HETATM    4  C   UNL     1      -9.346   8.750  69.184  1.00  0.00    -0.149 C  
HETATM    5  H   UNL     1      -7.639   7.801  69.648  1.00  0.00     0.000 HD 
HETATM    6  O   UNL     1      -8.293   7.817  68.958  1.00  0.00    -0.128 OA 
ENDBRANCH   3   4
BRANCH   3   7
HETATM    7  N   UNL     1     -11.188  10.034  67.993  1.00  0.00    -0.508 NA 
HETATM    8  H   UNL     1     -11.985   9.936  67.363  1.00  0.00     0.000 HD 
BRANCH   7   9
HETATM    9  C   UNL     1     -11.624  10.524  69.309  1.00  0.00    -0.236 C  
BRANCH   9  10
HETATM   10  C   UNL     1     -11.810  12.056  69.281  1.00  0.00    -0.318 C  
BRANCH  10  11
HETATM   11  N   UNL     1     -10.521  12.745  69.101  1.00  0.00    -0.433 NA 
HETATM   12  H   UNL     1      -9.753  12.075  69.051  1.00  0.00     0.000 HD 
BRANCH  11  13
HETATM   13  CA  UNL     1     -10.512  13.653  67.926  1.00  0.00    -0.247 C  
BRANCH  13  14
HETATM   14  C   UNL     1     -11.955  13.793  67.387  1.00  0.00    -0.388 C  
HETATM   15  H   UNL     1     -12.928  13.402  65.715  1.00  0.00     0.000 HD 
HETATM   16  O   UNL     1     -12.041  13.316  66.045  1.00  0.00    -0.403 OA 
ENDBRANCH  13  14
BRANCH  13  17
HETATM   17  C   UNL     1      -9.554  13.226  66.795  1.00  0.00    -0.258 C  
HETATM   18  C   UNL     1      -8.307  12.484  67.256  1.00  0.00    -0.185 C  
ENDBRANCH  13  17
ENDBRANCH  11  13
ENDBRANCH  10  11
ENDBRANCH   9  10
ENDBRANCH   7   9
ENDBRANCH   3   7
ENDBRANCH   2   3
TORSDOF 9
ENDMDL
MODEL      199
REMARK 921   NORMALIZED FREE ENERGY PREDICTED BY IDOCK:   -2.87 KCAL/MOL
REMARK 922        TOTAL FREE ENERGY PREDICTED BY IDOCK:   -4.79 KCAL/MOL
REMARK 923 INTER-LIGAND FREE ENERGY PREDICTED BY IDOCK:   -4.40 KCAL/MOL
REMARK 924 INTRA-LIGAND FREE ENERGY PREDICTED BY IDOCK:   -0.39 KCAL/MOL
REMARK 927      BINDING AFFINITY PREDICTED BY RF-SCORE:    0.00 PKD
ROOT
HETATM    1  C   UNL     1      -7.181  16.571  66.881  1.00  0.00    -0.263 C  
HETATM    2  C   UNL     1      -8.582  16.599  66.287  1.00  0.00    -0.359 C  
ENDROOT
BRANCH   2   3
HETATM    3  CA  UNL     1      -9.711  16.367  67.318  1.00  0.00    -0.239 C  
BRANCH   3   4
HETATM    4  C   UNL     1     -10.643  17.598  67.486  1.00  0.00    -0.343 C  
HETATM    5  H   UNL     1     -10.673  19.377  68.417  1.00  0.00     0.000 HD 
HETATM    6  O   UNL     1     -10.102  18.623  68.314  1.00  0.00    -0.355 OA 
ENDBRANCH   3   4
BRANCH   3   7
HETATM    7  N   UNL     1     -10.409  15.139  66.883  1.00  0.00    -0.267 NA 
HETATM    8  H   UNL     1      -9.809  14.323  67.000  1.00  0.00     0.000 HD 
BRANCH   7   9
HETATM    9  C   UNL     1     -11.703  14.933  67.549  1.00  0.00    -0.308 C  
BRANCH   9  10
HETATM   10  C   UNL     1     -11.814  13.486  68.079  1.00  0.00    -0.365 C  
BRANCH  10  11
HETATM   11  N   UNL     1     -11.927  13.466  69.548  1.00  0.00    -0.323 NA 
HETATM   12  H   UNL     1     -11.055  13.155  69.977  1.00  0.00     0.000 HD 
BRANCH  11  13
HETATM   13  CA  UNL     1     -12.362  14.770  70.109  1.00  0.00    -0.330 C  
BRANCH  13  14
HETATM   14  C   UNL     1     -11.309  15.254  71.134  1.00  0.00    -0.356 C  
HETATM   15  H   UNL     1     -10.746  16.964  71.943  1.00  0.00     0.000 HD 
HETATM   16  O   UNL     1     -11.393  16.667  71.313  1.00  0.00    -0.208 OA 
ENDBRANCH  13  14
BRANCH  13  17
HETATM   17  C   UNL     1     -13.767  14.755  70.745  1.00  0.00    -0.092 C  
HETATM   18  C   UNL     1     -13.798  14.406  72.227  1.00  0.00    -0.589 C  
ENDBRANCH  13  17
ENDBRANCH  11  13
ENDBRANCH  10  11
ENDBRANCH   9  10
ENDBRANCH   7   9
ENDBRANCH   3   7
ENDBRANCH   2   3
TORSDOF 9
ENDMDL
MODEL      200
REMARK 921   NORMALIZED FREE ENERGY PREDICTED BY IDOCK:   -2.86 KCAL/MOL
REMARK 922        TOTAL FREE ENERGY PREDICTED BY IDOCK:   -4.78 KCAL/MOL
REMARK 923 INTER-LIGAND FREE ENERGY PREDICTED BY IDOCK:   -4.46 KCAL/MOL
REMARK 924 INTRA-LIGAND FREE ENERGY PREDICTED BY IDOCK:   -0.32 KCAL/MOL
REMARK 927      BINDING AFFINITY PREDICTED BY RF-SCORE:    0.00 PKD
ROOT
HETATM    1  C   UNL     1      -6.396  17.085  66.710  1.00  0.00    -0.246 C  
HETATM    2  C   UNL     1      -7.756  17.581  66.240  1.00  0.00    -0.334 C  
ENDROOT
BRANCH   2   3
HETATM    3  CA  UNL     1      -8.955  16.861  66.900  1.00  0.00    -0.224 C  
BRANCH   3   4
HETATM    4  C   UNL     1      -9.638  17.708  68.009  1.00  0.00    -0.289 C  
HETATM    5  H   UNL     1      -9.202  19.204  69.274  1.00  0.00     0.000 HD 
HETATM    6  O   UNL     1      -8.785  18.686  68.596  1.00  0.00    -0.324 OA 
ENDBRANCH   3   4
BRANCH   3   7
HETATM    7  N   UNL     1      -9.857  16.481  65.793  1.00  0.00    -0.519 NA 
HETATM    8  H   UNL     1      -9.323  16.262  64.952  1.00  0.00     0.000 HD 
BRANCH   7   9
HETATM    9  C   UNL     1     -10.769  15.380  66.130  1.00  0.00    -0.314 C  
BRANCH   9  10
HETATM   10  C   UNL     1     -10.418  14.117  65.314  1.00  0.00    -0.384 C  
BRANCH  10  11
HETATM   11  N   UNL     1      -9.407  13.300  66.008  1.00  0.00    -0.481 NA 
HETATM   12  H   UNL     1      -9.116  13.743  66.880  1.00  0.00     0.000 HD 
BRANCH  11  13
HETATM   13  CA  UNL     1      -9.857  11.905  66.244  1.00  0.00    -0.225 C  
BRANCH  13  14
HETATM   14  C   UNL     1     -10.555  11.827  67.621  1.00  0.00    -0.205 C  
HETATM   15  H   UNL     1     -12.383  11.549  68.312  1.00  0.00     0.000 HD 
HETATM   16  O   UNL     1     -11.955  11.598  67.465  1.00  0.00    -0.622 OA 
ENDBRANCH  13  14
BRANCH  13  17
HETATM   17  C   UNL     1      -8.739  10.847  66.145  1.00  0.00    -0.189 C  
HETATM   18  C   UNL     1      -8.060  10.504  67.464  1.00  0.00    -0.107 C  
ENDBRANCH  13  17
ENDBRANCH  11  13
ENDBRANCH  10  11
ENDBRANCH   9  10
ENDBRANCH   7   9
ENDBRANCH   3   7
ENDBRANCH   2   3
TORSDOF 9
ENDMDL
MODEL      201
REMARK 921   NORMALIZED FREE ENERGY PREDICTED BY IDOCK:   -2.86 KCAL/MOL
REMARK 922        TOTAL FREE ENERGY PREDICTED BY IDOCK:   -4.78 KCAL/MOL
REMARK 923 INTER-LIGAND FREE ENERGY PREDICTED BY IDOCK:   -4.60 KCAL/MOL
REMARK 924 INTRA-LIGAND FREE ENERGY PREDICTED BY IDOCK:   -0.17 KCAL/MOL
REMARK 927      BINDING AFFINITY PREDICTED BY RF-SCORE:    0.00 PKD
ROOT
HETATM    1  C   UNL     1      -9.441   7.565  72.989  1.00  0.00    -0.255 C  
HETATM    2  C   UNL     1     -10.747   8.231  72.578  1.00  0.00    -0.411 C  
ENDROOT
BRANCH   2   3
HETATM    3  CA  UNL     1     -10.809   8.638  71.087  1.00  0.00    -0.259 C  
BRANCH   3   4
HETATM    4  C   UNL     1     -11.029   7.430  70.137  1.00  0.00    -0.255 C  
HETATM    5  H   UNL     1     -12.031   5.691  70.083  1.00  0.00     0.000 HD 
HETATM    6  O   UNL     1     -11.896   6.430  70.664  1.00  0.00    -0.367 OA 
ENDBRANCH   3   4
BRANCH   3   7
HETATM    7  N   UNL     1     -11.858   9.675  70.996  1.00  0.00    -0.322 NA 
HETATM    8  H   UNL     1     -12.231   9.893  71.919  1.00  0.00     0.000 HD 
BRANCH   7   9
HETATM    9  C   UNL     1     -11.415  10.898  70.312  1.00  0.00    -0.302 C  
BRANCH   9  10
HETATM   10  C   UNL     1     -11.249  10.641  68.798  1.00  0.00    -0.279 C  
BRANCH  10  11
HETATM   11  N   UNL     1     -12.071  11.575  68.008  1.00  0.00    -0.598 NA 
HETATM   12  H   UNL     1     -12.694  12.113  68.611  1.00  0.00     0.000 HD 
BRANCH  11  13
HETATM   13  CA  UNL     1     -11.257  12.471  67.148  1.00  0.00    -0.300 C  
BRANCH  13  14
HETATM   14  C   UNL     1     -11.844  13.900  67.211  1.00  0.00    -0.407 C  
HETATM   15  H   UNL     1     -13.191  14.964  66.236  1.00  0.00     0.000 HD 
HETATM   16  O   UNL     1     -12.830  14.086  66.197  1.00  0.00    -0.394 OA 
ENDBRANCH  13  14
BRANCH  13  17
HETATM   17  C   UNL     1     -11.128  12.006  65.683  1.00  0.00    -0.361 C  
HETATM   18  C   UNL     1      -9.903  12.532  64.947  1.00  0.00    -0.095 C  
ENDBRANCH  13  17
ENDBRANCH  11  13
ENDBRANCH  10  11
ENDBRANCH   9  10
ENDBRANCH   7   9
ENDBRANCH   3   7
ENDBRANCH   2   3
TORSDOF 9
ENDMDL
MODEL      202
REMARK 921   NORMALIZED FREE ENERGY PREDICTED BY IDOCK:   -2.86 KCAL/MOL
REMARK 922        TOTAL FREE ENERGY PREDICTED BY IDOCK:   -4.78 KCAL/MOL
REMARK 923 INTER-LIGAND FREE ENERGY PREDICTED BY IDOCK:   -3.78 KCAL/MOL
REMARK 924 INTRA-LIGAND FREE ENERGY PREDICTED BY IDOCK:   -1.00 KCAL/MOL
REMARK 927      BINDING AFFINITY PREDICTED BY RF-SCORE:    0.00 PKD
ROOT
HETATM    1  C   UNL     1     -10.861  10.012  68.908  1.00  0.00    -0.250 C  
HETATM    2  C   UNL     1     -10.748   9.618  67.441  1.00  0.00    -0.308 C  
ENDROOT
BRANCH   2   3
HETATM    3  CA  UNL     1      -9.299   9.588  66.903  1.00  0.00    -0.146 C  
BRANCH   3   4
HETATM    4  C   UNL     1      -9.208   9.890  65.383  1.00  0.00    -0.211 C  
HETATM    5  H   UNL     1     -10.268  10.799  63.940  1.00  0.00     0.000 HD 
HETATM    6  O   UNL     1     -10.324  10.614  64.871  1.00  0.00    -0.321 OA 
ENDBRANCH   3   4
BRANCH   3   7
HETATM    7  N   UNL     1      -8.535  10.527  67.750  1.00  0.00    -0.114 NA 
HETATM    8  H   UNL     1      -7.939  10.020  68.405  1.00  0.00     0.000 HD 
BRANCH   7   9
HETATM    9  C   UNL     1      -7.749  11.503  66.982  1.00  0.00    -0.158 C  
BRANCH   9  10
HETATM   10  C   UNL     1      -8.291  12.931  67.209  1.00  0.00    -0.185 C  
BRANCH  10  11
HETATM   11  N   UNL     1      -9.382  13.240  66.268  1.00  0.00    -0.441 NA 
HETATM   12  H   UNL     1      -9.475  12.508  65.564  1.00  0.00     0.000 HD 
BRANCH  11  13
HETATM   13  CA  UNL     1     -10.677  13.490  66.951  1.00  0.00    -0.274 C  
BRANCH  13  14
HETATM   14  C   UNL     1     -11.355  14.723  66.309  1.00  0.00    -0.334 C  
HETATM   15  H   UNL     1     -11.453  15.565  64.527  1.00  0.00     0.000 HD 
HETATM   16  O   UNL     1     -11.036  14.808  64.921  1.00  0.00    -0.382 OA 
ENDBRANCH  13  14
BRANCH  13  17
HETATM   17  C   UNL     1     -10.569  13.669  68.479  1.00  0.00    -0.259 C  
HETATM   18  C   UNL     1     -11.898  13.648  69.224  1.00  0.00    -0.395 C  
ENDBRANCH  13  17
ENDBRANCH  11  13
ENDBRANCH  10  11
ENDBRANCH   9  10
ENDBRANCH   7   9
ENDBRANCH   3   7
ENDBRANCH   2   3
TORSDOF 9
ENDMDL
MODEL      203
REMARK 921   NORMALIZED FREE ENERGY PREDICTED BY IDOCK:   -2.85 KCAL/MOL
REMARK 922        TOTAL FREE ENERGY PREDICTED BY IDOCK:   -4.76 KCAL/MOL
REMARK 923 INTER-LIGAND FREE ENERGY PREDICTED BY IDOCK:   -3.85 KCAL/MOL
REMARK 924 INTRA-LIGAND FREE ENERGY PREDICTED BY IDOCK:   -0.92 KCAL/MOL
REMARK 927      BINDING AFFINITY PREDICTED BY RF-SCORE:    0.00 PKD
ROOT
HETATM    1  C   UNL     1      -8.142   8.526  66.654  1.00  0.00    -0.104 C  
HETATM    2  C   UNL     1      -9.664   8.553  66.625  1.00  0.00    -0.318 C  
ENDROOT
BRANCH   2   3
HETATM    3  CA  UNL     1     -10.325   7.166  66.802  1.00  0.00    -0.227 C  
BRANCH   3   4
HETATM    4  C   UNL     1      -9.293   6.021  66.995  1.00  0.00    -0.122 C  
HETATM    5  H   UNL     1      -8.621   4.391  66.034  1.00  0.00     0.000 HD 
HETATM    6  O   UNL     1      -9.253   5.092  65.916  1.00  0.00    -0.147 OA 
ENDBRANCH   3   4
BRANCH   3   7
HETATM    7  N   UNL     1     -11.278   7.312  67.921  1.00  0.00    -0.490 NA 
HETATM    8  H   UNL     1     -12.238   7.335  67.578  1.00  0.00     0.000 HD 
BRANCH   7   9
HETATM    9  C   UNL     1     -11.123   6.285  68.962  1.00  0.00    -0.378 C  
BRANCH   9  10
HETATM   10  C   UNL     1     -11.138   6.931  70.365  1.00  0.00    -0.296 C  
BRANCH  10  11
HETATM   11  N   UNL     1     -11.802   8.246  70.337  1.00  0.00    -0.474 NA 
HETATM   12  H   UNL     1     -12.709   8.207  70.803  1.00  0.00     0.000 HD 
BRANCH  11  13
HETATM   13  CA  UNL     1     -10.958   9.329  70.903  1.00  0.00    -0.299 C  
BRANCH  13  14
HETATM   14  C   UNL     1     -10.886  10.494  69.889  1.00  0.00    -0.276 C  
HETATM   15  H   UNL     1     -11.844  11.066  68.261  1.00  0.00     0.000 HD 
HETATM   16  O   UNL     1     -11.888  10.349  68.883  1.00  0.00    -0.166 OA 
ENDBRANCH  13  14
BRANCH  13  17
HETATM   17  C   UNL     1      -9.539   8.884  71.314  1.00  0.00    -0.348 C  
HETATM   18  C   UNL     1      -8.408   9.549  70.542  1.00  0.00    -0.203 C  
ENDBRANCH  13  17
ENDBRANCH  11  13
ENDBRANCH  10  11
ENDBRANCH   9  10
ENDBRANCH   7   9
ENDBRANCH   3   7
ENDBRANCH   2   3
TORSDOF 9
ENDMDL
MODEL      204
REMARK 921   NORMALIZED FREE ENERGY PREDICTED BY IDOCK:   -2.85 KCAL/MOL
REMARK 922        TOTAL FREE ENERGY PREDICTED BY IDOCK:   -4.75 KCAL/MOL
REMARK 923 INTER-LIGAND FREE ENERGY PREDICTED BY IDOCK:   -4.42 KCAL/MOL
REMARK 924 INTRA-LIGAND FREE ENERGY PREDICTED BY IDOCK:   -0.33 KCAL/MOL
REMARK 927      BINDING AFFINITY PREDICTED BY RF-SCORE:    0.00 PKD
ROOT
HETATM    1  C   UNL     1     -13.101  11.714  71.708  1.00  0.00    -0.487 C  
HETATM    2  C   UNL     1     -12.928  10.217  71.486  1.00  0.00    -0.556 C  
ENDROOT
BRANCH   2   3
HETATM    3  CA  UNL     1     -11.485   9.793  71.126  1.00  0.00    -0.398 C  
BRANCH   3   4
HETATM    4  C   UNL     1     -11.412   8.387  70.470  1.00  0.00    -0.179 C  
HETATM    5  H   UNL     1     -10.234   6.761  70.469  1.00  0.00     0.000 HD 
HETATM    6  O   UNL     1     -10.279   7.621  70.870  1.00  0.00    -0.199 OA 
ENDBRANCH   3   4
BRANCH   3   7
HETATM    7  N   UNL     1     -10.944  10.879  70.283  1.00  0.00    -0.456 NA 
HETATM    8  H   UNL     1      -9.944  10.997  70.444  1.00  0.00     0.000 HD 
BRANCH   7   9
HETATM    9  C   UNL     1     -11.223  10.705  68.850  1.00  0.00    -0.275 C  
BRANCH   9  10
HETATM   10  C   UNL     1     -10.638  11.881  68.039  1.00  0.00    -0.207 C  
BRANCH  10  11
HETATM   11  N   UNL     1     -10.352  13.036  68.907  1.00  0.00    -0.431 NA 
HETATM   12  H   UNL     1      -9.683  12.788  69.636  1.00  0.00     0.000 HD 
BRANCH  11  13
HETATM   13  CA  UNL     1      -9.896  14.228  68.148  1.00  0.00    -0.226 C  
BRANCH  13  14
HETATM   14  C   UNL     1      -9.670  13.829  66.671  1.00  0.00    -0.289 C  
HETATM   15  H   UNL     1      -9.915  14.644  64.891  1.00  0.00     0.000 HD 
HETATM   16  O   UNL     1     -10.054  14.889  65.798  1.00  0.00    -0.299 OA 
ENDBRANCH  13  14
BRANCH  13  17
HETATM   17  C   UNL     1      -8.636  14.907  68.722  1.00  0.00    -0.177 C  
HETATM   18  C   UNL     1      -8.712  16.425  68.820  1.00  0.00    -0.246 C  
ENDBRANCH  13  17
ENDBRANCH  11  13
ENDBRANCH  10  11
ENDBRANCH   9  10
ENDBRANCH   7   9
ENDBRANCH   3   7
ENDBRANCH   2   3
TORSDOF 9
ENDMDL
MODEL      205
REMARK 921   NORMALIZED FREE ENERGY PREDICTED BY IDOCK:   -2.84 KCAL/MOL
REMARK 922        TOTAL FREE ENERGY PREDICTED BY IDOCK:   -4.75 KCAL/MOL
REMARK 923 INTER-LIGAND FREE ENERGY PREDICTED BY IDOCK:   -4.04 KCAL/MOL
REMARK 924 INTRA-LIGAND FREE ENERGY PREDICTED BY IDOCK:   -0.71 KCAL/MOL
REMARK 927      BINDING AFFINITY PREDICTED BY RF-SCORE:    0.00 PKD
ROOT
HETATM    1  C   UNL     1      -7.897  14.001  68.669  1.00  0.00    -0.130 C  
HETATM    2  C   UNL     1      -9.334  14.496  68.596  1.00  0.00    -0.199 C  
ENDROOT
BRANCH   2   3
HETATM    3  CA  UNL     1     -10.094  14.052  67.325  1.00  0.00    -0.249 C  
BRANCH   3   4
HETATM    4  C   UNL     1     -11.556  13.616  67.611  1.00  0.00    -0.346 C  
HETATM    5  H   UNL     1     -12.558  12.135  68.523  1.00  0.00     0.000 HD 
HETATM    6  O   UNL     1     -11.664  12.401  68.347  1.00  0.00    -0.303 OA 
ENDBRANCH   3   4
BRANCH   3   7
HETATM    7  N   UNL     1      -9.976  15.175  66.372  1.00  0.00    -0.258 NA 
HETATM    8  H   UNL     1     -10.436  14.949  65.489  1.00  0.00     0.000 HD 
BRANCH   7   9
HETATM    9  C   UNL     1     -10.473  16.451  66.905  1.00  0.00    -0.289 C  
BRANCH   9  10
HETATM   10  C   UNL     1     -10.384  17.557  65.830  1.00  0.00    -0.259 C  
BRANCH  10  11
HETATM   11  N   UNL     1      -9.181  18.386  66.020  1.00  0.00    -0.503 NA 
HETATM   12  H   UNL     1      -9.325  19.327  65.655  1.00  0.00     0.000 HD 
BRANCH  11  13
HETATM   13  CA  UNL     1      -8.727  18.426  67.433  1.00  0.00    -0.260 C  
BRANCH  13  14
HETATM   14  C   UNL     1      -9.029  19.825  68.019  1.00  0.00    -0.311 C  
HETATM   15  H   UNL     1     -10.589  20.793  68.744  1.00  0.00     0.000 HD 
HETATM   16  O   UNL     1     -10.404  19.933  68.383  1.00  0.00    -0.450 OA 
ENDBRANCH  13  14
BRANCH  13  17
HETATM   17  C   UNL     1      -7.242  18.064  67.638  1.00  0.00    -0.210 C  
HETATM   18  C   UNL     1      -6.664  17.110  66.602  1.00  0.00    -0.277 C  
ENDBRANCH  13  17
ENDBRANCH  11  13
ENDBRANCH  10  11
ENDBRANCH   9  10
ENDBRANCH   7   9
ENDBRANCH   3   7
ENDBRANCH   2   3
TORSDOF 9
ENDMDL
MODEL      206
REMARK 921   NORMALIZED FREE ENERGY PREDICTED BY IDOCK:   -2.84 KCAL/MOL
REMARK 922        TOTAL FREE ENERGY PREDICTED BY IDOCK:   -4.75 KCAL/MOL
REMARK 923 INTER-LIGAND FREE ENERGY PREDICTED BY IDOCK:   -4.13 KCAL/MOL
REMARK 924 INTRA-LIGAND FREE ENERGY PREDICTED BY IDOCK:   -0.62 KCAL/MOL
REMARK 927      BINDING AFFINITY PREDICTED BY RF-SCORE:    0.00 PKD
ROOT
HETATM    1  C   UNL     1      -9.661   8.991  68.443  1.00  0.00    -0.170 C  
HETATM    2  C   UNL     1      -9.790  10.307  69.197  1.00  0.00    -0.228 C  
ENDROOT
BRANCH   2   3
HETATM    3  CA  UNL     1     -11.173  10.529  69.852  1.00  0.00    -0.307 C  
BRANCH   3   4
HETATM    4  C   UNL     1     -12.033  11.590  69.112  1.00  0.00    -0.320 C  
HETATM    5  H   UNL     1     -12.511  12.134  67.240  1.00  0.00     0.000 HD 
HETATM    6  O   UNL     1     -11.985  11.485  67.692  1.00  0.00    -0.630 OA 
ENDBRANCH   3   4
BRANCH   3   7
HETATM    7  N   UNL     1     -11.801   9.194  69.930  1.00  0.00    -0.351 NA 
HETATM    8  H   UNL     1     -11.110   8.460  69.776  1.00  0.00     0.000 HD 
BRANCH   7   9
HETATM    9  C   UNL     1     -12.535   8.963  71.182  1.00  0.00    -0.214 C  
BRANCH   9  10
HETATM   10  C   UNL     1     -11.666   8.164  72.178  1.00  0.00    -0.359 C  
BRANCH  10  11
HETATM   11  N   UNL     1     -11.811   6.714  71.964  1.00  0.00    -0.316 NA 
HETATM   12  H   UNL     1     -12.562   6.515  71.303  1.00  0.00     0.000 HD 
BRANCH  11  13
HETATM   13  CA  UNL     1     -10.543   6.066  71.541  1.00  0.00    -0.243 C  
BRANCH  13  14
HETATM   14  C   UNL     1     -10.778   5.325  70.204  1.00  0.00    -0.147 C  
HETATM   15  H   UNL     1     -11.600   5.713  68.451  1.00  0.00     0.000 HD 
HETATM   16  O   UNL     1     -11.456   6.168  69.273  1.00  0.00    -0.404 OA 
ENDBRANCH  13  14
BRANCH  13  17
HETATM   17  C   UNL     1      -9.933   5.110  72.586  1.00  0.00    -0.203 C  
HETATM   18  C   UNL     1     -10.068   5.569  74.032  1.00  0.00    -0.241 C  
ENDBRANCH  13  17
ENDBRANCH  11  13
ENDBRANCH  10  11
ENDBRANCH   9  10
ENDBRANCH   7   9
ENDBRANCH   3   7
ENDBRANCH   2   3
TORSDOF 9
ENDMDL
MODEL      207
REMARK 921   NORMALIZED FREE ENERGY PREDICTED BY IDOCK:   -2.84 KCAL/MOL
REMARK 922        TOTAL FREE ENERGY PREDICTED BY IDOCK:   -4.75 KCAL/MOL
REMARK 923 INTER-LIGAND FREE ENERGY PREDICTED BY IDOCK:   -4.10 KCAL/MOL
REMARK 924 INTRA-LIGAND FREE ENERGY PREDICTED BY IDOCK:   -0.65 KCAL/MOL
REMARK 927      BINDING AFFINITY PREDICTED BY RF-SCORE:    0.00 PKD
ROOT
HETATM    1  C   UNL     1      -9.673   6.659  67.419  1.00  0.00    -0.155 C  
HETATM    2  C   UNL     1     -11.059   6.415  68.000  1.00  0.00    -0.365 C  
ENDROOT
BRANCH   2   3
HETATM    3  CA  UNL     1     -11.061   6.065  69.506  1.00  0.00    -0.398 C  
BRANCH   3   4
HETATM    4  C   UNL     1      -9.640   6.067  70.133  1.00  0.00    -0.162 C  
HETATM    5  H   UNL     1      -8.483   4.914  71.299  1.00  0.00     0.000 HD 
HETATM    6  O   UNL     1      -9.353   4.912  70.916  1.00  0.00    -0.139 OA 
ENDBRANCH   3   4
BRANCH   3   7
HETATM    7  N   UNL     1     -12.000   7.014  70.140  1.00  0.00    -0.614 NA 
HETATM    8  H   UNL     1     -12.770   6.516  70.587  1.00  0.00     0.000 HD 
BRANCH   7   9
HETATM    9  C   UNL     1     -11.354   7.932  71.088  1.00  0.00    -0.266 C  
BRANCH   9  10
HETATM   10  C   UNL     1     -11.916   9.362  70.924  1.00  0.00    -0.280 C  
BRANCH  10  11
HETATM   11  N   UNL     1     -10.862  10.301  70.504  1.00  0.00    -0.408 NA 
HETATM   12  H   UNL     1     -10.113  10.343  71.195  1.00  0.00     0.000 HD 
BRANCH  11  13
HETATM   13  CA  UNL     1     -10.324   9.996  69.154  1.00  0.00    -0.216 C  
BRANCH  13  14
HETATM   14  C   UNL     1      -8.892  10.567  69.041  1.00  0.00    -0.169 C  
HETATM   15  H   UNL     1      -7.169  10.370  69.983  1.00  0.00     0.000 HD 
HETATM   16  O   UNL     1      -8.049  10.019  70.053  1.00  0.00    -0.180 OA 
ENDBRANCH  13  14
BRANCH  13  17
HETATM   17  C   UNL     1     -11.199  10.500  67.988  1.00  0.00    -0.361 C  
HETATM   18  C   UNL     1     -11.674  11.941  68.117  1.00  0.00    -0.388 C  
ENDBRANCH  13  17
ENDBRANCH  11  13
ENDBRANCH  10  11
ENDBRANCH   9  10
ENDBRANCH   7   9
ENDBRANCH   3   7
ENDBRANCH   2   3
TORSDOF 9
ENDMDL
MODEL      208
REMARK 921   NORMALIZED FREE ENERGY PREDICTED BY IDOCK:   -2.84 KCAL/MOL
REMARK 922        TOTAL FREE ENERGY PREDICTED BY IDOCK:   -4.74 KCAL/MOL
REMARK 923 INTER-LIGAND FREE ENERGY PREDICTED BY IDOCK:   -4.28 KCAL/MOL
REMARK 924 INTRA-LIGAND FREE ENERGY PREDICTED BY IDOCK:   -0.46 KCAL/MOL
REMARK 927      BINDING AFFINITY PREDICTED BY RF-SCORE:    0.00 PKD
ROOT
HETATM    1  C   UNL     1     -11.184  15.727  69.631  1.00  0.00    -0.319 C  
HETATM    2  C   UNL     1     -10.901  17.058  68.948  1.00  0.00    -0.228 C  
ENDROOT
BRANCH   2   3
HETATM    3  CA  UNL     1     -10.233  16.928  67.560  1.00  0.00    -0.295 C  
BRANCH   3   4
HETATM    4  C   UNL     1     -10.302  18.238  66.727  1.00  0.00    -0.384 C  
HETATM    5  H   UNL     1     -10.583  18.828  64.829  1.00  0.00     0.000 HD 
HETATM    6  O   UNL     1     -10.540  18.027  65.339  1.00  0.00    -0.648 OA 
ENDBRANCH   3   4
BRANCH   3   7
HETATM    7  N   UNL     1      -8.858  16.451  67.817  1.00  0.00    -0.188 NA 
HETATM    8  H   UNL     1      -8.806  15.966  68.713  1.00  0.00     0.000 HD 
BRANCH   7   9
HETATM    9  C   UNL     1      -8.318  15.611  66.739  1.00  0.00    -0.278 C  
BRANCH   9  10
HETATM   10  C   UNL     1      -8.474  14.115  67.089  1.00  0.00    -0.195 C  
BRANCH  10  11
HETATM   11  N   UNL     1      -9.595  13.510  66.350  1.00  0.00    -0.321 NA 
HETATM   12  H   UNL     1      -9.262  13.011  65.525  1.00  0.00     0.000 HD 
BRANCH  11  13
HETATM   13  CA  UNL     1     -10.438  12.632  67.200  1.00  0.00    -0.235 C  
BRANCH  13  14
HETATM   14  C   UNL     1      -9.604  11.405  67.638  1.00  0.00    -0.169 C  
HETATM   15  H   UNL     1      -8.876   9.770  66.807  1.00  0.00     0.000 HD 
HETATM   16  O   UNL     1      -9.388  10.523  66.538  1.00  0.00    -0.158 OA 
ENDBRANCH  13  14
BRANCH  13  17
HETATM   17  C   UNL     1     -11.757  12.180  66.542  1.00  0.00    -0.392 C  
HETATM   18  C   UNL     1     -11.938  12.622  65.096  1.00  0.00    -0.474 C  
ENDBRANCH  13  17
ENDBRANCH  11  13
ENDBRANCH  10  11
ENDBRANCH   9  10
ENDBRANCH   7   9
ENDBRANCH   3   7
ENDBRANCH   2   3
TORSDOF 9
ENDMDL
MODEL      209
REMARK 921   NORMALIZED FREE ENERGY PREDICTED BY IDOCK:   -2.84 KCAL/MOL
REMARK 922        TOTAL FREE ENERGY PREDICTED BY IDOCK:   -4.74 KCAL/MOL
REMARK 923 INTER-LIGAND FREE ENERGY PREDICTED BY IDOCK:   -4.34 KCAL/MOL
REMARK 924 INTRA-LIGAND FREE ENERGY PREDICTED BY IDOCK:   -0.40 KCAL/MOL
REMARK 927      BINDING AFFINITY PREDICTED BY RF-SCORE:    0.00 PKD
ROOT
HETATM    1  C   UNL     1     -12.485   6.898  71.626  1.00  0.00    -0.418 C  
HETATM    2  C   UNL     1     -11.668   6.610  70.374  1.00  0.00    -0.446 C  
ENDROOT
BRANCH   2   3
HETATM    3  CA  UNL     1     -10.162   6.378  70.640  1.00  0.00    -0.190 C  
BRANCH   3   4
HETATM    4  C   UNL     1      -9.771   4.875  70.646  1.00  0.00    -0.201 C  
HETATM    5  H   UNL     1      -9.152   3.463  71.931  1.00  0.00     0.000 HD 
HETATM    6  O   UNL     1      -9.392   4.382  71.928  1.00  0.00    -0.128 OA 
ENDBRANCH   3   4
BRANCH   3   7
HETATM    7  N   UNL     1      -9.445   7.182  69.629  1.00  0.00    -0.152 NA 
HETATM    8  H   UNL     1      -8.966   6.579  68.961  1.00  0.00     0.000 HD 
BRANCH   7   9
HETATM    9  C   UNL     1     -10.305   8.150  68.932  1.00  0.00    -0.211 C  
BRANCH   9  10
HETATM   10  C   UNL     1      -9.851   9.594  69.237  1.00  0.00    -0.189 C  
BRANCH  10  11
HETATM   11  N   UNL     1     -10.466  10.093  70.479  1.00  0.00    -0.408 NA 
HETATM   12  H   UNL     1      -9.761  10.485  71.103  1.00  0.00     0.000 HD 
BRANCH  11  13
HETATM   13  CA  UNL     1     -11.557  11.069  70.228  1.00  0.00    -0.322 C  
BRANCH  13  14
HETATM   14  C   UNL     1     -12.813  10.634  71.018  1.00  0.00    -0.402 C  
HETATM   15  H   UNL     1     -14.009  11.403  72.387  1.00  0.00     0.000 HD 
HETATM   16  O   UNL     1     -13.237  11.671  71.902  1.00  0.00    -0.485 OA 
ENDBRANCH  13  14
BRANCH  13  17
HETATM   17  C   UNL     1     -11.901  11.275  68.739  1.00  0.00    -0.396 C  
HETATM   18  C   UNL     1     -11.765  12.707  68.240  1.00  0.00    -0.389 C  
ENDBRANCH  13  17
ENDBRANCH  11  13
ENDBRANCH  10  11
ENDBRANCH   9  10
ENDBRANCH   7   9
ENDBRANCH   3   7
ENDBRANCH   2   3
TORSDOF 9
ENDMDL
MODEL      210
REMARK 921   NORMALIZED FREE ENERGY PREDICTED BY IDOCK:   -2.82 KCAL/MOL
REMARK 922        TOTAL FREE ENERGY PREDICTED BY IDOCK:   -4.71 KCAL/MOL
REMARK 923 INTER-LIGAND FREE ENERGY PREDICTED BY IDOCK:   -4.17 KCAL/MOL
REMARK 924 INTRA-LIGAND FREE ENERGY PREDICTED BY IDOCK:   -0.54 KCAL/MOL
REMARK 927      BINDING AFFINITY PREDICTED BY RF-SCORE:    0.00 PKD
ROOT
HETATM    1  C   UNL     1     -12.243  13.187  66.016  1.00  0.00    -0.478 C  
HETATM    2  C   UNL     1     -11.288  12.004  65.942  1.00  0.00    -0.391 C  
ENDROOT
BRANCH   2   3
HETATM    3  CA  UNL     1     -10.759  11.530  67.315  1.00  0.00    -0.244 C  
BRANCH   3   4
HETATM    4  C   UNL     1      -9.920  12.611  68.049  1.00  0.00    -0.220 C  
HETATM    5  H   UNL     1      -8.063  12.881  68.762  1.00  0.00     0.000 HD 
HETATM    6  O   UNL     1      -8.576  12.219  68.313  1.00  0.00    -0.174 OA 
ENDBRANCH   3   4
BRANCH   3   7
HETATM    7  N   UNL     1     -11.945  11.074  68.069  1.00  0.00    -0.761 NA 
HETATM    8  H   UNL     1     -12.506  10.434  67.507  1.00  0.00     0.000 HD 
BRANCH   7   9
HETATM    9  C   UNL     1     -11.618  10.473  69.370  1.00  0.00    -0.246 C  
BRANCH   9  10
HETATM   10  C   UNL     1     -10.769   9.198  69.178  1.00  0.00    -0.172 C  
BRANCH  10  11
HETATM   11  N   UNL     1      -9.494   9.293  69.911  1.00  0.00    -0.183 NA 
HETATM   12  H   UNL     1      -9.418  10.188  70.395  1.00  0.00     0.000 HD 
BRANCH  11  13
HETATM   13  CA  UNL     1      -9.284   8.161  70.849  1.00  0.00    -0.151 C  
BRANCH  13  14
HETATM   14  C   UNL     1     -10.034   6.919  70.315  1.00  0.00    -0.179 C  
HETATM   15  H   UNL     1      -9.611   5.306  69.258  1.00  0.00     0.000 HD 
HETATM   16  O   UNL     1      -9.149   6.070  69.586  1.00  0.00    -0.133 OA 
ENDBRANCH  13  14
BRANCH  13  17
HETATM   17  C   UNL     1      -9.694   8.453  72.307  1.00  0.00    -0.386 C  
HETATM   18  C   UNL     1     -11.089   7.977  72.690  1.00  0.00    -0.453 C  
ENDBRANCH  13  17
ENDBRANCH  11  13
ENDBRANCH  10  11
ENDBRANCH   9  10
ENDBRANCH   7   9
ENDBRANCH   3   7
ENDBRANCH   2   3
TORSDOF 9
ENDMDL
MODEL      211
REMARK 921   NORMALIZED FREE ENERGY PREDICTED BY IDOCK:   -2.81 KCAL/MOL
REMARK 922        TOTAL FREE ENERGY PREDICTED BY IDOCK:   -4.70 KCAL/MOL
REMARK 923 INTER-LIGAND FREE ENERGY PREDICTED BY IDOCK:   -4.43 KCAL/MOL
REMARK 924 INTRA-LIGAND FREE ENERGY PREDICTED BY IDOCK:   -0.27 KCAL/MOL
REMARK 927      BINDING AFFINITY PREDICTED BY RF-SCORE:    0.00 PKD
ROOT
HETATM    1  C   UNL     1      -6.714  19.787  69.292  1.00  0.00    -0.383 C  
HETATM    2  C   UNL     1      -8.110  19.498  68.758  1.00  0.00    -0.357 C  
ENDROOT
BRANCH   2   3
HETATM    3  CA  UNL     1      -8.173  18.326  67.752  1.00  0.00    -0.247 C  
BRANCH   3   4
HETATM    4  C   UNL     1      -6.988  18.323  66.748  1.00  0.00    -0.196 C  
HETATM    5  H   UNL     1      -6.662  18.247  64.768  1.00  0.00     0.000 HD 
HETATM    6  O   UNL     1      -7.387  18.249  65.382  1.00  0.00    -0.531 OA 
ENDBRANCH   3   4
BRANCH   3   7
HETATM    7  N   UNL     1      -8.273  17.098  68.568  1.00  0.00    -0.253 NA 
HETATM    8  H   UNL     1      -8.658  17.307  69.489  1.00  0.00     0.000 HD 
BRANCH   7   9
HETATM    9  C   UNL     1      -9.035  16.022  67.918  1.00  0.00    -0.186 C  
BRANCH   9  10
HETATM   10  C   UNL     1      -9.915  15.284  68.950  1.00  0.00    -0.225 C  
BRANCH  10  11
HETATM   11  N   UNL     1      -9.629  13.838  68.954  1.00  0.00    -0.412 NA 
HETATM   12  H   UNL     1      -9.624  13.470  69.906  1.00  0.00     0.000 HD 
BRANCH  11  13
HETATM   13  CA  UNL     1     -10.558  13.066  68.090  1.00  0.00    -0.245 C  
BRANCH  13  14
HETATM   14  C   UNL     1     -11.030  11.809  68.855  1.00  0.00    -0.239 C  
HETATM   15  H   UNL     1     -12.537  10.536  68.772  1.00  0.00     0.000 HD 
HETATM   16  O   UNL     1     -12.247  11.309  68.302  1.00  0.00    -0.611 OA 
ENDBRANCH  13  14
BRANCH  13  17
HETATM   17  C   UNL     1      -9.975  12.675  66.716  1.00  0.00    -0.237 C  
HETATM   18  C   UNL     1     -10.391  13.576  65.561  1.00  0.00    -0.309 C  
ENDBRANCH  13  17
ENDBRANCH  11  13
ENDBRANCH  10  11
ENDBRANCH   9  10
ENDBRANCH   7   9
ENDBRANCH   3   7
ENDBRANCH   2   3
TORSDOF 9
ENDMDL
MODEL      212
REMARK 921   NORMALIZED FREE ENERGY PREDICTED BY IDOCK:   -2.81 KCAL/MOL
REMARK 922        TOTAL FREE ENERGY PREDICTED BY IDOCK:   -4.69 KCAL/MOL
REMARK 923 INTER-LIGAND FREE ENERGY PREDICTED BY IDOCK:   -4.04 KCAL/MOL
REMARK 924 INTRA-LIGAND FREE ENERGY PREDICTED BY IDOCK:   -0.65 KCAL/MOL
REMARK 927      BINDING AFFINITY PREDICTED BY RF-SCORE:    0.00 PKD
ROOT
HETATM    1  C   UNL     1     -11.559  16.016  69.608  1.00  0.00    -0.299 C  
HETATM    2  C   UNL     1     -10.527  16.341  68.537  1.00  0.00    -0.278 C  
ENDROOT
BRANCH   2   3
HETATM    3  CA  UNL     1     -10.119  15.131  67.663  1.00  0.00    -0.231 C  
BRANCH   3   4
HETATM    4  C   UNL     1      -9.847  15.515  66.183  1.00  0.00    -0.316 C  
HETATM    5  H   UNL     1     -10.618  15.200  64.357  1.00  0.00     0.000 HD 
HETATM    6  O   UNL     1     -10.784  14.965  65.262  1.00  0.00    -0.336 OA 
ENDBRANCH   3   4
BRANCH   3   7
HETATM    7  N   UNL     1      -8.964  14.512  68.346  1.00  0.00    -0.181 NA 
HETATM    8  H   UNL     1      -9.272  13.950  69.140  1.00  0.00     0.000 HD 
BRANCH   7   9
HETATM    9  C   UNL     1      -8.108  13.720  67.451  1.00  0.00    -0.177 C  
BRANCH   9  10
HETATM   10  C   UNL     1      -8.132  12.231  67.859  1.00  0.00    -0.155 C  
BRANCH  10  11
HETATM   11  N   UNL     1      -8.322  11.362  66.684  1.00  0.00    -0.169 NA 
HETATM   12  H   UNL     1      -8.255  10.377  66.944  1.00  0.00     0.000 HD 
BRANCH  11  13
HETATM   13  CA  UNL     1      -9.591  11.638  65.964  1.00  0.00    -0.228 C  
BRANCH  13  14
HETATM   14  C   UNL     1     -10.776  11.139  66.822  1.00  0.00    -0.276 C  
HETATM   15  H   UNL     1     -12.573  11.778  67.331  1.00  0.00     0.000 HD 
HETATM   16  O   UNL     1     -11.845  12.085  66.804  1.00  0.00    -0.581 OA 
ENDBRANCH  13  14
BRANCH  13  17
HETATM   17  C   UNL     1      -9.663  11.038  64.545  1.00  0.00    -0.323 C  
HETATM   18  C   UNL     1     -10.409  11.889  63.525  1.00  0.00    -0.495 C  
ENDBRANCH  13  17
ENDBRANCH  11  13
ENDBRANCH  10  11
ENDBRANCH   9  10
ENDBRANCH   7   9
ENDBRANCH   3   7
ENDBRANCH   2   3
TORSDOF 9
ENDMDL
MODEL      213
REMARK 921   NORMALIZED FREE ENERGY PREDICTED BY IDOCK:   -2.80 KCAL/MOL
REMARK 922        TOTAL FREE ENERGY PREDICTED BY IDOCK:   -4.68 KCAL/MOL
REMARK 923 INTER-LIGAND FREE ENERGY PREDICTED BY IDOCK:   -4.34 KCAL/MOL
REMARK 924 INTRA-LIGAND FREE ENERGY PREDICTED BY IDOCK:   -0.34 KCAL/MOL
REMARK 927      BINDING AFFINITY PREDICTED BY RF-SCORE:    0.00 PKD
ROOT
HETATM    1  C   UNL     1     -12.561   7.639  71.705  1.00  0.00    -0.365 C  
HETATM    2  C   UNL     1     -11.878   7.325  70.381  1.00  0.00    -0.174 C  
ENDROOT
BRANCH   2   3
HETATM    3  CA  UNL     1     -10.759   8.321  69.995  1.00  0.00    -0.239 C  
BRANCH   3   4
HETATM    4  C   UNL     1      -9.462   8.130  70.827  1.00  0.00    -0.162 C  
HETATM    5  H   UNL     1      -8.578   8.870  72.470  1.00  0.00     0.000 HD 
HETATM    6  O   UNL     1      -9.371   8.987  71.961  1.00  0.00    -0.358 OA 
ENDBRANCH   3   4
BRANCH   3   7
HETATM    7  N   UNL     1     -10.568   8.166  68.538  1.00  0.00    -0.372 NA 
HETATM    8  H   UNL     1     -11.180   7.440  68.168  1.00  0.00     0.000 HD 
BRANCH   7   9
HETATM    9  C   UNL     1     -10.736   9.419  67.788  1.00  0.00    -0.229 C  
BRANCH   9  10
HETATM   10  C   UNL     1     -11.133  10.569  68.739  1.00  0.00    -0.265 C  
BRANCH  10  11
HETATM   11  N   UNL     1     -12.282  11.324  68.209  1.00  0.00    -0.635 NA 
HETATM   12  H   UNL     1     -13.082  11.262  68.840  1.00  0.00     0.000 HD 
BRANCH  11  13
HETATM   13  CA  UNL     1     -11.950  12.739  67.906  1.00  0.00    -0.266 C  
BRANCH  13  14
HETATM   14  C   UNL     1     -11.633  12.871  66.399  1.00  0.00    -0.371 C  
HETATM   15  H   UNL     1     -11.697  14.278  65.016  1.00  0.00     0.000 HD 
HETATM   16  O   UNL     1     -11.892  14.197  65.942  1.00  0.00    -0.357 OA 
ENDBRANCH  13  14
BRANCH  13  17
HETATM   17  C   UNL     1     -10.800  13.321  68.753  1.00  0.00    -0.273 C  
HETATM   18  C   UNL     1     -10.972  14.779  69.155  1.00  0.00    -0.277 C  
ENDBRANCH  13  17
ENDBRANCH  11  13
ENDBRANCH  10  11
ENDBRANCH   9  10
ENDBRANCH   7   9
ENDBRANCH   3   7
ENDBRANCH   2   3
TORSDOF 9
ENDMDL
MODEL      214
REMARK 921   NORMALIZED FREE ENERGY PREDICTED BY IDOCK:   -2.79 KCAL/MOL
REMARK 922        TOTAL FREE ENERGY PREDICTED BY IDOCK:   -4.67 KCAL/MOL
REMARK 923 INTER-LIGAND FREE ENERGY PREDICTED BY IDOCK:   -4.04 KCAL/MOL
REMARK 924 INTRA-LIGAND FREE ENERGY PREDICTED BY IDOCK:   -0.63 KCAL/MOL
REMARK 927      BINDING AFFINITY PREDICTED BY RF-SCORE:    0.00 PKD
ROOT
HETATM    1  C   UNL     1     -10.315   5.235  71.661  1.00  0.00    -0.281 C  
HETATM    2  C   UNL     1     -11.513   5.874  72.350  1.00  0.00    -0.358 C  
ENDROOT
BRANCH   2   3
HETATM    3  CA  UNL     1     -12.061   7.130  71.631  1.00  0.00    -0.336 C  
BRANCH   3   4
HETATM    4  C   UNL     1     -13.610   7.143  71.528  1.00  0.00    -0.319 C  
HETATM    5  H   UNL     1     -15.148   8.407  71.784  1.00  0.00     0.000 HD 
HETATM    6  O   UNL     1     -14.200   8.399  71.848  1.00  0.00    -0.414 OA 
ENDBRANCH   3   4
BRANCH   3   7
HETATM    7  N   UNL     1     -11.497   8.287  72.355  1.00  0.00    -0.382 NA 
HETATM    8  H   UNL     1     -11.135   8.003  73.265  1.00  0.00     0.000 HD 
BRANCH   7   9
HETATM    9  C   UNL     1     -10.471   9.014  71.593  1.00  0.00    -0.355 C  
BRANCH   9  10
HETATM   10  C   UNL     1     -10.865   9.096  70.101  1.00  0.00    -0.240 C  
BRANCH  10  11
HETATM   11  N   UNL     1      -9.708   9.463  69.267  1.00  0.00    -0.166 NA 
HETATM   12  H   UNL     1      -8.866   9.567  69.834  1.00  0.00     0.000 HD 
BRANCH  11  13
HETATM   13  CA  UNL     1      -9.481   8.514  68.147  1.00  0.00    -0.141 C  
BRANCH  13  14
HETATM   14  C   UNL     1     -10.331   8.955  66.933  1.00  0.00    -0.262 C  
HETATM   15  H   UNL     1     -10.840  10.645  66.050  1.00  0.00     0.000 HD 
HETATM   16  O   UNL     1     -10.318  10.375  66.797  1.00  0.00    -0.223 OA 
ENDBRANCH  13  14
BRANCH  13  17
HETATM   17  C   UNL     1      -9.762   7.038  68.495  1.00  0.00    -0.141 C  
HETATM   18  C   UNL     1     -10.879   6.389  67.689  1.00  0.00    -0.425 C  
ENDBRANCH  13  17
ENDBRANCH  11  13
ENDBRANCH  10  11
ENDBRANCH   9  10
ENDBRANCH   7   9
ENDBRANCH   3   7
ENDBRANCH   2   3
TORSDOF 9
ENDMDL
MODEL      215
REMARK 921   NORMALIZED FREE ENERGY PREDICTED BY IDOCK:   -2.79 KCAL/MOL
REMARK 922        TOTAL FREE ENERGY PREDICTED BY IDOCK:   -4.67 KCAL/MOL
REMARK 923 INTER-LIGAND FREE ENERGY PREDICTED BY IDOCK:   -4.16 KCAL/MOL
REMARK 924 INTRA-LIGAND FREE ENERGY PREDICTED BY IDOCK:   -0.51 KCAL/MOL
REMARK 927      BINDING AFFINITY PREDICTED BY RF-SCORE:    0.00 PKD
ROOT
HETATM    1  C   UNL     1      -9.633   9.092  68.224  1.00  0.00    -0.161 C  
HETATM    2  C   UNL     1      -9.715  10.386  69.021  1.00  0.00    -0.216 C  
ENDROOT
BRANCH   2   3
HETATM    3  CA  UNL     1     -11.003  10.530  69.865  1.00  0.00    -0.298 C  
BRANCH   3   4
HETATM    4  C   UNL     1     -11.939  11.661  69.357  1.00  0.00    -0.316 C  
HETATM    5  H   UNL     1     -12.649  12.395  67.629  1.00  0.00     0.000 HD 
HETATM    6  O   UNL     1     -12.077  11.704  67.939  1.00  0.00    -0.613 OA 
ENDBRANCH   3   4
BRANCH   3   7
HETATM    7  N   UNL     1     -11.629   9.191  69.877  1.00  0.00    -0.447 NA 
HETATM    8  H   UNL     1     -11.021   8.505  69.431  1.00  0.00     0.000 HD 
BRANCH   7   9
HETATM    9  C   UNL     1     -12.025   8.741  71.219  1.00  0.00    -0.301 C  
BRANCH   9  10
HETATM   10  C   UNL     1     -10.787   8.612  72.133  1.00  0.00    -0.354 C  
BRANCH  10  11
HETATM   11  N   UNL     1     -10.069   7.351  71.879  1.00  0.00    -0.178 NA 
HETATM   12  H   UNL     1      -9.219   7.295  72.440  1.00  0.00     0.000 HD 
BRANCH  11  13
HETATM   13  CA  UNL     1     -10.922   6.152  72.085  1.00  0.00    -0.262 C  
BRANCH  13  14
HETATM   14  C   UNL     1     -10.527   5.476  73.419  1.00  0.00    -0.237 C  
HETATM   15  H   UNL     1     -10.133   6.033  75.271  1.00  0.00     0.000 HD 
HETATM   16  O   UNL     1     -10.376   6.448  74.452  1.00  0.00    -0.332 OA 
ENDBRANCH  13  14
BRANCH  13  17
HETATM   17  C   UNL     1     -10.879   5.131  70.930  1.00  0.00    -0.037 C  
HETATM   18  C   UNL     1     -10.664   5.734  69.548  1.00  0.00    -0.408 C  
ENDBRANCH  13  17
ENDBRANCH  11  13
ENDBRANCH  10  11
ENDBRANCH   9  10
ENDBRANCH   7   9
ENDBRANCH   3   7
ENDBRANCH   2   3
TORSDOF 9
ENDMDL
MODEL      216
REMARK 921   NORMALIZED FREE ENERGY PREDICTED BY IDOCK:   -2.79 KCAL/MOL
REMARK 922        TOTAL FREE ENERGY PREDICTED BY IDOCK:   -4.67 KCAL/MOL
REMARK 923 INTER-LIGAND FREE ENERGY PREDICTED BY IDOCK:   -4.41 KCAL/MOL
REMARK 924 INTRA-LIGAND FREE ENERGY PREDICTED BY IDOCK:   -0.26 KCAL/MOL
REMARK 927      BINDING AFFINITY PREDICTED BY RF-SCORE:    0.00 PKD
ROOT
HETATM    1  C   UNL     1     -12.273   7.552  71.210  1.00  0.00    -0.357 C  
HETATM    2  C   UNL     1     -11.512   6.593  70.305  1.00  0.00    -0.449 C  
ENDROOT
BRANCH   2   3
HETATM    3  CA  UNL     1     -10.334   7.243  69.543  1.00  0.00    -0.225 C  
BRANCH   3   4
HETATM    4  C   UNL     1      -9.360   6.201  68.926  1.00  0.00    -0.124 C  
HETATM    5  H   UNL     1      -8.007   4.840  69.514  1.00  0.00     0.000 HD 
HETATM    6  O   UNL     1      -8.603   5.477  69.891  1.00  0.00    -0.116 OA 
ENDBRANCH   3   4
BRANCH   3   7
HETATM    7  N   UNL     1     -10.947   8.153  68.553  1.00  0.00    -0.415 NA 
HETATM    8  H   UNL     1     -11.791   8.582  68.931  1.00  0.00     0.000 HD 
BRANCH   7   9
HETATM    9  C   UNL     1     -10.024   9.179  68.048  1.00  0.00    -0.178 C  
BRANCH   9  10
HETATM   10  C   UNL     1     -10.782  10.210  67.184  1.00  0.00    -0.221 C  
BRANCH  10  11
HETATM   11  N   UNL     1     -10.044  10.509  65.944  1.00  0.00    -0.253 NA 
HETATM   12  H   UNL     1     -10.140   9.749  65.270  1.00  0.00     0.000 HD 
BRANCH  11  13
HETATM   13  CA  UNL     1     -10.436  11.808  65.340  1.00  0.00    -0.272 C  
BRANCH  13  14
HETATM   14  C   UNL     1     -11.689  12.345  66.070  1.00  0.00    -0.410 C  
HETATM   15  H   UNL     1     -12.264  14.030  66.923  1.00  0.00     0.000 HD 
HETATM   16  O   UNL     1     -11.495  13.699  66.475  1.00  0.00    -0.314 OA 
ENDBRANCH  13  14
BRANCH  13  17
HETATM   17  C   UNL     1     -10.679  11.757  63.818  1.00  0.00    -0.480 C  
HETATM   18  C   UNL     1     -12.116  12.017  63.388  1.00  0.00    -0.597 C  
ENDBRANCH  13  17
ENDBRANCH  11  13
ENDBRANCH  10  11
ENDBRANCH   9  10
ENDBRANCH   7   9
ENDBRANCH   3   7
ENDBRANCH   2   3
TORSDOF 9
ENDMDL
MODEL      217
REMARK 921   NORMALIZED FREE ENERGY PREDICTED BY IDOCK:   -2.78 KCAL/MOL
REMARK 922        TOTAL FREE ENERGY PREDICTED BY IDOCK:   -4.65 KCAL/MOL
REMARK 923 INTER-LIGAND FREE ENERGY PREDICTED BY IDOCK:   -3.96 KCAL/MOL
REMARK 924 INTRA-LIGAND FREE ENERGY PREDICTED BY IDOCK:   -0.68 KCAL/MOL
REMARK 927      BINDING AFFINITY PREDICTED BY RF-SCORE:    0.00 PKD
ROOT
HETATM    1  C   UNL     1     -11.293  10.493  70.140  1.00  0.00    -0.400 C  
HETATM    2  C   UNL     1     -11.002  10.011  68.726  1.00  0.00    -0.242 C  
ENDROOT
BRANCH   2   3
HETATM    3  CA  UNL     1      -9.592  10.379  68.209  1.00  0.00    -0.144 C  
BRANCH   3   4
HETATM    4  C   UNL     1      -9.414  10.115  66.689  1.00  0.00    -0.170 C  
HETATM    5  H   UNL     1     -10.180  10.718  64.933  1.00  0.00     0.000 HD 
HETATM    6  O   UNL     1     -10.289  10.879  65.863  1.00  0.00    -0.251 OA 
ENDBRANCH   3   4
BRANCH   3   7
HETATM    7  N   UNL     1      -9.372  11.785  68.605  1.00  0.00    -0.352 NA 
HETATM    8  H   UNL     1      -9.473  11.896  69.614  1.00  0.00     0.000 HD 
BRANCH   7   9
HETATM    9  C   UNL     1      -8.085  12.329  68.149  1.00  0.00    -0.158 C  
BRANCH   9  10
HETATM   10  C   UNL     1      -8.288  13.700  67.468  1.00  0.00    -0.188 C  
BRANCH  10  11
HETATM   11  N   UNL     1      -9.333  13.629  66.432  1.00  0.00    -0.429 NA 
HETATM   12  H   UNL     1      -9.817  12.731  66.462  1.00  0.00     0.000 HD 
BRANCH  11  13
HETATM   13  CA  UNL     1     -10.298  14.756  66.511  1.00  0.00    -0.286 C  
BRANCH  13  14
HETATM   14  C   UNL     1     -11.724  14.218  66.248  1.00  0.00    -0.393 C  
HETATM   15  H   UNL     1     -12.769  13.558  64.709  1.00  0.00     0.000 HD 
HETATM   16  O   UNL     1     -11.893  13.889  64.870  1.00  0.00    -0.352 OA 
ENDBRANCH  13  14
BRANCH  13  17
HETATM   17  C   UNL     1      -9.983  15.933  65.566  1.00  0.00    -0.313 C  
HETATM   18  C   UNL     1     -10.466  17.294  66.051  1.00  0.00    -0.285 C  
ENDBRANCH  13  17
ENDBRANCH  11  13
ENDBRANCH  10  11
ENDBRANCH   9  10
ENDBRANCH   7   9
ENDBRANCH   3   7
ENDBRANCH   2   3
TORSDOF 9
ENDMDL
MODEL      218
REMARK 921   NORMALIZED FREE ENERGY PREDICTED BY IDOCK:   -2.77 KCAL/MOL
REMARK 922        TOTAL FREE ENERGY PREDICTED BY IDOCK:   -4.64 KCAL/MOL
REMARK 923 INTER-LIGAND FREE ENERGY PREDICTED BY IDOCK:   -4.35 KCAL/MOL
REMARK 924 INTRA-LIGAND FREE ENERGY PREDICTED BY IDOCK:   -0.29 KCAL/MOL
REMARK 927      BINDING AFFINITY PREDICTED BY RF-SCORE:    0.00 PKD
ROOT
HETATM    1  C   UNL     1      -9.162  11.117  65.400  1.00  0.00    -0.225 C  
HETATM    2  C   UNL     1     -10.414  11.573  64.664  1.00  0.00    -0.356 C  
ENDROOT
BRANCH   2   3
HETATM    3  CA  UNL     1     -10.893  12.993  65.049  1.00  0.00    -0.308 C  
BRANCH   3   4
HETATM    4  C   UNL     1     -12.309  13.004  65.687  1.00  0.00    -0.446 C  
HETATM    5  H   UNL     1     -14.069  13.948  65.482  1.00  0.00     0.000 HD 
HETATM    6  O   UNL     1     -13.203  13.941  65.092  1.00  0.00    -0.768 OA 
ENDBRANCH   3   4
BRANCH   3   7
HETATM    7  N   UNL     1      -9.837  13.553  65.918  1.00  0.00    -0.409 NA 
HETATM    8  H   UNL     1      -9.301  14.265  65.422  1.00  0.00     0.000 HD 
BRANCH   7   9
HETATM    9  C   UNL     1     -10.344  14.078  67.193  1.00  0.00    -0.265 C  
BRANCH   9  10
HETATM   10  C   UNL     1      -9.175  14.524  68.098  1.00  0.00    -0.195 C  
BRANCH  10  11
HETATM   11  N   UNL     1      -9.406  15.874  68.639  1.00  0.00    -0.202 NA 
HETATM   12  H   UNL     1      -9.325  15.879  69.656  1.00  0.00     0.000 HD 
BRANCH  11  13
HETATM   13  CA  UNL     1      -8.519  16.898  68.030  1.00  0.00    -0.213 C  
BRANCH  13  14
HETATM   14  C   UNL     1      -8.935  17.112  66.556  1.00  0.00    -0.272 C  
HETATM   15  H   UNL     1     -10.541  17.696  65.568  1.00  0.00     0.000 HD 
HETATM   16  O   UNL     1     -10.286  17.565  66.473  1.00  0.00    -0.321 OA 
ENDBRANCH  13  14
BRANCH  13  17
HETATM   17  C   UNL     1      -7.014  16.577  68.124  1.00  0.00    -0.149 C  
HETATM   18  C   UNL     1      -6.420  16.686  69.522  1.00  0.00    -0.224 C  
ENDBRANCH  13  17
ENDBRANCH  11  13
ENDBRANCH  10  11
ENDBRANCH   9  10
ENDBRANCH   7   9
ENDBRANCH   3   7
ENDBRANCH   2   3
TORSDOF 9
ENDMDL
MODEL      219
REMARK 921   NORMALIZED FREE ENERGY PREDICTED BY IDOCK:   -2.77 KCAL/MOL
REMARK 922        TOTAL FREE ENERGY PREDICTED BY IDOCK:   -4.64 KCAL/MOL
REMARK 923 INTER-LIGAND FREE ENERGY PREDICTED BY IDOCK:   -4.28 KCAL/MOL
REMARK 924 INTRA-LIGAND FREE ENERGY PREDICTED BY IDOCK:   -0.35 KCAL/MOL
REMARK 927      BINDING AFFINITY PREDICTED BY RF-SCORE:    0.00 PKD
ROOT
HETATM    1  C   UNL     1     -10.778   6.879  68.739  1.00  0.00    -0.255 C  
HETATM    2  C   UNL     1      -9.975   7.063  70.019  1.00  0.00    -0.188 C  
ENDROOT
BRANCH   2   3
HETATM    3  CA  UNL     1     -10.360   8.320  70.833  1.00  0.00    -0.192 C  
BRANCH   3   4
HETATM    4  C   UNL     1      -9.134   9.187  71.229  1.00  0.00    -0.162 C  
HETATM    5  H   UNL     1      -7.899   9.465  72.787  1.00  0.00     0.000 HD 
HETATM    6  O   UNL     1      -8.649   8.935  72.545  1.00  0.00    -0.396 OA 
ENDBRANCH   3   4
BRANCH   3   7
HETATM    7  N   UNL     1     -11.365   9.035  70.019  1.00  0.00    -0.422 NA 
HETATM    8  H   UNL     1     -12.182   8.447  69.857  1.00  0.00     0.000 HD 
BRANCH   7   9
HETATM    9  C   UNL     1     -11.762  10.332  70.585  1.00  0.00    -0.348 C  
BRANCH   9  10
HETATM   10  C   UNL     1     -11.908  11.387  69.466  1.00  0.00    -0.357 C  
BRANCH  10  11
HETATM   11  N   UNL     1     -10.916  12.466  69.621  1.00  0.00    -0.455 NA 
HETATM   12  H   UNL     1     -10.052  12.111  70.031  1.00  0.00     0.000 HD 
BRANCH  11  13
HETATM   13  CA  UNL     1     -10.646  13.186  68.350  1.00  0.00    -0.251 C  
BRANCH  13  14
HETATM   14  C   UNL     1      -9.558  14.256  68.599  1.00  0.00    -0.192 C  
HETATM   15  H   UNL     1      -8.010  15.008  67.632  1.00  0.00     0.000 HD 
HETATM   16  O   UNL     1      -8.678  14.350  67.479  1.00  0.00    -0.175 OA 
ENDBRANCH  13  14
BRANCH  13  17
HETATM   17  C   UNL     1     -11.891  13.823  67.700  1.00  0.00    -0.413 C  
HETATM   18  C   UNL     1     -12.046  13.556  66.209  1.00  0.00    -0.476 C  
ENDBRANCH  13  17
ENDBRANCH  11  13
ENDBRANCH  10  11
ENDBRANCH   9  10
ENDBRANCH   7   9
ENDBRANCH   3   7
ENDBRANCH   2   3
TORSDOF 9
ENDMDL
MODEL      220
REMARK 921   NORMALIZED FREE ENERGY PREDICTED BY IDOCK:   -2.76 KCAL/MOL
REMARK 922        TOTAL FREE ENERGY PREDICTED BY IDOCK:   -4.62 KCAL/MOL
REMARK 923 INTER-LIGAND FREE ENERGY PREDICTED BY IDOCK:   -3.95 KCAL/MOL
REMARK 924 INTRA-LIGAND FREE ENERGY PREDICTED BY IDOCK:   -0.67 KCAL/MOL
REMARK 927      BINDING AFFINITY PREDICTED BY RF-SCORE:    0.00 PKD
ROOT
HETATM    1  C   UNL     1     -10.768   5.768  69.718  1.00  0.00    -0.418 C  
HETATM    2  C   UNL     1     -11.882   6.560  70.388  1.00  0.00    -0.378 C  
ENDROOT
BRANCH   2   3
HETATM    3  CA  UNL     1     -11.722   6.706  71.919  1.00  0.00    -0.313 C  
BRANCH   3   4
HETATM    4  C   UNL     1     -10.561   5.849  72.494  1.00  0.00    -0.218 C  
HETATM    5  H   UNL     1      -9.995   5.007  74.226  1.00  0.00     0.000 HD 
HETATM    6  O   UNL     1     -10.706   5.532  73.875  1.00  0.00    -0.275 OA 
ENDBRANCH   3   4
BRANCH   3   7
HETATM    7  N   UNL     1     -11.584   8.154  72.174  1.00  0.00    -0.331 NA 
HETATM    8  H   UNL     1     -10.604   8.434  72.146  1.00  0.00     0.000 HD 
BRANCH   7   9
HETATM    9  C   UNL     1     -12.389   8.988  71.270  1.00  0.00    -0.302 C  
BRANCH   9  10
HETATM   10  C   UNL     1     -11.508  10.068  70.604  1.00  0.00    -0.345 C  
BRANCH  10  11
HETATM   11  N   UNL     1     -10.077   9.751  70.750  1.00  0.00    -0.341 NA 
HETATM   12  H   UNL     1      -9.939   8.976  71.399  1.00  0.00     0.000 HD 
BRANCH  11  13
HETATM   13  CA  UNL     1      -9.412   9.480  69.450  1.00  0.00    -0.176 C  
BRANCH  13  14
HETATM   14  C   UNL     1      -8.096  10.289  69.379  1.00  0.00    -0.163 C  
HETATM   15  H   UNL     1      -6.873  10.957  67.981  1.00  0.00     0.000 HD 
HETATM   16  O   UNL     1      -7.682  10.460  68.024  1.00  0.00    -0.091 OA 
ENDBRANCH  13  14
BRANCH  13  17
HETATM   17  C   UNL     1     -10.288   9.766  68.213  1.00  0.00    -0.231 C  
HETATM   18  C   UNL     1     -10.511   8.573  67.293  1.00  0.00    -0.366 C  
ENDBRANCH  13  17
ENDBRANCH  11  13
ENDBRANCH  10  11
ENDBRANCH   9  10
ENDBRANCH   7   9
ENDBRANCH   3   7
ENDBRANCH   2   3
TORSDOF 9
ENDMDL
MODEL      221
REMARK 921   NORMALIZED FREE ENERGY PREDICTED BY IDOCK:   -2.76 KCAL/MOL
REMARK 922        TOTAL FREE ENERGY PREDICTED BY IDOCK:   -4.61 KCAL/MOL
REMARK 923 INTER-LIGAND FREE ENERGY PREDICTED BY IDOCK:   -4.04 KCAL/MOL
REMARK 924 INTRA-LIGAND FREE ENERGY PREDICTED BY IDOCK:   -0.58 KCAL/MOL
REMARK 927      BINDING AFFINITY PREDICTED BY RF-SCORE:    0.00 PKD
ROOT
HETATM    1  C   UNL     1     -10.231   9.042  68.613  1.00  0.00    -0.226 C  
HETATM    2  C   UNL     1      -9.493   9.576  67.394  1.00  0.00    -0.164 C  
ENDROOT
BRANCH   2   3
HETATM    3  CA  UNL     1      -8.873  10.979  67.594  1.00  0.00    -0.131 C  
BRANCH   3   4
HETATM    4  C   UNL     1      -9.021  11.892  66.346  1.00  0.00    -0.180 C  
HETATM    5  H   UNL     1      -9.893  11.880  64.538  1.00  0.00     0.000 HD 
HETATM    6  O   UNL     1      -9.802  11.321  65.301  1.00  0.00    -0.224 OA 
ENDBRANCH   3   4
BRANCH   3   7
HETATM    7  N   UNL     1      -9.497  11.525  68.817  1.00  0.00    -0.362 NA 
HETATM    8  H   UNL     1      -8.809  11.612  69.565  1.00  0.00     0.000 HD 
BRANCH   7   9
HETATM    9  C   UNL     1     -10.193  12.801  68.600  1.00  0.00    -0.152 C  
BRANCH   9  10
HETATM   10  C   UNL     1     -11.688  12.670  68.968  1.00  0.00    -0.318 C  
BRANCH  10  11
HETATM   11  N   UNL     1     -11.944  13.162  70.332  1.00  0.00    -0.511 NA 
HETATM   12  H   UNL     1     -12.258  14.133  70.318  1.00  0.00     0.000 HD 
BRANCH  11  13
HETATM   13  CA  UNL     1     -12.897  12.305  71.083  1.00  0.00    -0.207 C  
BRANCH  13  14
HETATM   14  C   UNL     1     -13.439  13.097  72.296  1.00  0.00    -0.568 C  
HETATM   15  H   UNL     1     -13.915  14.965  72.718  1.00  0.00     0.000 HD 
HETATM   16  O   UNL     1     -13.582  14.479  71.973  1.00  0.00    -0.350 OA 
ENDBRANCH  13  14
BRANCH  13  17
HETATM   17  C   UNL     1     -12.317  10.951  71.538  1.00  0.00    -0.344 C  
HETATM   18  C   UNL     1     -12.997   9.726  70.941  1.00  0.00    -0.300 C  
ENDBRANCH  13  17
ENDBRANCH  11  13
ENDBRANCH  10  11
ENDBRANCH   9  10
ENDBRANCH   7   9
ENDBRANCH   3   7
ENDBRANCH   2   3
TORSDOF 9
ENDMDL
MODEL      222
REMARK 921   NORMALIZED FREE ENERGY PREDICTED BY IDOCK:   -2.75 KCAL/MOL
REMARK 922        TOTAL FREE ENERGY PREDICTED BY IDOCK:   -4.61 KCAL/MOL
REMARK 923 INTER-LIGAND FREE ENERGY PREDICTED BY IDOCK:   -3.97 KCAL/MOL
REMARK 924 INTRA-LIGAND FREE ENERGY PREDICTED BY IDOCK:   -0.64 KCAL/MOL
REMARK 927      BINDING AFFINITY PREDICTED BY RF-SCORE:    0.00 PKD
ROOT
HETATM    1  C   UNL     1      -5.539  15.900  67.581  1.00  0.00    -0.155 C  
HETATM    2  C   UNL     1      -6.969  16.070  67.089  1.00  0.00    -0.242 C  
ENDROOT
BRANCH   2   3
HETATM    3  CA  UNL     1      -8.005  15.201  67.839  1.00  0.00    -0.135 C  
BRANCH   3   4
HETATM    4  C   UNL     1      -7.398  14.441  69.050  1.00  0.00    -0.127 C  
HETATM    5  H   UNL     1      -6.913  12.570  69.592  1.00  0.00     0.000 HD 
HETATM    6  O   UNL     1      -7.285  13.035  68.851  1.00  0.00    -0.103 OA 
ENDBRANCH   3   4
BRANCH   3   7
HETATM    7  N   UNL     1      -9.113  16.111  68.195  1.00  0.00    -0.187 NA 
HETATM    8  H   UNL     1      -9.297  16.769  67.437  1.00  0.00     0.000 HD 
BRANCH   7   9
HETATM    9  C   UNL     1     -10.345  15.411  68.586  1.00  0.00    -0.234 C  
BRANCH   9  10
HETATM   10  C   UNL     1     -10.649  14.261  67.601  1.00  0.00    -0.253 C  
BRANCH  10  11
HETATM   11  N   UNL     1     -11.634  14.677  66.588  1.00  0.00    -0.365 NA 
HETATM   12  H   UNL     1     -11.991  15.612  66.787  1.00  0.00     0.000 HD 
BRANCH  11  13
HETATM   13  CA  UNL     1     -11.105  14.593  65.203  1.00  0.00    -0.377 C  
BRANCH  13  14
HETATM   14  C   UNL     1     -11.171  15.994  64.552  1.00  0.00    -0.297 C  
HETATM   15  H   UNL     1     -10.603  17.832  64.995  1.00  0.00     0.000 HD 
HETATM   16  O   UNL     1     -10.562  16.971  65.395  1.00  0.00    -0.601 OA 
ENDBRANCH  13  14
BRANCH  13  17
HETATM   17  C   UNL     1     -11.810  13.550  64.312  1.00  0.00    -0.471 C  
HETATM   18  C   UNL     1     -12.597  12.487  65.066  1.00  0.00    -0.424 C  
ENDBRANCH  13  17
ENDBRANCH  11  13
ENDBRANCH  10  11
ENDBRANCH   9  10
ENDBRANCH   7   9
ENDBRANCH   3   7
ENDBRANCH   2   3
TORSDOF 9
ENDMDL
MODEL      223
REMARK 921   NORMALIZED FREE ENERGY PREDICTED BY IDOCK:   -2.75 KCAL/MOL
REMARK 922        TOTAL FREE ENERGY PREDICTED BY IDOCK:   -4.61 KCAL/MOL
REMARK 923 INTER-LIGAND FREE ENERGY PREDICTED BY IDOCK:   -4.23 KCAL/MOL
REMARK 924 INTRA-LIGAND FREE ENERGY PREDICTED BY IDOCK:   -0.38 KCAL/MOL
REMARK 927      BINDING AFFINITY PREDICTED BY RF-SCORE:    0.00 PKD
ROOT
HETATM    1  C   UNL     1     -10.333   4.747  65.984  1.00  0.00    -0.328 C  
HETATM    2  C   UNL     1      -9.975   6.142  66.477  1.00  0.00    -0.179 C  
ENDROOT
BRANCH   2   3
HETATM    3  CA  UNL     1     -10.970   6.724  67.509  1.00  0.00    -0.303 C  
BRANCH   3   4
HETATM    4  C   UNL     1     -10.732   6.192  68.949  1.00  0.00    -0.312 C  
HETATM    5  H   UNL     1     -11.657   6.139  70.730  1.00  0.00     0.000 HD 
HETATM    6  O   UNL     1     -11.802   6.465  69.849  1.00  0.00    -0.384 OA 
ENDBRANCH   3   4
BRANCH   3   7
HETATM    7  N   UNL     1     -10.867   8.192  67.385  1.00  0.00    -0.509 NA 
HETATM    8  H   UNL     1     -11.501   8.655  68.036  1.00  0.00     0.000 HD 
BRANCH   7   9
HETATM    9  C   UNL     1      -9.497   8.700  67.543  1.00  0.00    -0.149 C  
BRANCH   9  10
HETATM   10  C   UNL     1      -9.218   9.829  66.527  1.00  0.00    -0.156 C  
BRANCH  10  11
HETATM   11  N   UNL     1      -9.655  11.135  67.050  1.00  0.00    -0.180 NA 
HETATM   12  H   UNL     1      -8.853  11.709  67.313  1.00  0.00     0.000 HD 
BRANCH  11  13
HETATM   13  CA  UNL     1     -10.546  11.861  66.111  1.00  0.00    -0.258 C  
BRANCH  13  14
HETATM   14  C   UNL     1     -11.907  12.112  66.801  1.00  0.00    -0.228 C  
HETATM   15  H   UNL     1     -13.145  13.626  67.069  1.00  0.00     0.000 HD 
HETATM   16  O   UNL     1     -12.308  13.472  66.645  1.00  0.00    -0.376 OA 
ENDBRANCH  13  14
BRANCH  13  17
HETATM   17  C   UNL     1     -10.751  11.161  64.752  1.00  0.00    -0.334 C  
HETATM   18  C   UNL     1     -11.390  12.024  63.673  1.00  0.00    -0.536 C  
ENDBRANCH  13  17
ENDBRANCH  11  13
ENDBRANCH  10  11
ENDBRANCH   9  10
ENDBRANCH   7   9
ENDBRANCH   3   7
ENDBRANCH   2   3
TORSDOF 9
ENDMDL
MODEL      224
REMARK 921   NORMALIZED FREE ENERGY PREDICTED BY IDOCK:   -2.74 KCAL/MOL
REMARK 922        TOTAL FREE ENERGY PREDICTED BY IDOCK:   -4.59 KCAL/MOL
REMARK 923 INTER-LIGAND FREE ENERGY PREDICTED BY IDOCK:   -4.19 KCAL/MOL
REMARK 924 INTRA-LIGAND FREE ENERGY PREDICTED BY IDOCK:   -0.40 KCAL/MOL
REMARK 927      BINDING AFFINITY PREDICTED BY RF-SCORE:    0.00 PKD
ROOT
HETATM    1  C   UNL     1      -6.294  17.543  69.228  1.00  0.00    -0.244 C  
HETATM    2  C   UNL     1      -7.011  17.292  67.908  1.00  0.00    -0.173 C  
ENDROOT
BRANCH   2   3
HETATM    3  CA  UNL     1      -6.890  15.840  67.388  1.00  0.00    -0.201 C  
BRANCH   3   4
HETATM    4  C   UNL     1      -5.600  15.126  67.875  1.00  0.00    -0.127 C  
HETATM    5  H   UNL     1      -4.729  13.319  67.789  1.00  0.00     0.000 HD 
HETATM    6  O   UNL     1      -5.518  13.756  67.491  1.00  0.00    -0.336 OA 
ENDBRANCH   3   4
BRANCH   3   7
HETATM    7  N   UNL     1      -8.141  15.163  67.788  1.00  0.00    -0.137 NA 
HETATM    8  H   UNL     1      -8.736  15.792  68.327  1.00  0.00     0.000 HD 
BRANCH   7   9
HETATM    9  C   UNL     1      -8.883  14.586  66.658  1.00  0.00    -0.184 C  
BRANCH   9  10
HETATM   10  C   UNL     1      -9.944  15.583  66.143  1.00  0.00    -0.309 C  
BRANCH  10  11
HETATM   11  N   UNL     1     -11.286  15.236  66.643  1.00  0.00    -0.282 NA 
HETATM   12  H   UNL     1     -11.983  15.904  66.311  1.00  0.00     0.000 HD 
BRANCH  11  13
HETATM   13  CA  UNL     1     -11.681  13.844  66.310  1.00  0.00    -0.383 C  
BRANCH  13  14
HETATM   14  C   UNL     1     -12.879  13.880  65.333  1.00  0.00    -0.427 C  
HETATM   15  H   UNL     1     -13.181  13.665  63.394  1.00  0.00     0.000 HD 
HETATM   16  O   UNL     1     -12.445  13.644  63.994  1.00  0.00    -0.659 OA 
ENDBRANCH  13  14
BRANCH  13  17
HETATM   17  C   UNL     1     -12.010  12.964  67.533  1.00  0.00    -0.354 C  
HETATM   18  C   UNL     1     -11.735  13.611  68.884  1.00  0.00    -0.377 C  
ENDBRANCH  13  17
ENDBRANCH  11  13
ENDBRANCH  10  11
ENDBRANCH   9  10
ENDBRANCH   7   9
ENDBRANCH   3   7
ENDBRANCH   2   3
TORSDOF 9
ENDMDL
MODEL      225
REMARK 921   NORMALIZED FREE ENERGY PREDICTED BY IDOCK:   -2.73 KCAL/MOL
REMARK 922        TOTAL FREE ENERGY PREDICTED BY IDOCK:   -4.58 KCAL/MOL
REMARK 923 INTER-LIGAND FREE ENERGY PREDICTED BY IDOCK:   -4.32 KCAL/MOL
REMARK 924 INTRA-LIGAND FREE ENERGY PREDICTED BY IDOCK:   -0.26 KCAL/MOL
REMARK 927      BINDING AFFINITY PREDICTED BY RF-SCORE:    0.00 PKD
ROOT
HETATM    1  C   UNL     1      -7.142  18.482  68.880  1.00  0.00    -0.302 C  
HETATM    2  C   UNL     1      -8.513  18.832  68.320  1.00  0.00    -0.357 C  
ENDROOT
BRANCH   2   3
HETATM    3  CA  UNL     1      -9.331  17.610  67.839  1.00  0.00    -0.268 C  
BRANCH   3   4
HETATM    4  C   UNL     1      -9.999  17.833  66.455  1.00  0.00    -0.346 C  
HETATM    5  H   UNL     1     -11.188  19.158  65.528  1.00  0.00     0.000 HD 
HETATM    6  O   UNL     1     -10.779  19.022  66.375  1.00  0.00    -0.403 OA 
ENDBRANCH   3   4
BRANCH   3   7
HETATM    7  N   UNL     1      -8.402  16.462  67.881  1.00  0.00    -0.169 NA 
HETATM    8  H   UNL     1      -7.456  16.770  68.104  1.00  0.00     0.000 HD 
BRANCH   7   9
HETATM    9  C   UNL     1      -8.830  15.395  68.797  1.00  0.00    -0.196 C  
BRANCH   9  10
HETATM   10  C   UNL     1     -10.198  15.738  69.426  1.00  0.00    -0.262 C  
BRANCH  10  11
HETATM   11  N   UNL     1     -11.297  15.079  68.700  1.00  0.00    -0.281 NA 
HETATM   12  H   UNL     1     -11.548  15.604  67.862  1.00  0.00     0.000 HD 
BRANCH  11  13
HETATM   13  CA  UNL     1     -11.001  13.662  68.371  1.00  0.00    -0.262 C  
BRANCH  13  14
HETATM   14  C   UNL     1     -11.549  13.347  66.960  1.00  0.00    -0.356 C  
HETATM   15  H   UNL     1     -12.466  14.317  65.506  1.00  0.00     0.000 HD 
HETATM   16  O   UNL     1     -12.130  14.510  66.373  1.00  0.00    -0.385 OA 
ENDBRANCH  13  14
BRANCH  13  17
HETATM   17  C   UNL     1     -11.536  12.642  69.397  1.00  0.00    -0.369 C  
HETATM   18  C   UNL     1     -11.479  11.188  68.948  1.00  0.00    -0.363 C  
ENDBRANCH  13  17
ENDBRANCH  11  13
ENDBRANCH  10  11
ENDBRANCH   9  10
ENDBRANCH   7   9
ENDBRANCH   3   7
ENDBRANCH   2   3
TORSDOF 9
ENDMDL
MODEL      226
REMARK 921   NORMALIZED FREE ENERGY PREDICTED BY IDOCK:   -2.72 KCAL/MOL
REMARK 922        TOTAL FREE ENERGY PREDICTED BY IDOCK:   -4.56 KCAL/MOL
REMARK 923 INTER-LIGAND FREE ENERGY PREDICTED BY IDOCK:   -4.22 KCAL/MOL
REMARK 924 INTRA-LIGAND FREE ENERGY PREDICTED BY IDOCK:   -0.34 KCAL/MOL
REMARK 927      BINDING AFFINITY PREDICTED BY RF-SCORE:    0.00 PKD
ROOT
HETATM    1  C   UNL     1     -13.240   9.331  72.240  1.00  0.00    -0.535 C  
HETATM    2  C   UNL     1     -12.211   8.757  71.276  1.00  0.00    -0.332 C  
ENDROOT
BRANCH   2   3
HETATM    3  CA  UNL     1     -10.744   9.060  71.661  1.00  0.00    -0.371 C  
BRANCH   3   4
HETATM    4  C   UNL     1      -9.853   7.789  71.710  1.00  0.00    -0.167 C  
HETATM    5  H   UNL     1      -7.964   7.232  71.322  1.00  0.00     0.000 HD 
HETATM    6  O   UNL     1      -8.509   8.009  71.292  1.00  0.00    -0.111 OA 
ENDBRANCH   3   4
BRANCH   3   7
HETATM    7  N   UNL     1     -10.279  10.084  70.703  1.00  0.00    -0.375 NA 
HETATM    8  H   UNL     1      -9.315   9.905  70.422  1.00  0.00     0.000 HD 
BRANCH   7   9
HETATM    9  C   UNL     1     -11.147  10.221  69.524  1.00  0.00    -0.262 C  
BRANCH   9  10
HETATM   10  C   UNL     1     -11.445  11.710  69.243  1.00  0.00    -0.300 C  
BRANCH  10  11
HETATM   11  N   UNL     1     -10.232  12.421  68.801  1.00  0.00    -0.393 NA 
HETATM   12  H   UNL     1      -9.414  11.812  68.850  1.00  0.00     0.000 HD 
BRANCH  11  13
HETATM   13  CA  UNL     1     -10.374  13.014  67.448  1.00  0.00    -0.234 C  
BRANCH  13  14
HETATM   14  C   UNL     1     -11.803  13.585  67.295  1.00  0.00    -0.385 C  
HETATM   15  H   UNL     1     -12.644  15.356  67.062  1.00  0.00     0.000 HD 
HETATM   16  O   UNL     1     -11.766  15.005  67.156  1.00  0.00    -0.327 OA 
ENDBRANCH  13  14
BRANCH  13  17
HETATM   17  C   UNL     1     -10.052  12.048  66.289  1.00  0.00    -0.247 C  
HETATM   18  C   UNL     1      -8.707  11.343  66.395  1.00  0.00    -0.185 C  
ENDBRANCH  13  17
ENDBRANCH  11  13
ENDBRANCH  10  11
ENDBRANCH   9  10
ENDBRANCH   7   9
ENDBRANCH   3   7
ENDBRANCH   2   3
TORSDOF 9
ENDMDL
MODEL      227
REMARK 921   NORMALIZED FREE ENERGY PREDICTED BY IDOCK:   -2.70 KCAL/MOL
REMARK 922        TOTAL FREE ENERGY PREDICTED BY IDOCK:   -4.53 KCAL/MOL
REMARK 923 INTER-LIGAND FREE ENERGY PREDICTED BY IDOCK:   -3.95 KCAL/MOL
REMARK 924 INTRA-LIGAND FREE ENERGY PREDICTED BY IDOCK:   -0.58 KCAL/MOL
REMARK 927      BINDING AFFINITY PREDICTED BY RF-SCORE:    0.00 PKD
ROOT
HETATM    1  C   UNL     1      -6.418  20.564  66.139  1.00  0.00    -0.272 C  
HETATM    2  C   UNL     1      -6.474  19.055  66.336  1.00  0.00    -0.210 C  
ENDROOT
BRANCH   2   3
HETATM    3  CA  UNL     1      -7.503  18.593  67.395  1.00  0.00    -0.219 C  
BRANCH   3   4
HETATM    4  C   UNL     1      -6.857  17.801  68.565  1.00  0.00    -0.233 C  
HETATM    5  H   UNL     1      -5.480  18.053  70.003  1.00  0.00     0.000 HD 
HETATM    6  O   UNL     1      -5.874  18.537  69.287  1.00  0.00    -0.216 OA 
ENDBRANCH   3   4
BRANCH   3   7
HETATM    7  N   UNL     1      -8.222  19.812  67.818  1.00  0.00    -0.300 NA 
HETATM    8  H   UNL     1      -8.583  20.317  67.009  1.00  0.00     0.000 HD 
BRANCH   7   9
HETATM    9  C   UNL     1      -9.293  19.554  68.790  1.00  0.00    -0.363 C  
BRANCH   9  10
HETATM   10  C   UNL     1     -10.364  18.623  68.180  1.00  0.00    -0.359 C  
BRANCH  10  11
HETATM   11  N   UNL     1     -10.441  17.349  68.915  1.00  0.00    -0.340 NA 
HETATM   12  H   UNL     1     -11.118  17.407  69.677  1.00  0.00     0.000 HD 
BRANCH  11  13
HETATM   13  CA  UNL     1     -10.733  16.192  68.031  1.00  0.00    -0.321 C  
BRANCH  13  14
HETATM   14  C   UNL     1      -9.950  14.959  68.540  1.00  0.00    -0.223 C  
HETATM   15  H   UNL     1     -10.345  13.094  69.052  1.00  0.00     0.000 HD 
HETATM   16  O   UNL     1     -10.827  13.852  68.740  1.00  0.00    -0.252 OA 
ENDBRANCH  13  14
BRANCH  13  17
HETATM   17  C   UNL     1     -10.439  16.438  66.538  1.00  0.00    -0.282 C  
HETATM   18  C   UNL     1      -9.394  15.514  65.927  1.00  0.00    -0.355 C  
ENDBRANCH  13  17
ENDBRANCH  11  13
ENDBRANCH  10  11
ENDBRANCH   9  10
ENDBRANCH   7   9
ENDBRANCH   3   7
ENDBRANCH   2   3
TORSDOF 9
ENDMDL
MODEL      228
REMARK 921   NORMALIZED FREE ENERGY PREDICTED BY IDOCK:   -2.70 KCAL/MOL
REMARK 922        TOTAL FREE ENERGY PREDICTED BY IDOCK:   -4.52 KCAL/MOL
REMARK 923 INTER-LIGAND FREE ENERGY PREDICTED BY IDOCK:   -3.90 KCAL/MOL
REMARK 924 INTRA-LIGAND FREE ENERGY PREDICTED BY IDOCK:   -0.62 KCAL/MOL
REMARK 927      BINDING AFFINITY PREDICTED BY RF-SCORE:    0.00 PKD
ROOT
HETATM    1  C   UNL     1      -7.620  11.688  66.958  1.00  0.00    -0.154 C  
HETATM    2  C   UNL     1      -8.905  11.627  67.773  1.00  0.00    -0.159 C  
ENDROOT
BRANCH   2   3
HETATM    3  CA  UNL     1     -10.084  10.940  67.045  1.00  0.00    -0.205 C  
BRANCH   3   4
HETATM    4  C   UNL     1     -11.220  10.500  68.008  1.00  0.00    -0.294 C  
HETATM    5  H   UNL     1     -11.680  10.572  69.961  1.00  0.00     0.000 HD 
HETATM    6  O   UNL     1     -10.985  10.841  69.372  1.00  0.00    -0.221 OA 
ENDBRANCH   3   4
BRANCH   3   7
HETATM    7  N   UNL     1     -10.518  11.887  65.997  1.00  0.00    -0.237 NA 
HETATM    8  H   UNL     1     -10.333  11.508  65.068  1.00  0.00     0.000 HD 
BRANCH   7   9
HETATM    9  C   UNL     1     -11.924  12.297  66.121  1.00  0.00    -0.249 C  
BRANCH   9  10
HETATM   10  C   UNL     1     -12.055  13.830  65.983  1.00  0.00    -0.436 C  
BRANCH  10  11
HETATM   11  N   UNL     1     -12.385  14.454  67.276  1.00  0.00    -0.594 NA 
HETATM   12  H   UNL     1     -13.118  13.932  67.756  1.00  0.00     0.000 HD 
BRANCH  11  13
HETATM   13  CA  UNL     1     -11.197  14.630  68.149  1.00  0.00    -0.289 C  
BRANCH  13  14
HETATM   14  C   UNL     1     -11.598  15.473  69.382  1.00  0.00    -0.355 C  
HETATM   15  H   UNL     1     -12.490  15.178  71.118  1.00  0.00     0.000 HD 
HETATM   16  O   UNL     1     -12.243  14.659  70.361  1.00  0.00    -0.289 OA 
ENDBRANCH  13  14
BRANCH  13  17
HETATM   17  C   UNL     1      -9.973  15.251  67.446  1.00  0.00    -0.223 C  
HETATM   18  C   UNL     1      -9.178  16.237  68.291  1.00  0.00    -0.197 C  
ENDBRANCH  13  17
ENDBRANCH  11  13
ENDBRANCH  10  11
ENDBRANCH   9  10
ENDBRANCH   7   9
ENDBRANCH   3   7
ENDBRANCH   2   3
TORSDOF 9
ENDMDL
MODEL      229
REMARK 921   NORMALIZED FREE ENERGY PREDICTED BY IDOCK:   -2.69 KCAL/MOL
REMARK 922        TOTAL FREE ENERGY PREDICTED BY IDOCK:   -4.51 KCAL/MOL
REMARK 923 INTER-LIGAND FREE ENERGY PREDICTED BY IDOCK:   -4.24 KCAL/MOL
REMARK 924 INTRA-LIGAND FREE ENERGY PREDICTED BY IDOCK:   -0.27 KCAL/MOL
REMARK 927      BINDING AFFINITY PREDICTED BY RF-SCORE:    0.00 PKD
ROOT
HETATM    1  C   UNL     1      -9.982   4.555  65.606  1.00  0.00    -0.245 C  
HETATM    2  C   UNL     1      -9.857   5.906  66.294  1.00  0.00    -0.119 C  
ENDROOT
BRANCH   2   3
HETATM    3  CA  UNL     1     -10.417   5.937  67.736  1.00  0.00    -0.238 C  
BRANCH   3   4
HETATM    4  C   UNL     1      -9.368   5.524  68.804  1.00  0.00    -0.125 C  
HETATM    5  H   UNL     1      -9.078   4.102  70.190  1.00  0.00     0.000 HD 
HETATM    6  O   UNL     1      -9.720   4.354  69.537  1.00  0.00    -0.190 OA 
ENDBRANCH   3   4
BRANCH   3   7
HETATM    7  N   UNL     1     -10.968   7.294  67.926  1.00  0.00    -0.489 NA 
HETATM    8  H   UNL     1     -11.984   7.264  68.013  1.00  0.00     0.000 HD 
BRANCH   7   9
HETATM    9  C   UNL     1     -10.371   8.016  69.058  1.00  0.00    -0.218 C  
BRANCH   9  10
HETATM   10  C   UNL     1     -10.310   9.531  68.762  1.00  0.00    -0.208 C  
BRANCH  10  11
HETATM   11  N   UNL     1     -11.651  10.072  68.483  1.00  0.00    -0.565 NA 
HETATM   12  H   UNL     1     -12.336   9.321  68.391  1.00  0.00     0.000 HD 
BRANCH  11  13
HETATM   13  CA  UNL     1     -12.089  11.072  69.490  1.00  0.00    -0.329 C  
BRANCH  13  14
HETATM   14  C   UNL     1     -11.323  12.394  69.253  1.00  0.00    -0.254 C  
HETATM   15  H   UNL     1     -11.762  14.285  68.897  1.00  0.00     0.000 HD 
HETATM   16  O   UNL     1     -12.233  13.473  69.042  1.00  0.00    -0.320 OA 
ENDBRANCH  13  14
BRANCH  13  17
HETATM   17  C   UNL     1     -11.935  10.614  70.954  1.00  0.00    -0.469 C  
HETATM   18  C   UNL     1     -12.925  11.235  71.930  1.00  0.00    -0.471 C  
ENDBRANCH  13  17
ENDBRANCH  11  13
ENDBRANCH  10  11
ENDBRANCH   9  10
ENDBRANCH   7   9
ENDBRANCH   3   7
ENDBRANCH   2   3
TORSDOF 9
ENDMDL
MODEL      230
REMARK 921   NORMALIZED FREE ENERGY PREDICTED BY IDOCK:   -2.69 KCAL/MOL
REMARK 922        TOTAL FREE ENERGY PREDICTED BY IDOCK:   -4.51 KCAL/MOL
REMARK 923 INTER-LIGAND FREE ENERGY PREDICTED BY IDOCK:   -4.23 KCAL/MOL
REMARK 924 INTRA-LIGAND FREE ENERGY PREDICTED BY IDOCK:   -0.28 KCAL/MOL
REMARK 927      BINDING AFFINITY PREDICTED BY RF-SCORE:    0.00 PKD
ROOT
HETATM    1  C   UNL     1     -11.695  15.732  70.961  1.00  0.00    -0.462 C  
HETATM    2  C   UNL     1     -10.676  15.934  69.848  1.00  0.00    -0.334 C  
ENDROOT
BRANCH   2   3
HETATM    3  CA  UNL     1     -11.301  16.230  68.465  1.00  0.00    -0.330 C  
BRANCH   3   4
HETATM    4  C   UNL     1     -10.526  17.314  67.667  1.00  0.00    -0.363 C  
HETATM    5  H   UNL     1     -10.399  19.312  67.529  1.00  0.00     0.000 HD 
HETATM    6  O   UNL     1     -10.874  18.650  68.018  1.00  0.00    -0.294 OA 
ENDBRANCH   3   4
BRANCH   3   7
HETATM    7  N   UNL     1     -11.393  14.926  67.776  1.00  0.00    -0.319 NA 
HETATM    8  H   UNL     1     -11.458  15.055  66.766  1.00  0.00     0.000 HD 
BRANCH   7   9
HETATM    9  C   UNL     1     -10.299  14.006  68.114  1.00  0.00    -0.241 C  
BRANCH   9  10
HETATM   10  C   UNL     1     -10.663  12.561  67.709  1.00  0.00    -0.219 C  
BRANCH  10  11
HETATM   11  N   UNL     1      -9.777  11.585  68.368  1.00  0.00    -0.197 NA 
HETATM   12  H   UNL     1      -9.163  12.045  69.040  1.00  0.00     0.000 HD 
BRANCH  11  13
HETATM   13  CA  UNL     1     -10.523  10.470  69.004  1.00  0.00    -0.217 C  
BRANCH  13  14
HETATM   14  C   UNL     1     -10.765   9.361  67.954  1.00  0.00    -0.210 C  
HETATM   15  H   UNL     1      -9.684   8.273  66.711  1.00  0.00     0.000 HD 
HETATM   16  O   UNL     1      -9.534   8.955  67.357  1.00  0.00    -0.139 OA 
ENDBRANCH  13  14
BRANCH  13  17
HETATM   17  C   UNL     1     -11.852  10.885  69.666  1.00  0.00    -0.416 C  
HETATM   18  C   UNL     1     -12.047  10.380  71.090  1.00  0.00    -0.487 C  
ENDBRANCH  13  17
ENDBRANCH  11  13
ENDBRANCH  10  11
ENDBRANCH   9  10
ENDBRANCH   7   9
ENDBRANCH   3   7
ENDBRANCH   2   3
TORSDOF 9
ENDMDL
MODEL      231
REMARK 921   NORMALIZED FREE ENERGY PREDICTED BY IDOCK:   -2.68 KCAL/MOL
REMARK 922        TOTAL FREE ENERGY PREDICTED BY IDOCK:   -4.49 KCAL/MOL
REMARK 923 INTER-LIGAND FREE ENERGY PREDICTED BY IDOCK:   -4.12 KCAL/MOL
REMARK 924 INTRA-LIGAND FREE ENERGY PREDICTED BY IDOCK:   -0.37 KCAL/MOL
REMARK 927      BINDING AFFINITY PREDICTED BY RF-SCORE:    0.00 PKD
ROOT
HETATM    1  C   UNL     1      -5.864  19.847  69.794  1.00  0.00    -0.329 C  
HETATM    2  C   UNL     1      -6.959  20.206  68.799  1.00  0.00    -0.255 C  
ENDROOT
BRANCH   2   3
HETATM    3  CA  UNL     1      -6.805  19.532  67.416  1.00  0.00    -0.199 C  
BRANCH   3   4
HETATM    4  C   UNL     1      -5.379  19.688  66.820  1.00  0.00    -0.163 C  
HETATM    5  H   UNL     1      -4.408  20.789  65.451  1.00  0.00     0.000 HD 
HETATM    6  O   UNL     1      -5.280  20.693  65.815  1.00  0.00    -0.173 OA 
ENDBRANCH   3   4
BRANCH   3   7
HETATM    7  N   UNL     1      -7.229  18.129  67.602  1.00  0.00    -0.206 NA 
HETATM    8  H   UNL     1      -7.766  18.025  68.463  1.00  0.00     0.000 HD 
BRANCH   7   9
HETATM    9  C   UNL     1      -7.973  17.584  66.457  1.00  0.00    -0.274 C  
BRANCH   9  10
HETATM   10  C   UNL     1      -9.438  18.073  66.483  1.00  0.00    -0.301 C  
BRANCH  10  11
HETATM   11  N   UNL     1     -10.296  17.224  65.639  1.00  0.00    -0.619 NA 
HETATM   12  H   UNL     1     -10.062  17.335  64.652  1.00  0.00     0.000 HD 
BRANCH  11  13
HETATM   13  CA  UNL     1     -10.259  15.793  66.037  1.00  0.00    -0.333 C  
BRANCH  13  14
HETATM   14  C   UNL     1     -10.923  14.945  64.928  1.00  0.00    -0.408 C  
HETATM   15  H   UNL     1     -10.945  13.055  64.359  1.00  0.00     0.000 HD 
HETATM   16  O   UNL     1     -10.537  13.576  65.040  1.00  0.00    -0.329 OA 
ENDBRANCH  13  14
BRANCH  13  17
HETATM   17  C   UNL     1     -10.905  15.494  67.405  1.00  0.00    -0.312 C  
HETATM   18  C   UNL     1      -9.943  14.995  68.475  1.00  0.00    -0.219 C  
ENDBRANCH  13  17
ENDBRANCH  11  13
ENDBRANCH  10  11
ENDBRANCH   9  10
ENDBRANCH   7   9
ENDBRANCH   3   7
ENDBRANCH   2   3
TORSDOF 9
ENDMDL
MODEL      232
REMARK 921   NORMALIZED FREE ENERGY PREDICTED BY IDOCK:   -2.67 KCAL/MOL
REMARK 922        TOTAL FREE ENERGY PREDICTED BY IDOCK:   -4.49 KCAL/MOL
REMARK 923 INTER-LIGAND FREE ENERGY PREDICTED BY IDOCK:   -3.96 KCAL/MOL
REMARK 924 INTRA-LIGAND FREE ENERGY PREDICTED BY IDOCK:   -0.53 KCAL/MOL
REMARK 927      BINDING AFFINITY PREDICTED BY RF-SCORE:    0.00 PKD
ROOT
HETATM    1  C   UNL     1     -10.963   3.751  73.403  1.00  0.00    -0.317 C  
HETATM    2  C   UNL     1     -10.983   5.267  73.533  1.00  0.00    -0.353 C  
ENDROOT
BRANCH   2   3
HETATM    3  CA  UNL     1     -11.466   6.005  72.263  1.00  0.00    -0.312 C  
BRANCH   3   4
HETATM    4  C   UNL     1     -11.643   7.533  72.478  1.00  0.00    -0.303 C  
HETATM    5  H   UNL     1     -10.529   9.166  72.826  1.00  0.00     0.000 HD 
HETATM    6  O   UNL     1     -10.420   8.232  72.695  1.00  0.00    -0.320 OA 
ENDBRANCH   3   4
BRANCH   3   7
HETATM    7  N   UNL     1     -10.499   5.655  71.201  1.00  0.00    -0.231 NA 
HETATM    8  H   UNL     1     -10.209   4.681  71.284  1.00  0.00     0.000 HD 
BRANCH   7   9
HETATM    9  C   UNL     1     -10.989   5.939  69.845  1.00  0.00    -0.374 C  
BRANCH   9  10
HETATM   10  C   UNL     1     -10.168   7.078  69.201  1.00  0.00    -0.187 C  
BRANCH  10  11
HETATM   11  N   UNL     1     -11.005   8.267  68.962  1.00  0.00    -0.429 NA 
HETATM   12  H   UNL     1     -11.819   8.269  69.577  1.00  0.00     0.000 HD 
BRANCH  11  13
HETATM   13  CA  UNL     1     -10.246   9.538  69.079  1.00  0.00    -0.200 C  
BRANCH  13  14
HETATM   14  C   UNL     1      -8.865   9.244  69.709  1.00  0.00    -0.167 C  
HETATM   15  H   UNL     1      -6.969   9.589  69.282  1.00  0.00     0.000 HD 
HETATM   16  O   UNL     1      -7.817   9.769  68.895  1.00  0.00    -0.081 OA 
ENDBRANCH  13  14
BRANCH  13  17
HETATM   17  C   UNL     1     -10.973  10.646  69.866  1.00  0.00    -0.337 C  
HETATM   18  C   UNL     1     -12.139  11.296  69.134  1.00  0.00    -0.348 C  
ENDBRANCH  13  17
ENDBRANCH  11  13
ENDBRANCH  10  11
ENDBRANCH   9  10
ENDBRANCH   7   9
ENDBRANCH   3   7
ENDBRANCH   2   3
TORSDOF 9
ENDMDL
MODEL      233
REMARK 921   NORMALIZED FREE ENERGY PREDICTED BY IDOCK:   -2.67 KCAL/MOL
REMARK 922        TOTAL FREE ENERGY PREDICTED BY IDOCK:   -4.49 KCAL/MOL
REMARK 923 INTER-LIGAND FREE ENERGY PREDICTED BY IDOCK:   -4.03 KCAL/MOL
REMARK 924 INTRA-LIGAND FREE ENERGY PREDICTED BY IDOCK:   -0.46 KCAL/MOL
REMARK 927      BINDING AFFINITY PREDICTED BY RF-SCORE:    0.00 PKD
ROOT
HETATM    1  C   UNL     1     -10.795   5.768  66.654  1.00  0.00    -0.290 C  
HETATM    2  C   UNL     1      -9.331   6.147  66.829  1.00  0.00    -0.152 C  
ENDROOT
BRANCH   2   3
HETATM    3  CA  UNL     1      -9.101   7.631  67.197  1.00  0.00    -0.127 C  
BRANCH   3   4
HETATM    4  C   UNL     1      -8.098   8.344  66.250  1.00  0.00    -0.105 C  
HETATM    5  H   UNL     1      -7.760   8.586  64.286  1.00  0.00     0.000 HD 
HETATM    6  O   UNL     1      -8.374   8.150  64.866  1.00  0.00    -0.160 OA 
ENDBRANCH   3   4
BRANCH   3   7
HETATM    7  N   UNL     1     -10.442   8.251  67.231  1.00  0.00    -0.320 NA 
HETATM    8  H   UNL     1     -11.113   7.635  67.689  1.00  0.00     0.000 HD 
BRANCH   7   9
HETATM    9  C   UNL     1     -10.456   9.586  67.847  1.00  0.00    -0.241 C  
BRANCH   9  10
HETATM   10  C   UNL     1     -10.416   9.470  69.386  1.00  0.00    -0.217 C  
BRANCH  10  11
HETATM   11  N   UNL     1     -11.712   9.015  69.919  1.00  0.00    -0.413 NA 
HETATM   12  H   UNL     1     -12.164   8.366  69.274  1.00  0.00     0.000 HD 
BRANCH  11  13
HETATM   13  CA  UNL     1     -11.600   8.425  71.277  1.00  0.00    -0.283 C  
BRANCH  13  14
HETATM   14  C   UNL     1     -11.816   6.896  71.182  1.00  0.00    -0.349 C  
HETATM   15  H   UNL     1     -11.709   5.496  69.794  1.00  0.00     0.000 HD 
HETATM   16  O   UNL     1     -11.577   6.436  69.853  1.00  0.00    -0.429 OA 
ENDBRANCH  13  14
BRANCH  13  17
HETATM   17  C   UNL     1     -12.553   9.040  72.322  1.00  0.00    -0.445 C  
HETATM   18  C   UNL     1     -13.031  10.450  72.004  1.00  0.00    -0.499 C  
ENDBRANCH  13  17
ENDBRANCH  11  13
ENDBRANCH  10  11
ENDBRANCH   9  10
ENDBRANCH   7   9
ENDBRANCH   3   7
ENDBRANCH   2   3
TORSDOF 9
ENDMDL
MODEL      234
REMARK 921   NORMALIZED FREE ENERGY PREDICTED BY IDOCK:   -2.65 KCAL/MOL
REMARK 922        TOTAL FREE ENERGY PREDICTED BY IDOCK:   -4.45 KCAL/MOL
REMARK 923 INTER-LIGAND FREE ENERGY PREDICTED BY IDOCK:   -3.95 KCAL/MOL
REMARK 924 INTRA-LIGAND FREE ENERGY PREDICTED BY IDOCK:   -0.50 KCAL/MOL
REMARK 927      BINDING AFFINITY PREDICTED BY RF-SCORE:    0.00 PKD
ROOT
HETATM    1  C   UNL     1      -8.142   9.465  65.010  1.00  0.00    -0.129 C  
HETATM    2  C   UNL     1      -8.774   9.666  66.380  1.00  0.00    -0.148 C  
ENDROOT
BRANCH   2   3
HETATM    3  CA  UNL     1     -10.214   9.116  66.500  1.00  0.00    -0.252 C  
BRANCH   3   4
HETATM    4  C   UNL     1     -10.328   7.918  67.482  1.00  0.00    -0.259 C  
HETATM    5  H   UNL     1      -9.477   7.240  69.169  1.00  0.00     0.000 HD 
HETATM    6  O   UNL     1      -9.407   7.972  68.568  1.00  0.00    -0.142 OA 
ENDBRANCH   3   4
BRANCH   3   7
HETATM    7  N   UNL     1     -11.059  10.273  66.861  1.00  0.00    -0.091 NA 
HETATM    8  H   UNL     1     -11.897   9.967  67.357  1.00  0.00     0.000 HD 
BRANCH   7   9
HETATM    9  C   UNL     1     -10.346  11.302  67.631  1.00  0.00    -0.184 C  
BRANCH   9  10
HETATM   10  C   UNL     1     -10.830  11.312  69.097  1.00  0.00    -0.222 C  
BRANCH  10  11
HETATM   11  N   UNL     1     -12.201  10.784  69.208  1.00  0.00    -0.651 NA 
HETATM   12  H   UNL     1     -12.272   9.859  68.782  1.00  0.00     0.000 HD 
BRANCH  11  13
HETATM   13  CA  UNL     1     -12.699  10.765  70.607  1.00  0.00    -0.331 C  
BRANCH  13  14
HETATM   14  C   UNL     1     -12.694  12.208  71.163  1.00  0.00    -0.253 C  
HETATM   15  H   UNL     1     -13.469  13.178  72.698  1.00  0.00     0.000 HD 
HETATM   16  O   UNL     1     -13.472  12.291  72.356  1.00  0.00    -0.467 OA 
ENDBRANCH  13  14
BRANCH  13  17
HETATM   17  C   UNL     1     -11.924   9.821  71.549  1.00  0.00    -0.488 C  
HETATM   18  C   UNL     1     -12.258   8.344  71.396  1.00  0.00    -0.335 C  
ENDBRANCH  13  17
ENDBRANCH  11  13
ENDBRANCH  10  11
ENDBRANCH   9  10
ENDBRANCH   7   9
ENDBRANCH   3   7
ENDBRANCH   2   3
TORSDOF 9
ENDMDL
MODEL      235
REMARK 921   NORMALIZED FREE ENERGY PREDICTED BY IDOCK:   -2.65 KCAL/MOL
REMARK 922        TOTAL FREE ENERGY PREDICTED BY IDOCK:   -4.45 KCAL/MOL
REMARK 923 INTER-LIGAND FREE ENERGY PREDICTED BY IDOCK:   -4.14 KCAL/MOL
REMARK 924 INTRA-LIGAND FREE ENERGY PREDICTED BY IDOCK:   -0.31 KCAL/MOL
REMARK 927      BINDING AFFINITY PREDICTED BY RF-SCORE:    0.00 PKD
ROOT
HETATM    1  C   UNL     1      -9.795   4.261  70.628  1.00  0.00    -0.265 C  
HETATM    2  C   UNL     1     -10.773   5.375  70.974  1.00  0.00    -0.239 C  
ENDROOT
BRANCH   2   3
HETATM    3  CA  UNL     1     -10.494   6.063  72.330  1.00  0.00    -0.201 C  
BRANCH   3   4
HETATM    4  C   UNL     1      -9.028   5.889  72.810  1.00  0.00    -0.123 C  
HETATM    5  H   UNL     1      -7.392   6.999  73.161  1.00  0.00     0.000 HD 
HETATM    6  O   UNL     1      -8.290   7.106  72.867  1.00  0.00    -0.105 OA 
ENDBRANCH   3   4
BRANCH   3   7
HETATM    7  N   UNL     1     -10.908   7.472  72.160  1.00  0.00    -0.229 NA 
HETATM    8  H   UNL     1     -10.271   7.962  71.532  1.00  0.00     0.000 HD 
BRANCH   7   9
HETATM    9  C   UNL     1     -12.299   7.624  71.711  1.00  0.00    -0.319 C  
BRANCH   9  10
HETATM   10  C   UNL     1     -12.840   9.020  72.092  1.00  0.00    -0.410 C  
BRANCH  10  11
HETATM   11  N   UNL     1     -13.584   9.625  70.974  1.00  0.00    -0.529 NA 
HETATM   12  H   UNL     1     -14.575   9.717  71.202  1.00  0.00     0.000 HD 
BRANCH  11  13
HETATM   13  CA  UNL     1     -13.015  10.926  70.540  1.00  0.00    -0.136 C  
BRANCH  13  14
HETATM   14  C   UNL     1     -11.806  10.662  69.612  1.00  0.00    -0.286 C  
HETATM   15  H   UNL     1     -11.350  10.919  67.709  1.00  0.00     0.000 HD 
HETATM   16  O   UNL     1     -12.093  11.080  68.278  1.00  0.00    -0.604 OA 
ENDBRANCH  13  14
BRANCH  13  17
HETATM   17  C   UNL     1     -12.613  11.865  71.695  1.00  0.00    -0.237 C  
HETATM   18  C   UNL     1     -13.711  12.807  72.169  1.00  0.00    -0.454 C  
ENDBRANCH  13  17
ENDBRANCH  11  13
ENDBRANCH  10  11
ENDBRANCH   9  10
ENDBRANCH   7   9
ENDBRANCH   3   7
ENDBRANCH   2   3
TORSDOF 9
ENDMDL
MODEL      236
REMARK 921   NORMALIZED FREE ENERGY PREDICTED BY IDOCK:   -2.64 KCAL/MOL
REMARK 922        TOTAL FREE ENERGY PREDICTED BY IDOCK:   -4.45 KCAL/MOL
REMARK 923 INTER-LIGAND FREE ENERGY PREDICTED BY IDOCK:   -4.07 KCAL/MOL
REMARK 924 INTRA-LIGAND FREE ENERGY PREDICTED BY IDOCK:   -0.38 KCAL/MOL
REMARK 927      BINDING AFFINITY PREDICTED BY RF-SCORE:    0.00 PKD
ROOT
HETATM    1  C   UNL     1     -10.654   5.425  66.271  1.00  0.00    -0.268 C  
HETATM    2  C   UNL     1     -10.033   5.858  67.592  1.00  0.00    -0.159 C  
ENDROOT
BRANCH   2   3
HETATM    3  CA  UNL     1      -9.484   7.304  67.589  1.00  0.00    -0.131 C  
BRANCH   3   4
HETATM    4  C   UNL     1      -7.960   7.376  67.300  1.00  0.00    -0.115 C  
HETATM    5  H   UNL     1      -6.695   7.295  65.744  1.00  0.00     0.000 HD 
HETATM    6  O   UNL     1      -7.627   7.251  65.921  1.00  0.00    -0.084 OA 
ENDBRANCH   3   4
BRANCH   3   7
HETATM    7  N   UNL     1     -10.316   8.049  66.621  1.00  0.00    -0.445 NA 
HETATM    8  H   UNL     1     -11.129   7.498  66.344  1.00  0.00     0.000 HD 
BRANCH   7   9
HETATM    9  C   UNL     1     -10.727   9.376  67.100  1.00  0.00    -0.163 C  
BRANCH   9  10
HETATM   10  C   UNL     1      -9.807  10.470  66.515  1.00  0.00    -0.206 C  
BRANCH  10  11
HETATM   11  N   UNL     1     -10.498  11.240  65.466  1.00  0.00    -0.264 NA 
HETATM   12  H   UNL     1     -10.910  10.620  64.769  1.00  0.00     0.000 HD 
BRANCH  11  13
HETATM   13  CA  UNL     1     -11.515  12.174  66.014  1.00  0.00    -0.370 C  
BRANCH  13  14
HETATM   14  C   UNL     1     -12.141  12.977  64.850  1.00  0.00    -0.413 C  
HETATM   15  H   UNL     1     -13.710  12.831  63.661  1.00  0.00     0.000 HD 
HETATM   16  O   UNL     1     -13.325  12.337  64.376  1.00  0.00    -0.786 OA 
ENDBRANCH  13  14
BRANCH  13  17
HETATM   17  C   UNL     1     -10.984  13.129  67.103  1.00  0.00    -0.289 C  
HETATM   18  C   UNL     1     -11.989  13.487  68.190  1.00  0.00    -0.376 C  
ENDBRANCH  13  17
ENDBRANCH  11  13
ENDBRANCH  10  11
ENDBRANCH   9  10
ENDBRANCH   7   9
ENDBRANCH   3   7
ENDBRANCH   2   3
TORSDOF 9
ENDMDL
MODEL      237
REMARK 921   NORMALIZED FREE ENERGY PREDICTED BY IDOCK:   -2.64 KCAL/MOL
REMARK 922        TOTAL FREE ENERGY PREDICTED BY IDOCK:   -4.43 KCAL/MOL
REMARK 923 INTER-LIGAND FREE ENERGY PREDICTED BY IDOCK:   -4.00 KCAL/MOL
REMARK 924 INTRA-LIGAND FREE ENERGY PREDICTED BY IDOCK:   -0.43 KCAL/MOL
REMARK 927      BINDING AFFINITY PREDICTED BY RF-SCORE:    0.00 PKD
ROOT
HETATM    1  C   UNL     1      -5.858  18.355  69.544  1.00  0.00    -0.249 C  
HETATM    2  C   UNL     1      -7.130  18.334  68.708  1.00  0.00    -0.291 C  
ENDROOT
BRANCH   2   3
HETATM    3  CA  UNL     1      -7.398  16.987  67.997  1.00  0.00    -0.180 C  
BRANCH   3   4
HETATM    4  C   UNL     1      -7.128  17.042  66.468  1.00  0.00    -0.271 C  
HETATM    5  H   UNL     1      -8.026  17.649  64.779  1.00  0.00     0.000 HD 
HETATM    6  O   UNL     1      -8.192  17.615  65.714  1.00  0.00    -0.543 OA 
ENDBRANCH   3   4
BRANCH   3   7
HETATM    7  N   UNL     1      -6.586  15.983  68.715  1.00  0.00    -0.120 NA 
HETATM    8  H   UNL     1      -5.951  16.436  69.372  1.00  0.00     0.000 HD 
BRANCH   7   9
HETATM    9  C   UNL     1      -7.388  14.955  69.392  1.00  0.00    -0.181 C  
BRANCH   9  10
HETATM   10  C   UNL     1      -8.521  14.458  68.468  1.00  0.00    -0.170 C  
BRANCH  10  11
HETATM   11  N   UNL     1      -9.812  14.433  69.176  1.00  0.00    -0.406 NA 
HETATM   12  H   UNL     1      -9.739  13.914  70.052  1.00  0.00     0.000 HD 
BRANCH  11  13
HETATM   13  CA  UNL     1     -10.368  15.790  69.408  1.00  0.00    -0.263 C  
BRANCH  13  14
HETATM   14  C   UNL     1     -11.320  15.744  70.625  1.00  0.00    -0.388 C  
HETATM   15  H   UNL     1     -12.249  14.369  71.694  1.00  0.00     0.000 HD 
HETATM   16  O   UNL     1     -11.664  14.397  70.946  1.00  0.00    -0.295 OA 
ENDBRANCH  13  14
BRANCH  13  17
HETATM   17  C   UNL     1     -11.082  16.405  68.187  1.00  0.00    -0.320 C  
HETATM   18  C   UNL     1     -10.778  17.876  67.938  1.00  0.00    -0.328 C  
ENDBRANCH  13  17
ENDBRANCH  11  13
ENDBRANCH  10  11
ENDBRANCH   9  10
ENDBRANCH   7   9
ENDBRANCH   3   7
ENDBRANCH   2   3
TORSDOF 9
ENDMDL
MODEL      238
REMARK 921   NORMALIZED FREE ENERGY PREDICTED BY IDOCK:   -2.63 KCAL/MOL
REMARK 922        TOTAL FREE ENERGY PREDICTED BY IDOCK:   -4.42 KCAL/MOL
REMARK 923 INTER-LIGAND FREE ENERGY PREDICTED BY IDOCK:   -3.96 KCAL/MOL
REMARK 924 INTRA-LIGAND FREE ENERGY PREDICTED BY IDOCK:   -0.47 KCAL/MOL
REMARK 927      BINDING AFFINITY PREDICTED BY RF-SCORE:    0.00 PKD
ROOT
HETATM    1  C   UNL     1     -14.117   8.924  72.497  1.00  0.00    -0.441 C  
HETATM    2  C   UNL     1     -13.319   8.017  71.571  1.00  0.00    -0.324 C  
ENDROOT
BRANCH   2   3
HETATM    3  CA  UNL     1     -11.795   8.279  71.586  1.00  0.00    -0.299 C  
BRANCH   3   4
HETATM    4  C   UNL     1     -10.983   7.105  72.197  1.00  0.00    -0.241 C  
HETATM    5  H   UNL     1     -11.218   5.168  72.671  1.00  0.00     0.000 HD 
HETATM    6  O   UNL     1     -11.715   5.887  72.298  1.00  0.00    -0.307 OA 
ENDBRANCH   3   4
BRANCH   3   7
HETATM    7  N   UNL     1     -11.427   8.604  70.193  1.00  0.00    -0.457 NA 
HETATM    8  H   UNL     1     -12.209   8.427  69.562  1.00  0.00     0.000 HD 
BRANCH   7   9
HETATM    9  C   UNL     1     -10.924   9.975  70.023  1.00  0.00    -0.300 C  
BRANCH   9  10
HETATM   10  C   UNL     1     -10.052  10.077  68.753  1.00  0.00    -0.185 C  
BRANCH  10  11
HETATM   11  N   UNL     1      -9.090   8.963  68.677  1.00  0.00    -0.137 NA 
HETATM   12  H   UNL     1      -9.218   8.317  69.456  1.00  0.00     0.000 HD 
BRANCH  11  13
HETATM   13  CA  UNL     1      -9.142   8.247  67.377  1.00  0.00    -0.140 C  
BRANCH  13  14
HETATM   14  C   UNL     1     -10.106   8.994  66.427  1.00  0.00    -0.281 C  
HETATM   15  H   UNL     1      -9.982  10.041  64.758  1.00  0.00     0.000 HD 
HETATM   16  O   UNL     1      -9.390   9.582  65.342  1.00  0.00    -0.229 OA 
ENDBRANCH  13  14
BRANCH  13  17
HETATM   17  C   UNL     1      -9.534   6.759  67.483  1.00  0.00    -0.139 C  
HETATM   18  C   UNL     1     -11.001   6.459  67.204  1.00  0.00    -0.476 C  
ENDBRANCH  13  17
ENDBRANCH  11  13
ENDBRANCH  10  11
ENDBRANCH   9  10
ENDBRANCH   7   9
ENDBRANCH   3   7
ENDBRANCH   2   3
TORSDOF 9
ENDMDL
MODEL      239
REMARK 921   NORMALIZED FREE ENERGY PREDICTED BY IDOCK:   -2.63 KCAL/MOL
REMARK 922        TOTAL FREE ENERGY PREDICTED BY IDOCK:   -4.42 KCAL/MOL
REMARK 923 INTER-LIGAND FREE ENERGY PREDICTED BY IDOCK:   -3.75 KCAL/MOL
REMARK 924 INTRA-LIGAND FREE ENERGY PREDICTED BY IDOCK:   -0.67 KCAL/MOL
REMARK 927      BINDING AFFINITY PREDICTED BY RF-SCORE:    0.00 PKD
ROOT
HETATM    1  C   UNL     1     -14.060   8.946  71.865  1.00  0.00    -0.453 C  
HETATM    2  C   UNL     1     -13.932   7.431  71.801  1.00  0.00    -0.469 C  
ENDROOT
BRANCH   2   3
HETATM    3  CA  UNL     1     -12.473   6.920  71.750  1.00  0.00    -0.356 C  
BRANCH   3   4
HETATM    4  C   UNL     1     -11.809   7.118  70.361  1.00  0.00    -0.191 C  
HETATM    5  H   UNL     1     -10.686   6.099  69.045  1.00  0.00     0.000 HD 
HETATM    6  O   UNL     1     -11.093   5.978  69.895  1.00  0.00    -0.362 OA 
ENDBRANCH   3   4
BRANCH   3   7
HETATM    7  N   UNL     1     -11.769   7.600  72.856  1.00  0.00    -0.610 NA 
HETATM    8  H   UNL     1     -12.417   7.831  73.609  1.00  0.00     0.000 HD 
BRANCH   7   9
HETATM    9  C   UNL     1     -10.620   6.844  73.374  1.00  0.00    -0.344 C  
BRANCH   9  10
HETATM   10  C   UNL     1      -9.296   7.528  72.969  1.00  0.00    -0.191 C  
BRANCH  10  11
HETATM   11  N   UNL     1      -8.620   6.783  71.893  1.00  0.00    -0.120 NA 
HETATM   12  H   UNL     1      -9.261   6.130  71.442  1.00  0.00     0.000 HD 
BRANCH  11  13
HETATM   13  CA  UNL     1      -7.976   7.673  70.894  1.00  0.00    -0.094 C  
BRANCH  13  14
HETATM   14  C   UNL     1      -8.662   9.059  70.937  1.00  0.00    -0.229 C  
HETATM   15  H   UNL     1      -8.800  10.650  69.777  1.00  0.00     0.000 HD 
HETATM   16  O   UNL     1      -8.378   9.799  69.751  1.00  0.00    -0.145 OA 
ENDBRANCH  13  14
BRANCH  13  17
HETATM   17  C   UNL     1      -7.970   7.119  69.454  1.00  0.00    -0.125 C  
HETATM   18  C   UNL     1      -6.828   6.162  69.139  1.00  0.00    -0.062 C  
ENDBRANCH  13  17
ENDBRANCH  11  13
ENDBRANCH  10  11
ENDBRANCH   9  10
ENDBRANCH   7   9
ENDBRANCH   3   7
ENDBRANCH   2   3
TORSDOF 9
ENDMDL
MODEL      240
REMARK 921   NORMALIZED FREE ENERGY PREDICTED BY IDOCK:   -2.61 KCAL/MOL
REMARK 922        TOTAL FREE ENERGY PREDICTED BY IDOCK:   -4.39 KCAL/MOL
REMARK 923 INTER-LIGAND FREE ENERGY PREDICTED BY IDOCK:   -4.01 KCAL/MOL
REMARK 924 INTRA-LIGAND FREE ENERGY PREDICTED BY IDOCK:   -0.38 KCAL/MOL
REMARK 927      BINDING AFFINITY PREDICTED BY RF-SCORE:    0.00 PKD
ROOT
HETATM    1  C   UNL     1     -10.485   4.980  72.157  1.00  0.00    -0.274 C  
HETATM    2  C   UNL     1     -11.528   5.955  72.685  1.00  0.00    -0.319 C  
ENDROOT
BRANCH   2   3
HETATM    3  CA  UNL     1     -11.883   7.096  71.703  1.00  0.00    -0.306 C  
BRANCH   3   4
HETATM    4  C   UNL     1     -13.391   7.132  71.333  1.00  0.00    -0.307 C  
HETATM    5  H   UNL     1     -15.050   8.168  71.782  1.00  0.00     0.000 HD 
HETATM    6  O   UNL     1     -14.128   8.146  72.009  1.00  0.00    -0.375 OA 
ENDBRANCH   3   4
BRANCH   3   7
HETATM    7  N   UNL     1     -11.389   8.338  72.332  1.00  0.00    -0.374 NA 
HETATM    8  H   UNL     1     -11.265   8.210  73.336  1.00  0.00     0.000 HD 
BRANCH   7   9
HETATM    9  C   UNL     1     -10.157   8.856  71.719  1.00  0.00    -0.337 C  
BRANCH   9  10
HETATM   10  C   UNL     1     -10.088   8.461  70.227  1.00  0.00    -0.189 C  
BRANCH  10  11
HETATM   11  N   UNL     1      -9.688   9.606  69.392  1.00  0.00    -0.182 NA 
HETATM   12  H   UNL     1      -8.705   9.540  69.128  1.00  0.00     0.000 HD 
BRANCH  11  13
HETATM   13  CA  UNL     1     -10.551   9.774  68.195  1.00  0.00    -0.231 C  
BRANCH  13  14
HETATM   14  C   UNL     1     -10.437   8.511  67.311  1.00  0.00    -0.296 C  
HETATM   15  H   UNL     1      -9.363   7.907  65.769  1.00  0.00     0.000 HD 
HETATM   16  O   UNL     1      -9.433   8.683  66.312  1.00  0.00    -0.207 OA 
ENDBRANCH  13  14
BRANCH  13  17
HETATM   17  C   UNL     1     -10.254  11.041  67.366  1.00  0.00    -0.229 C  
HETATM   18  C   UNL     1     -11.476  11.877  67.011  1.00  0.00    -0.384 C  
ENDBRANCH  13  17
ENDBRANCH  11  13
ENDBRANCH  10  11
ENDBRANCH   9  10
ENDBRANCH   7   9
ENDBRANCH   3   7
ENDBRANCH   2   3
TORSDOF 9
ENDMDL
MODEL      241
REMARK 921   NORMALIZED FREE ENERGY PREDICTED BY IDOCK:   -2.61 KCAL/MOL
REMARK 922        TOTAL FREE ENERGY PREDICTED BY IDOCK:   -4.39 KCAL/MOL
REMARK 923 INTER-LIGAND FREE ENERGY PREDICTED BY IDOCK:   -4.13 KCAL/MOL
REMARK 924 INTRA-LIGAND FREE ENERGY PREDICTED BY IDOCK:   -0.26 KCAL/MOL
REMARK 927      BINDING AFFINITY PREDICTED BY RF-SCORE:    0.00 PKD
ROOT
HETATM    1  C   UNL     1     -11.126   7.861  72.710  1.00  0.00    -0.462 C  
HETATM    2  C   UNL     1     -11.798   7.314  71.459  1.00  0.00    -0.335 C  
ENDROOT
BRANCH   2   3
HETATM    3  CA  UNL     1     -10.838   7.106  70.264  1.00  0.00    -0.249 C  
BRANCH   3   4
HETATM    4  C   UNL     1     -10.823   5.642  69.745  1.00  0.00    -0.300 C  
HETATM    5  H   UNL     1      -9.507   4.222  69.216  1.00  0.00     0.000 HD 
HETATM    6  O   UNL     1      -9.516   5.117  69.533  1.00  0.00    -0.126 OA 
ENDBRANCH   3   4
BRANCH   3   7
HETATM    7  N   UNL     1     -11.237   8.100  69.247  1.00  0.00    -0.412 NA 
HETATM    8  H   UNL     1     -11.770   8.859  69.673  1.00  0.00     0.000 HD 
BRANCH   7   9
HETATM    9  C   UNL     1     -10.108   8.632  68.471  1.00  0.00    -0.190 C  
BRANCH   9  10
HETATM   10  C   UNL     1     -10.617   9.403  67.234  1.00  0.00    -0.244 C  
BRANCH  10  11
HETATM   11  N   UNL     1      -9.963   8.926  66.004  1.00  0.00    -0.431 NA 
HETATM   12  H   UNL     1     -10.528   8.212  65.543  1.00  0.00     0.000 HD 
BRANCH  11  13
HETATM   13  CA  UNL     1      -9.629  10.027  65.066  1.00  0.00    -0.297 C  
BRANCH  13  14
HETATM   14  C   UNL     1      -8.145  10.418  65.256  1.00  0.00    -0.152 C  
HETATM   15  H   UNL     1      -6.374   9.602  64.946  1.00  0.00     0.000 HD 
HETATM   16  O   UNL     1      -7.286   9.362  64.829  1.00  0.00    -0.101 OA 
ENDBRANCH  13  14
BRANCH  13  17
HETATM   17  C   UNL     1     -10.534  11.270  65.190  1.00  0.00    -0.351 C  
HETATM   18  C   UNL     1     -11.091  11.794  63.873  1.00  0.00    -0.482 C  
ENDBRANCH  13  17
ENDBRANCH  11  13
ENDBRANCH  10  11
ENDBRANCH   9  10
ENDBRANCH   7   9
ENDBRANCH   3   7
ENDBRANCH   2   3
TORSDOF 9
ENDMDL
MODEL      242
REMARK 921   NORMALIZED FREE ENERGY PREDICTED BY IDOCK:   -2.61 KCAL/MOL
REMARK 922        TOTAL FREE ENERGY PREDICTED BY IDOCK:   -4.39 KCAL/MOL
REMARK 923 INTER-LIGAND FREE ENERGY PREDICTED BY IDOCK:   -3.94 KCAL/MOL
REMARK 924 INTRA-LIGAND FREE ENERGY PREDICTED BY IDOCK:   -0.44 KCAL/MOL
REMARK 927      BINDING AFFINITY PREDICTED BY RF-SCORE:    0.00 PKD
ROOT
HETATM    1  C   UNL     1      -8.788   8.194  71.998  1.00  0.00    -0.233 C  
HETATM    2  C   UNL     1     -10.267   8.424  72.275  1.00  0.00    -0.396 C  
ENDROOT
BRANCH   2   3
HETATM    3  CA  UNL     1     -11.087   8.840  71.031  1.00  0.00    -0.270 C  
BRANCH   3   4
HETATM    4  C   UNL     1     -12.214   9.857  71.358  1.00  0.00    -0.408 C  
HETATM    5  H   UNL     1     -13.355  11.224  70.431  1.00  0.00     0.000 HD 
HETATM    6  O   UNL     1     -12.665  10.602  70.231  1.00  0.00    -0.319 OA 
ENDBRANCH   3   4
BRANCH   3   7
HETATM    7  N   UNL     1     -10.102   9.330  70.045  1.00  0.00    -0.198 NA 
HETATM    8  H   UNL     1      -9.160   9.029  70.294  1.00  0.00     0.000 HD 
BRANCH   7   9
HETATM    9  C   UNL     1     -10.419   8.948  68.661  1.00  0.00    -0.193 C  
BRANCH   9  10
HETATM   10  C   UNL     1     -10.017  10.076  67.684  1.00  0.00    -0.176 C  
BRANCH  10  11
HETATM   11  N   UNL     1     -11.018  11.157  67.681  1.00  0.00    -0.249 NA 
HETATM   12  H   UNL     1     -11.055  11.623  68.587  1.00  0.00     0.000 HD 
BRANCH  11  13
HETATM   13  CA  UNL     1     -10.802  12.137  66.586  1.00  0.00    -0.268 C  
BRANCH  13  14
HETATM   14  C   UNL     1     -11.350  13.514  67.027  1.00  0.00    -0.324 C  
HETATM   15  H   UNL     1     -11.372  14.613  68.667  1.00  0.00     0.000 HD 
HETATM   16  O   UNL     1     -11.035  13.767  68.396  1.00  0.00    -0.238 OA 
ENDBRANCH  13  14
BRANCH  13  17
HETATM   17  C   UNL     1     -11.408  11.724  65.230  1.00  0.00    -0.284 C  
HETATM   18  C   UNL     1     -10.395  11.492  64.117  1.00  0.00    -0.386 C  
ENDBRANCH  13  17
ENDBRANCH  11  13
ENDBRANCH  10  11
ENDBRANCH   9  10
ENDBRANCH   7   9
ENDBRANCH   3   7
ENDBRANCH   2   3
TORSDOF 9
ENDMDL
MODEL      243
REMARK 921   NORMALIZED FREE ENERGY PREDICTED BY IDOCK:   -2.60 KCAL/MOL
REMARK 922        TOTAL FREE ENERGY PREDICTED BY IDOCK:   -4.37 KCAL/MOL
REMARK 923 INTER-LIGAND FREE ENERGY PREDICTED BY IDOCK:   -4.43 KCAL/MOL
REMARK 924 INTRA-LIGAND FREE ENERGY PREDICTED BY IDOCK:    0.06 KCAL/MOL
REMARK 927      BINDING AFFINITY PREDICTED BY RF-SCORE:    0.00 PKD
ROOT
HETATM    1  C   UNL     1      -8.155  18.575  68.539  1.00  0.00    -0.354 C  
HETATM    2  C   UNL     1      -9.642  18.250  68.544  1.00  0.00    -0.358 C  
ENDROOT
BRANCH   2   3
HETATM    3  CA  UNL     1     -10.259  18.088  67.135  1.00  0.00    -0.360 C  
BRANCH   3   4
HETATM    4  C   UNL     1     -10.001  19.312  66.214  1.00  0.00    -0.413 C  
HETATM    5  H   UNL     1     -10.967  20.437  64.862  1.00  0.00     0.000 HD 
HETATM    6  O   UNL     1     -11.125  19.688  65.425  1.00  0.00    -0.412 OA 
ENDBRANCH   3   4
BRANCH   3   7
HETATM    7  N   UNL     1      -9.728  16.815  66.606  1.00  0.00    -0.256 NA 
HETATM    8  H   UNL     1      -9.492  16.178  67.367  1.00  0.00     0.000 HD 
BRANCH   7   9
HETATM    9  C   UNL     1     -10.624  16.161  65.641  1.00  0.00    -0.363 C  
BRANCH   9  10
HETATM   10  C   UNL     1     -10.093  14.758  65.276  1.00  0.00    -0.354 C  
BRANCH  10  11
HETATM   11  N   UNL     1      -9.028  14.335  66.201  1.00  0.00    -0.476 NA 
HETATM   12  H   UNL     1      -8.285  15.034  66.246  1.00  0.00     0.000 HD 
BRANCH  11  13
HETATM   13  CA  UNL     1      -9.538  14.013  67.558  1.00  0.00    -0.228 C  
BRANCH  13  14
HETATM   14  C   UNL     1      -8.400  14.210  68.585  1.00  0.00    -0.123 C  
HETATM   15  H   UNL     1      -6.434  14.393  68.560  1.00  0.00     0.000 HD 
HETATM   16  O   UNL     1      -7.134  14.272  67.929  1.00  0.00    -0.124 OA 
ENDBRANCH  13  14
BRANCH  13  17
HETATM   17  C   UNL     1     -10.148  12.603  67.693  1.00  0.00    -0.218 C  
HETATM   18  C   UNL     1     -11.610  12.572  68.118  1.00  0.00    -0.390 C  
ENDBRANCH  13  17
ENDBRANCH  11  13
ENDBRANCH  10  11
ENDBRANCH   9  10
ENDBRANCH   7   9
ENDBRANCH   3   7
ENDBRANCH   2   3
TORSDOF 9
ENDMDL
MODEL      244
REMARK 921   NORMALIZED FREE ENERGY PREDICTED BY IDOCK:   -2.59 KCAL/MOL
REMARK 922        TOTAL FREE ENERGY PREDICTED BY IDOCK:   -4.37 KCAL/MOL
REMARK 923 INTER-LIGAND FREE ENERGY PREDICTED BY IDOCK:   -4.02 KCAL/MOL
REMARK 924 INTRA-LIGAND FREE ENERGY PREDICTED BY IDOCK:   -0.34 KCAL/MOL
REMARK 927      BINDING AFFINITY PREDICTED BY RF-SCORE:    0.00 PKD
ROOT
HETATM    1  C   UNL     1     -10.268   8.836  68.647  1.00  0.00    -0.214 C  
HETATM    2  C   UNL     1      -8.868   9.433  68.632  1.00  0.00    -0.132 C  
ENDROOT
BRANCH   2   3
HETATM    3  CA  UNL     1      -8.839  10.979  68.617  1.00  0.00    -0.164 C  
BRANCH   3   4
HETATM    4  C   UNL     1      -7.453  11.557  68.222  1.00  0.00    -0.103 C  
HETATM    5  H   UNL     1      -5.581  11.662  68.939  1.00  0.00     0.000 HD 
HETATM    6  O   UNL     1      -6.429  11.309  69.181  1.00  0.00    -0.065 OA 
ENDBRANCH   3   4
BRANCH   3   7
HETATM    7  N   UNL     1      -9.941  11.395  67.725  1.00  0.00    -0.175 NA 
HETATM    8  H   UNL     1     -10.758  11.675  68.266  1.00  0.00     0.000 HD 
BRANCH   7   9
HETATM    9  C   UNL     1      -9.560  12.450  66.775  1.00  0.00    -0.224 C  
BRANCH   9  10
HETATM   10  C   UNL     1      -9.800  11.982  65.323  1.00  0.00    -0.213 C  
BRANCH  10  11
HETATM   11  N   UNL     1     -10.415  13.049  64.515  1.00  0.00    -0.382 NA 
HETATM   12  H   UNL     1     -11.062  12.662  63.829  1.00  0.00     0.000 HD 
BRANCH  11  13
HETATM   13  CA  UNL     1     -11.077  14.088  65.344  1.00  0.00    -0.318 C  
BRANCH  13  14
HETATM   14  C   UNL     1     -12.605  14.014  65.119  1.00  0.00    -0.428 C  
HETATM   15  H   UNL     1     -13.960  12.617  64.787  1.00  0.00     0.000 HD 
HETATM   16  O   UNL     1     -13.021  12.663  64.925  1.00  0.00    -0.830 OA 
ENDBRANCH  13  14
BRANCH  13  17
HETATM   17  C   UNL     1     -10.565  15.523  65.101  1.00  0.00    -0.455 C  
HETATM   18  C   UNL     1     -10.294  16.331  66.362  1.00  0.00    -0.319 C  
ENDBRANCH  13  17
ENDBRANCH  11  13
ENDBRANCH  10  11
ENDBRANCH   9  10
ENDBRANCH   7   9
ENDBRANCH   3   7
ENDBRANCH   2   3
TORSDOF 9
ENDMDL
MODEL      245
REMARK 921   NORMALIZED FREE ENERGY PREDICTED BY IDOCK:   -2.59 KCAL/MOL
REMARK 922        TOTAL FREE ENERGY PREDICTED BY IDOCK:   -4.36 KCAL/MOL
REMARK 923 INTER-LIGAND FREE ENERGY PREDICTED BY IDOCK:   -4.03 KCAL/MOL
REMARK 924 INTRA-LIGAND FREE ENERGY PREDICTED BY IDOCK:   -0.33 KCAL/MOL
REMARK 927      BINDING AFFINITY PREDICTED BY RF-SCORE:    0.00 PKD
ROOT
HETATM    1  C   UNL     1      -8.740   7.991  67.788  1.00  0.00    -0.127 C  
HETATM    2  C   UNL     1      -8.607   8.901  69.001  1.00  0.00    -0.138 C  
ENDROOT
BRANCH   2   3
HETATM    3  CA  UNL     1      -9.794   9.872  69.197  1.00  0.00    -0.198 C  
BRANCH   3   4
HETATM    4  C   UNL     1     -10.638   9.551  70.461  1.00  0.00    -0.297 C  
HETATM    5  H   UNL     1     -11.848   8.113  71.166  1.00  0.00     0.000 HD 
HETATM    6  O   UNL     1     -11.332   8.309  70.393  1.00  0.00    -0.254 OA 
ENDBRANCH   3   4
BRANCH   3   7
HETATM    7  N   UNL     1      -9.211  11.229  69.192  1.00  0.00    -0.406 NA 
HETATM    8  H   UNL     1      -8.473  11.308  69.891  1.00  0.00     0.000 HD 
BRANCH   7   9
HETATM    9  C   UNL     1      -8.723  11.653  67.871  1.00  0.00    -0.154 C  
BRANCH   9  10
HETATM   10  C   UNL     1      -9.909  11.952  66.928  1.00  0.00    -0.202 C  
BRANCH  10  11
HETATM   11  N   UNL     1      -9.544  12.962  65.920  1.00  0.00    -0.435 NA 
HETATM   12  H   UNL     1      -9.512  12.552  64.986  1.00  0.00     0.000 HD 
BRANCH  11  13
HETATM   13  CA  UNL     1     -10.433  14.152  65.949  1.00  0.00    -0.306 C  
BRANCH  13  14
HETATM   14  C   UNL     1     -11.622  13.915  64.990  1.00  0.00    -0.345 C  
HETATM   15  H   UNL     1     -13.591  13.836  65.106  1.00  0.00     0.000 HD 
HETATM   16  O   UNL     1     -12.860  13.981  65.695  1.00  0.00    -0.545 OA 
ENDBRANCH  13  14
BRANCH  13  17
HETATM   17  C   UNL     1      -9.729  15.484  65.619  1.00  0.00    -0.355 C  
HETATM   18  C   UNL     1     -10.657  16.683  65.480  1.00  0.00    -0.273 C  
ENDBRANCH  13  17
ENDBRANCH  11  13
ENDBRANCH  10  11
ENDBRANCH   9  10
ENDBRANCH   7   9
ENDBRANCH   3   7
ENDBRANCH   2   3
TORSDOF 9
ENDMDL
MODEL      246
REMARK 921   NORMALIZED FREE ENERGY PREDICTED BY IDOCK:   -2.59 KCAL/MOL
REMARK 922        TOTAL FREE ENERGY PREDICTED BY IDOCK:   -4.36 KCAL/MOL
REMARK 923 INTER-LIGAND FREE ENERGY PREDICTED BY IDOCK:   -4.02 KCAL/MOL
REMARK 924 INTRA-LIGAND FREE ENERGY PREDICTED BY IDOCK:   -0.34 KCAL/MOL
REMARK 927      BINDING AFFINITY PREDICTED BY RF-SCORE:    0.00 PKD
ROOT
HETATM    1  C   UNL     1     -10.094   8.741  66.703  1.00  0.00    -0.358 C  
HETATM    2  C   UNL     1      -9.945  10.131  67.306  1.00  0.00    -0.241 C  
ENDROOT
BRANCH   2   3
HETATM    3  CA  UNL     1     -11.280  10.777  67.744  1.00  0.00    -0.316 C  
BRANCH   3   4
HETATM    4  C   UNL     1     -11.557  10.629  69.265  1.00  0.00    -0.275 C  
HETATM    5  H   UNL     1     -10.590  10.129  70.952  1.00  0.00     0.000 HD 
HETATM    6  O   UNL     1     -10.421  10.219  70.022  1.00  0.00    -0.268 OA 
ENDBRANCH   3   4
BRANCH   3   7
HETATM    7  N   UNL     1     -11.223  12.178  67.277  1.00  0.00    -0.286 NA 
HETATM    8  H   UNL     1     -11.522  12.247  66.305  1.00  0.00     0.000 HD 
BRANCH   7   9
HETATM    9  C   UNL     1     -11.983  13.110  68.122  1.00  0.00    -0.294 C  
BRANCH   9  10
HETATM   10  C   UNL     1     -11.529  14.564  67.867  1.00  0.00    -0.325 C  
BRANCH  10  11
HETATM   11  N   UNL     1     -10.666  15.050  68.958  1.00  0.00    -0.231 NA 
HETATM   12  H   UNL     1     -10.114  14.289  69.354  1.00  0.00     0.000 HD 
BRANCH  11  13
HETATM   13  CA  UNL     1      -9.796  16.180  68.544  1.00  0.00    -0.226 C  
BRANCH  13  14
HETATM   14  C   UNL     1     -10.313  17.481  69.201  1.00  0.00    -0.239 C  
HETATM   15  H   UNL     1     -10.513  19.381  68.704  1.00  0.00     0.000 HD 
HETATM   16  O   UNL     1     -10.195  18.582  68.300  1.00  0.00    -0.361 OA 
ENDBRANCH  13  14
BRANCH  13  17
HETATM   17  C   UNL     1      -9.667  16.361  67.018  1.00  0.00    -0.253 C  
HETATM   18  C   UNL     1      -8.261  16.169  66.464  1.00  0.00    -0.343 C  
ENDBRANCH  13  17
ENDBRANCH  11  13
ENDBRANCH  10  11
ENDBRANCH   9  10
ENDBRANCH   7   9
ENDBRANCH   3   7
ENDBRANCH   2   3
TORSDOF 9
ENDMDL
MODEL      247
REMARK 921   NORMALIZED FREE ENERGY PREDICTED BY IDOCK:   -2.58 KCAL/MOL
REMARK 922        TOTAL FREE ENERGY PREDICTED BY IDOCK:   -4.35 KCAL/MOL
REMARK 923 INTER-LIGAND FREE ENERGY PREDICTED BY IDOCK:   -4.02 KCAL/MOL
REMARK 924 INTRA-LIGAND FREE ENERGY PREDICTED BY IDOCK:   -0.34 KCAL/MOL
REMARK 927      BINDING AFFINITY PREDICTED BY RF-SCORE:    0.00 PKD
ROOT
HETATM    1  C   UNL     1      -8.405   6.841  73.651  1.00  0.00    -0.131 C  
HETATM    2  C   UNL     1      -9.548   7.842  73.554  1.00  0.00    -0.332 C  
ENDROOT
BRANCH   2   3
HETATM    3  CA  UNL     1     -10.500   7.602  72.359  1.00  0.00    -0.248 C  
BRANCH   3   4
HETATM    4  C   UNL     1     -11.411   6.359  72.548  1.00  0.00    -0.264 C  
HETATM    5  H   UNL     1     -11.489   4.426  72.012  1.00  0.00     0.000 HD 
HETATM    6  O   UNL     1     -10.931   5.187  71.896  1.00  0.00    -0.161 OA 
ENDBRANCH   3   4
BRANCH   3   7
HETATM    7  N   UNL     1     -11.239   8.868  72.172  1.00  0.00    -0.345 NA 
HETATM    8  H   UNL     1     -10.856   9.601  72.768  1.00  0.00     0.000 HD 
BRANCH   7   9
HETATM    9  C   UNL     1     -11.297   9.313  70.773  1.00  0.00    -0.287 C  
BRANCH   9  10
HETATM   10  C   UNL     1      -9.913   9.816  70.308  1.00  0.00    -0.253 C  
BRANCH  10  11
HETATM   11  N   UNL     1     -10.040  11.016  69.464  1.00  0.00    -0.441 NA 
HETATM   12  H   UNL     1      -9.594  10.874  68.557  1.00  0.00     0.000 HD 
BRANCH  11  13
HETATM   13  CA  UNL     1     -11.448  11.459  69.301  1.00  0.00    -0.303 C  
BRANCH  13  14
HETATM   14  C   UNL     1     -11.767  11.579  67.793  1.00  0.00    -0.227 C  
HETATM   15  H   UNL     1     -11.817  13.002  66.426  1.00  0.00     0.000 HD 
HETATM   16  O   UNL     1     -11.621  12.928  67.353  1.00  0.00    -0.318 OA 
ENDBRANCH  13  14
BRANCH  13  17
HETATM   17  C   UNL     1     -11.794  12.772  70.032  1.00  0.00    -0.352 C  
HETATM   18  C   UNL     1     -12.738  12.619  71.217  1.00  0.00    -0.354 C  
ENDBRANCH  13  17
ENDBRANCH  11  13
ENDBRANCH  10  11
ENDBRANCH   9  10
ENDBRANCH   7   9
ENDBRANCH   3   7
ENDBRANCH   2   3
TORSDOF 9
ENDMDL
MODEL      248
REMARK 921   NORMALIZED FREE ENERGY PREDICTED BY IDOCK:   -2.58 KCAL/MOL
REMARK 922        TOTAL FREE ENERGY PREDICTED BY IDOCK:   -4.35 KCAL/MOL
REMARK 923 INTER-LIGAND FREE ENERGY PREDICTED BY IDOCK:   -3.98 KCAL/MOL
REMARK 924 INTRA-LIGAND FREE ENERGY PREDICTED BY IDOCK:   -0.37 KCAL/MOL
REMARK 927      BINDING AFFINITY PREDICTED BY RF-SCORE:    0.00 PKD
ROOT
HETATM    1  C   UNL     1      -7.786  11.046  66.389  1.00  0.00    -0.146 C  
HETATM    2  C   UNL     1      -9.304  10.942  66.356  1.00  0.00    -0.199 C  
ENDROOT
BRANCH   2   3
HETATM    3  CA  UNL     1      -9.852  10.043  65.222  1.00  0.00    -0.318 C  
BRANCH   3   4
HETATM    4  C   UNL     1      -9.117  10.253  63.871  1.00  0.00    -0.254 C  
HETATM    5  H   UNL     1      -8.203   9.176  62.445  1.00  0.00     0.000 HD 
HETATM    6  O   UNL     1      -8.652   9.047  63.272  1.00  0.00    -0.197 OA 
ENDBRANCH   3   4
BRANCH   3   7
HETATM    7  N   UNL     1      -9.783   8.659  65.736  1.00  0.00    -0.461 NA 
HETATM    8  H   UNL     1      -8.816   8.340  65.785  1.00  0.00     0.000 HD 
BRANCH   7   9
HETATM    9  C   UNL     1     -10.455   8.480  67.031  1.00  0.00    -0.292 C  
BRANCH   9  10
HETATM   10  C   UNL     1     -10.347   7.012  67.497  1.00  0.00    -0.225 C  
BRANCH  10  11
HETATM   11  N   UNL     1     -11.573   6.584  68.194  1.00  0.00    -0.511 NA 
HETATM   12  H   UNL     1     -12.074   5.879  67.653  1.00  0.00     0.000 HD 
BRANCH  11  13
HETATM   13  CA  UNL     1     -11.312   6.108  69.576  1.00  0.00    -0.356 C  
BRANCH  13  14
HETATM   14  C   UNL     1     -11.735   7.209  70.577  1.00  0.00    -0.272 C  
HETATM   15  H   UNL     1     -11.144   7.881  72.336  1.00  0.00     0.000 HD 
HETATM   16  O   UNL     1     -10.884   7.204  71.722  1.00  0.00    -0.223 OA 
ENDBRANCH  13  14
BRANCH  13  17
HETATM   17  C   UNL     1      -9.855   5.673  69.838  1.00  0.00    -0.250 C  
HETATM   18  C   UNL     1      -9.658   4.177  70.045  1.00  0.00    -0.274 C  
ENDBRANCH  13  17
ENDBRANCH  11  13
ENDBRANCH  10  11
ENDBRANCH   9  10
ENDBRANCH   7   9
ENDBRANCH   3   7
ENDBRANCH   2   3
TORSDOF 9
ENDMDL
MODEL      249
REMARK 921   NORMALIZED FREE ENERGY PREDICTED BY IDOCK:   -2.58 KCAL/MOL
REMARK 922        TOTAL FREE ENERGY PREDICTED BY IDOCK:   -4.34 KCAL/MOL
REMARK 923 INTER-LIGAND FREE ENERGY PREDICTED BY IDOCK:   -4.10 KCAL/MOL
REMARK 924 INTRA-LIGAND FREE ENERGY PREDICTED BY IDOCK:   -0.24 KCAL/MOL
REMARK 927      BINDING AFFINITY PREDICTED BY RF-SCORE:    0.00 PKD
ROOT
HETATM    1  C   UNL     1      -6.227  16.810  69.642  1.00  0.00    -0.228 C  
HETATM    2  C   UNL     1      -6.981  16.569  68.342  1.00  0.00    -0.150 C  
ENDROOT
BRANCH   2   3
HETATM    3  CA  UNL     1      -7.409  15.100  68.121  1.00  0.00    -0.112 C  
BRANCH   3   4
HETATM    4  C   UNL     1      -6.210  14.113  68.109  1.00  0.00    -0.133 C  
HETATM    5  H   UNL     1      -5.843  12.152  68.330  1.00  0.00     0.000 HD 
HETATM    6  O   UNL     1      -6.576  12.755  68.337  1.00  0.00    -0.071 OA 
ENDBRANCH   3   4
BRANCH   3   7
HETATM    7  N   UNL     1      -8.415  14.812  69.164  1.00  0.00    -0.321 NA 
HETATM    8  H   UNL     1      -8.366  15.501  69.914  1.00  0.00     0.000 HD 
BRANCH   7   9
HETATM    9  C   UNL     1      -9.786  14.706  68.645  1.00  0.00    -0.220 C  
BRANCH   9  10
HETATM   10  C   UNL     1     -10.802  15.198  69.698  1.00  0.00    -0.286 C  
BRANCH  10  11
HETATM   11  N   UNL     1     -12.046  14.411  69.643  1.00  0.00    -0.336 NA 
HETATM   12  H   UNL     1     -11.937  13.596  69.040  1.00  0.00     0.000 HD 
BRANCH  11  13
HETATM   13  CA  UNL     1     -12.537  14.017  70.988  1.00  0.00    -0.366 C  
BRANCH  13  14
HETATM   14  C   UNL     1     -12.782  12.490  71.008  1.00  0.00    -0.225 C  
HETATM   15  H   UNL     1     -13.521  11.151  72.256  1.00  0.00     0.000 HD 
HETATM   16  O   UNL     1     -13.370  12.089  72.244  1.00  0.00    -0.485 OA 
ENDBRANCH  13  14
BRANCH  13  17
HETATM   17  C   UNL     1     -13.798  14.772  71.456  1.00  0.00    -0.529 C  
HETATM   18  C   UNL     1     -13.666  15.473  72.801  1.00  0.00    -0.642 C  
ENDBRANCH  13  17
ENDBRANCH  11  13
ENDBRANCH  10  11
ENDBRANCH   9  10
ENDBRANCH   7   9
ENDBRANCH   3   7
ENDBRANCH   2   3
TORSDOF 9
ENDMDL
MODEL      250
REMARK 921   NORMALIZED FREE ENERGY PREDICTED BY IDOCK:   -2.56 KCAL/MOL
REMARK 922        TOTAL FREE ENERGY PREDICTED BY IDOCK:   -4.32 KCAL/MOL
REMARK 923 INTER-LIGAND FREE ENERGY PREDICTED BY IDOCK:   -3.97 KCAL/MOL
REMARK 924 INTRA-LIGAND FREE ENERGY PREDICTED BY IDOCK:   -0.35 KCAL/MOL
REMARK 927      BINDING AFFINITY PREDICTED BY RF-SCORE:    0.00 PKD
ROOT
HETATM    1  C   UNL     1     -12.278   6.803  71.556  1.00  0.00    -0.413 C  
HETATM    2  C   UNL     1     -11.649   6.552  70.192  1.00  0.00    -0.466 C  
ENDROOT
BRANCH   2   3
HETATM    3  CA  UNL     1     -10.453   7.477  69.866  1.00  0.00    -0.229 C  
BRANCH   3   4
HETATM    4  C   UNL     1      -9.417   7.560  71.020  1.00  0.00    -0.160 C  
HETATM    5  H   UNL     1      -8.554   8.933  72.202  1.00  0.00     0.000 HD 
HETATM    6  O   UNL     1      -9.188   8.883  71.496  1.00  0.00    -0.243 OA 
ENDBRANCH   3   4
BRANCH   3   7
HETATM    7  N   UNL     1      -9.896   6.981  68.591  1.00  0.00    -0.145 NA 
HETATM    8  H   UNL     1     -10.635   6.611  67.994  1.00  0.00     0.000 HD 
BRANCH   7   9
HETATM    9  C   UNL     1      -9.098   7.984  67.870  1.00  0.00    -0.132 C  
BRANCH   9  10
HETATM   10  C   UNL     1     -10.015   9.064  67.256  1.00  0.00    -0.216 C  
BRANCH  10  11
HETATM   11  N   UNL     1      -9.848   9.134  65.794  1.00  0.00    -0.444 NA 
HETATM   12  H   UNL     1     -10.359   8.381  65.331  1.00  0.00     0.000 HD 
BRANCH  11  13
HETATM   13  CA  UNL     1     -10.227  10.456  65.234  1.00  0.00    -0.262 C  
BRANCH  13  14
HETATM   14  C   UNL     1      -9.227  10.836  64.118  1.00  0.00    -0.224 C  
HETATM   15  H   UNL     1      -9.302  11.387  62.224  1.00  0.00     0.000 HD 
HETATM   16  O   UNL     1      -9.916  11.154  62.910  1.00  0.00    -0.300 OA 
ENDBRANCH  13  14
BRANCH  13  17
HETATM   17  C   UNL     1     -10.324  11.588  66.278  1.00  0.00    -0.280 C  
HETATM   18  C   UNL     1     -11.592  12.427  66.199  1.00  0.00    -0.452 C  
ENDBRANCH  13  17
ENDBRANCH  11  13
ENDBRANCH  10  11
ENDBRANCH   9  10
ENDBRANCH   7   9
ENDBRANCH   3   7
ENDBRANCH   2   3
TORSDOF 9
ENDMDL
MODEL      251
REMARK 921   NORMALIZED FREE ENERGY PREDICTED BY IDOCK:   -2.55 KCAL/MOL
REMARK 922        TOTAL FREE ENERGY PREDICTED BY IDOCK:   -4.30 KCAL/MOL
REMARK 923 INTER-LIGAND FREE ENERGY PREDICTED BY IDOCK:   -4.02 KCAL/MOL
REMARK 924 INTRA-LIGAND FREE ENERGY PREDICTED BY IDOCK:   -0.28 KCAL/MOL
REMARK 927      BINDING AFFINITY PREDICTED BY RF-SCORE:    0.00 PKD
ROOT
HETATM    1  C   UNL     1      -7.768  10.133  63.913  1.00  0.00    -0.140 C  
HETATM    2  C   UNL     1      -8.934   9.436  64.601  1.00  0.00    -0.233 C  
ENDROOT
BRANCH   2   3
HETATM    3  CA  UNL     1      -9.960  10.400  65.240  1.00  0.00    -0.309 C  
BRANCH   3   4
HETATM    4  C   UNL     1     -10.301  10.036  66.711  1.00  0.00    -0.217 C  
HETATM    5  H   UNL     1     -10.769   8.428  67.818  1.00  0.00     0.000 HD 
HETATM    6  O   UNL     1     -10.561   8.651  66.918  1.00  0.00    -0.287 OA 
ENDBRANCH   3   4
BRANCH   3   7
HETATM    7  N   UNL     1      -9.398  11.756  65.071  1.00  0.00    -0.431 NA 
HETATM    8  H   UNL     1      -8.880  11.826  64.195  1.00  0.00     0.000 HD 
BRANCH   7   9
HETATM    9  C   UNL     1     -10.404  12.824  65.166  1.00  0.00    -0.295 C  
BRANCH   9  10
HETATM   10  C   UNL     1     -10.078  13.771  66.342  1.00  0.00    -0.295 C  
BRANCH  10  11
HETATM   11  N   UNL     1      -9.230  14.892  65.901  1.00  0.00    -0.502 NA 
HETATM   12  H   UNL     1      -9.482  15.192  64.959  1.00  0.00     0.000 HD 
BRANCH  11  13
HETATM   13  CA  UNL     1      -9.252  16.036  66.848  1.00  0.00    -0.224 C  
BRANCH  13  14
HETATM   14  C   UNL     1      -9.038  15.506  68.285  1.00  0.00    -0.186 C  
HETATM   15  H   UNL     1      -7.908  15.944  69.843  1.00  0.00     0.000 HD 
HETATM   16  O   UNL     1      -8.040  16.270  68.960  1.00  0.00    -0.224 OA 
ENDBRANCH  13  14
BRANCH  13  17
HETATM   17  C   UNL     1     -10.528  16.900  66.777  1.00  0.00    -0.260 C  
HETATM   18  C   UNL     1     -10.320  18.380  67.071  1.00  0.00    -0.419 C  
ENDBRANCH  13  17
ENDBRANCH  11  13
ENDBRANCH  10  11
ENDBRANCH   9  10
ENDBRANCH   7   9
ENDBRANCH   3   7
ENDBRANCH   2   3
TORSDOF 9
ENDMDL
MODEL      252
REMARK 921   NORMALIZED FREE ENERGY PREDICTED BY IDOCK:   -2.54 KCAL/MOL
REMARK 922        TOTAL FREE ENERGY PREDICTED BY IDOCK:   -4.29 KCAL/MOL
REMARK 923 INTER-LIGAND FREE ENERGY PREDICTED BY IDOCK:   -3.63 KCAL/MOL
REMARK 924 INTRA-LIGAND FREE ENERGY PREDICTED BY IDOCK:   -0.66 KCAL/MOL
REMARK 927      BINDING AFFINITY PREDICTED BY RF-SCORE:    0.00 PKD
ROOT
HETATM    1  C   UNL     1      -8.893   8.453  66.769  1.00  0.00    -0.156 C  
HETATM    2  C   UNL     1     -10.337   7.991  66.909  1.00  0.00    -0.408 C  
ENDROOT
BRANCH   2   3
HETATM    3  CA  UNL     1     -10.500   6.623  67.612  1.00  0.00    -0.227 C  
BRANCH   3   4
HETATM    4  C   UNL     1      -9.162   6.062  68.166  1.00  0.00    -0.116 C  
HETATM    5  H   UNL     1      -7.816   4.632  67.750  1.00  0.00     0.000 HD 
HETATM    6  O   UNL     1      -8.634   4.975  67.411  1.00  0.00    -0.106 OA 
ENDBRANCH   3   4
BRANCH   3   7
HETATM    7  N   UNL     1     -11.542   6.819  68.640  1.00  0.00    -0.431 NA 
HETATM    8  H   UNL     1     -12.454   6.525  68.291  1.00  0.00     0.000 HD 
BRANCH   7   9
HETATM    9  C   UNL     1     -11.237   6.159  69.918  1.00  0.00    -0.414 C  
BRANCH   9  10
HETATM   10  C   UNL     1     -12.115   6.739  71.049  1.00  0.00    -0.372 C  
BRANCH  10  11
HETATM   11  N   UNL     1     -11.320   6.986  72.264  1.00  0.00    -0.260 NA 
HETATM   12  H   UNL     1     -11.413   6.214  72.924  1.00  0.00     0.000 HD 
BRANCH  11  13
HETATM   13  CA  UNL     1      -9.892   7.267  71.971  1.00  0.00    -0.161 C  
BRANCH  13  14
HETATM   14  C   UNL     1      -9.014   6.598  73.054  1.00  0.00    -0.127 C  
HETATM   15  H   UNL     1      -8.049   7.146  74.687  1.00  0.00     0.000 HD 
HETATM   16  O   UNL     1      -8.589   7.557  74.021  1.00  0.00    -0.185 OA 
ENDBRANCH  13  14
BRANCH  13  17
HETATM   17  C   UNL     1      -9.547   8.765  71.846  1.00  0.00    -0.372 C  
HETATM   18  C   UNL     1      -9.419   9.279  70.418  1.00  0.00    -0.292 C  
ENDBRANCH  13  17
ENDBRANCH  11  13
ENDBRANCH  10  11
ENDBRANCH   9  10
ENDBRANCH   7   9
ENDBRANCH   3   7
ENDBRANCH   2   3
TORSDOF 9
ENDMDL
MODEL      253
REMARK 921   NORMALIZED FREE ENERGY PREDICTED BY IDOCK:   -2.54 KCAL/MOL
REMARK 922        TOTAL FREE ENERGY PREDICTED BY IDOCK:   -4.28 KCAL/MOL
REMARK 923 INTER-LIGAND FREE ENERGY PREDICTED BY IDOCK:   -3.89 KCAL/MOL
REMARK 924 INTRA-LIGAND FREE ENERGY PREDICTED BY IDOCK:   -0.39 KCAL/MOL
REMARK 927      BINDING AFFINITY PREDICTED BY RF-SCORE:    0.00 PKD
ROOT
HETATM    1  C   UNL     1     -12.785  15.344  70.873  1.00  0.00    -0.520 C  
HETATM    2  C   UNL     1     -11.475  15.812  70.255  1.00  0.00    -0.369 C  
ENDROOT
BRANCH   2   3
HETATM    3  CA  UNL     1     -11.147  15.156  68.893  1.00  0.00    -0.270 C  
BRANCH   3   4
HETATM    4  C   UNL     1     -10.912  16.192  67.760  1.00  0.00    -0.293 C  
HETATM    5  H   UNL     1     -10.699  18.174  67.522  1.00  0.00     0.000 HD 
HETATM    6  O   UNL     1     -10.843  17.540  68.215  1.00  0.00    -0.338 OA 
ENDBRANCH   3   4
BRANCH   3   7
HETATM    7  N   UNL     1      -9.995  14.265  69.142  1.00  0.00    -0.422 NA 
HETATM    8  H   UNL     1     -10.192  13.320  68.814  1.00  0.00     0.000 HD 
BRANCH   7   9
HETATM    9  C   UNL     1      -8.735  14.762  68.571  1.00  0.00    -0.174 C  
BRANCH   9  10
HETATM   10  C   UNL     1      -8.174  13.756  67.542  1.00  0.00    -0.188 C  
BRANCH  10  11
HETATM   11  N   UNL     1      -9.231  12.855  67.050  1.00  0.00    -0.220 NA 
HETATM   12  H   UNL     1      -9.505  13.100  66.098  1.00  0.00     0.000 HD 
BRANCH  11  13
HETATM   13  CA  UNL     1      -8.855  11.422  67.144  1.00  0.00    -0.156 C  
BRANCH  13  14
HETATM   14  C   UNL     1      -8.907  10.793  65.732  1.00  0.00    -0.188 C  
HETATM   15  H   UNL     1      -9.764  11.183  63.997  1.00  0.00     0.000 HD 
HETATM   16  O   UNL     1      -9.732  11.569  64.865  1.00  0.00    -0.245 OA 
ENDBRANCH  13  14
BRANCH  13  17
HETATM   17  C   UNL     1      -9.709  10.601  68.132  1.00  0.00    -0.167 C  
HETATM   18  C   UNL     1     -10.475   9.442  67.509  1.00  0.00    -0.343 C  
ENDBRANCH  13  17
ENDBRANCH  11  13
ENDBRANCH  10  11
ENDBRANCH   9  10
ENDBRANCH   7   9
ENDBRANCH   3   7
ENDBRANCH   2   3
TORSDOF 9
ENDMDL
MODEL      254
REMARK 921   NORMALIZED FREE ENERGY PREDICTED BY IDOCK:   -2.52 KCAL/MOL
REMARK 922        TOTAL FREE ENERGY PREDICTED BY IDOCK:   -4.26 KCAL/MOL
REMARK 923 INTER-LIGAND FREE ENERGY PREDICTED BY IDOCK:   -4.09 KCAL/MOL
REMARK 924 INTRA-LIGAND FREE ENERGY PREDICTED BY IDOCK:   -0.17 KCAL/MOL
REMARK 927      BINDING AFFINITY PREDICTED BY RF-SCORE:    0.00 PKD
ROOT
HETATM    1  C   UNL     1     -10.285   8.155  67.405  1.00  0.00    -0.327 C  
HETATM    2  C   UNL     1     -10.092   9.263  68.431  1.00  0.00    -0.215 C  
ENDROOT
BRANCH   2   3
HETATM    3  CA  UNL     1     -11.409   9.799  69.039  1.00  0.00     0.035 C  
BRANCH   3   4
HETATM    4  C   UNL     1     -11.274  10.184  70.538  1.00  0.00    -0.336 C  
HETATM    5  H   UNL     1     -12.356  11.029  72.002  1.00  0.00     0.000 HD 
HETATM    6  O   UNL     1     -12.439  10.794  71.085  1.00  0.00    -0.354 OA 
ENDBRANCH   3   4
BRANCH   3   7
HETATM    7  N   UNL     1     -11.831  10.914  68.167  1.00  0.00    -0.753 NA 
HETATM    8  H   UNL     1     -12.677  11.355  68.528  1.00  0.00     0.000 HD 
BRANCH   7   9
HETATM    9  C   UNL     1     -10.778  11.916  67.945  1.00  0.00    -0.204 C  
BRANCH   9  10
HETATM   10  C   UNL     1     -10.592  12.179  66.434  1.00  0.00    -0.241 C  
BRANCH  10  11
HETATM   11  N   UNL     1     -11.258  11.141  65.629  1.00  0.00    -0.015 NA 
HETATM   12  H   UNL     1     -12.243  11.366  65.485  1.00  0.00     0.000 HD 
BRANCH  11  13
HETATM   13  CA  UNL     1     -10.574  10.890  64.335  1.00  0.00    -0.273 C  
BRANCH  13  14
HETATM   14  C   UNL     1      -9.054  10.758  64.585  1.00  0.00    -0.201 C  
HETATM   15  H   UNL     1      -7.771   9.324  65.025  1.00  0.00     0.000 HD 
HETATM   16  O   UNL     1      -8.705   9.405  64.872  1.00  0.00    -0.168 OA 
ENDBRANCH  13  14
BRANCH  13  17
HETATM   17  C   UNL     1     -10.853  11.949  63.249  1.00  0.00    -0.408 C  
HETATM   18  C   UNL     1     -11.995  12.906  63.562  1.00  0.00    -0.629 C  
ENDBRANCH  13  17
ENDBRANCH  11  13
ENDBRANCH  10  11
ENDBRANCH   9  10
ENDBRANCH   7   9
ENDBRANCH   3   7
ENDBRANCH   2   3
TORSDOF 9
ENDMDL
MODEL      255
REMARK 921   NORMALIZED FREE ENERGY PREDICTED BY IDOCK:   -2.52 KCAL/MOL
REMARK 922        TOTAL FREE ENERGY PREDICTED BY IDOCK:   -4.25 KCAL/MOL
REMARK 923 INTER-LIGAND FREE ENERGY PREDICTED BY IDOCK:   -3.89 KCAL/MOL
REMARK 924 INTRA-LIGAND FREE ENERGY PREDICTED BY IDOCK:   -0.36 KCAL/MOL
REMARK 927      BINDING AFFINITY PREDICTED BY RF-SCORE:    0.00 PKD
ROOT
HETATM    1  C   UNL     1     -13.041  11.931  72.054  1.00  0.00    -0.441 C  
HETATM    2  C   UNL     1     -13.040  10.468  71.633  1.00  0.00    -0.551 C  
ENDROOT
BRANCH   2   3
HETATM    3  CA  UNL     1     -11.632   9.830  71.563  1.00  0.00    -0.353 C  
BRANCH   3   4
HETATM    4  C   UNL     1     -11.671   8.279  71.492  1.00  0.00    -0.292 C  
HETATM    5  H   UNL     1     -13.010   6.787  71.399  1.00  0.00     0.000 HD 
HETATM    6  O   UNL     1     -12.986   7.736  71.443  1.00  0.00    -0.328 OA 
ENDBRANCH   3   4
BRANCH   3   7
HETATM    7  N   UNL     1     -10.957  10.469  70.415  1.00  0.00    -0.436 NA 
HETATM    8  H   UNL     1     -10.006  10.114  70.312  1.00  0.00     0.000 HD 
BRANCH   7   9
HETATM    9  C   UNL     1     -11.699  10.339  69.152  1.00  0.00    -0.037 C  
BRANCH   9  10
HETATM   10  C   UNL     1     -10.921  11.008  67.998  1.00  0.00    -0.258 C  
BRANCH  10  11
HETATM   11  N   UNL     1     -10.465  12.357  68.376  1.00  0.00    -0.230 NA 
HETATM   12  H   UNL     1     -10.350  12.434  69.386  1.00  0.00     0.000 HD 
BRANCH  11  13
HETATM   13  CA  UNL     1      -9.226  12.766  67.666  1.00  0.00    -0.192 C  
BRANCH  13  14
HETATM   14  C   UNL     1      -9.436  12.590  66.144  1.00  0.00    -0.184 C  
HETATM   15  H   UNL     1     -10.109  13.668  64.634  1.00  0.00     0.000 HD 
HETATM   16  O   UNL     1      -9.981  13.777  65.569  1.00  0.00    -0.292 OA 
ENDBRANCH  13  14
BRANCH  13  17
HETATM   17  C   UNL     1      -7.954  12.025  68.124  1.00  0.00    -0.152 C  
HETATM   18  C   UNL     1      -7.066  11.515  66.997  1.00  0.00    -0.147 C  
ENDBRANCH  13  17
ENDBRANCH  11  13
ENDBRANCH  10  11
ENDBRANCH   9  10
ENDBRANCH   7   9
ENDBRANCH   3   7
ENDBRANCH   2   3
TORSDOF 9
ENDMDL
MODEL      256
REMARK 921   NORMALIZED FREE ENERGY PREDICTED BY IDOCK:   -2.51 KCAL/MOL
REMARK 922        TOTAL FREE ENERGY PREDICTED BY IDOCK:   -4.24 KCAL/MOL
REMARK 923 INTER-LIGAND FREE ENERGY PREDICTED BY IDOCK:   -3.93 KCAL/MOL
REMARK 924 INTRA-LIGAND FREE ENERGY PREDICTED BY IDOCK:   -0.31 KCAL/MOL
REMARK 927      BINDING AFFINITY PREDICTED BY RF-SCORE:    0.00 PKD
ROOT
HETATM    1  C   UNL     1     -11.697  12.259  67.033  1.00  0.00    -0.399 C  
HETATM    2  C   UNL     1     -10.993  10.992  67.499  1.00  0.00    -0.338 C  
ENDROOT
BRANCH   2   3
HETATM    3  CA  UNL     1     -11.117  10.720  69.016  1.00  0.00    -0.253 C  
BRANCH   3   4
HETATM    4  C   UNL     1     -12.485  11.163  69.603  1.00  0.00    -0.128 C  
HETATM    5  H   UNL     1     -13.239  12.554  70.838  1.00  0.00     0.000 HD 
HETATM    6  O   UNL     1     -12.402  12.283  70.479  1.00  0.00    -0.329 OA 
ENDBRANCH   3   4
BRANCH   3   7
HETATM    7  N   UNL     1     -10.823   9.283  69.193  1.00  0.00    -0.375 NA 
HETATM    8  H   UNL     1     -11.150   8.746  68.390  1.00  0.00     0.000 HD 
BRANCH   7   9
HETATM    9  C   UNL     1      -9.406   9.002  69.464  1.00  0.00    -0.160 C  
BRANCH   9  10
HETATM   10  C   UNL     1      -9.148   8.943  70.986  1.00  0.00    -0.243 C  
BRANCH  10  11
HETATM   11  N   UNL     1     -10.412   9.000  71.741  1.00  0.00    -0.354 NA 
HETATM   12  H   UNL     1     -11.214   9.016  71.111  1.00  0.00     0.000 HD 
BRANCH  11  13
HETATM   13  CA  UNL     1     -10.537   7.904  72.735  1.00  0.00    -0.353 C  
BRANCH  13  14
HETATM   14  C   UNL     1      -9.130   7.345  73.050  1.00  0.00    -0.155 C  
HETATM   15  H   UNL     1      -7.814   7.460  74.516  1.00  0.00     0.000 HD 
HETATM   16  O   UNL     1      -8.679   7.803  74.323  1.00  0.00    -0.245 OA 
ENDBRANCH  13  14
BRANCH  13  17
HETATM   17  C   UNL     1     -11.488   6.765  72.314  1.00  0.00    -0.314 C  
HETATM   18  C   UNL     1     -10.853   5.382  72.267  1.00  0.00    -0.286 C  
ENDBRANCH  13  17
ENDBRANCH  11  13
ENDBRANCH  10  11
ENDBRANCH   9  10
ENDBRANCH   7   9
ENDBRANCH   3   7
ENDBRANCH   2   3
TORSDOF 9
ENDMDL
MODEL      257
REMARK 921   NORMALIZED FREE ENERGY PREDICTED BY IDOCK:   -2.51 KCAL/MOL
REMARK 922        TOTAL FREE ENERGY PREDICTED BY IDOCK:   -4.24 KCAL/MOL
REMARK 923 INTER-LIGAND FREE ENERGY PREDICTED BY IDOCK:   -3.89 KCAL/MOL
REMARK 924 INTRA-LIGAND FREE ENERGY PREDICTED BY IDOCK:   -0.35 KCAL/MOL
REMARK 927      BINDING AFFINITY PREDICTED BY RF-SCORE:    0.00 PKD
ROOT
HETATM    1  C   UNL     1      -8.074  16.691  66.342  1.00  0.00    -0.359 C  
HETATM    2  C   UNL     1      -9.517  16.797  65.869  1.00  0.00    -0.185 C  
ENDROOT
BRANCH   2   3
HETATM    3  CA  UNL     1     -10.376  15.547  66.170  1.00  0.00    -0.315 C  
BRANCH   3   4
HETATM    4  C   UNL     1     -11.465  15.803  67.247  1.00  0.00     0.032 C  
HETATM    5  H   UNL     1     -11.947  17.167  68.639  1.00  0.00     0.000 HD 
HETATM    6  O   UNL     1     -11.281  17.011  67.980  1.00  0.00    -0.251 OA 
ENDBRANCH   3   4
BRANCH   3   7
HETATM    7  N   UNL     1     -10.912  15.103  64.867  1.00  0.00    -0.489 NA 
HETATM    8  H   UNL     1     -10.228  14.532  64.370  1.00  0.00     0.000 HD 
BRANCH   7   9
HETATM    9  C   UNL     1     -12.198  14.399  64.970  1.00  0.00    -0.414 C  
BRANCH   9  10
HETATM   10  C   UNL     1     -12.169  13.095  64.143  1.00  0.00    -0.398 C  
BRANCH  10  11
HETATM   11  N   UNL     1     -11.634  11.975  64.937  1.00  0.00    -0.304 NA 
HETATM   12  H   UNL     1     -12.167  11.121  64.769  1.00  0.00     0.000 HD 
BRANCH  11  13
HETATM   13  CA  UNL     1     -10.184  11.749  64.709  1.00  0.00    -0.282 C  
BRANCH  13  14
HETATM   14  C   UNL     1     -10.006  10.626  63.662  1.00  0.00    -0.301 C  
HETATM   15  H   UNL     1      -9.533  10.480  61.751  1.00  0.00     0.000 HD 
HETATM   16  O   UNL     1      -9.642  11.171  62.394  1.00  0.00    -0.201 OA 
ENDBRANCH  13  14
BRANCH  13  17
HETATM   17  C   UNL     1      -9.379  11.429  65.985  1.00  0.00    -0.235 C  
HETATM   18  C   UNL     1      -9.078   9.952  66.202  1.00  0.00    -0.193 C  
ENDBRANCH  13  17
ENDBRANCH  11  13
ENDBRANCH  10  11
ENDBRANCH   9  10
ENDBRANCH   7   9
ENDBRANCH   3   7
ENDBRANCH   2   3
TORSDOF 9
ENDMDL
MODEL      258
REMARK 921   NORMALIZED FREE ENERGY PREDICTED BY IDOCK:   -2.48 KCAL/MOL
REMARK 922        TOTAL FREE ENERGY PREDICTED BY IDOCK:   -4.19 KCAL/MOL
REMARK 923 INTER-LIGAND FREE ENERGY PREDICTED BY IDOCK:   -3.89 KCAL/MOL
REMARK 924 INTRA-LIGAND FREE ENERGY PREDICTED BY IDOCK:   -0.30 KCAL/MOL
REMARK 927      BINDING AFFINITY PREDICTED BY RF-SCORE:    0.00 PKD
ROOT
HETATM    1  C   UNL     1     -10.290   4.661  66.136  1.00  0.00    -0.310 C  
HETATM    2  C   UNL     1     -10.112   6.151  66.397  1.00  0.00    -0.119 C  
ENDROOT
BRANCH   2   3
HETATM    3  CA  UNL     1     -11.002   6.704  67.534  1.00  0.00    -0.338 C  
BRANCH   3   4
HETATM    4  C   UNL     1     -10.388   6.490  68.945  1.00  0.00    -0.196 C  
HETATM    5  H   UNL     1     -10.853   5.628  70.698  1.00  0.00     0.000 HD 
HETATM    6  O   UNL     1     -11.228   5.760  69.835  1.00  0.00    -0.346 OA 
ENDBRANCH   3   4
BRANCH   3   7
HETATM    7  N   UNL     1     -11.252   8.121  67.197  1.00  0.00    -0.111 NA 
HETATM    8  H   UNL     1     -12.121   8.445  67.622  1.00  0.00     0.000 HD 
BRANCH   7   9
HETATM    9  C   UNL     1     -10.138   9.014  67.546  1.00  0.00    -0.228 C  
BRANCH   9  10
HETATM   10  C   UNL     1     -10.298  10.379  66.842  1.00  0.00    -0.240 C  
BRANCH  10  11
HETATM   11  N   UNL     1     -11.137  11.292  67.639  1.00  0.00    -0.257 NA 
HETATM   12  H   UNL     1     -10.627  11.640  68.452  1.00  0.00     0.000 HD 
BRANCH  11  13
HETATM   13  CA  UNL     1     -11.688  12.413  66.836  1.00  0.00    -0.362 C  
BRANCH  13  14
HETATM   14  C   UNL     1     -11.252  12.241  65.363  1.00  0.00    -0.328 C  
HETATM   15  H   UNL     1     -12.111  12.217  63.586  1.00  0.00     0.000 HD 
HETATM   16  O   UNL     1     -12.379  12.323  64.491  1.00  0.00    -0.420 OA 
ENDBRANCH  13  14
BRANCH  13  17
HETATM   17  C   UNL     1     -11.306  13.816  67.351  1.00  0.00    -0.348 C  
HETATM   18  C   UNL     1     -10.920  13.877  68.823  1.00  0.00    -0.286 C  
ENDBRANCH  13  17
ENDBRANCH  11  13
ENDBRANCH  10  11
ENDBRANCH   9  10
ENDBRANCH   7   9
ENDBRANCH   3   7
ENDBRANCH   2   3
TORSDOF 9
ENDMDL
MODEL      259
REMARK 921   NORMALIZED FREE ENERGY PREDICTED BY IDOCK:   -2.47 KCAL/MOL
REMARK 922        TOTAL FREE ENERGY PREDICTED BY IDOCK:   -4.18 KCAL/MOL
REMARK 923 INTER-LIGAND FREE ENERGY PREDICTED BY IDOCK:   -3.80 KCAL/MOL
REMARK 924 INTRA-LIGAND FREE ENERGY PREDICTED BY IDOCK:   -0.38 KCAL/MOL
REMARK 927      BINDING AFFINITY PREDICTED BY RF-SCORE:    0.00 PKD
ROOT
HETATM    1  C   UNL     1     -10.460   8.650  68.419  1.00  0.00    -0.220 C  
HETATM    2  C   UNL     1     -10.391   8.131  66.989  1.00  0.00    -0.403 C  
ENDROOT
BRANCH   2   3
HETATM    3  CA  UNL     1      -8.963   8.098  66.397  1.00  0.00    -0.171 C  
BRANCH   3   4
HETATM    4  C   UNL     1      -8.762   6.961  65.358  1.00  0.00     0.028 C  
HETATM    5  H   UNL     1      -9.031   4.978  65.192  1.00  0.00     0.000 HD 
HETATM    6  O   UNL     1      -9.153   5.674  65.827  1.00  0.00    -0.159 OA 
ENDBRANCH   3   4
BRANCH   3   7
HETATM    7  N   UNL     1      -8.717   9.453  65.861  1.00  0.00    -0.146 NA 
HETATM    8  H   UNL     1      -7.787   9.513  65.445  1.00  0.00     0.000 HD 
BRANCH   7   9
HETATM    9  C   UNL     1      -9.742   9.902  64.908  1.00  0.00    -0.262 C  
BRANCH   9  10
HETATM   10  C   UNL     1     -10.108  11.380  65.166  1.00  0.00    -0.271 C  
BRANCH  10  11
HETATM   11  N   UNL     1     -11.230  11.492  66.115  1.00  0.00    -0.254 NA 
HETATM   12  H   UNL     1     -11.046  10.955  66.963  1.00  0.00     0.000 HD 
BRANCH  11  13
HETATM   13  CA  UNL     1     -11.570  12.900  66.439  1.00  0.00    -0.371 C  
BRANCH  13  14
HETATM   14  C   UNL     1     -11.840  13.016  67.957  1.00  0.00    -0.347 C  
HETATM   15  H   UNL     1     -12.294  14.438  69.249  1.00  0.00     0.000 HD 
HETATM   16  O   UNL     1     -12.128  14.367  68.317  1.00  0.00    -0.309 OA 
ENDBRANCH  13  14
BRANCH  13  17
HETATM   17  C   UNL     1     -12.756  13.473  65.636  1.00  0.00    -0.478 C  
HETATM   18  C   UNL     1     -12.370  14.422  64.509  1.00  0.00    -0.440 C  
ENDBRANCH  13  17
ENDBRANCH  11  13
ENDBRANCH  10  11
ENDBRANCH   9  10
ENDBRANCH   7   9
ENDBRANCH   3   7
ENDBRANCH   2   3
TORSDOF 9
ENDMDL
MODEL      260
REMARK 921   NORMALIZED FREE ENERGY PREDICTED BY IDOCK:   -2.46 KCAL/MOL
REMARK 922        TOTAL FREE ENERGY PREDICTED BY IDOCK:   -4.17 KCAL/MOL
REMARK 923 INTER-LIGAND FREE ENERGY PREDICTED BY IDOCK:   -3.86 KCAL/MOL
REMARK 924 INTRA-LIGAND FREE ENERGY PREDICTED BY IDOCK:   -0.31 KCAL/MOL
REMARK 927      BINDING AFFINITY PREDICTED BY RF-SCORE:    0.00 PKD
ROOT
HETATM    1  C   UNL     1      -8.034   8.552  67.574  1.00  0.00    -0.106 C  
HETATM    2  C   UNL     1      -7.899   7.071  67.248  1.00  0.00    -0.110 C  
ENDROOT
BRANCH   2   3
HETATM    3  CA  UNL     1      -9.220   6.395  66.813  1.00  0.00    -0.142 C  
BRANCH   3   4
HETATM    4  C   UNL     1      -9.025   5.350  65.681  1.00  0.00    -0.156 C  
HETATM    5  H   UNL     1     -10.044   3.887  64.759  1.00  0.00     0.000 HD 
HETATM    6  O   UNL     1     -10.164   4.526  65.452  1.00  0.00    -0.223 OA 
ENDBRANCH   3   4
BRANCH   3   7
HETATM    7  N   UNL     1      -9.815   5.841  68.047  1.00  0.00    -0.124 NA 
HETATM    8  H   UNL     1      -9.120   5.791  68.791  1.00  0.00     0.000 HD 
BRANCH   7   9
HETATM    9  C   UNL     1     -11.010   6.568  68.499  1.00  0.00    -0.286 C  
BRANCH   9  10
HETATM   10  C   UNL     1     -11.345   6.200  69.961  1.00  0.00    -0.373 C  
BRANCH  10  11
HETATM   11  N   UNL     1     -12.315   7.146  70.539  1.00  0.00    -0.607 NA 
HETATM   12  H   UNL     1     -12.872   6.699  71.268  1.00  0.00     0.000 HD 
BRANCH  11  13
HETATM   13  CA  UNL     1     -11.676   8.388  71.043  1.00  0.00    -0.267 C  
BRANCH  13  14
HETATM   14  C   UNL     1     -11.206   8.158  72.498  1.00  0.00    -0.391 C  
HETATM   15  H   UNL     1      -9.605   8.543  73.587  1.00  0.00     0.000 HD 
HETATM   16  O   UNL     1      -9.894   8.684  72.693  1.00  0.00    -0.250 OA 
ENDBRANCH  13  14
BRANCH  13  17
HETATM   17  C   UNL     1     -12.566   9.645  70.956  1.00  0.00    -0.367 C  
HETATM   18  C   UNL     1     -11.849  10.911  70.509  1.00  0.00    -0.457 C  
ENDBRANCH  13  17
ENDBRANCH  11  13
ENDBRANCH  10  11
ENDBRANCH   9  10
ENDBRANCH   7   9
ENDBRANCH   3   7
ENDBRANCH   2   3
TORSDOF 9
ENDMDL
MODEL      261
REMARK 921   NORMALIZED FREE ENERGY PREDICTED BY IDOCK:   -2.46 KCAL/MOL
REMARK 922        TOTAL FREE ENERGY PREDICTED BY IDOCK:   -4.17 KCAL/MOL
REMARK 923 INTER-LIGAND FREE ENERGY PREDICTED BY IDOCK:   -3.79 KCAL/MOL
REMARK 924 INTRA-LIGAND FREE ENERGY PREDICTED BY IDOCK:   -0.38 KCAL/MOL
REMARK 927      BINDING AFFINITY PREDICTED BY RF-SCORE:    0.00 PKD
ROOT
HETATM    1  C   UNL     1      -9.375   7.064  72.875  1.00  0.00    -0.165 C  
HETATM    2  C   UNL     1     -10.620   7.938  72.818  1.00  0.00    -0.418 C  
ENDROOT
BRANCH   2   3
HETATM    3  CA  UNL     1     -11.147   8.196  71.387  1.00  0.00    -0.247 C  
BRANCH   3   4
HETATM    4  C   UNL     1     -12.123   7.095  70.891  1.00  0.00    -0.326 C  
HETATM    5  H   UNL     1     -12.240   5.687  69.465  1.00  0.00     0.000 HD 
HETATM    6  O   UNL     1     -11.643   6.361  69.768  1.00  0.00    -0.431 OA 
ENDBRANCH   3   4
BRANCH   3   7
HETATM    7  N   UNL     1     -11.733   9.552  71.412  1.00  0.00    -0.365 NA 
HETATM    8  H   UNL     1     -11.384  10.082  72.211  1.00  0.00     0.000 HD 
BRANCH   7   9
HETATM    9  C   UNL     1     -11.531  10.302  70.164  1.00  0.00    -0.309 C  
BRANCH   9  10
HETATM   10  C   UNL     1     -10.107  10.064  69.615  1.00  0.00    -0.236 C  
BRANCH  10  11
HETATM   11  N   UNL     1      -9.617  11.243  68.881  1.00  0.00    -0.360 NA 
HETATM   12  H   UNL     1      -9.086  11.862  69.496  1.00  0.00     0.000 HD 
BRANCH  11  13
HETATM   13  CA  UNL     1      -8.826  10.884  67.677  1.00  0.00    -0.133 C  
BRANCH  13  14
HETATM   14  C   UNL     1      -7.485  11.653  67.707  1.00  0.00    -0.111 C  
HETATM   15  H   UNL     1      -6.610  13.008  68.844  1.00  0.00     0.000 HD 
HETATM   16  O   UNL     1      -7.435  12.536  68.826  1.00  0.00    -0.108 OA 
ENDBRANCH  13  14
BRANCH  13  17
HETATM   17  C   UNL     1      -9.555  11.123  66.339  1.00  0.00    -0.227 C  
HETATM   18  C   UNL     1      -9.652   9.903  65.433  1.00  0.00    -0.350 C  
ENDBRANCH  13  17
ENDBRANCH  11  13
ENDBRANCH  10  11
ENDBRANCH   9  10
ENDBRANCH   7   9
ENDBRANCH   3   7
ENDBRANCH   2   3
TORSDOF 9
ENDMDL
MODEL      262
REMARK 921   NORMALIZED FREE ENERGY PREDICTED BY IDOCK:   -2.46 KCAL/MOL
REMARK 922        TOTAL FREE ENERGY PREDICTED BY IDOCK:   -4.17 KCAL/MOL
REMARK 923 INTER-LIGAND FREE ENERGY PREDICTED BY IDOCK:   -3.85 KCAL/MOL
REMARK 924 INTRA-LIGAND FREE ENERGY PREDICTED BY IDOCK:   -0.32 KCAL/MOL
REMARK 927      BINDING AFFINITY PREDICTED BY RF-SCORE:    0.00 PKD
ROOT
HETATM    1  C   UNL     1      -8.683   8.219  71.612  1.00  0.00    -0.213 C  
HETATM    2  C   UNL     1      -9.661   9.234  71.037  1.00  0.00    -0.329 C  
ENDROOT
BRANCH   2   3
HETATM    3  CA  UNL     1     -11.081   8.674  70.787  1.00  0.00    -0.255 C  
BRANCH   3   4
HETATM    4  C   UNL     1     -12.077   9.015  71.929  1.00  0.00    -0.378 C  
HETATM    5  H   UNL     1     -14.054   9.206  72.225  1.00  0.00     0.000 HD 
HETATM    6  O   UNL     1     -13.444   8.998  71.526  1.00  0.00    -0.355 OA 
ENDBRANCH   3   4
BRANCH   3   7
HETATM    7  N   UNL     1     -11.487   9.184  69.461  1.00  0.00    -0.419 NA 
HETATM    8  H   UNL     1     -12.260   9.843  69.549  1.00  0.00     0.000 HD 
BRANCH   7   9
HETATM    9  C   UNL     1     -10.382   9.778  68.697  1.00  0.00    -0.201 C  
BRANCH   9  10
HETATM   10  C   UNL     1     -10.436   9.319  67.223  1.00  0.00    -0.264 C  
BRANCH  10  11
HETATM   11  N   UNL     1      -9.674  10.232  66.354  1.00  0.00    -0.191 NA 
HETATM   12  H   UNL     1      -8.678  10.013  66.378  1.00  0.00     0.000 HD 
BRANCH  11  13
HETATM   13  CA  UNL     1     -10.180  10.254  64.958  1.00  0.00    -0.207 C  
BRANCH  13  14
HETATM   14  C   UNL     1      -9.034   9.854  64.000  1.00  0.00    -0.243 C  
HETATM   15  H   UNL     1      -7.119  10.274  63.767  1.00  0.00     0.000 HD 
HETATM   16  O   UNL     1      -7.823  10.520  64.356  1.00  0.00    -0.104 OA 
ENDBRANCH  13  14
BRANCH  13  17
HETATM   17  C   UNL     1     -10.801  11.598  64.524  1.00  0.00    -0.383 C  
HETATM   18  C   UNL     1     -10.520  12.767  65.458  1.00  0.00    -0.306 C  
ENDBRANCH  13  17
ENDBRANCH  11  13
ENDBRANCH  10  11
ENDBRANCH   9  10
ENDBRANCH   7   9
ENDBRANCH   3   7
ENDBRANCH   2   3
TORSDOF 9
ENDMDL
MODEL      263
REMARK 921   NORMALIZED FREE ENERGY PREDICTED BY IDOCK:   -2.46 KCAL/MOL
REMARK 922        TOTAL FREE ENERGY PREDICTED BY IDOCK:   -4.16 KCAL/MOL
REMARK 923 INTER-LIGAND FREE ENERGY PREDICTED BY IDOCK:   -3.53 KCAL/MOL
REMARK 924 INTRA-LIGAND FREE ENERGY PREDICTED BY IDOCK:   -0.63 KCAL/MOL
REMARK 927      BINDING AFFINITY PREDICTED BY RF-SCORE:    0.00 PKD
ROOT
HETATM    1  C   UNL     1      -9.802   6.685  68.544  1.00  0.00    -0.139 C  
HETATM    2  C   UNL     1     -10.991   7.070  69.413  1.00  0.00    -0.232 C  
ENDROOT
BRANCH   2   3
HETATM    3  CA  UNL     1     -10.724   6.966  70.933  1.00  0.00    -0.230 C  
BRANCH   3   4
HETATM    4  C   UNL     1      -9.433   6.172  71.270  1.00  0.00    -0.163 C  
HETATM    5  H   UNL     1      -8.879   4.340  71.876  1.00  0.00     0.000 HD 
HETATM    6  O   UNL     1      -9.670   4.826  71.670  1.00  0.00    -0.154 OA 
ENDBRANCH   3   4
BRANCH   3   7
HETATM    7  N   UNL     1     -10.728   8.354  71.439  1.00  0.00    -0.225 NA 
HETATM    8  H   UNL     1      -9.887   8.849  71.141  1.00  0.00     0.000 HD 
BRANCH   7   9
HETATM    9  C   UNL     1     -11.933   9.110  71.072  1.00  0.00    -0.282 C  
BRANCH   9  10
HETATM   10  C   UNL     1     -11.554  10.516  70.558  1.00  0.00    -0.350 C  
BRANCH  10  11
HETATM   11  N   UNL     1     -10.209  10.518  69.958  1.00  0.00    -0.434 NA 
HETATM   12  H   UNL     1      -9.807   9.580  69.961  1.00  0.00     0.000 HD 
BRANCH  11  13
HETATM   13  CA  UNL     1     -10.188  11.103  68.594  1.00  0.00    -0.205 C  
BRANCH  13  14
HETATM   14  C   UNL     1     -11.641  11.389  68.146  1.00  0.00    -0.294 C  
HETATM   15  H   UNL     1     -12.693  12.941  67.529  1.00  0.00     0.000 HD 
HETATM   16  O   UNL     1     -11.801  12.765  67.804  1.00  0.00    -0.348 OA 
ENDBRANCH  13  14
BRANCH  13  17
HETATM   17  C   UNL     1      -9.459  10.243  67.541  1.00  0.00    -0.171 C  
HETATM   18  C   UNL     1     -10.095  10.246  66.157  1.00  0.00    -0.307 C  
ENDBRANCH  13  17
ENDBRANCH  11  13
ENDBRANCH  10  11
ENDBRANCH   9  10
ENDBRANCH   7   9
ENDBRANCH   3   7
ENDBRANCH   2   3
TORSDOF 9
ENDMDL
MODEL      264
REMARK 921   NORMALIZED FREE ENERGY PREDICTED BY IDOCK:   -2.45 KCAL/MOL
REMARK 922        TOTAL FREE ENERGY PREDICTED BY IDOCK:   -4.15 KCAL/MOL
REMARK 923 INTER-LIGAND FREE ENERGY PREDICTED BY IDOCK:   -3.78 KCAL/MOL
REMARK 924 INTRA-LIGAND FREE ENERGY PREDICTED BY IDOCK:   -0.37 KCAL/MOL
REMARK 927      BINDING AFFINITY PREDICTED BY RF-SCORE:    0.00 PKD
ROOT
HETATM    1  C   UNL     1      -8.901   8.215  66.863  1.00  0.00    -0.145 C  
HETATM    2  C   UNL     1     -10.406   7.997  66.794  1.00  0.00    -0.360 C  
ENDROOT
BRANCH   2   3
HETATM    3  CA  UNL     1     -10.865   6.598  67.269  1.00  0.00    -0.385 C  
BRANCH   3   4
HETATM    4  C   UNL     1     -10.488   5.465  66.277  1.00  0.00    -0.221 C  
HETATM    5  H   UNL     1      -9.366   3.801  66.213  1.00  0.00     0.000 HD 
HETATM    6  O   UNL     1      -9.597   4.495  66.820  1.00  0.00    -0.160 OA 
ENDBRANCH   3   4
BRANCH   3   7
HETATM    7  N   UNL     1     -10.299   6.427  68.623  1.00  0.00    -0.180 NA 
HETATM    8  H   UNL     1      -9.656   7.187  68.845  1.00  0.00     0.000 HD 
BRANCH   7   9
HETATM    9  C   UNL     1     -11.319   6.286  69.672  1.00  0.00    -0.422 C  
BRANCH   9  10
HETATM   10  C   UNL     1     -11.448   7.597  70.479  1.00  0.00    -0.218 C  
BRANCH  10  11
HETATM   11  N   UNL     1     -11.928   7.333  71.847  1.00  0.00    -0.296 NA 
HETATM   12  H   UNL     1     -12.504   6.491  71.876  1.00  0.00     0.000 HD 
BRANCH  11  13
HETATM   13  CA  UNL     1     -10.826   7.258  72.839  1.00  0.00    -0.337 C  
BRANCH  13  14
HETATM   14  C   UNL     1      -9.681   8.196  72.391  1.00  0.00    -0.269 C  
HETATM   15  H   UNL     1      -8.197   9.185  73.236  1.00  0.00     0.000 HD 
HETATM   16  O   UNL     1      -8.900   8.610  73.512  1.00  0.00    -0.265 OA 
ENDBRANCH  13  14
BRANCH  13  17
HETATM   17  C   UNL     1     -10.290   5.835  73.093  1.00  0.00    -0.227 C  
HETATM   18  C   UNL     1     -10.268   5.407  74.554  1.00  0.00    -0.293 C  
ENDBRANCH  13  17
ENDBRANCH  11  13
ENDBRANCH  10  11
ENDBRANCH   9  10
ENDBRANCH   7   9
ENDBRANCH   3   7
ENDBRANCH   2   3
TORSDOF 9
ENDMDL
MODEL      265
REMARK 921   NORMALIZED FREE ENERGY PREDICTED BY IDOCK:   -2.45 KCAL/MOL
REMARK 922        TOTAL FREE ENERGY PREDICTED BY IDOCK:   -4.14 KCAL/MOL
REMARK 923 INTER-LIGAND FREE ENERGY PREDICTED BY IDOCK:   -3.61 KCAL/MOL
REMARK 924 INTRA-LIGAND FREE ENERGY PREDICTED BY IDOCK:   -0.54 KCAL/MOL
REMARK 927      BINDING AFFINITY PREDICTED BY RF-SCORE:    0.00 PKD
ROOT
HETATM    1  C   UNL     1      -8.207   5.758  68.130  1.00  0.00    -0.104 C  
HETATM    2  C   UNL     1      -8.322   5.595  69.639  1.00  0.00    -0.107 C  
ENDROOT
BRANCH   2   3
HETATM    3  CA  UNL     1      -9.282   6.602  70.314  1.00  0.00    -0.156 C  
BRANCH   3   4
HETATM    4  C   UNL     1     -10.372   5.914  71.181  1.00  0.00    -0.221 C  
HETATM    5  H   UNL     1     -12.371   5.798  71.313  1.00  0.00     0.000 HD 
HETATM    6  O   UNL     1     -11.705   6.218  70.782  1.00  0.00    -0.340 OA 
ENDBRANCH   3   4
BRANCH   3   7
HETATM    7  N   UNL     1      -8.421   7.541  71.062  1.00  0.00    -0.116 NA 
HETATM    8  H   UNL     1      -7.720   7.956  70.448  1.00  0.00     0.000 HD 
BRANCH   7   9
HETATM    9  C   UNL     1      -9.172   8.585  71.775  1.00  0.00    -0.246 C  
BRANCH   9  10
HETATM   10  C   UNL     1      -9.923   9.489  70.773  1.00  0.00    -0.264 C  
BRANCH  10  11
HETATM   11  N   UNL     1     -11.382   9.367  70.938  1.00  0.00    -0.293 NA 
HETATM   12  H   UNL     1     -11.612   8.675  71.652  1.00  0.00     0.000 HD 
BRANCH  11  13
HETATM   13  CA  UNL     1     -12.039  10.667  71.225  1.00  0.00    -0.299 C  
BRANCH  13  14
HETATM   14  C   UNL     1     -13.504  10.410  71.649  1.00  0.00    -0.240 C  
HETATM   15  H   UNL     1     -14.644   8.854  72.069  1.00  0.00     0.000 HD 
HETATM   16  O   UNL     1     -13.744   9.012  71.808  1.00  0.00    -0.390 OA 
ENDBRANCH  13  14
BRANCH  13  17
HETATM   17  C   UNL     1     -11.984  11.681  70.064  1.00  0.00    -0.429 C  
HETATM   18  C   UNL     1     -12.223  13.131  70.465  1.00  0.00    -0.405 C  
ENDBRANCH  13  17
ENDBRANCH  11  13
ENDBRANCH  10  11
ENDBRANCH   9  10
ENDBRANCH   7   9
ENDBRANCH   3   7
ENDBRANCH   2   3
TORSDOF 9
ENDMDL
MODEL      266
REMARK 921   NORMALIZED FREE ENERGY PREDICTED BY IDOCK:   -2.44 KCAL/MOL
REMARK 922        TOTAL FREE ENERGY PREDICTED BY IDOCK:   -4.14 KCAL/MOL
REMARK 923 INTER-LIGAND FREE ENERGY PREDICTED BY IDOCK:   -3.82 KCAL/MOL
REMARK 924 INTRA-LIGAND FREE ENERGY PREDICTED BY IDOCK:   -0.32 KCAL/MOL
REMARK 927      BINDING AFFINITY PREDICTED BY RF-SCORE:    0.00 PKD
ROOT
HETATM    1  C   UNL     1      -7.508   8.644  63.551  1.00  0.00    -0.110 C  
HETATM    2  C   UNL     1      -8.885   9.292  63.524  1.00  0.00    -0.145 C  
ENDROOT
BRANCH   2   3
HETATM    3  CA  UNL     1      -9.330   9.892  64.878  1.00  0.00    -0.268 C  
BRANCH   3   4
HETATM    4  C   UNL     1     -10.391  11.015  64.726  1.00  0.00    -0.324 C  
HETATM    5  H   UNL     1     -11.395  11.983  63.283  1.00  0.00     0.000 HD 
HETATM    6  O   UNL     1     -10.746  11.296  63.376  1.00  0.00    -0.370 OA 
ENDBRANCH   3   4
BRANCH   3   7
HETATM    7  N   UNL     1      -9.778   8.747  65.698  1.00  0.00    -0.455 NA 
HETATM    8  H   UNL     1      -9.558   7.864  65.237  1.00  0.00     0.000 HD 
BRANCH   7   9
HETATM    9  C   UNL     1      -9.248   8.764  67.069  1.00  0.00    -0.142 C  
BRANCH   9  10
HETATM   10  C   UNL     1     -10.400   8.690  68.095  1.00  0.00    -0.216 C  
BRANCH  10  11
HETATM   11  N   UNL     1     -10.235   9.701  69.153  1.00  0.00    -0.192 NA 
HETATM   12  H   UNL     1     -10.768  10.544  68.939  1.00  0.00     0.000 HD 
BRANCH  11  13
HETATM   13  CA  UNL     1     -10.578   9.183  70.502  1.00  0.00    -0.235 C  
BRANCH  13  14
HETATM   14  C   UNL     1     -10.947   7.686  70.388  1.00  0.00    -0.247 C  
HETATM   15  H   UNL     1     -10.521   6.007  71.334  1.00  0.00     0.000 HD 
HETATM   16  O   UNL     1     -10.294   6.926  71.404  1.00  0.00    -0.202 OA 
ENDBRANCH  13  14
BRANCH  13  17
HETATM   17  C   UNL     1     -11.699   9.962  71.220  1.00  0.00    -0.472 C  
HETATM   18  C   UNL     1     -12.385  11.026  70.375  1.00  0.00    -0.442 C  
ENDBRANCH  13  17
ENDBRANCH  11  13
ENDBRANCH  10  11
ENDBRANCH   9  10
ENDBRANCH   7   9
ENDBRANCH   3   7
ENDBRANCH   2   3
TORSDOF 9
ENDMDL
MODEL      267
REMARK 921   NORMALIZED FREE ENERGY PREDICTED BY IDOCK:   -2.44 KCAL/MOL
REMARK 922        TOTAL FREE ENERGY PREDICTED BY IDOCK:   -4.13 KCAL/MOL
REMARK 923 INTER-LIGAND FREE ENERGY PREDICTED BY IDOCK:   -3.79 KCAL/MOL
REMARK 924 INTRA-LIGAND FREE ENERGY PREDICTED BY IDOCK:   -0.35 KCAL/MOL
REMARK 927      BINDING AFFINITY PREDICTED BY RF-SCORE:    0.00 PKD
ROOT
HETATM    1  C   UNL     1      -7.494  10.734  66.486  1.00  0.00    -0.139 C  
HETATM    2  C   UNL     1      -9.012  10.623  66.520  1.00  0.00    -0.169 C  
ENDROOT
BRANCH   2   3
HETATM    3  CA  UNL     1      -9.594   9.599  65.517  1.00  0.00    -0.283 C  
BRANCH   3   4
HETATM    4  C   UNL     1      -8.609   9.244  64.371  1.00  0.00    -0.195 C  
HETATM    5  H   UNL     1      -7.534   7.683  63.709  1.00  0.00     0.000 HD 
HETATM    6  O   UNL     1      -8.137   7.900  64.411  1.00  0.00    -0.140 OA 
ENDBRANCH   3   4
BRANCH   3   7
HETATM    7  N   UNL     1     -10.019   8.439  66.328  1.00  0.00    -0.448 NA 
HETATM    8  H   UNL     1      -9.235   7.807  66.491  1.00  0.00     0.000 HD 
BRANCH   7   9
HETATM    9  C   UNL     1     -10.659   8.812  67.597  1.00  0.00    -0.213 C  
BRANCH   9  10
HETATM   10  C   UNL     1     -10.298   7.797  68.703  1.00  0.00    -0.199 C  
BRANCH  10  11
HETATM   11  N   UNL     1     -11.302   7.807  69.782  1.00  0.00    -0.453 NA 
HETATM   12  H   UNL     1     -11.551   6.857  70.057  1.00  0.00     0.000 HD 
BRANCH  11  13
HETATM   13  CA  UNL     1     -10.875   8.608  70.957  1.00  0.00    -0.247 C  
BRANCH  13  14
HETATM   14  C   UNL     1     -11.844   9.800  71.133  1.00  0.00    -0.382 C  
HETATM   15  H   UNL     1     -13.736  10.077  71.623  1.00  0.00     0.000 HD 
HETATM   16  O   UNL     1     -13.141   9.344  71.514  1.00  0.00    -0.343 OA 
ENDBRANCH  13  14
BRANCH  13  17
HETATM   17  C   UNL     1      -9.415   9.104  70.897  1.00  0.00    -0.343 C  
HETATM   18  C   UNL     1      -8.482   8.478  71.925  1.00  0.00    -0.234 C  
ENDBRANCH  13  17
ENDBRANCH  11  13
ENDBRANCH  10  11
ENDBRANCH   9  10
ENDBRANCH   7   9
ENDBRANCH   3   7
ENDBRANCH   2   3
TORSDOF 9
ENDMDL
MODEL      268
REMARK 921   NORMALIZED FREE ENERGY PREDICTED BY IDOCK:   -2.41 KCAL/MOL
REMARK 922        TOTAL FREE ENERGY PREDICTED BY IDOCK:   -4.09 KCAL/MOL
REMARK 923 INTER-LIGAND FREE ENERGY PREDICTED BY IDOCK:   -4.77 KCAL/MOL
REMARK 924 INTRA-LIGAND FREE ENERGY PREDICTED BY IDOCK:    0.68 KCAL/MOL
REMARK 927      BINDING AFFINITY PREDICTED BY RF-SCORE:    0.00 PKD
ROOT
HETATM    1  C   UNL     1     -12.197  12.086  63.335  1.00  0.00    -0.627 C  
HETATM    2  C   UNL     1     -12.336  12.401  64.818  1.00  0.00    -0.497 C  
ENDROOT
BRANCH   2   3
HETATM    3  CA  UNL     1     -11.944  13.849  65.197  1.00  0.00    -0.385 C  
BRANCH   3   4
HETATM    4  C   UNL     1     -12.461  14.904  64.182  1.00  0.00    -0.065 C  
HETATM    5  H   UNL     1     -12.013  16.752  63.537  1.00  0.00     0.000 HD 
HETATM    6  O   UNL     1     -11.697  16.106  64.159  1.00  0.00    -0.735 OA 
ENDBRANCH   3   4
BRANCH   3   7
HETATM    7  N   UNL     1     -12.435  14.051  66.576  1.00  0.00    -0.512 NA 
HETATM    8  H   UNL     1     -12.798  13.180  66.962  1.00  0.00     0.000 HD 
BRANCH   7   9
HETATM    9  C   UNL     1     -11.431  14.638  67.476  1.00  0.00    -0.361 C  
BRANCH   9  10
HETATM   10  C   UNL     1     -10.207  13.705  67.603  1.00  0.00    -0.239 C  
BRANCH  10  11
HETATM   11  N   UNL     1     -10.503  12.365  67.067  1.00  0.00    -0.220 NA 
HETATM   12  H   UNL     1      -9.856  12.120  66.317  1.00  0.00     0.000 HD 
BRANCH  11  13
HETATM   13  CA  UNL     1     -10.521  11.316  68.119  1.00  0.00    -0.189 C  
BRANCH  13  14
HETATM   14  C   UNL     1      -9.698  10.101  67.632  1.00  0.00    -0.161 C  
HETATM   15  H   UNL     1      -9.648   8.916  66.054  1.00  0.00     0.000 HD 
HETATM   16  O   UNL     1     -10.154   9.662  66.353  1.00  0.00    -0.240 OA 
ENDBRANCH  13  14
BRANCH  13  17
HETATM   17  C   UNL     1     -11.932  10.872  68.555  1.00  0.00    -0.137 C  
HETATM   18  C   UNL     1     -12.283  11.178  70.005  1.00  0.00    -0.402 C  
ENDBRANCH  13  17
ENDBRANCH  11  13
ENDBRANCH  10  11
ENDBRANCH   9  10
ENDBRANCH   7   9
ENDBRANCH   3   7
ENDBRANCH   2   3
TORSDOF 9
ENDMDL
MODEL      269
REMARK 921   NORMALIZED FREE ENERGY PREDICTED BY IDOCK:   -2.41 KCAL/MOL
REMARK 922        TOTAL FREE ENERGY PREDICTED BY IDOCK:   -4.09 KCAL/MOL
REMARK 923 INTER-LIGAND FREE ENERGY PREDICTED BY IDOCK:   -3.68 KCAL/MOL
REMARK 924 INTRA-LIGAND FREE ENERGY PREDICTED BY IDOCK:   -0.40 KCAL/MOL
REMARK 927      BINDING AFFINITY PREDICTED BY RF-SCORE:    0.00 PKD
ROOT
HETATM    1  C   UNL     1     -11.247   3.051  73.616  1.00  0.00    -0.298 C  
HETATM    2  C   UNL     1     -10.310   4.025  74.316  1.00  0.00    -0.268 C  
ENDROOT
BRANCH   2   3
HETATM    3  CA  UNL     1      -9.547   4.969  73.358  1.00  0.00    -0.136 C  
BRANCH   3   4
HETATM    4  C   UNL     1      -8.114   4.472  73.028  1.00  0.00    -0.096 C  
HETATM    5  H   UNL     1      -7.037   3.849  71.452  1.00  0.00     0.000 HD 
HETATM    6  O   UNL     1      -7.914   4.153  71.654  1.00  0.00    -0.077 OA 
ENDBRANCH   3   4
BRANCH   3   7
HETATM    7  N   UNL     1     -10.416   5.129  72.173  1.00  0.00    -0.217 NA 
HETATM    8  H   UNL     1     -11.284   4.606  72.289  1.00  0.00     0.000 HD 
BRANCH   7   9
HETATM    9  C   UNL     1     -10.695   6.532  71.835  1.00  0.00    -0.219 C  
BRANCH   9  10
HETATM   10  C   UNL     1     -11.201   6.647  70.381  1.00  0.00    -0.344 C  
BRANCH  10  11
HETATM   11  N   UNL     1     -11.882   7.934  70.155  1.00  0.00    -0.441 NA 
HETATM   12  H   UNL     1     -12.870   7.873  70.402  1.00  0.00     0.000 HD 
BRANCH  11  13
HETATM   13  CA  UNL     1     -11.226   9.063  70.862  1.00  0.00    -0.287 C  
BRANCH  13  14
HETATM   14  C   UNL     1     -12.307   9.910  71.572  1.00  0.00    -0.412 C  
HETATM   15  H   UNL     1     -14.141  10.536  71.198  1.00  0.00     0.000 HD 
HETATM   16  O   UNL     1     -13.477  10.016  70.761  1.00  0.00    -0.316 OA 
ENDBRANCH  13  14
BRANCH  13  17
HETATM   17  C   UNL     1     -10.346   9.955  69.963  1.00  0.00    -0.320 C  
HETATM   18  C   UNL     1     -10.591   9.802  68.468  1.00  0.00    -0.252 C  
ENDBRANCH  13  17
ENDBRANCH  11  13
ENDBRANCH  10  11
ENDBRANCH   9  10
ENDBRANCH   7   9
ENDBRANCH   3   7
ENDBRANCH   2   3
TORSDOF 9
ENDMDL
MODEL      270
REMARK 921   NORMALIZED FREE ENERGY PREDICTED BY IDOCK:   -2.40 KCAL/MOL
REMARK 922        TOTAL FREE ENERGY PREDICTED BY IDOCK:   -4.07 KCAL/MOL
REMARK 923 INTER-LIGAND FREE ENERGY PREDICTED BY IDOCK:   -3.65 KCAL/MOL
REMARK 924 INTRA-LIGAND FREE ENERGY PREDICTED BY IDOCK:   -0.42 KCAL/MOL
REMARK 927      BINDING AFFINITY PREDICTED BY RF-SCORE:    0.00 PKD
ROOT
HETATM    1  C   UNL     1     -10.236   4.999  66.761  1.00  0.00    -0.286 C  
HETATM    2  C   UNL     1      -9.400   6.141  66.199  1.00  0.00    -0.128 C  
ENDROOT
BRANCH   2   3
HETATM    3  CA  UNL     1      -8.958   7.181  67.255  1.00  0.00    -0.123 C  
BRANCH   3   4
HETATM    4  C   UNL     1      -7.654   7.928  66.864  1.00  0.00    -0.099 C  
HETATM    5  H   UNL     1      -7.067   9.724  66.185  1.00  0.00     0.000 HD 
HETATM    6  O   UNL     1      -7.865   9.266  66.424  1.00  0.00    -0.102 OA 
ENDBRANCH   3   4
BRANCH   3   7
HETATM    7  N   UNL     1     -10.121   8.068  67.460  1.00  0.00    -0.199 NA 
HETATM    8  H   UNL     1     -10.935   7.719  66.953  1.00  0.00     0.000 HD 
BRANCH   7   9
HETATM    9  C   UNL     1     -10.448   8.291  68.875  1.00  0.00    -0.191 C  
BRANCH   9  10
HETATM   10  C   UNL     1      -9.649   9.490  69.431  1.00  0.00    -0.180 C  
BRANCH  10  11
HETATM   11  N   UNL     1     -10.383  10.158  70.521  1.00  0.00    -0.407 NA 
HETATM   12  H   UNL     1      -9.885  10.989  70.840  1.00  0.00     0.000 HD 
BRANCH  11  13
HETATM   13  CA  UNL     1     -11.784  10.484  70.155  1.00  0.00    -0.326 C  
BRANCH  13  14
HETATM   14  C   UNL     1     -11.840  11.932  69.614  1.00  0.00    -0.337 C  
HETATM   15  H   UNL     1     -12.543  13.679  70.205  1.00  0.00     0.000 HD 
HETATM   16  O   UNL     1     -12.509  12.789  70.537  1.00  0.00    -0.289 OA 
ENDBRANCH  13  14
BRANCH  13  17
HETATM   17  C   UNL     1     -12.804  10.295  71.297  1.00  0.00    -0.522 C  
HETATM   18  C   UNL     1     -12.592   9.051  72.148  1.00  0.00    -0.461 C  
ENDBRANCH  13  17
ENDBRANCH  11  13
ENDBRANCH  10  11
ENDBRANCH   9  10
ENDBRANCH   7   9
ENDBRANCH   3   7
ENDBRANCH   2   3
TORSDOF 9
ENDMDL
MODEL      271
REMARK 921   NORMALIZED FREE ENERGY PREDICTED BY IDOCK:   -2.40 KCAL/MOL
REMARK 922        TOTAL FREE ENERGY PREDICTED BY IDOCK:   -4.07 KCAL/MOL
REMARK 923 INTER-LIGAND FREE ENERGY PREDICTED BY IDOCK:   -3.63 KCAL/MOL
REMARK 924 INTRA-LIGAND FREE ENERGY PREDICTED BY IDOCK:   -0.44 KCAL/MOL
REMARK 927      BINDING AFFINITY PREDICTED BY RF-SCORE:    0.00 PKD
ROOT
HETATM    1  C   UNL     1     -11.944  11.303  69.800  1.00  0.00    -0.431 C  
HETATM    2  C   UNL     1     -12.477  10.858  71.154  1.00  0.00    -0.511 C  
ENDROOT
BRANCH   2   3
HETATM    3  CA  UNL     1     -11.884   9.523  71.661  1.00  0.00    -0.397 C  
BRANCH   3   4
HETATM    4  C   UNL     1     -12.965   8.441  71.932  1.00  0.00    -0.355 C  
HETATM    5  H   UNL     1     -13.330   6.510  71.523  1.00  0.00     0.000 HD 
HETATM    6  O   UNL     1     -12.669   7.172  71.357  1.00  0.00    -0.367 OA 
ENDBRANCH   3   4
BRANCH   3   7
HETATM    7  N   UNL     1     -10.873   9.125  70.659  1.00  0.00    -0.245 NA 
HETATM    8  H   UNL     1     -10.874   9.770  69.869  1.00  0.00     0.000 HD 
BRANCH   7   9
HETATM    9  C   UNL     1      -9.519   8.987  71.214  1.00  0.00    -0.269 C  
BRANCH   9  10
HETATM   10  C   UNL     1      -8.546   8.452  70.141  1.00  0.00    -0.131 C  
BRANCH  10  11
HETATM   11  N   UNL     1      -8.966   7.125  69.658  1.00  0.00    -0.141 NA 
HETATM   12  H   UNL     1      -8.459   6.867  68.811  1.00  0.00     0.000 HD 
BRANCH  11  13
HETATM   13  CA  UNL     1      -8.841   6.070  70.696  1.00  0.00    -0.142 C  
BRANCH  13  14
HETATM   14  C   UNL     1      -7.405   5.499  70.664  1.00  0.00    -0.079 C  
HETATM   15  H   UNL     1      -5.967   5.106  71.958  1.00  0.00     0.000 HD 
HETATM   16  O   UNL     1      -6.849   5.457  71.977  1.00  0.00    -0.062 OA 
ENDBRANCH  13  14
BRANCH  13  17
HETATM   17  C   UNL     1      -9.876   4.932  70.578  1.00  0.00    -0.297 C  
HETATM   18  C   UNL     1     -10.232   4.248  71.892  1.00  0.00    -0.200 C  
ENDBRANCH  13  17
ENDBRANCH  11  13
ENDBRANCH  10  11
ENDBRANCH   9  10
ENDBRANCH   7   9
ENDBRANCH   3   7
ENDBRANCH   2   3
TORSDOF 9
ENDMDL
MODEL      272
REMARK 921   NORMALIZED FREE ENERGY PREDICTED BY IDOCK:   -2.39 KCAL/MOL
REMARK 922        TOTAL FREE ENERGY PREDICTED BY IDOCK:   -4.06 KCAL/MOL
REMARK 923 INTER-LIGAND FREE ENERGY PREDICTED BY IDOCK:   -3.58 KCAL/MOL
REMARK 924 INTRA-LIGAND FREE ENERGY PREDICTED BY IDOCK:   -0.49 KCAL/MOL
REMARK 927      BINDING AFFINITY PREDICTED BY RF-SCORE:    0.00 PKD
ROOT
HETATM    1  C   UNL     1     -13.892   8.868  72.114  1.00  0.00    -0.531 C  
HETATM    2  C   UNL     1     -13.504   7.517  71.529  1.00  0.00    -0.426 C  
ENDROOT
BRANCH   2   3
HETATM    3  CA  UNL     1     -12.001   7.383  71.189  1.00  0.00    -0.320 C  
BRANCH   3   4
HETATM    4  C   UNL     1     -11.144   6.917  72.398  1.00  0.00    -0.260 C  
HETATM    5  H   UNL     1     -10.735   5.241  73.424  1.00  0.00     0.000 HD 
HETATM    6  O   UNL     1     -11.259   5.526  72.685  1.00  0.00    -0.269 OA 
ENDBRANCH   3   4
BRANCH   3   7
HETATM    7  N   UNL     1     -11.931   6.484  70.019  1.00  0.00    -0.567 NA 
HETATM    8  H   UNL     1     -12.859   6.327  69.628  1.00  0.00     0.000 HD 
BRANCH   7   9
HETATM    9  C   UNL     1     -11.000   6.946  68.979  1.00  0.00    -0.181 C  
BRANCH   9  10
HETATM   10  C   UNL     1      -9.611   6.297  69.170  1.00  0.00    -0.135 C  
BRANCH  10  11
HETATM   11  N   UNL     1      -8.536   7.294  69.028  1.00  0.00    -0.129 NA 
HETATM   12  H   UNL     1      -8.174   7.307  68.075  1.00  0.00     0.000 HD 
BRANCH  11  13
HETATM   13  CA  UNL     1      -8.951   8.653  69.459  1.00  0.00    -0.145 C  
BRANCH  13  14
HETATM   14  C   UNL     1      -8.411   9.690  68.446  1.00  0.00    -0.118 C  
HETATM   15  H   UNL     1      -8.988  11.417  67.686  1.00  0.00     0.000 HD 
HETATM   16  O   UNL     1      -9.320  10.781  68.308  1.00  0.00    -0.149 OA 
ENDBRANCH  13  14
BRANCH  13  17
HETATM   17  C   UNL     1      -8.523   9.028  70.893  1.00  0.00    -0.253 C  
HETATM   18  C   UNL     1      -7.034   9.288  71.072  1.00  0.00    -0.090 C  
ENDBRANCH  13  17
ENDBRANCH  11  13
ENDBRANCH  10  11
ENDBRANCH   9  10
ENDBRANCH   7   9
ENDBRANCH   3   7
ENDBRANCH   2   3
TORSDOF 9
ENDMDL
MODEL      273
REMARK 921   NORMALIZED FREE ENERGY PREDICTED BY IDOCK:   -2.36 KCAL/MOL
REMARK 922        TOTAL FREE ENERGY PREDICTED BY IDOCK:   -4.02 KCAL/MOL
REMARK 923 INTER-LIGAND FREE ENERGY PREDICTED BY IDOCK:   -3.72 KCAL/MOL
REMARK 924 INTRA-LIGAND FREE ENERGY PREDICTED BY IDOCK:   -0.30 KCAL/MOL
REMARK 927      BINDING AFFINITY PREDICTED BY RF-SCORE:    0.00 PKD
ROOT
HETATM    1  C   UNL     1     -11.299  15.982  70.374  1.00  0.00    -0.405 C  
HETATM    2  C   UNL     1     -10.868  15.056  69.246  1.00  0.00    -0.263 C  
ENDROOT
BRANCH   2   3
HETATM    3  CA  UNL     1     -11.473  15.413  67.868  1.00  0.00    -0.299 C  
BRANCH   3   4
HETATM    4  C   UNL     1     -10.651  16.485  67.102  1.00  0.00    -0.270 C  
HETATM    5  H   UNL     1     -10.394  18.475  67.065  1.00  0.00     0.000 HD 
HETATM    6  O   UNL     1     -10.898  17.820  67.533  1.00  0.00    -0.344 OA 
ENDBRANCH   3   4
BRANCH   3   7
HETATM    7  N   UNL     1     -11.613  14.132  67.145  1.00  0.00    -0.356 NA 
HETATM    8  H   UNL     1     -11.195  14.193  66.216  1.00  0.00     0.000 HD 
BRANCH   7   9
HETATM    9  C   UNL     1     -11.075  12.980  67.882  1.00  0.00    -0.255 C  
BRANCH   9  10
HETATM   10  C   UNL     1     -10.079  12.193  67.002  1.00  0.00    -0.204 C  
BRANCH  10  11
HETATM   11  N   UNL     1      -9.929  10.807  67.479  1.00  0.00    -0.171 NA 
HETATM   12  H   UNL     1     -10.737  10.522  68.032  1.00  0.00     0.000 HD 
BRANCH  11  13
HETATM   13  CA  UNL     1      -9.669   9.845  66.379  1.00  0.00    -0.212 C  
BRANCH  13  14
HETATM   14  C   UNL     1     -10.132  10.470  65.042  1.00  0.00    -0.321 C  
HETATM   15  H   UNL     1      -9.412  10.704  63.220  1.00  0.00     0.000 HD 
HETATM   16  O   UNL     1      -9.127  10.320  64.041  1.00  0.00    -0.206 OA 
ENDBRANCH  13  14
BRANCH  13  17
HETATM   17  C   UNL     1     -10.315   8.458  66.577  1.00  0.00    -0.199 C  
HETATM   18  C   UNL     1      -9.343   7.286  66.545  1.00  0.00    -0.216 C  
ENDBRANCH  13  17
ENDBRANCH  11  13
ENDBRANCH  10  11
ENDBRANCH   9  10
ENDBRANCH   7   9
ENDBRANCH   3   7
ENDBRANCH   2   3
TORSDOF 9
ENDMDL
MODEL      274
REMARK 921   NORMALIZED FREE ENERGY PREDICTED BY IDOCK:   -2.36 KCAL/MOL
REMARK 922        TOTAL FREE ENERGY PREDICTED BY IDOCK:   -4.02 KCAL/MOL
REMARK 923 INTER-LIGAND FREE ENERGY PREDICTED BY IDOCK:   -3.68 KCAL/MOL
REMARK 924 INTRA-LIGAND FREE ENERGY PREDICTED BY IDOCK:   -0.34 KCAL/MOL
REMARK 927      BINDING AFFINITY PREDICTED BY RF-SCORE:    0.00 PKD
ROOT
HETATM    1  C   UNL     1      -6.466  10.740  66.133  1.00  0.00    -0.129 C  
HETATM    2  C   UNL     1      -7.568  11.477  66.883  1.00  0.00    -0.151 C  
ENDROOT
BRANCH   2   3
HETATM    3  CA  UNL     1      -8.964  11.362  66.228  1.00  0.00    -0.200 C  
BRANCH   3   4
HETATM    4  C   UNL     1      -9.068  10.186  65.220  1.00  0.00    -0.195 C  
HETATM    5  H   UNL     1      -9.642   9.842  63.327  1.00  0.00     0.000 HD 
HETATM    6  O   UNL     1      -9.579  10.561  63.944  1.00  0.00    -0.261 OA 
ENDBRANCH   3   4
BRANCH   3   7
HETATM    7  N   UNL     1      -9.928  11.284  67.345  1.00  0.00    -0.181 NA 
HETATM    8  H   UNL     1      -9.791  10.426  67.881  1.00  0.00     0.000 HD 
BRANCH   7   9
HETATM    9  C   UNL     1      -9.899  12.458  68.229  1.00  0.00    -0.224 C  
BRANCH   9  10
HETATM   10  C   UNL     1     -11.298  13.107  68.311  1.00  0.00    -0.297 C  
BRANCH  10  11
HETATM   11  N   UNL     1     -11.274  14.488  67.801  1.00  0.00    -0.285 NA 
HETATM   12  H   UNL     1     -11.813  14.568  66.938  1.00  0.00     0.000 HD 
BRANCH  11  13
HETATM   13  CA  UNL     1     -11.728  15.481  68.807  1.00  0.00    -0.357 C  
BRANCH  13  14
HETATM   14  C   UNL     1     -10.502  16.259  69.338  1.00  0.00    -0.292 C  
HETATM   15  H   UNL     1      -9.733  18.067  69.150  1.00  0.00     0.000 HD 
HETATM   16  O   UNL     1     -10.487  17.590  68.823  1.00  0.00    -0.355 OA 
ENDBRANCH  13  14
BRANCH  13  17
HETATM   17  C   UNL     1     -12.535  14.882  69.977  1.00  0.00    -0.320 C  
HETATM   18  C   UNL     1     -12.151  15.403  71.356  1.00  0.00    -0.436 C  
ENDBRANCH  13  17
ENDBRANCH  11  13
ENDBRANCH  10  11
ENDBRANCH   9  10
ENDBRANCH   7   9
ENDBRANCH   3   7
ENDBRANCH   2   3
TORSDOF 9
ENDMDL
MODEL      275
REMARK 921   NORMALIZED FREE ENERGY PREDICTED BY IDOCK:   -2.36 KCAL/MOL
REMARK 922        TOTAL FREE ENERGY PREDICTED BY IDOCK:   -4.02 KCAL/MOL
REMARK 923 INTER-LIGAND FREE ENERGY PREDICTED BY IDOCK:   -3.73 KCAL/MOL
REMARK 924 INTRA-LIGAND FREE ENERGY PREDICTED BY IDOCK:   -0.28 KCAL/MOL
REMARK 927      BINDING AFFINITY PREDICTED BY RF-SCORE:    0.00 PKD
ROOT
HETATM    1  C   UNL     1     -11.021   3.199  73.560  1.00  0.00    -0.323 C  
HETATM    2  C   UNL     1     -10.894   4.658  73.976  1.00  0.00    -0.328 C  
ENDROOT
BRANCH   2   3
HETATM    3  CA  UNL     1     -10.038   5.518  73.017  1.00  0.00    -0.181 C  
BRANCH   3   4
HETATM    4  C   UNL     1      -8.515   5.245  73.153  1.00  0.00    -0.114 C  
HETATM    5  H   UNL     1      -6.778   6.251  73.164  1.00  0.00     0.000 HD 
HETATM    6  O   UNL     1      -7.710   6.418  73.081  1.00  0.00    -0.098 OA 
ENDBRANCH   3   4
BRANCH   3   7
HETATM    7  N   UNL     1     -10.575   5.269  71.664  1.00  0.00    -0.217 NA 
HETATM    8  H   UNL     1     -11.407   4.680  71.708  1.00  0.00     0.000 HD 
BRANCH   7   9
HETATM    9  C   UNL     1     -10.849   6.498  70.906  1.00  0.00    -0.253 C  
BRANCH   9  10
HETATM   10  C   UNL     1     -10.309   6.375  69.464  1.00  0.00    -0.208 C  
BRANCH  10  11
HETATM   11  N   UNL     1     -11.335   6.760  68.479  1.00  0.00    -0.560 NA 
HETATM   12  H   UNL     1     -11.954   7.477  68.857  1.00  0.00     0.000 HD 
BRANCH  11  13
HETATM   13  CA  UNL     1     -10.754   7.189  67.181  1.00  0.00    -0.352 C  
BRANCH  13  14
HETATM   14  C   UNL     1      -9.818   6.076  66.656  1.00  0.00    -0.164 C  
HETATM   15  H   UNL     1      -9.998   4.277  65.863  1.00  0.00     0.000 HD 
HETATM   16  O   UNL     1     -10.574   4.961  66.186  1.00  0.00    -0.309 OA 
ENDBRANCH  13  14
BRANCH  13  17
HETATM   17  C   UNL     1     -10.012   8.540  67.229  1.00  0.00    -0.289 C  
HETATM   18  C   UNL     1      -9.693   9.147  65.869  1.00  0.00    -0.336 C  
ENDBRANCH  13  17
ENDBRANCH  11  13
ENDBRANCH  10  11
ENDBRANCH   9  10
ENDBRANCH   7   9
ENDBRANCH   3   7
ENDBRANCH   2   3
TORSDOF 9
ENDMDL
MODEL      276
REMARK 921   NORMALIZED FREE ENERGY PREDICTED BY IDOCK:   -2.36 KCAL/MOL
REMARK 922        TOTAL FREE ENERGY PREDICTED BY IDOCK:   -4.01 KCAL/MOL
REMARK 923 INTER-LIGAND FREE ENERGY PREDICTED BY IDOCK:   -3.39 KCAL/MOL
REMARK 924 INTRA-LIGAND FREE ENERGY PREDICTED BY IDOCK:   -0.62 KCAL/MOL
REMARK 927      BINDING AFFINITY PREDICTED BY RF-SCORE:    0.00 PKD
ROOT
HETATM    1  C   UNL     1      -8.131   6.879  67.723  1.00  0.00    -0.114 C  
HETATM    2  C   UNL     1      -8.404   7.461  69.103  1.00  0.00    -0.132 C  
ENDROOT
BRANCH   2   3
HETATM    3  CA  UNL     1      -9.493   8.559  69.122  1.00  0.00    -0.154 C  
BRANCH   3   4
HETATM    4  C   UNL     1     -10.777   8.128  69.881  1.00  0.00    -0.241 C  
HETATM    5  H   UNL     1     -11.936   8.749  71.398  1.00  0.00     0.000 HD 
HETATM    6  O   UNL     1     -11.150   9.012  70.934  1.00  0.00    -0.247 OA 
ENDBRANCH   3   4
BRANCH   3   7
HETATM    7  N   UNL     1      -8.841   9.763  69.678  1.00  0.00    -0.195 NA 
HETATM    8  H   UNL     1      -8.270   9.523  70.488  1.00  0.00     0.000 HD 
BRANCH   7   9
HETATM    9  C   UNL     1      -8.052  10.513  68.690  1.00  0.00    -0.127 C  
BRANCH   9  10
HETATM   10  C   UNL     1      -8.921  10.871  67.465  1.00  0.00    -0.136 C  
BRANCH  10  11
HETATM   11  N   UNL     1      -9.237  12.310  67.440  1.00  0.00    -0.176 NA 
HETATM   12  H   UNL     1      -8.897  12.744  66.581  1.00  0.00     0.000 HD 
BRANCH  11  13
HETATM   13  CA  UNL     1     -10.682  12.586  67.640  1.00  0.00    -0.218 C  
BRANCH  13  14
HETATM   14  C   UNL     1     -11.457  11.248  67.627  1.00  0.00    -0.264 C  
HETATM   15  H   UNL     1     -12.855  10.366  68.706  1.00  0.00     0.000 HD 
HETATM   16  O   UNL     1     -12.379  11.188  68.715  1.00  0.00    -0.539 OA 
ENDBRANCH  13  14
BRANCH  13  17
HETATM   17  C   UNL     1     -11.292  13.572  66.623  1.00  0.00    -0.344 C  
HETATM   18  C   UNL     1     -12.044  12.922  65.470  1.00  0.00    -0.507 C  
ENDBRANCH  13  17
ENDBRANCH  11  13
ENDBRANCH  10  11
ENDBRANCH   9  10
ENDBRANCH   7   9
ENDBRANCH   3   7
ENDBRANCH   2   3
TORSDOF 9
ENDMDL
MODEL      277
REMARK 921   NORMALIZED FREE ENERGY PREDICTED BY IDOCK:   -2.36 KCAL/MOL
REMARK 922        TOTAL FREE ENERGY PREDICTED BY IDOCK:   -4.00 KCAL/MOL
REMARK 923 INTER-LIGAND FREE ENERGY PREDICTED BY IDOCK:   -3.62 KCAL/MOL
REMARK 924 INTRA-LIGAND FREE ENERGY PREDICTED BY IDOCK:   -0.38 KCAL/MOL
REMARK 927      BINDING AFFINITY PREDICTED BY RF-SCORE:    0.00 PKD
ROOT
HETATM    1  C   UNL     1      -7.476   9.123  67.067  1.00  0.00    -0.091 C  
HETATM    2  C   UNL     1      -8.884   8.834  66.565  1.00  0.00    -0.156 C  
ENDROOT
BRANCH   2   3
HETATM    3  CA  UNL     1      -9.252   7.332  66.543  1.00  0.00    -0.157 C  
BRANCH   3   4
HETATM    4  C   UNL     1      -8.223   6.443  67.292  1.00  0.00    -0.113 C  
HETATM    5  H   UNL     1      -6.991   4.899  66.933  1.00  0.00     0.000 HD 
HETATM    6  O   UNL     1      -7.621   5.443  66.475  1.00  0.00    -0.086 OA 
ENDBRANCH   3   4
BRANCH   3   7
HETATM    7  N   UNL     1     -10.626   7.246  67.080  1.00  0.00    -0.321 NA 
HETATM    8  H   UNL     1     -11.277   6.935  66.359  1.00  0.00     0.000 HD 
BRANCH   7   9
HETATM    9  C   UNL     1     -10.735   6.401  68.278  1.00  0.00    -0.285 C  
BRANCH   9  10
HETATM   10  C   UNL     1     -10.985   7.269  69.531  1.00  0.00    -0.164 C  
BRANCH  10  11
HETATM   11  N   UNL     1     -12.137   6.771  70.301  1.00  0.00    -0.617 NA 
HETATM   12  H   UNL     1     -12.210   5.755  70.235  1.00  0.00     0.000 HD 
BRANCH  11  13
HETATM   13  CA  UNL     1     -12.116   7.212  71.719  1.00  0.00    -0.328 C  
BRANCH  13  14
HETATM   14  C   UNL     1     -12.225   8.754  71.768  1.00  0.00    -0.349 C  
HETATM   15  H   UNL     1     -13.623  10.122  71.505  1.00  0.00     0.000 HD 
HETATM   16  O   UNL     1     -13.556   9.175  71.474  1.00  0.00    -0.365 OA 
ENDBRANCH  13  14
BRANCH  13  17
HETATM   17  C   UNL     1     -10.888   6.733  72.519  1.00  0.00    -0.271 C  
HETATM   18  C   UNL     1     -10.895   5.254  72.882  1.00  0.00    -0.322 C  
ENDBRANCH  13  17
ENDBRANCH  11  13
ENDBRANCH  10  11
ENDBRANCH   9  10
ENDBRANCH   7   9
ENDBRANCH   3   7
ENDBRANCH   2   3
TORSDOF 9
ENDMDL
MODEL      278
REMARK 921   NORMALIZED FREE ENERGY PREDICTED BY IDOCK:   -2.35 KCAL/MOL
REMARK 922        TOTAL FREE ENERGY PREDICTED BY IDOCK:   -4.00 KCAL/MOL
REMARK 923 INTER-LIGAND FREE ENERGY PREDICTED BY IDOCK:   -3.33 KCAL/MOL
REMARK 924 INTRA-LIGAND FREE ENERGY PREDICTED BY IDOCK:   -0.67 KCAL/MOL
REMARK 927      BINDING AFFINITY PREDICTED BY RF-SCORE:    0.00 PKD
ROOT
HETATM    1  C   UNL     1      -9.902   8.972  68.571  1.00  0.00    -0.184 C  
HETATM    2  C   UNL     1      -9.373   8.944  67.144  1.00  0.00    -0.182 C  
ENDROOT
BRANCH   2   3
HETATM    3  CA  UNL     1      -8.412  10.107  66.803  1.00  0.00    -0.126 C  
BRANCH   3   4
HETATM    4  C   UNL     1      -8.397  10.459  65.290  1.00  0.00    -0.166 C  
HETATM    5  H   UNL     1      -9.309   9.916  63.586  1.00  0.00     0.000 HD 
HETATM    6  O   UNL     1      -9.318   9.701  64.512  1.00  0.00    -0.261 OA 
ENDBRANCH   3   4
BRANCH   3   7
HETATM    7  N   UNL     1      -8.810  11.229  67.678  1.00  0.00    -0.136 NA 
HETATM    8  H   UNL     1      -8.766  10.955  68.659  1.00  0.00     0.000 HD 
BRANCH   7   9
HETATM    9  C   UNL     1      -8.036  12.457  67.446  1.00  0.00    -0.178 C  
BRANCH   9  10
HETATM   10  C   UNL     1      -8.974  13.627  67.080  1.00  0.00    -0.236 C  
BRANCH  10  11
HETATM   11  N   UNL     1      -9.763  14.061  68.246  1.00  0.00    -0.221 NA 
HETATM   12  H   UNL     1      -9.519  15.013  68.518  1.00  0.00     0.000 HD 
BRANCH  11  13
HETATM   13  CA  UNL     1     -11.226  13.926  68.034  1.00  0.00    -0.271 C  
BRANCH  13  14
HETATM   14  C   UNL     1     -11.839  13.151  69.224  1.00  0.00    -0.323 C  
HETATM   15  H   UNL     1     -11.488  11.473  70.202  1.00  0.00     0.000 HD 
HETATM   16  O   UNL     1     -11.112  11.949  69.471  1.00  0.00    -0.201 OA 
ENDBRANCH  13  14
BRANCH  13  17
HETATM   17  C   UNL     1     -11.620  13.261  66.698  1.00  0.00    -0.408 C  
HETATM   18  C   UNL     1     -12.695  13.994  65.908  1.00  0.00    -0.436 C  
ENDBRANCH  13  17
ENDBRANCH  11  13
ENDBRANCH  10  11
ENDBRANCH   9  10
ENDBRANCH   7   9
ENDBRANCH   3   7
ENDBRANCH   2   3
TORSDOF 9
ENDMDL
MODEL      279
REMARK 921   NORMALIZED FREE ENERGY PREDICTED BY IDOCK:   -2.35 KCAL/MOL
REMARK 922        TOTAL FREE ENERGY PREDICTED BY IDOCK:   -3.99 KCAL/MOL
REMARK 923 INTER-LIGAND FREE ENERGY PREDICTED BY IDOCK:   -3.69 KCAL/MOL
REMARK 924 INTRA-LIGAND FREE ENERGY PREDICTED BY IDOCK:   -0.30 KCAL/MOL
REMARK 927      BINDING AFFINITY PREDICTED BY RF-SCORE:    0.00 PKD
ROOT
HETATM    1  C   UNL     1      -7.711   6.490  66.755  1.00  0.00    -0.099 C  
HETATM    2  C   UNL     1      -7.790   5.029  67.175  1.00  0.00    -0.096 C  
ENDROOT
BRANCH   2   3
HETATM    3  CA  UNL     1      -8.934   4.716  68.167  1.00  0.00    -0.114 C  
BRANCH   3   4
HETATM    4  C   UNL     1      -8.459   3.912  69.408  1.00  0.00    -0.064 C  
HETATM    5  H   UNL     1      -6.770   3.515  70.417  1.00  0.00     0.000 HD 
HETATM    6  O   UNL     1      -7.060   4.007  69.657  1.00  0.00    -0.044 OA 
ENDBRANCH   3   4
BRANCH   3   7
HETATM    7  N   UNL     1      -9.552   6.018  68.493  1.00  0.00    -0.119 NA 
HETATM    8  H   UNL     1      -9.756   6.544  67.644  1.00  0.00     0.000 HD 
BRANCH   7   9
HETATM    9  C   UNL     1     -10.752   5.904  69.335  1.00  0.00    -0.336 C  
BRANCH   9  10
HETATM   10  C   UNL     1     -11.158   7.287  69.887  1.00  0.00    -0.212 C  
BRANCH  10  11
HETATM   11  N   UNL     1     -12.466   7.227  70.561  1.00  0.00    -0.589 NA 
HETATM   12  H   UNL     1     -12.836   6.275  70.557  1.00  0.00     0.000 HD 
BRANCH  11  13
HETATM   13  CA  UNL     1     -12.429   7.778  71.940  1.00  0.00    -0.314 C  
BRANCH  13  14
HETATM   14  C   UNL     1     -13.538   8.846  72.086  1.00  0.00    -0.453 C  
HETATM   15  H   UNL     1     -13.676  10.814  72.041  1.00  0.00     0.000 HD 
HETATM   16  O   UNL     1     -12.994  10.158  71.952  1.00  0.00    -0.416 OA 
ENDBRANCH  13  14
BRANCH  13  17
HETATM   17  C   UNL     1     -11.063   8.357  72.360  1.00  0.00    -0.431 C  
HETATM   18  C   UNL     1     -10.301   7.529  73.386  1.00  0.00    -0.405 C  
ENDBRANCH  13  17
ENDBRANCH  11  13
ENDBRANCH  10  11
ENDBRANCH   9  10
ENDBRANCH   7   9
ENDBRANCH   3   7
ENDBRANCH   2   3
TORSDOF 9
ENDMDL
MODEL      280
REMARK 921   NORMALIZED FREE ENERGY PREDICTED BY IDOCK:   -2.34 KCAL/MOL
REMARK 922        TOTAL FREE ENERGY PREDICTED BY IDOCK:   -3.98 KCAL/MOL
REMARK 923 INTER-LIGAND FREE ENERGY PREDICTED BY IDOCK:   -3.82 KCAL/MOL
REMARK 924 INTRA-LIGAND FREE ENERGY PREDICTED BY IDOCK:   -0.16 KCAL/MOL
REMARK 927      BINDING AFFINITY PREDICTED BY RF-SCORE:    0.00 PKD
ROOT
HETATM    1  C   UNL     1     -11.638   6.732  70.818  1.00  0.00    -0.418 C  
HETATM    2  C   UNL     1     -10.937   6.651  69.469  1.00  0.00    -0.367 C  
ENDROOT
BRANCH   2   3
HETATM    3  CA  UNL     1     -10.607   8.026  68.844  1.00  0.00    -0.140 C  
BRANCH   3   4
HETATM    4  C   UNL     1     -10.766   8.045  67.299  1.00  0.00    -0.210 C  
HETATM    5  H   UNL     1     -11.253   6.804  65.798  1.00  0.00     0.000 HD 
HETATM    6  O   UNL     1     -11.155   6.792  66.743  1.00  0.00    -0.338 OA 
ENDBRANCH   3   4
BRANCH   3   7
HETATM    7  N   UNL     1     -11.459   9.005  69.549  1.00  0.00    -0.397 NA 
HETATM    8  H   UNL     1     -11.947   8.564  70.328  1.00  0.00     0.000 HD 
BRANCH   7   9
HETATM    9  C   UNL     1     -10.731  10.200  70.000  1.00  0.00    -0.305 C  
BRANCH   9  10
HETATM   10  C   UNL     1      -9.523  10.476  69.078  1.00  0.00    -0.201 C  
BRANCH  10  11
HETATM   11  N   UNL     1      -9.237  11.919  68.997  1.00  0.00    -0.375 NA 
HETATM   12  H   UNL     1      -8.409  12.159  69.543  1.00  0.00     0.000 HD 
BRANCH  11  13
HETATM   13  CA  UNL     1      -9.109  12.402  67.598  1.00  0.00    -0.186 C  
BRANCH  13  14
HETATM   14  C   UNL     1      -9.630  13.856  67.518  1.00  0.00    -0.229 C  
HETATM   15  H   UNL     1     -10.995  14.858  66.504  1.00  0.00     0.000 HD 
HETATM   16  O   UNL     1     -10.675  13.965  66.553  1.00  0.00    -0.276 OA 
ENDBRANCH  13  14
BRANCH  13  17
HETATM   17  C   UNL     1      -9.815  11.518  66.550  1.00  0.00    -0.228 C  
HETATM   18  C   UNL     1      -8.958  11.134  65.352  1.00  0.00    -0.154 C  
ENDBRANCH  13  17
ENDBRANCH  11  13
ENDBRANCH  10  11
ENDBRANCH   9  10
ENDBRANCH   7   9
ENDBRANCH   3   7
ENDBRANCH   2   3
TORSDOF 9
ENDMDL
MODEL      281
REMARK 921   NORMALIZED FREE ENERGY PREDICTED BY IDOCK:   -2.34 KCAL/MOL
REMARK 922        TOTAL FREE ENERGY PREDICTED BY IDOCK:   -3.98 KCAL/MOL
REMARK 923 INTER-LIGAND FREE ENERGY PREDICTED BY IDOCK:   -3.69 KCAL/MOL
REMARK 924 INTRA-LIGAND FREE ENERGY PREDICTED BY IDOCK:   -0.29 KCAL/MOL
REMARK 927      BINDING AFFINITY PREDICTED BY RF-SCORE:    0.00 PKD
ROOT
HETATM    1  C   UNL     1      -7.748   9.061  64.531  1.00  0.00    -0.116 C  
HETATM    2  C   UNL     1      -8.580   8.247  65.513  1.00  0.00    -0.183 C  
ENDROOT
BRANCH   2   3
HETATM    3  CA  UNL     1      -9.891   8.938  65.956  1.00  0.00    -0.207 C  
BRANCH   3   4
HETATM    4  C   UNL     1     -10.535   8.275  67.204  1.00  0.00    -0.316 C  
HETATM    5  H   UNL     1     -11.435   6.560  67.729  1.00  0.00     0.000 HD 
HETATM    6  O   UNL     1     -11.041   6.965  66.966  1.00  0.00    -0.389 OA 
ENDBRANCH   3   4
BRANCH   3   7
HETATM    7  N   UNL     1      -9.554  10.365  66.138  1.00  0.00    -0.187 NA 
HETATM    8  H   UNL     1      -9.978  10.933  65.406  1.00  0.00     0.000 HD 
BRANCH   7   9
HETATM    9  C   UNL     1      -9.904  10.885  67.468  1.00  0.00    -0.168 C  
BRANCH   9  10
HETATM   10  C   UNL     1      -9.517  12.375  67.584  1.00  0.00    -0.190 C  
BRANCH  10  11
HETATM   11  N   UNL     1      -9.845  12.906  68.919  1.00  0.00    -0.420 NA 
HETATM   12  H   UNL     1      -9.010  13.259  69.387  1.00  0.00     0.000 HD 
BRANCH  11  13
HETATM   13  CA  UNL     1     -10.910  13.941  68.880  1.00  0.00    -0.255 C  
BRANCH  13  14
HETATM   14  C   UNL     1     -12.095  13.476  69.757  1.00  0.00    -0.318 C  
HETATM   15  H   UNL     1     -12.851  13.909  71.529  1.00  0.00     0.000 HD 
HETATM   16  O   UNL     1     -12.122  14.194  70.990  1.00  0.00    -0.337 OA 
ENDBRANCH  13  14
BRANCH  13  17
HETATM   17  C   UNL     1     -11.397  14.303  67.462  1.00  0.00    -0.346 C  
HETATM   18  C   UNL     1     -10.991  15.688  66.977  1.00  0.00    -0.261 C  
ENDBRANCH  13  17
ENDBRANCH  11  13
ENDBRANCH  10  11
ENDBRANCH   9  10
ENDBRANCH   7   9
ENDBRANCH   3   7
ENDBRANCH   2   3
TORSDOF 9
ENDMDL
MODEL      282
REMARK 921   NORMALIZED FREE ENERGY PREDICTED BY IDOCK:   -2.34 KCAL/MOL
REMARK 922        TOTAL FREE ENERGY PREDICTED BY IDOCK:   -3.98 KCAL/MOL
REMARK 923 INTER-LIGAND FREE ENERGY PREDICTED BY IDOCK:   -3.67 KCAL/MOL
REMARK 924 INTRA-LIGAND FREE ENERGY PREDICTED BY IDOCK:   -0.31 KCAL/MOL
REMARK 927      BINDING AFFINITY PREDICTED BY RF-SCORE:    0.00 PKD
ROOT
HETATM    1  C   UNL     1     -12.635  11.860  63.353  1.00  0.00    -0.555 C  
HETATM    2  C   UNL     1     -12.247  13.313  63.587  1.00  0.00    -0.522 C  
ENDROOT
BRANCH   2   3
HETATM    3  CA  UNL     1     -11.254  13.523  64.754  1.00  0.00    -0.352 C  
BRANCH   3   4
HETATM    4  C   UNL     1     -10.227  12.367  64.893  1.00  0.00    -0.278 C  
HETATM    5  H   UNL     1      -8.859  11.686  66.196  1.00  0.00     0.000 HD 
HETATM    6  O   UNL     1      -9.488  12.393  66.111  1.00  0.00    -0.238 OA 
ENDBRANCH   3   4
BRANCH   3   7
HETATM    7  N   UNL     1     -10.641  14.848  64.528  1.00  0.00    -0.556 NA 
HETATM    8  H   UNL     1     -10.892  15.210  63.608  1.00  0.00     0.000 HD 
BRANCH   7   9
HETATM    9  C   UNL     1     -10.959  15.828  65.577  1.00  0.00    -0.268 C  
BRANCH   9  10
HETATM   10  C   UNL     1      -9.855  15.841  66.657  1.00  0.00    -0.252 C  
BRANCH  10  11
HETATM   11  N   UNL     1      -8.952  16.991  66.479  1.00  0.00    -0.254 NA 
HETATM   12  H   UNL     1      -9.314  17.817  66.956  1.00  0.00     0.000 HD 
BRANCH  11  13
HETATM   13  CA  UNL     1      -7.559  16.699  66.903  1.00  0.00    -0.227 C  
BRANCH  13  14
HETATM   14  C   UNL     1      -7.283  17.405  68.251  1.00  0.00    -0.214 C  
HETATM   15  H   UNL     1      -6.689  16.898  70.063  1.00  0.00     0.000 HD 
HETATM   16  O   UNL     1      -6.858  16.464  69.235  1.00  0.00    -0.199 OA 
ENDBRANCH  13  14
BRANCH  13  17
HETATM   17  C   UNL     1      -6.482  17.079  65.865  1.00  0.00     0.455 C  
HETATM   18  C   UNL     1      -5.695  18.342  66.189  1.00  0.00    -0.213 C  
ENDBRANCH  13  17
ENDBRANCH  11  13
ENDBRANCH  10  11
ENDBRANCH   9  10
ENDBRANCH   7   9
ENDBRANCH   3   7
ENDBRANCH   2   3
TORSDOF 9
ENDMDL
MODEL      283
REMARK 921   NORMALIZED FREE ENERGY PREDICTED BY IDOCK:   -2.34 KCAL/MOL
REMARK 922        TOTAL FREE ENERGY PREDICTED BY IDOCK:   -3.98 KCAL/MOL
REMARK 923 INTER-LIGAND FREE ENERGY PREDICTED BY IDOCK:   -3.75 KCAL/MOL
REMARK 924 INTRA-LIGAND FREE ENERGY PREDICTED BY IDOCK:   -0.23 KCAL/MOL
REMARK 927      BINDING AFFINITY PREDICTED BY RF-SCORE:    0.00 PKD
ROOT
HETATM    1  C   UNL     1      -8.641   5.793  68.763  1.00  0.00    -0.109 C  
HETATM    2  C   UNL     1      -8.578   6.595  67.470  1.00  0.00    -0.120 C  
ENDROOT
BRANCH   2   3
HETATM    3  CA  UNL     1      -9.026   8.068  67.617  1.00  0.00    -0.135 C  
BRANCH   3   4
HETATM    4  C   UNL     1     -10.244   8.424  66.721  1.00  0.00    -0.306 C  
HETATM    5  H   UNL     1     -10.687   9.562  65.127  1.00  0.00     0.000 HD 
HETATM    6  O   UNL     1      -9.942   9.344  65.675  1.00  0.00    -0.304 OA 
ENDBRANCH   3   4
BRANCH   3   7
HETATM    7  N   UNL     1      -9.260   8.277  69.061  1.00  0.00    -0.147 NA 
HETATM    8  H   UNL     1      -8.440   8.005  69.602  1.00  0.00     0.000 HD 
BRANCH   7   9
HETATM    9  C   UNL     1      -9.674   9.647  69.396  1.00  0.00    -0.194 C  
BRANCH   9  10
HETATM   10  C   UNL     1     -11.143   9.666  69.873  1.00  0.00    -0.235 C  
BRANCH  10  11
HETATM   11  N   UNL     1     -11.224   9.733  71.342  1.00  0.00    -0.352 NA 
HETATM   12  H   UNL     1     -10.398  10.187  71.733  1.00  0.00     0.000 HD 
BRANCH  11  13
HETATM   13  CA  UNL     1     -12.468  10.387  71.821  1.00  0.00    -0.302 C  
BRANCH  13  14
HETATM   14  C   UNL     1     -13.635   9.376  71.731  1.00  0.00    -0.388 C  
HETATM   15  H   UNL     1     -14.457   7.999  72.882  1.00  0.00     0.000 HD 
HETATM   16  O   UNL     1     -13.740   8.620  72.937  1.00  0.00    -0.227 OA 
ENDBRANCH  13  14
BRANCH  13  17
HETATM   17  C   UNL     1     -12.828  11.693  71.083  1.00  0.00    -0.392 C  
HETATM   18  C   UNL     1     -13.434  12.780  71.960  1.00  0.00    -0.540 C  
ENDBRANCH  13  17
ENDBRANCH  11  13
ENDBRANCH  10  11
ENDBRANCH   9  10
ENDBRANCH   7   9
ENDBRANCH   3   7
ENDBRANCH   2   3
TORSDOF 9
ENDMDL
MODEL      284
REMARK 921   NORMALIZED FREE ENERGY PREDICTED BY IDOCK:   -2.32 KCAL/MOL
REMARK 922        TOTAL FREE ENERGY PREDICTED BY IDOCK:   -3.95 KCAL/MOL
REMARK 923 INTER-LIGAND FREE ENERGY PREDICTED BY IDOCK:   -3.73 KCAL/MOL
REMARK 924 INTRA-LIGAND FREE ENERGY PREDICTED BY IDOCK:   -0.22 KCAL/MOL
REMARK 927      BINDING AFFINITY PREDICTED BY RF-SCORE:    0.00 PKD
ROOT
HETATM    1  C   UNL     1      -8.200   8.269  69.588  1.00  0.00    -0.118 C  
HETATM    2  C   UNL     1      -9.264   8.736  70.571  1.00  0.00    -0.218 C  
ENDROOT
BRANCH   2   3
HETATM    3  CA  UNL     1     -10.709   8.362  70.166  1.00  0.00    -0.236 C  
BRANCH   3   4
HETATM    4  C   UNL     1     -11.457   7.552  71.259  1.00  0.00    -0.274 C  
HETATM    5  H   UNL     1     -12.716   5.996  71.416  1.00  0.00     0.000 HD 
HETATM    6  O   UNL     1     -12.258   6.492  70.746  1.00  0.00    -0.328 OA 
ENDBRANCH   3   4
BRANCH   3   7
HETATM    7  N   UNL     1     -11.368   9.634  69.802  1.00  0.00    -0.403 NA 
HETATM    8  H   UNL     1     -11.053  10.390  70.411  1.00  0.00     0.000 HD 
BRANCH   7   9
HETATM    9  C   UNL     1     -11.198  10.000  68.389  1.00  0.00    -0.127 C  
BRANCH   9  10
HETATM   10  C   UNL     1     -11.691  11.443  68.141  1.00  0.00    -0.284 C  
BRANCH  10  11
HETATM   11  N   UNL     1     -10.958  12.405  68.982  1.00  0.00    -0.348 NA 
HETATM   12  H   UNL     1     -10.227  11.939  69.519  1.00  0.00     0.000 HD 
BRANCH  11  13
HETATM   13  CA  UNL     1     -10.405  13.543  68.205  1.00  0.00    -0.252 C  
BRANCH  13  14
HETATM   14  C   UNL     1     -10.849  14.869  68.867  1.00  0.00    -0.250 C  
HETATM   15  H   UNL     1      -9.993  16.500  69.573  1.00  0.00     0.000 HD 
HETATM   16  O   UNL     1      -9.719  15.686  69.167  1.00  0.00    -0.214 OA 
ENDBRANCH  13  14
BRANCH  13  17
HETATM   17  C   UNL     1     -10.777  13.536  66.709  1.00  0.00    -0.278 C  
HETATM   18  C   UNL     1     -11.936  14.449  66.330  1.00  0.00    -0.402 C  
ENDBRANCH  13  17
ENDBRANCH  11  13
ENDBRANCH  10  11
ENDBRANCH   9  10
ENDBRANCH   7   9
ENDBRANCH   3   7
ENDBRANCH   2   3
TORSDOF 9
ENDMDL
MODEL      285
REMARK 921   NORMALIZED FREE ENERGY PREDICTED BY IDOCK:   -2.31 KCAL/MOL
REMARK 922        TOTAL FREE ENERGY PREDICTED BY IDOCK:   -3.94 KCAL/MOL
REMARK 923 INTER-LIGAND FREE ENERGY PREDICTED BY IDOCK:   -3.29 KCAL/MOL
REMARK 924 INTRA-LIGAND FREE ENERGY PREDICTED BY IDOCK:   -0.65 KCAL/MOL
REMARK 927      BINDING AFFINITY PREDICTED BY RF-SCORE:    0.00 PKD
ROOT
HETATM    1  C   UNL     1     -10.735   9.765  70.614  1.00  0.00    -0.394 C  
HETATM    2  C   UNL     1     -11.492   8.906  71.617  1.00  0.00    -0.409 C  
ENDROOT
BRANCH   2   3
HETATM    3  CA  UNL     1     -10.932   7.472  71.773  1.00  0.00    -0.234 C  
BRANCH   3   4
HETATM    4  C   UNL     1     -12.042   6.406  71.983  1.00  0.00    -0.303 C  
HETATM    5  H   UNL     1     -12.340   4.685  72.971  1.00  0.00     0.000 HD 
HETATM    6  O   UNL     1     -11.661   5.337  72.843  1.00  0.00    -0.310 OA 
ENDBRANCH   3   4
BRANCH   3   7
HETATM    7  N   UNL     1     -10.089   7.237  70.583  1.00  0.00    -0.194 NA 
HETATM    8  H   UNL     1      -9.870   8.117  70.116  1.00  0.00     0.000 HD 
BRANCH   7   9
HETATM    9  C   UNL     1      -8.862   6.483  70.873  1.00  0.00    -0.147 C  
BRANCH   9  10
HETATM   10  C   UNL     1      -8.379   5.730  69.614  1.00  0.00    -0.112 C  
BRANCH  10  11
HETATM   11  N   UNL     1      -9.491   5.013  68.965  1.00  0.00    -0.127 NA 
HETATM   12  H   UNL     1     -10.391   5.343  69.313  1.00  0.00     0.000 HD 
BRANCH  11  13
HETATM   13  CA  UNL     1      -9.434   5.084  67.483  1.00  0.00    -0.135 C  
BRANCH  13  14
HETATM   14  C   UNL     1     -10.550   6.029  66.980  1.00  0.00    -0.316 C  
HETATM   15  H   UNL     1     -12.089   6.998  67.746  1.00  0.00     0.000 HD 
HETATM   16  O   UNL     1     -11.404   6.417  68.055  1.00  0.00    -0.267 OA 
ENDBRANCH  13  14
BRANCH  13  17
HETATM   17  C   UNL     1      -9.525   3.717  66.774  1.00  0.00    -0.203 C  
HETATM   18  C   UNL     1      -9.080   3.717  65.317  1.00  0.00    -0.143 C  
ENDBRANCH  13  17
ENDBRANCH  11  13
ENDBRANCH  10  11
ENDBRANCH   9  10
ENDBRANCH   7   9
ENDBRANCH   3   7
ENDBRANCH   2   3
TORSDOF 9
ENDMDL
MODEL      286
REMARK 921   NORMALIZED FREE ENERGY PREDICTED BY IDOCK:   -2.31 KCAL/MOL
REMARK 922        TOTAL FREE ENERGY PREDICTED BY IDOCK:   -3.93 KCAL/MOL
REMARK 923 INTER-LIGAND FREE ENERGY PREDICTED BY IDOCK:   -3.54 KCAL/MOL
REMARK 924 INTRA-LIGAND FREE ENERGY PREDICTED BY IDOCK:   -0.39 KCAL/MOL
REMARK 927      BINDING AFFINITY PREDICTED BY RF-SCORE:    0.00 PKD
ROOT
HETATM    1  C   UNL     1      -6.960   6.162  66.079  1.00  0.00    -0.062 C  
HETATM    2  C   UNL     1      -7.889   5.074  65.557  1.00  0.00    -0.092 C  
ENDROOT
BRANCH   2   3
HETATM    3  CA  UNL     1      -9.380   5.293  65.906  1.00  0.00    -0.155 C  
BRANCH   3   4
HETATM    4  C   UNL     1      -9.909   4.291  66.968  1.00  0.00    -0.179 C  
HETATM    5  H   UNL     1      -9.214   3.119  68.442  1.00  0.00     0.000 HD 
HETATM    6  O   UNL     1      -8.890   3.732  67.792  1.00  0.00    -0.100 OA 
ENDBRANCH   3   4
BRANCH   3   7
HETATM    7  N   UNL     1      -9.496   6.711  66.305  1.00  0.00    -0.326 NA 
HETATM    8  H   UNL     1      -9.546   7.314  65.484  1.00  0.00     0.000 HD 
BRANCH   7   9
HETATM    9  C   UNL     1     -10.622   6.974  67.213  1.00  0.00    -0.325 C  
BRANCH   9  10
HETATM   10  C   UNL     1     -10.273   8.119  68.189  1.00  0.00    -0.209 C  
BRANCH  10  11
HETATM   11  N   UNL     1     -11.259   8.206  69.280  1.00  0.00    -0.412 NA 
HETATM   12  H   UNL     1     -11.955   7.463  69.203  1.00  0.00     0.000 HD 
BRANCH  11  13
HETATM   13  CA  UNL     1     -10.630   8.208  70.625  1.00  0.00    -0.215 C  
BRANCH  13  14
HETATM   14  C   UNL     1     -11.155   6.997  71.430  1.00  0.00    -0.245 C  
HETATM   15  H   UNL     1     -12.870   6.054  71.685  1.00  0.00     0.000 HD 
HETATM   16  O   UNL     1     -12.548   6.799  71.191  1.00  0.00    -0.353 OA 
ENDBRANCH  13  14
BRANCH  13  17
HETATM   17  C   UNL     1     -10.832   9.513  71.422  1.00  0.00    -0.382 C  
HETATM   18  C   UNL     1     -12.070  10.314  71.041  1.00  0.00    -0.487 C  
ENDBRANCH  13  17
ENDBRANCH  11  13
ENDBRANCH  10  11
ENDBRANCH   9  10
ENDBRANCH   7   9
ENDBRANCH   3   7
ENDBRANCH   2   3
TORSDOF 9
ENDMDL
MODEL      287
REMARK 921   NORMALIZED FREE ENERGY PREDICTED BY IDOCK:   -2.31 KCAL/MOL
REMARK 922        TOTAL FREE ENERGY PREDICTED BY IDOCK:   -3.93 KCAL/MOL
REMARK 923 INTER-LIGAND FREE ENERGY PREDICTED BY IDOCK:   -3.61 KCAL/MOL
REMARK 924 INTRA-LIGAND FREE ENERGY PREDICTED BY IDOCK:   -0.32 KCAL/MOL
REMARK 927      BINDING AFFINITY PREDICTED BY RF-SCORE:    0.00 PKD
ROOT
HETATM    1  C   UNL     1      -9.633   9.092  68.224  1.00  0.00    -0.161 C  
HETATM    2  C   UNL     1      -9.715  10.386  69.021  1.00  0.00    -0.216 C  
ENDROOT
BRANCH   2   3
HETATM    3  CA  UNL     1     -11.003  10.530  69.865  1.00  0.00    -0.298 C  
BRANCH   3   4
HETATM    4  C   UNL     1     -11.939  11.661  69.357  1.00  0.00    -0.316 C  
HETATM    5  H   UNL     1     -12.649  12.395  67.629  1.00  0.00     0.000 HD 
HETATM    6  O   UNL     1     -12.077  11.704  67.939  1.00  0.00    -0.613 OA 
ENDBRANCH   3   4
BRANCH   3   7
HETATM    7  N   UNL     1     -11.629   9.191  69.877  1.00  0.00    -0.447 NA 
HETATM    8  H   UNL     1     -11.021   8.505  69.431  1.00  0.00     0.000 HD 
BRANCH   7   9
HETATM    9  C   UNL     1     -12.025   8.741  71.219  1.00  0.00    -0.301 C  
BRANCH   9  10
HETATM   10  C   UNL     1     -10.787   8.612  72.133  1.00  0.00    -0.354 C  
BRANCH  10  11
HETATM   11  N   UNL     1     -10.069   7.351  71.879  1.00  0.00    -0.178 NA 
HETATM   12  H   UNL     1      -9.654   7.348  70.947  1.00  0.00     0.000 HD 
BRANCH  11  13
HETATM   13  CA  UNL     1      -9.050   7.050  72.917  1.00  0.00    -0.134 C  
BRANCH  13  14
HETATM   14  C   UNL     1      -7.644   7.334  72.339  1.00  0.00    -0.088 C  
HETATM   15  H   UNL     1      -6.763   8.752  71.286  1.00  0.00     0.000 HD 
HETATM   16  O   UNL     1      -7.627   8.578  71.641  1.00  0.00    -0.096 OA 
ENDBRANCH  13  14
BRANCH  13  17
HETATM   17  C   UNL     1      -9.120   5.619  73.486  1.00  0.00    -0.131 C  
HETATM   18  C   UNL     1     -10.517   5.015  73.537  1.00  0.00    -0.278 C  
ENDBRANCH  13  17
ENDBRANCH  11  13
ENDBRANCH  10  11
ENDBRANCH   9  10
ENDBRANCH   7   9
ENDBRANCH   3   7
ENDBRANCH   2   3
TORSDOF 9
ENDMDL
MODEL      288
REMARK 921   NORMALIZED FREE ENERGY PREDICTED BY IDOCK:   -2.28 KCAL/MOL
REMARK 922        TOTAL FREE ENERGY PREDICTED BY IDOCK:   -3.89 KCAL/MOL
REMARK 923 INTER-LIGAND FREE ENERGY PREDICTED BY IDOCK:   -3.43 KCAL/MOL
REMARK 924 INTRA-LIGAND FREE ENERGY PREDICTED BY IDOCK:   -0.46 KCAL/MOL
REMARK 927      BINDING AFFINITY PREDICTED BY RF-SCORE:    0.00 PKD
ROOT
HETATM    1  C   UNL     1      -7.363  10.730  66.766  1.00  0.00    -0.129 C  
HETATM    2  C   UNL     1      -8.457  11.787  66.807  1.00  0.00    -0.177 C  
ENDROOT
BRANCH   2   3
HETATM    3  CA  UNL     1      -9.879  11.236  66.550  1.00  0.00    -0.208 C  
BRANCH   3   4
HETATM    4  C   UNL     1      -9.903  10.070  65.524  1.00  0.00    -0.303 C  
HETATM    5  H   UNL     1     -10.300   8.103  65.455  1.00  0.00     0.000 HD 
HETATM    6  O   UNL     1     -10.285   8.817  66.083  1.00  0.00    -0.233 OA 
ENDBRANCH   3   4
BRANCH   3   7
HETATM    7  N   UNL     1     -10.420  10.880  67.878  1.00  0.00    -0.184 NA 
HETATM    8  H   UNL     1     -10.039   9.988  68.196  1.00  0.00     0.000 HD 
BRANCH   7   9
HETATM    9  C   UNL     1     -10.216  11.923  68.893  1.00  0.00    -0.075 C  
BRANCH   9  10
HETATM   10  C   UNL     1     -11.574  12.461  69.394  1.00  0.00    -0.307 C  
BRANCH  10  11
HETATM   11  N   UNL     1     -11.471  13.876  69.790  1.00  0.00    -0.391 NA 
HETATM   12  H   UNL     1     -11.223  13.963  70.776  1.00  0.00     0.000 HD 
BRANCH  11  13
HETATM   13  CA  UNL     1     -10.532  14.646  68.935  1.00  0.00    -0.248 C  
BRANCH  13  14
HETATM   14  C   UNL     1      -9.694  15.589  69.829  1.00  0.00    -0.241 C  
HETATM   15  H   UNL     1      -7.964  16.534  69.726  1.00  0.00     0.000 HD 
HETATM   16  O   UNL     1      -8.479  15.954  69.177  1.00  0.00    -0.229 OA 
ENDBRANCH  13  14
BRANCH  13  17
HETATM   17  C   UNL     1     -11.207  15.440  67.798  1.00  0.00    -0.321 C  
HETATM   18  C   UNL     1     -11.788  14.589  66.677  1.00  0.00    -0.383 C  
ENDBRANCH  13  17
ENDBRANCH  11  13
ENDBRANCH  10  11
ENDBRANCH   9  10
ENDBRANCH   7   9
ENDBRANCH   3   7
ENDBRANCH   2   3
TORSDOF 9
ENDMDL
MODEL      289
REMARK 921   NORMALIZED FREE ENERGY PREDICTED BY IDOCK:   -2.28 KCAL/MOL
REMARK 922        TOTAL FREE ENERGY PREDICTED BY IDOCK:   -3.89 KCAL/MOL
REMARK 923 INTER-LIGAND FREE ENERGY PREDICTED BY IDOCK:   -3.60 KCAL/MOL
REMARK 924 INTRA-LIGAND FREE ENERGY PREDICTED BY IDOCK:   -0.28 KCAL/MOL
REMARK 927      BINDING AFFINITY PREDICTED BY RF-SCORE:    0.00 PKD
ROOT
HETATM    1  C   UNL     1     -10.407   5.557  72.899  1.00  0.00    -0.227 C  
HETATM    2  C   UNL     1     -11.230   6.068  71.725  1.00  0.00    -0.333 C  
ENDROOT
BRANCH   2   3
HETATM    3  CA  UNL     1     -10.454   7.001  70.766  1.00  0.00    -0.212 C  
BRANCH   3   4
HETATM    4  C   UNL     1      -9.488   6.235  69.822  1.00  0.00    -0.151 C  
HETATM    5  H   UNL     1      -9.428   4.544  68.743  1.00  0.00     0.000 HD 
HETATM    6  O   UNL     1     -10.019   5.012  69.321  1.00  0.00    -0.183 OA 
ENDBRANCH   3   4
BRANCH   3   7
HETATM    7  N   UNL     1     -11.480   7.798  70.061  1.00  0.00    -0.470 NA 
HETATM    8  H   UNL     1     -12.151   8.188  70.722  1.00  0.00     0.000 HD 
BRANCH   7   9
HETATM    9  C   UNL     1     -10.918   8.853  69.207  1.00  0.00    -0.006 C  
BRANCH   9  10
HETATM   10  C   UNL     1     -10.718  10.154  70.015  1.00  0.00    -0.305 C  
BRANCH  10  11
HETATM   11  N   UNL     1      -9.670  10.997  69.415  1.00  0.00    -0.427 NA 
HETATM   12  H   UNL     1      -8.957  10.425  68.960  1.00  0.00     0.000 HD 
BRANCH  11  13
HETATM   13  CA  UNL     1     -10.214  12.014  68.480  1.00  0.00    -0.212 C  
BRANCH  13  14
HETATM   14  C   UNL     1      -9.086  12.996  68.091  1.00  0.00    -0.204 C  
HETATM   15  H   UNL     1      -7.140  12.921  67.763  1.00  0.00     0.000 HD 
HETATM   16  O   UNL     1      -7.834  12.317  68.003  1.00  0.00    -0.126 OA 
ENDBRANCH  13  14
BRANCH  13  17
HETATM   17  C   UNL     1     -11.439  12.784  69.015  1.00  0.00    -0.360 C  
HETATM   18  C   UNL     1     -12.025  13.808  68.053  1.00  0.00    -0.390 C  
ENDBRANCH  13  17
ENDBRANCH  11  13
ENDBRANCH  10  11
ENDBRANCH   9  10
ENDBRANCH   7   9
ENDBRANCH   3   7
ENDBRANCH   2   3
TORSDOF 9
ENDMDL
MODEL      290
REMARK 921   NORMALIZED FREE ENERGY PREDICTED BY IDOCK:   -2.28 KCAL/MOL
REMARK 922        TOTAL FREE ENERGY PREDICTED BY IDOCK:   -3.89 KCAL/MOL
REMARK 923 INTER-LIGAND FREE ENERGY PREDICTED BY IDOCK:   -3.69 KCAL/MOL
REMARK 924 INTRA-LIGAND FREE ENERGY PREDICTED BY IDOCK:   -0.20 KCAL/MOL
REMARK 927      BINDING AFFINITY PREDICTED BY RF-SCORE:    0.00 PKD
ROOT
HETATM    1  C   UNL     1      -7.117  16.039  68.301  1.00  0.00    -0.122 C  
HETATM    2  C   UNL     1      -7.751  15.450  67.049  1.00  0.00    -0.220 C  
ENDROOT
BRANCH   2   3
HETATM    3  CA  UNL     1      -9.166  14.866  67.271  1.00  0.00    -0.204 C  
BRANCH   3   4
HETATM    4  C   UNL     1      -9.986  14.744  65.958  1.00  0.00    -0.313 C  
HETATM    5  H   UNL     1     -11.287  15.812  64.864  1.00  0.00     0.000 HD 
HETATM    6  O   UNL     1     -10.786  15.886  65.667  1.00  0.00    -0.341 OA 
ENDBRANCH   3   4
BRANCH   3   7
HETATM    7  N   UNL     1      -8.966  13.583  67.977  1.00  0.00    -0.182 NA 
HETATM    8  H   UNL     1      -8.463  13.728  68.852  1.00  0.00     0.000 HD 
BRANCH   7   9
HETATM    9  C   UNL     1     -10.213  12.841  68.210  1.00  0.00    -0.244 C  
BRANCH   9  10
HETATM   10  C   UNL     1      -9.925  11.330  68.348  1.00  0.00    -0.197 C  
BRANCH  10  11
HETATM   11  N   UNL     1     -11.157  10.580  68.648  1.00  0.00    -0.252 NA 
HETATM   12  H   UNL     1     -11.256   9.777  68.027  1.00  0.00     0.000 HD 
BRANCH  11  13
HETATM   13  CA  UNL     1     -11.248  10.167  70.071  1.00  0.00    -0.299 C  
BRANCH  13  14
HETATM   14  C   UNL     1     -10.703   8.727  70.214  1.00  0.00    -0.227 C  
HETATM   15  H   UNL     1     -10.293   7.203  69.028  1.00  0.00     0.000 HD 
HETATM   16  O   UNL     1     -10.628   8.088  68.940  1.00  0.00    -0.210 OA 
ENDBRANCH  13  14
BRANCH  13  17
HETATM   17  C   UNL     1     -12.662  10.272  70.678  1.00  0.00    -0.382 C  
HETATM   18  C   UNL     1     -12.869  11.445  71.627  1.00  0.00    -0.497 C  
ENDBRANCH  13  17
ENDBRANCH  11  13
ENDBRANCH  10  11
ENDBRANCH   9  10
ENDBRANCH   7   9
ENDBRANCH   3   7
ENDBRANCH   2   3
TORSDOF 9
ENDMDL
MODEL      291
REMARK 921   NORMALIZED FREE ENERGY PREDICTED BY IDOCK:   -2.25 KCAL/MOL
REMARK 922        TOTAL FREE ENERGY PREDICTED BY IDOCK:   -3.85 KCAL/MOL
REMARK 923 INTER-LIGAND FREE ENERGY PREDICTED BY IDOCK:   -3.35 KCAL/MOL
REMARK 924 INTRA-LIGAND FREE ENERGY PREDICTED BY IDOCK:   -0.50 KCAL/MOL
REMARK 927      BINDING AFFINITY PREDICTED BY RF-SCORE:    0.00 PKD
ROOT
HETATM    1  C   UNL     1     -10.603   4.749  65.905  1.00  0.00    -0.290 C  
HETATM    2  C   UNL     1     -10.992   5.976  66.717  1.00  0.00    -0.305 C  
ENDROOT
BRANCH   2   3
HETATM    3  CA  UNL     1      -9.889   7.058  66.796  1.00  0.00    -0.186 C  
BRANCH   3   4
HETATM    4  C   UNL     1     -10.457   8.493  66.971  1.00  0.00    -0.292 C  
HETATM    5  H   UNL     1      -9.907  10.273  67.718  1.00  0.00     0.000 HD 
HETATM    6  O   UNL     1      -9.560   9.395  67.611  1.00  0.00    -0.131 OA 
ENDBRANCH   3   4
BRANCH   3   7
HETATM    7  N   UNL     1      -8.983   6.633  67.883  1.00  0.00    -0.114 NA 
HETATM    8  H   UNL     1      -8.300   7.361  68.090  1.00  0.00     0.000 HD 
BRANCH   7   9
HETATM    9  C   UNL     1      -9.687   6.218  69.105  1.00  0.00    -0.135 C  
BRANCH   9  10
HETATM   10  C   UNL     1      -9.288   7.123  70.291  1.00  0.00    -0.155 C  
BRANCH  10  11
HETATM   11  N   UNL     1     -10.229   8.246  70.442  1.00  0.00    -0.198 NA 
HETATM   12  H   UNL     1     -10.632   8.509  69.542  1.00  0.00     0.000 HD 
BRANCH  11  13
HETATM   13  CA  UNL     1     -11.292   7.976  71.443  1.00  0.00    -0.256 C  
BRANCH  13  14
HETATM   14  C   UNL     1     -10.651   7.350  72.703  1.00  0.00    -0.275 C  
HETATM   15  H   UNL     1     -10.722   5.631  73.670  1.00  0.00     0.000 HD 
HETATM   16  O   UNL     1     -11.117   6.015  72.896  1.00  0.00    -0.253 OA 
ENDBRANCH  13  14
BRANCH  13  17
HETATM   17  C   UNL     1     -12.445   7.090  70.928  1.00  0.00    -0.319 C  
HETATM   18  C   UNL     1     -13.838   7.545  71.338  1.00  0.00    -0.439 C  
ENDBRANCH  13  17
ENDBRANCH  11  13
ENDBRANCH  10  11
ENDBRANCH   9  10
ENDBRANCH   7   9
ENDBRANCH   3   7
ENDBRANCH   2   3
TORSDOF 9
ENDMDL
MODEL      292
REMARK 921   NORMALIZED FREE ENERGY PREDICTED BY IDOCK:   -2.24 KCAL/MOL
REMARK 922        TOTAL FREE ENERGY PREDICTED BY IDOCK:   -3.83 KCAL/MOL
REMARK 923 INTER-LIGAND FREE ENERGY PREDICTED BY IDOCK:   -3.42 KCAL/MOL
REMARK 924 INTRA-LIGAND FREE ENERGY PREDICTED BY IDOCK:   -0.41 KCAL/MOL
REMARK 927      BINDING AFFINITY PREDICTED BY RF-SCORE:    0.00 PKD
ROOT
HETATM    1  C   UNL     1      -8.950   4.720  73.091  1.00  0.00    -0.115 C  
HETATM    2  C   UNL     1      -8.586   4.724  71.613  1.00  0.00    -0.129 C  
ENDROOT
BRANCH   2   3
HETATM    3  CA  UNL     1      -9.223   5.879  70.807  1.00  0.00    -0.153 C  
BRANCH   3   4
HETATM    4  C   UNL     1     -10.228   5.386  69.730  1.00  0.00    -0.278 C  
HETATM    5  H   UNL     1     -10.427   5.343  67.733  1.00  0.00     0.000 HD 
HETATM    6  O   UNL     1      -9.813   5.645  68.392  1.00  0.00    -0.125 OA 
ENDBRANCH   3   4
BRANCH   3   7
HETATM    7  N   UNL     1      -9.814   6.791  71.808  1.00  0.00    -0.165 NA 
HETATM    8  H   UNL     1      -9.113   7.442  72.162  1.00  0.00     0.000 HD 
BRANCH   7   9
HETATM    9  C   UNL     1     -10.995   7.516  71.317  1.00  0.00    -0.242 C  
BRANCH   9  10
HETATM   10  C   UNL     1     -10.638   8.986  71.009  1.00  0.00    -0.271 C  
BRANCH  10  11
HETATM   11  N   UNL     1     -11.779   9.695  70.406  1.00  0.00    -0.386 NA 
HETATM   12  H   UNL     1     -12.435   9.038  69.982  1.00  0.00     0.000 HD 
BRANCH  11  13
HETATM   13  CA  UNL     1     -12.471  10.594  71.365  1.00  0.00    -0.390 C  
BRANCH  13  14
HETATM   14  C   UNL     1     -13.892  10.046  71.633  1.00  0.00     0.009 C  
HETATM   15  H   UNL     1     -14.756   8.804  72.901  1.00  0.00     0.000 HD 
HETATM   16  O   UNL     1     -13.883   9.140  72.736  1.00  0.00    -0.430 OA 
ENDBRANCH  13  14
BRANCH  13  17
HETATM   17  C   UNL     1     -12.536  12.070  70.924  1.00  0.00    -0.384 C  
HETATM   18  C   UNL     1     -11.672  12.420  69.720  1.00  0.00    -0.361 C  
ENDBRANCH  13  17
ENDBRANCH  11  13
ENDBRANCH  10  11
ENDBRANCH   9  10
ENDBRANCH   7   9
ENDBRANCH   3   7
ENDBRANCH   2   3
TORSDOF 9
ENDMDL
MODEL      293
REMARK 921   NORMALIZED FREE ENERGY PREDICTED BY IDOCK:   -2.23 KCAL/MOL
REMARK 922        TOTAL FREE ENERGY PREDICTED BY IDOCK:   -3.81 KCAL/MOL
REMARK 923 INTER-LIGAND FREE ENERGY PREDICTED BY IDOCK:   -4.39 KCAL/MOL
REMARK 924 INTRA-LIGAND FREE ENERGY PREDICTED BY IDOCK:    0.58 KCAL/MOL
REMARK 927      BINDING AFFINITY PREDICTED BY RF-SCORE:    0.00 PKD
ROOT
HETATM    1  C   UNL     1     -12.378  15.849  71.881  1.00  0.00    -0.541 C  
HETATM    2  C   UNL     1     -11.268  15.430  70.928  1.00  0.00    -0.397 C  
ENDROOT
BRANCH   2   3
HETATM    3  CA  UNL     1     -11.374  16.055  69.517  1.00  0.00    -0.344 C  
BRANCH   3   4
HETATM    4  C   UNL     1     -10.047  16.703  69.038  1.00  0.00    -0.293 C  
HETATM    5  H   UNL     1      -9.302  18.514  68.597  1.00  0.00     0.000 HD 
HETATM    6  O   UNL     1     -10.115  18.118  68.890  1.00  0.00    -0.381 OA 
ENDBRANCH   3   4
BRANCH   3   7
HETATM    7  N   UNL     1     -11.872  14.979  68.636  1.00  0.00    -0.475 NA 
HETATM    8  H   UNL     1     -12.854  15.126  68.405  1.00  0.00     0.000 HD 
BRANCH   7   9
HETATM    9  C   UNL     1     -11.072  14.804  67.415  1.00  0.00    -0.324 C  
BRANCH   9  10
HETATM   10  C   UNL     1     -11.720  13.749  66.491  1.00  0.00    -0.385 C  
BRANCH  10  11
HETATM   11  N   UNL     1     -10.755  13.252  65.495  1.00  0.00    -0.283 NA 
HETATM   12  H   UNL     1     -10.312  14.025  64.998  1.00  0.00     0.000 HD 
BRANCH  11  13
HETATM   13  CA  UNL     1      -9.738  12.344  66.083  1.00  0.00    -0.246 C  
BRANCH  13  14
HETATM   14  C   UNL     1     -10.178  10.879  65.857  1.00  0.00    -0.257 C  
HETATM   15  H   UNL     1     -11.226   9.865  64.527  1.00  0.00     0.000 HD 
HETATM   16  O   UNL     1     -10.956  10.765  64.666  1.00  0.00    -0.123 OA 
ENDBRANCH  13  14
BRANCH  13  17
HETATM   17  C   UNL     1      -9.445  12.594  67.576  1.00  0.00    -0.186 C  
HETATM   18  C   UNL     1      -8.047  12.199  68.032  1.00  0.00    -0.155 C  
ENDBRANCH  13  17
ENDBRANCH  11  13
ENDBRANCH  10  11
ENDBRANCH   9  10
ENDBRANCH   7   9
ENDBRANCH   3   7
ENDBRANCH   2   3
TORSDOF 9
ENDMDL
MODEL      294
REMARK 921   NORMALIZED FREE ENERGY PREDICTED BY IDOCK:   -2.21 KCAL/MOL
REMARK 922        TOTAL FREE ENERGY PREDICTED BY IDOCK:   -3.79 KCAL/MOL
REMARK 923 INTER-LIGAND FREE ENERGY PREDICTED BY IDOCK:   -3.50 KCAL/MOL
REMARK 924 INTRA-LIGAND FREE ENERGY PREDICTED BY IDOCK:   -0.29 KCAL/MOL
REMARK 927      BINDING AFFINITY PREDICTED BY RF-SCORE:    0.00 PKD
ROOT
HETATM    1  C   UNL     1     -10.943   6.761  68.358  1.00  0.00    -0.257 C  
HETATM    2  C   UNL     1      -9.970   7.093  69.480  1.00  0.00    -0.165 C  
ENDROOT
BRANCH   2   3
HETATM    3  CA  UNL     1     -10.139   8.515  70.065  1.00  0.00    -0.192 C  
BRANCH   3   4
HETATM    4  C   UNL     1      -8.801   9.298  70.158  1.00  0.00    -0.213 C  
HETATM    5  H   UNL     1      -7.137   9.612  69.080  1.00  0.00     0.000 HD 
HETATM    6  O   UNL     1      -7.955   9.132  69.023  1.00  0.00    -0.097 OA 
ENDBRANCH   3   4
BRANCH   3   7
HETATM    7  N   UNL     1     -11.165   9.174  69.231  1.00  0.00    -0.440 NA 
HETATM    8  H   UNL     1     -11.988   8.579  69.133  1.00  0.00     0.000 HD 
BRANCH   7   9
HETATM    9  C   UNL     1     -11.544  10.510  69.713  1.00  0.00    -0.294 C  
BRANCH   9  10
HETATM   10  C   UNL     1     -11.728  11.481  68.526  1.00  0.00    -0.313 C  
BRANCH  10  11
HETATM   11  N   UNL     1     -10.857  12.661  68.665  1.00  0.00    -0.244 NA 
HETATM   12  H   UNL     1     -10.043  12.448  69.241  1.00  0.00     0.000 HD 
BRANCH  11  13
HETATM   13  CA  UNL     1     -10.448  13.231  67.356  1.00  0.00    -0.243 C  
BRANCH  13  14
HETATM   14  C   UNL     1      -9.895  12.096  66.463  1.00  0.00    -0.218 C  
HETATM   15  H   UNL     1      -9.716  11.720  64.533  1.00  0.00     0.000 HD 
HETATM   16  O   UNL     1     -10.056  12.417  65.082  1.00  0.00    -0.277 OA 
ENDBRANCH  13  14
BRANCH  13  17
HETATM   17  C   UNL     1      -9.431  14.386  67.452  1.00  0.00    -0.207 C  
HETATM   18  C   UNL     1      -9.509  15.407  66.324  1.00  0.00    -0.342 C  
ENDBRANCH  13  17
ENDBRANCH  11  13
ENDBRANCH  10  11
ENDBRANCH   9  10
ENDBRANCH   7   9
ENDBRANCH   3   7
ENDBRANCH   2   3
TORSDOF 9
ENDMDL
MODEL      295
REMARK 921   NORMALIZED FREE ENERGY PREDICTED BY IDOCK:   -2.21 KCAL/MOL
REMARK 922        TOTAL FREE ENERGY PREDICTED BY IDOCK:   -3.79 KCAL/MOL
REMARK 923 INTER-LIGAND FREE ENERGY PREDICTED BY IDOCK:   -3.29 KCAL/MOL
REMARK 924 INTRA-LIGAND FREE ENERGY PREDICTED BY IDOCK:   -0.50 KCAL/MOL
REMARK 927      BINDING AFFINITY PREDICTED BY RF-SCORE:    0.00 PKD
ROOT
HETATM    1  C   UNL     1     -10.547   8.363  70.096  1.00  0.00    -0.235 C  
HETATM    2  C   UNL     1     -10.712   9.822  70.495  1.00  0.00    -0.381 C  
ENDROOT
BRANCH   2   3
HETATM    3  CA  UNL     1     -11.918  10.528  69.830  1.00  0.00    -0.264 C  
BRANCH   3   4
HETATM    4  C   UNL     1     -12.118  11.985  70.327  1.00  0.00    -0.312 C  
HETATM    5  H   UNL     1     -12.649  12.972  71.992  1.00  0.00     0.000 HD 
HETATM    6  O   UNL     1     -12.527  12.081  71.688  1.00  0.00    -0.152 OA 
ENDBRANCH   3   4
BRANCH   3   7
HETATM    7  N   UNL     1     -11.699  10.413  68.373  1.00  0.00    -0.717 NA 
HETATM    8  H   UNL     1     -12.579  10.237  67.889  1.00  0.00     0.000 HD 
BRANCH   7   9
HETATM    9  C   UNL     1     -11.008  11.573  67.791  1.00  0.00    -0.236 C  
BRANCH   9  10
HETATM   10  C   UNL     1      -9.635  11.153  67.222  1.00  0.00    -0.165 C  
BRANCH  10  11
HETATM   11  N   UNL     1      -9.791  10.323  66.015  1.00  0.00    -0.219 NA 
HETATM   12  H   UNL     1      -9.719  10.889  65.170  1.00  0.00     0.000 HD 
BRANCH  11  13
HETATM   13  CA  UNL     1      -8.841   9.182  65.975  1.00  0.00    -0.168 C  
BRANCH  13  14
HETATM   14  C   UNL     1      -7.927   9.243  67.221  1.00  0.00    -0.106 C  
HETATM   15  H   UNL     1      -7.273   8.000  68.608  1.00  0.00     0.000 HD 
HETATM   16  O   UNL     1      -7.835   7.962  67.843  1.00  0.00    -0.121 OA 
ENDBRANCH  13  14
BRANCH  13  17
HETATM   17  C   UNL     1      -7.995   9.100  64.688  1.00  0.00    -0.125 C  
HETATM   18  C   UNL     1      -6.543   9.531  64.846  1.00  0.00    -0.086 C  
ENDBRANCH  13  17
ENDBRANCH  11  13
ENDBRANCH  10  11
ENDBRANCH   9  10
ENDBRANCH   7   9
ENDBRANCH   3   7
ENDBRANCH   2   3
TORSDOF 9
ENDMDL
MODEL      296
REMARK 921   NORMALIZED FREE ENERGY PREDICTED BY IDOCK:   -2.20 KCAL/MOL
REMARK 922        TOTAL FREE ENERGY PREDICTED BY IDOCK:   -3.76 KCAL/MOL
REMARK 923 INTER-LIGAND FREE ENERGY PREDICTED BY IDOCK:   -3.47 KCAL/MOL
REMARK 924 INTRA-LIGAND FREE ENERGY PREDICTED BY IDOCK:   -0.30 KCAL/MOL
REMARK 927      BINDING AFFINITY PREDICTED BY RF-SCORE:    0.00 PKD
ROOT
HETATM    1  C   UNL     1      -6.426   8.971  65.164  1.00  0.00    -0.071 C  
HETATM    2  C   UNL     1      -7.310   7.806  65.587  1.00  0.00    -0.073 C  
ENDROOT
BRANCH   2   3
HETATM    3  CA  UNL     1      -8.277   8.135  66.749  1.00  0.00    -0.107 C  
BRANCH   3   4
HETATM    4  C   UNL     1      -7.555   8.291  68.115  1.00  0.00    -0.098 C  
HETATM    5  H   UNL     1      -6.001   7.513  69.119  1.00  0.00     0.000 HD 
HETATM    6  O   UNL     1      -6.443   7.417  68.283  1.00  0.00    -0.042 OA 
ENDBRANCH   3   4
BRANCH   3   7
HETATM    7  N   UNL     1      -9.025   9.336  66.323  1.00  0.00    -0.150 NA 
HETATM    8  H   UNL     1      -9.061   9.397  65.305  1.00  0.00     0.000 HD 
BRANCH   7   9
HETATM    9  C   UNL     1     -10.376   9.419  66.896  1.00  0.00    -0.238 C  
BRANCH   9  10
HETATM   10  C   UNL     1     -10.793  10.895  67.083  1.00  0.00    -0.280 C  
BRANCH  10  11
HETATM   11  N   UNL     1     -10.250  11.741  66.007  1.00  0.00    -0.222 NA 
HETATM   12  H   UNL     1     -10.364  11.293  65.097  1.00  0.00     0.000 HD 
BRANCH  11  13
HETATM   13  CA  UNL     1     -10.828  13.109  66.003  1.00  0.00    -0.272 C  
BRANCH  13  14
HETATM   14  C   UNL     1     -12.356  13.011  66.218  1.00  0.00    -0.208 C  
HETATM   15  H   UNL     1     -13.960  12.666  65.120  1.00  0.00     0.000 HD 
HETATM   16  O   UNL     1     -13.021  12.726  64.988  1.00  0.00    -0.811 OA 
ENDBRANCH  13  14
BRANCH  13  17
HETATM   17  C   UNL     1     -10.512  13.933  64.738  1.00  0.00    -0.451 C  
HETATM   18  C   UNL     1     -10.829  15.418  64.843  1.00  0.00    -0.445 C  
ENDBRANCH  13  17
ENDBRANCH  11  13
ENDBRANCH  10  11
ENDBRANCH   9  10
ENDBRANCH   7   9
ENDBRANCH   3   7
ENDBRANCH   2   3
TORSDOF 9
ENDMDL
MODEL      297
REMARK 921   NORMALIZED FREE ENERGY PREDICTED BY IDOCK:   -2.20 KCAL/MOL
REMARK 922        TOTAL FREE ENERGY PREDICTED BY IDOCK:   -3.76 KCAL/MOL
REMARK 923 INTER-LIGAND FREE ENERGY PREDICTED BY IDOCK:   -3.96 KCAL/MOL
REMARK 924 INTRA-LIGAND FREE ENERGY PREDICTED BY IDOCK:    0.19 KCAL/MOL
REMARK 927      BINDING AFFINITY PREDICTED BY RF-SCORE:    0.00 PKD
ROOT
HETATM    1  C   UNL     1      -9.997   6.204  66.705  1.00  0.00    -0.207 C  
HETATM    2  C   UNL     1     -10.326   6.314  68.187  1.00  0.00    -0.236 C  
ENDROOT
BRANCH   2   3
HETATM    3  CA  UNL     1      -9.085   6.332  69.111  1.00  0.00    -0.130 C  
BRANCH   3   4
HETATM    4  C   UNL     1      -7.967   7.284  68.607  1.00  0.00    -0.124 C  
HETATM    5  H   UNL     1      -7.764   9.112  67.804  1.00  0.00     0.000 HD 
HETATM    6  O   UNL     1      -8.448   8.530  68.112  1.00  0.00    -0.132 OA 
ENDBRANCH   3   4
BRANCH   3   7
HETATM    7  N   UNL     1      -9.592   6.659  70.460  1.00  0.00    -0.169 NA 
HETATM    8  H   UNL     1      -9.278   5.968  71.141  1.00  0.00     0.000 HD 
BRANCH   7   9
HETATM    9  C   UNL     1      -9.247   8.018  70.902  1.00  0.00    -0.149 C  
BRANCH   9  10
HETATM   10  C   UNL     1     -10.522   8.801  71.284  1.00  0.00    -0.256 C  
BRANCH  10  11
HETATM   11  N   UNL     1     -10.563  10.111  70.611  1.00  0.00    -0.404 NA 
HETATM   12  H   UNL     1      -9.908  10.139  69.828  1.00  0.00     0.000 HD 
BRANCH  11  13
HETATM   13  CA  UNL     1     -11.930  10.492  70.175  1.00  0.00    -0.316 C  
BRANCH  13  14
HETATM   14  C   UNL     1     -11.836  11.712  69.230  1.00  0.00    -0.331 C  
HETATM   15  H   UNL     1     -12.141  12.099  67.319  1.00  0.00     0.000 HD 
HETATM   16  O   UNL     1     -12.198  11.349  67.899  1.00  0.00    -0.592 OA 
ENDBRANCH  13  14
BRANCH  13  17
HETATM   17  C   UNL     1     -12.912  10.778  71.330  1.00  0.00    -0.502 C  
HETATM   18  C   UNL     1     -13.129  12.253  71.639  1.00  0.00    -0.408 C  
ENDBRANCH  13  17
ENDBRANCH  11  13
ENDBRANCH  10  11
ENDBRANCH   9  10
ENDBRANCH   7   9
ENDBRANCH   3   7
ENDBRANCH   2   3
TORSDOF 9
ENDMDL
MODEL      298
REMARK 921   NORMALIZED FREE ENERGY PREDICTED BY IDOCK:   -2.19 KCAL/MOL
REMARK 922        TOTAL FREE ENERGY PREDICTED BY IDOCK:   -3.75 KCAL/MOL
REMARK 923 INTER-LIGAND FREE ENERGY PREDICTED BY IDOCK:   -3.35 KCAL/MOL
REMARK 924 INTRA-LIGAND FREE ENERGY PREDICTED BY IDOCK:   -0.40 KCAL/MOL
REMARK 927      BINDING AFFINITY PREDICTED BY RF-SCORE:    0.00 PKD
ROOT
HETATM    1  C   UNL     1      -7.204   8.634  66.526  1.00  0.00    -0.080 C  
HETATM    2  C   UNL     1      -7.810   7.252  66.326  1.00  0.00    -0.106 C  
ENDROOT
BRANCH   2   3
HETATM    3  CA  UNL     1      -9.159   7.041  67.052  1.00  0.00    -0.137 C  
BRANCH   3   4
HETATM    4  C   UNL     1      -9.591   5.551  67.112  1.00  0.00    -0.134 C  
HETATM    5  H   UNL     1     -11.108   4.375  66.526  1.00  0.00     0.000 HD 
HETATM    6  O   UNL     1     -10.844   5.287  66.490  1.00  0.00    -0.280 OA 
ENDBRANCH   3   4
BRANCH   3   7
HETATM    7  N   UNL     1      -9.007   7.677  68.377  1.00  0.00    -0.129 NA 
HETATM    8  H   UNL     1      -8.341   8.449  68.333  1.00  0.00     0.000 HD 
BRANCH   7   9
HETATM    9  C   UNL     1     -10.279   8.122  68.964  1.00  0.00    -0.220 C  
BRANCH   9  10
HETATM   10  C   UNL     1     -10.489   9.632  68.719  1.00  0.00    -0.215 C  
BRANCH  10  11
HETATM   11  N   UNL     1     -10.441  10.387  69.983  1.00  0.00    -0.419 NA 
HETATM   12  H   UNL     1      -9.538  10.848  70.099  1.00  0.00     0.000 HD 
BRANCH  11  13
HETATM   13  CA  UNL     1     -11.555  11.360  70.114  1.00  0.00    -0.280 C  
BRANCH  13  14
HETATM   14  C   UNL     1     -12.760  10.659  70.785  1.00  0.00    -0.378 C  
HETATM   15  H   UNL     1     -13.065   9.395  72.270  1.00  0.00     0.000 HD 
HETATM   16  O   UNL     1     -12.324   9.826  71.858  1.00  0.00    -0.377 OA 
ENDBRANCH  13  14
BRANCH  13  17
HETATM   17  C   UNL     1     -11.985  12.022  68.789  1.00  0.00    -0.299 C  
HETATM   18  C   UNL     1     -11.143  13.217  68.364  1.00  0.00    -0.299 C  
ENDBRANCH  13  17
ENDBRANCH  11  13
ENDBRANCH  10  11
ENDBRANCH   9  10
ENDBRANCH   7   9
ENDBRANCH   3   7
ENDBRANCH   2   3
TORSDOF 9
ENDMDL
MODEL      299
REMARK 921   NORMALIZED FREE ENERGY PREDICTED BY IDOCK:   -2.18 KCAL/MOL
REMARK 922        TOTAL FREE ENERGY PREDICTED BY IDOCK:   -3.74 KCAL/MOL
REMARK 923 INTER-LIGAND FREE ENERGY PREDICTED BY IDOCK:   -3.38 KCAL/MOL
REMARK 924 INTRA-LIGAND FREE ENERGY PREDICTED BY IDOCK:   -0.36 KCAL/MOL
REMARK 927      BINDING AFFINITY PREDICTED BY RF-SCORE:    0.00 PKD
ROOT
HETATM    1  C   UNL     1      -8.479   8.388  72.716  1.00  0.00    -0.224 C  
HETATM    2  C   UNL     1      -9.559   8.883  71.765  1.00  0.00    -0.353 C  
ENDROOT
BRANCH   2   3
HETATM    3  CA  UNL     1     -10.849   8.029  71.771  1.00  0.00    -0.242 C  
BRANCH   3   4
HETATM    4  C   UNL     1     -12.073   8.781  72.361  1.00  0.00    -0.309 C  
HETATM    5  H   UNL     1     -14.035   9.019  72.010  1.00  0.00     0.000 HD 
HETATM    6  O   UNL     1     -13.286   8.559  71.649  1.00  0.00    -0.337 OA 
ENDBRANCH   3   4
BRANCH   3   7
HETATM    7  N   UNL     1     -11.037   7.574  70.378  1.00  0.00    -0.262 NA 
HETATM    8  H   UNL     1     -10.280   7.909  69.783  1.00  0.00     0.000 HD 
BRANCH   7   9
HETATM    9  C   UNL     1     -11.190   6.117  70.253  1.00  0.00    -0.369 C  
BRANCH   9  10
HETATM   10  C   UNL     1      -9.812   5.422  70.318  1.00  0.00    -0.206 C  
BRANCH  10  11
HETATM   11  N   UNL     1      -9.700   4.369  69.294  1.00  0.00    -0.191 NA 
HETATM   12  H   UNL     1     -10.582   3.867  69.188  1.00  0.00     0.000 HD 
BRANCH  11  13
HETATM   13  CA  UNL     1      -9.222   4.886  67.986  1.00  0.00    -0.123 C  
BRANCH  13  14
HETATM   14  C   UNL     1      -8.414   6.183  68.223  1.00  0.00    -0.113 C  
HETATM   15  H   UNL     1      -8.643   8.118  67.906  1.00  0.00     0.000 HD 
HETATM   16  O   UNL     1      -9.140   7.321  67.760  1.00  0.00    -0.126 OA 
ENDBRANCH  13  14
BRANCH  13  17
HETATM   17  C   UNL     1     -10.337   5.127  66.948  1.00  0.00    -0.288 C  
HETATM   18  C   UNL     1     -10.051   4.575  65.558  1.00  0.00    -0.240 C  
ENDBRANCH  13  17
ENDBRANCH  11  13
ENDBRANCH  10  11
ENDBRANCH   9  10
ENDBRANCH   7   9
ENDBRANCH   3   7
ENDBRANCH   2   3
TORSDOF 9
ENDMDL
MODEL      300
REMARK 921   NORMALIZED FREE ENERGY PREDICTED BY IDOCK:   -2.18 KCAL/MOL
REMARK 922        TOTAL FREE ENERGY PREDICTED BY IDOCK:   -3.74 KCAL/MOL
REMARK 923 INTER-LIGAND FREE ENERGY PREDICTED BY IDOCK:   -3.17 KCAL/MOL
REMARK 924 INTRA-LIGAND FREE ENERGY PREDICTED BY IDOCK:   -0.57 KCAL/MOL
REMARK 927      BINDING AFFINITY PREDICTED BY RF-SCORE:    0.00 PKD
ROOT
HETATM    1  C   UNL     1      -7.213   8.935  70.959  1.00  0.00    -0.101 C  
HETATM    2  C   UNL     1      -8.336   8.920  69.932  1.00  0.00    -0.128 C  
ENDROOT
BRANCH   2   3
HETATM    3  CA  UNL     1      -9.692   8.420  70.484  1.00  0.00    -0.173 C  
BRANCH   3   4
HETATM    4  C   UNL     1     -10.689   9.572  70.782  1.00  0.00    -0.321 C  
HETATM    5  H   UNL     1     -12.667   9.878  70.944  1.00  0.00     0.000 HD 
HETATM    6  O   UNL     1     -12.056   9.173  70.761  1.00  0.00    -0.254 OA 
ENDBRANCH   3   4
BRANCH   3   7
HETATM    7  N   UNL     1     -10.188   7.434  69.501  1.00  0.00    -0.199 NA 
HETATM    8  H   UNL     1     -11.204   7.477  69.428  1.00  0.00     0.000 HD 
BRANCH   7   9
HETATM    9  C   UNL     1      -9.566   7.564  68.175  1.00  0.00    -0.148 C  
BRANCH   9  10
HETATM   10  C   UNL     1     -10.622   7.954  67.118  1.00  0.00    -0.313 C  
BRANCH  10  11
HETATM   11  N   UNL     1     -10.090   8.959  66.182  1.00  0.00    -0.408 NA 
HETATM   12  H   UNL     1     -10.061   8.592  65.230  1.00  0.00     0.000 HD 
BRANCH  11  13
HETATM   13  CA  UNL     1     -10.833  10.244  66.234  1.00  0.00     0.085 C  
BRANCH  13  14
HETATM   14  C   UNL     1     -10.655  10.984  64.888  1.00  0.00    -0.258 C  
HETATM   15  H   UNL     1      -9.745  10.669  63.165  1.00  0.00     0.000 HD 
HETATM   16  O   UNL     1      -9.854  10.215  63.992  1.00  0.00    -0.290 OA 
ENDBRANCH  13  14
BRANCH  13  17
HETATM   17  C   UNL     1     -10.441  11.162  67.410  1.00  0.00    -0.255 C  
HETATM   18  C   UNL     1     -11.579  11.997  67.981  1.00  0.00    -0.407 C  
ENDBRANCH  13  17
ENDBRANCH  11  13
ENDBRANCH  10  11
ENDBRANCH   9  10
ENDBRANCH   7   9
ENDBRANCH   3   7
ENDBRANCH   2   3
TORSDOF 9
ENDMDL
MODEL      301
REMARK 921   NORMALIZED FREE ENERGY PREDICTED BY IDOCK:   -2.16 KCAL/MOL
REMARK 922        TOTAL FREE ENERGY PREDICTED BY IDOCK:   -3.71 KCAL/MOL
REMARK 923 INTER-LIGAND FREE ENERGY PREDICTED BY IDOCK:   -3.29 KCAL/MOL
REMARK 924 INTRA-LIGAND FREE ENERGY PREDICTED BY IDOCK:   -0.42 KCAL/MOL
REMARK 927      BINDING AFFINITY PREDICTED BY RF-SCORE:    0.00 PKD
ROOT
HETATM    1  C   UNL     1      -6.403  10.671  66.112  1.00  0.00    -0.128 C  
HETATM    2  C   UNL     1      -7.360  11.517  66.941  1.00  0.00    -0.140 C  
ENDROOT
BRANCH   2   3
HETATM    3  CA  UNL     1      -8.851  11.320  66.583  1.00  0.00    -0.175 C  
BRANCH   3   4
HETATM    4  C   UNL     1      -9.165   9.897  66.044  1.00  0.00    -0.170 C  
HETATM    5  H   UNL     1     -10.114   9.019  64.509  1.00  0.00     0.000 HD 
HETATM    6  O   UNL     1      -9.922   9.890  64.838  1.00  0.00    -0.306 OA 
ENDBRANCH   3   4
BRANCH   3   7
HETATM    7  N   UNL     1      -9.609  11.684  67.797  1.00  0.00    -0.173 NA 
HETATM    8  H   UNL     1     -10.174  12.518  67.635  1.00  0.00     0.000 HD 
BRANCH   7   9
HETATM    9  C   UNL     1     -10.438  10.590  68.322  1.00  0.00    -0.183 C  
BRANCH   9  10
HETATM   10  C   UNL     1     -10.046  10.266  69.781  1.00  0.00    -0.203 C  
BRANCH  10  11
HETATM   11  N   UNL     1      -9.805   8.824  69.958  1.00  0.00    -0.174 NA 
HETATM   12  H   UNL     1      -8.819   8.638  70.141  1.00  0.00     0.000 HD 
BRANCH  11  13
HETATM   13  CA  UNL     1     -10.663   8.223  71.011  1.00  0.00    -0.218 C  
BRANCH  13  14
HETATM   14  C   UNL     1     -11.535   7.113  70.378  1.00  0.00    -0.278 C  
HETATM   15  H   UNL     1     -11.905   5.200  70.688  1.00  0.00     0.000 HD 
HETATM   16  O   UNL     1     -11.369   5.881  71.077  1.00  0.00    -0.263 OA 
ENDBRANCH  13  14
BRANCH  13  17
HETATM   17  C   UNL     1     -11.546   9.234  71.770  1.00  0.00    -0.458 C  
HETATM   18  C   UNL     1     -13.030   8.894  71.804  1.00  0.00    -0.418 C  
ENDBRANCH  13  17
ENDBRANCH  11  13
ENDBRANCH  10  11
ENDBRANCH   9  10
ENDBRANCH   7   9
ENDBRANCH   3   7
ENDBRANCH   2   3
TORSDOF 9
ENDMDL
MODEL      302
REMARK 921   NORMALIZED FREE ENERGY PREDICTED BY IDOCK:   -2.15 KCAL/MOL
REMARK 922        TOTAL FREE ENERGY PREDICTED BY IDOCK:   -3.70 KCAL/MOL
REMARK 923 INTER-LIGAND FREE ENERGY PREDICTED BY IDOCK:   -3.43 KCAL/MOL
REMARK 924 INTRA-LIGAND FREE ENERGY PREDICTED BY IDOCK:   -0.26 KCAL/MOL
REMARK 927      BINDING AFFINITY PREDICTED BY RF-SCORE:    0.00 PKD
ROOT
HETATM    1  C   UNL     1      -7.775   7.683  67.773  1.00  0.00    -0.122 C  
HETATM    2  C   UNL     1      -8.453   8.600  68.782  1.00  0.00    -0.129 C  
ENDROOT
BRANCH   2   3
HETATM    3  CA  UNL     1      -9.986   8.707  68.609  1.00  0.00    -0.183 C  
BRANCH   3   4
HETATM    4  C   UNL     1     -10.774   8.149  69.825  1.00  0.00    -0.229 C  
HETATM    5  H   UNL     1     -10.809   6.531  71.012  1.00  0.00     0.000 HD 
HETATM    6  O   UNL     1     -10.326   6.872  70.268  1.00  0.00    -0.194 OA 
ENDBRANCH   3   4
BRANCH   3   7
HETATM    7  N   UNL     1     -10.260  10.129  68.315  1.00  0.00    -0.159 NA 
HETATM    8  H   UNL     1     -10.443  10.263  67.320  1.00  0.00     0.000 HD 
BRANCH   7   9
HETATM    9  C   UNL     1     -11.348  10.696  69.124  1.00  0.00    -0.273 C  
BRANCH   9  10
HETATM   10  C   UNL     1     -11.258  12.238  69.146  1.00  0.00    -0.242 C  
BRANCH  10  11
HETATM   11  N   UNL     1     -12.480  12.833  69.716  1.00  0.00     0.006 NA 
HETATM   12  H   UNL     1     -13.160  12.112  69.955  1.00  0.00     0.000 HD 
BRANCH  11  13
HETATM   13  CA  UNL     1     -12.202  13.711  70.881  1.00  0.00    -0.328 C  
BRANCH  13  14
HETATM   14  C   UNL     1     -13.198  13.373  72.015  1.00  0.00    -0.438 C  
HETATM   15  H   UNL     1     -14.943  14.030  72.660  1.00  0.00     0.000 HD 
HETATM   16  O   UNL     1     -14.331  14.238  71.964  1.00  0.00    -0.501 OA 
ENDBRANCH  13  14
BRANCH  13  17
HETATM   17  C   UNL     1     -12.234  15.220  70.566  1.00  0.00    -0.415 C  
HETATM   18  C   UNL     1     -10.936  15.964  70.848  1.00  0.00    -0.226 C  
ENDBRANCH  13  17
ENDBRANCH  11  13
ENDBRANCH  10  11
ENDBRANCH   9  10
ENDBRANCH   7   9
ENDBRANCH   3   7
ENDBRANCH   2   3
TORSDOF 9
ENDMDL
MODEL      303
REMARK 921   NORMALIZED FREE ENERGY PREDICTED BY IDOCK:   -2.15 KCAL/MOL
REMARK 922        TOTAL FREE ENERGY PREDICTED BY IDOCK:   -3.69 KCAL/MOL
REMARK 923 INTER-LIGAND FREE ENERGY PREDICTED BY IDOCK:   -3.29 KCAL/MOL
REMARK 924 INTRA-LIGAND FREE ENERGY PREDICTED BY IDOCK:   -0.40 KCAL/MOL
REMARK 927      BINDING AFFINITY PREDICTED BY RF-SCORE:    0.00 PKD
ROOT
HETATM    1  C   UNL     1      -5.800  13.299  69.121  1.00  0.00    -0.080 C  
HETATM    2  C   UNL     1      -7.209  13.634  68.653  1.00  0.00    -0.110 C  
ENDROOT
BRANCH   2   3
HETATM    3  CA  UNL     1      -7.547  13.110  67.238  1.00  0.00    -0.080 C  
BRANCH   3   4
HETATM    4  C   UNL     1      -7.996  11.623  67.231  1.00  0.00    -0.157 C  
HETATM    5  H   UNL     1      -7.292   9.817  66.713  1.00  0.00     0.000 HD 
HETATM    6  O   UNL     1      -7.017  10.726  66.716  1.00  0.00    -0.104 OA 
ENDBRANCH   3   4
BRANCH   3   7
HETATM    7  N   UNL     1      -8.552  14.045  66.691  1.00  0.00    -0.446 NA 
HETATM    8  H   UNL     1      -9.496  13.691  66.846  1.00  0.00     0.000 HD 
BRANCH   7   9
HETATM    9  C   UNL     1      -8.420  15.415  67.205  1.00  0.00    -0.192 C  
BRANCH   9  10
HETATM   10  C   UNL     1      -9.585  16.296  66.703  1.00  0.00    -0.246 C  
BRANCH  10  11
HETATM   11  N   UNL     1      -9.086  17.444  65.926  1.00  0.00    -0.523 NA 
HETATM   12  H   UNL     1      -9.858  17.974  65.521  1.00  0.00     0.000 HD 
BRANCH  11  13
HETATM   13  CA  UNL     1      -8.191  18.327  66.715  1.00  0.00    -0.253 C  
BRANCH  13  14
HETATM   14  C   UNL     1      -9.042  19.409  67.419  1.00  0.00    -0.299 C  
HETATM   15  H   UNL     1      -9.393  20.010  69.266  1.00  0.00     0.000 HD 
HETATM   16  O   UNL     1      -8.870  19.345  68.834  1.00  0.00    -0.364 OA 
ENDBRANCH  13  14
BRANCH  13  17
HETATM   17  C   UNL     1      -7.056  18.980  65.900  1.00  0.00    -0.294 C  
HETATM   18  C   UNL     1      -5.988  18.017  65.399  1.00  0.00    -0.146 C  
ENDBRANCH  13  17
ENDBRANCH  11  13
ENDBRANCH  10  11
ENDBRANCH   9  10
ENDBRANCH   7   9
ENDBRANCH   3   7
ENDBRANCH   2   3
TORSDOF 9
ENDMDL
MODEL      304
REMARK 921   NORMALIZED FREE ENERGY PREDICTED BY IDOCK:   -2.14 KCAL/MOL
REMARK 922        TOTAL FREE ENERGY PREDICTED BY IDOCK:   -3.68 KCAL/MOL
REMARK 923 INTER-LIGAND FREE ENERGY PREDICTED BY IDOCK:   -3.34 KCAL/MOL
REMARK 924 INTRA-LIGAND FREE ENERGY PREDICTED BY IDOCK:   -0.34 KCAL/MOL
REMARK 927      BINDING AFFINITY PREDICTED BY RF-SCORE:    0.00 PKD
ROOT
HETATM    1  C   UNL     1      -9.936  13.076  68.014  1.00  0.00    -0.233 C  
HETATM    2  C   UNL     1     -11.223  12.975  67.208  1.00  0.00    -0.325 C  
ENDROOT
BRANCH   2   3
HETATM    3  CA  UNL     1     -11.052  12.312  65.821  1.00  0.00    -0.323 C  
BRANCH   3   4
HETATM    4  C   UNL     1     -10.587  13.308  64.724  1.00  0.00    -0.386 C  
HETATM    5  H   UNL     1     -10.009  15.222  64.544  1.00  0.00     0.000 HD 
HETATM    6  O   UNL     1     -10.294  14.612  65.215  1.00  0.00    -0.349 OA 
ENDBRANCH   3   4
BRANCH   3   7
HETATM    7  N   UNL     1     -10.132  11.174  66.030  1.00  0.00    -0.236 NA 
HETATM    8  H   UNL     1     -10.259  10.772  66.958  1.00  0.00     0.000 HD 
BRANCH   7   9
HETATM    9  C   UNL     1     -10.239  10.136  64.995  1.00  0.00    -0.133 C  
BRANCH   9  10
HETATM   10  C   UNL     1      -9.452   8.874  65.412  1.00  0.00    -0.016 C  
BRANCH  10  11
HETATM   11  N   UNL     1      -8.917   9.009  66.778  1.00  0.00    -0.132 NA 
HETATM   12  H   UNL     1      -8.917   9.985  67.076  1.00  0.00     0.000 HD 
BRANCH  11  13
HETATM   13  CA  UNL     1      -9.627   8.152  67.761  1.00  0.00    -0.151 C  
BRANCH  13  14
HETATM   14  C   UNL     1     -10.679   7.297  67.017  1.00  0.00    -0.336 C  
HETATM   15  H   UNL     1     -11.329   5.434  67.055  1.00  0.00     0.000 HD 
HETATM   16  O   UNL     1     -10.683   5.959  67.512  1.00  0.00    -0.251 OA 
ENDBRANCH  13  14
BRANCH  13  17
HETATM   17  C   UNL     1     -10.285   8.923  68.924  1.00  0.00    -0.220 C  
HETATM   18  C   UNL     1      -9.378   9.928  69.622  1.00  0.00    -0.247 C  
ENDBRANCH  13  17
ENDBRANCH  11  13
ENDBRANCH  10  11
ENDBRANCH   9  10
ENDBRANCH   7   9
ENDBRANCH   3   7
ENDBRANCH   2   3
TORSDOF 9
ENDMDL
MODEL      305
REMARK 921   NORMALIZED FREE ENERGY PREDICTED BY IDOCK:   -2.14 KCAL/MOL
REMARK 922        TOTAL FREE ENERGY PREDICTED BY IDOCK:   -3.67 KCAL/MOL
REMARK 923 INTER-LIGAND FREE ENERGY PREDICTED BY IDOCK:   -3.03 KCAL/MOL
REMARK 924 INTRA-LIGAND FREE ENERGY PREDICTED BY IDOCK:   -0.64 KCAL/MOL
REMARK 927      BINDING AFFINITY PREDICTED BY RF-SCORE:    0.00 PKD
ROOT
HETATM    1  C   UNL     1      -7.321  10.356  65.873  1.00  0.00    -0.135 C  
HETATM    2  C   UNL     1      -7.373  10.435  67.392  1.00  0.00    -0.093 C  
ENDROOT
BRANCH   2   3
HETATM    3  CA  UNL     1      -8.576   9.696  68.024  1.00  0.00    -0.119 C  
BRANCH   3   4
HETATM    4  C   UNL     1      -8.805  10.071  69.514  1.00  0.00    -0.195 C  
HETATM    5  H   UNL     1      -8.472   9.322  71.346  1.00  0.00     0.000 HD 
HETATM    6  O   UNL     1      -8.332   9.092  70.435  1.00  0.00    -0.145 OA 
ENDBRANCH   3   4
BRANCH   3   7
HETATM    7  N   UNL     1      -9.730   9.982  67.147  1.00  0.00    -0.168 NA 
HETATM    8  H   UNL     1      -9.861   9.234  66.467  1.00  0.00     0.000 HD 
BRANCH   7   9
HETATM    9  C   UNL     1     -10.977  10.238  67.883  1.00  0.00    -0.292 C  
BRANCH   9  10
HETATM   10  C   UNL     1     -11.639  11.542  67.387  1.00  0.00    -0.228 C  
BRANCH  10  11
HETATM   11  N   UNL     1     -10.737  12.693  67.555  1.00  0.00    -0.223 NA 
HETATM   12  H   UNL     1      -9.802  12.388  67.827  1.00  0.00     0.000 HD 
BRANCH  11  13
HETATM   13  CA  UNL     1     -10.684  13.563  66.353  1.00  0.00    -0.287 C  
BRANCH  13  14
HETATM   14  C   UNL     1     -10.733  12.677  65.087  1.00  0.00    -0.292 C  
HETATM   15  H   UNL     1     -10.224  12.827  63.186  1.00  0.00     0.000 HD 
HETATM   16  O   UNL     1     -10.195  13.372  63.963  1.00  0.00    -0.336 OA 
ENDBRANCH  13  14
BRANCH  13  17
HETATM   17  C   UNL     1      -9.468  14.510  66.302  1.00  0.00    -0.310 C  
HETATM   18  C   UNL     1      -8.313  14.124  67.216  1.00  0.00    -0.212 C  
ENDBRANCH  13  17
ENDBRANCH  11  13
ENDBRANCH  10  11
ENDBRANCH   9  10
ENDBRANCH   7   9
ENDBRANCH   3   7
ENDBRANCH   2   3
TORSDOF 9
ENDMDL
MODEL      306
REMARK 921   NORMALIZED FREE ENERGY PREDICTED BY IDOCK:   -2.11 KCAL/MOL
REMARK 922        TOTAL FREE ENERGY PREDICTED BY IDOCK:   -3.63 KCAL/MOL
REMARK 923 INTER-LIGAND FREE ENERGY PREDICTED BY IDOCK:   -3.27 KCAL/MOL
REMARK 924 INTRA-LIGAND FREE ENERGY PREDICTED BY IDOCK:   -0.35 KCAL/MOL
REMARK 927      BINDING AFFINITY PREDICTED BY RF-SCORE:    0.00 PKD
ROOT
HETATM    1  C   UNL     1      -9.003   8.507  72.042  1.00  0.00    -0.301 C  
HETATM    2  C   UNL     1     -10.368   8.988  71.569  1.00  0.00    -0.412 C  
ENDROOT
BRANCH   2   3
HETATM    3  CA  UNL     1     -11.399   7.856  71.356  1.00  0.00    -0.252 C  
BRANCH   3   4
HETATM    4  C   UNL     1     -12.743   8.111  72.090  1.00  0.00    -0.297 C  
HETATM    5  H   UNL     1     -14.707   7.775  71.844  1.00  0.00     0.000 HD 
HETATM    6  O   UNL     1     -13.885   7.619  71.394  1.00  0.00    -0.366 OA 
ENDBRANCH   3   4
BRANCH   3   7
HETATM    7  N   UNL     1     -11.533   7.703  69.892  1.00  0.00    -0.471 NA 
HETATM    8  H   UNL     1     -10.872   8.307  69.404  1.00  0.00     0.000 HD 
BRANCH   7   9
HETATM    9  C   UNL     1     -11.404   6.313  69.432  1.00  0.00    -0.378 C  
BRANCH   9  10
HETATM   10  C   UNL     1     -10.328   5.570  70.255  1.00  0.00    -0.279 C  
BRANCH  10  11
HETATM   11  N   UNL     1      -9.136   5.286  69.438  1.00  0.00    -0.103 NA 
HETATM   12  H   UNL     1      -8.411   5.987  69.594  1.00  0.00     0.000 HD 
BRANCH  11  13
HETATM   13  CA  UNL     1      -8.606   3.916  69.650  1.00  0.00    -0.069 C  
BRANCH  13  14
HETATM   14  C   UNL     1      -7.487   3.968  70.716  1.00  0.00    -0.041 C  
HETATM   15  H   UNL     1      -5.707   4.796  70.917  1.00  0.00     0.000 HD 
HETATM   16  O   UNL     1      -6.394   4.764  70.262  1.00  0.00    -0.024 OA 
ENDBRANCH  13  14
BRANCH  13  17
HETATM   17  C   UNL     1      -8.099   3.221  68.370  1.00  0.00    -0.077 C  
HETATM   18  C   UNL     1      -9.154   3.007  67.293  1.00  0.00    -0.203 C  
ENDBRANCH  13  17
ENDBRANCH  11  13
ENDBRANCH  10  11
ENDBRANCH   9  10
ENDBRANCH   7   9
ENDBRANCH   3   7
ENDBRANCH   2   3
TORSDOF 9
ENDMDL
MODEL      307
REMARK 921   NORMALIZED FREE ENERGY PREDICTED BY IDOCK:   -2.10 KCAL/MOL
REMARK 922        TOTAL FREE ENERGY PREDICTED BY IDOCK:   -3.62 KCAL/MOL
REMARK 923 INTER-LIGAND FREE ENERGY PREDICTED BY IDOCK:   -3.33 KCAL/MOL
REMARK 924 INTRA-LIGAND FREE ENERGY PREDICTED BY IDOCK:   -0.29 KCAL/MOL
REMARK 927      BINDING AFFINITY PREDICTED BY RF-SCORE:    0.00 PKD
ROOT
HETATM    1  C   UNL     1      -7.661   3.687  71.206  1.00  0.00    -0.059 C  
HETATM    2  C   UNL     1      -8.832   3.699  72.180  1.00  0.00    -0.121 C  
ENDROOT
BRANCH   2   3
HETATM    3  CA  UNL     1      -9.998   4.623  71.757  1.00  0.00    -0.192 C  
BRANCH   3   4
HETATM    4  C   UNL     1     -10.983   4.928  72.918  1.00  0.00    -0.262 C  
HETATM    5  H   UNL     1     -11.784   4.022  74.520  1.00  0.00     0.000 HD 
HETATM    6  O   UNL     1     -11.181   3.835  73.810  1.00  0.00    -0.225 OA 
ENDBRANCH   3   4
BRANCH   3   7
HETATM    7  N   UNL     1      -9.368   5.824  71.171  1.00  0.00    -0.152 NA 
HETATM    8  H   UNL     1      -8.366   5.682  71.046  1.00  0.00     0.000 HD 
BRANCH   7   9
HETATM    9  C   UNL     1      -9.991   6.259  69.913  1.00  0.00    -0.169 C  
BRANCH   9  10
HETATM   10  C   UNL     1     -10.812   7.548  70.134  1.00  0.00    -0.249 C  
BRANCH  10  11
HETATM   11  N   UNL     1     -10.726   8.440  68.964  1.00  0.00    -0.392 NA 
HETATM   12  H   UNL     1     -11.427   8.194  68.265  1.00  0.00     0.000 HD 
BRANCH  11  13
HETATM   13  CA  UNL     1     -10.818   9.877  69.328  1.00  0.00    -0.227 C  
BRANCH  13  14
HETATM   14  C   UNL     1      -9.470  10.565  69.009  1.00  0.00    -0.201 C  
HETATM   15  H   UNL     1      -8.845  12.136  67.992  1.00  0.00     0.000 HD 
HETATM   16  O   UNL     1      -9.673  11.713  68.188  1.00  0.00    -0.177 OA 
ENDBRANCH  13  14
BRANCH  13  17
HETATM   17  C   UNL     1     -11.225  10.140  70.793  1.00  0.00    -0.414 C  
HETATM   18  C   UNL     1     -12.352  11.147  70.975  1.00  0.00    -0.487 C  
ENDBRANCH  13  17
ENDBRANCH  11  13
ENDBRANCH  10  11
ENDBRANCH   9  10
ENDBRANCH   7   9
ENDBRANCH   3   7
ENDBRANCH   2   3
TORSDOF 9
ENDMDL
MODEL      308
REMARK 921   NORMALIZED FREE ENERGY PREDICTED BY IDOCK:   -2.10 KCAL/MOL
REMARK 922        TOTAL FREE ENERGY PREDICTED BY IDOCK:   -3.61 KCAL/MOL
REMARK 923 INTER-LIGAND FREE ENERGY PREDICTED BY IDOCK:   -2.96 KCAL/MOL
REMARK 924 INTRA-LIGAND FREE ENERGY PREDICTED BY IDOCK:   -0.66 KCAL/MOL
REMARK 927      BINDING AFFINITY PREDICTED BY RF-SCORE:    0.00 PKD
ROOT
HETATM    1  C   UNL     1      -8.527   8.039  72.625  1.00  0.00    -0.231 C  
HETATM    2  C   UNL     1      -9.745   8.834  72.175  1.00  0.00    -0.335 C  
ENDROOT
BRANCH   2   3
HETATM    3  CA  UNL     1     -11.024   7.985  71.992  1.00  0.00    -0.282 C  
BRANCH   3   4
HETATM    4  C   UNL     1     -12.304   8.694  72.512  1.00  0.00    -0.309 C  
HETATM    5  H   UNL     1     -14.221   8.967  71.984  1.00  0.00     0.000 HD 
HETATM    6  O   UNL     1     -13.438   8.533  71.666  1.00  0.00    -0.341 OA 
ENDBRANCH   3   4
BRANCH   3   7
HETATM    7  N   UNL     1     -11.072   7.631  70.558  1.00  0.00    -0.254 NA 
HETATM    8  H   UNL     1     -10.226   7.940  70.081  1.00  0.00     0.000 HD 
BRANCH   7   9
HETATM    9  C   UNL     1     -11.314   6.202  70.314  1.00  0.00    -0.344 C  
BRANCH   9  10
HETATM   10  C   UNL     1      -9.976   5.444  70.170  1.00  0.00    -0.232 C  
BRANCH  10  11
HETATM   11  N   UNL     1      -9.783   4.965  68.791  1.00  0.00    -0.156 NA 
HETATM   12  H   UNL     1     -10.675   4.892  68.301  1.00  0.00     0.000 HD 
BRANCH  11  13
HETATM   13  CA  UNL     1      -8.820   5.794  68.023  1.00  0.00    -0.109 C  
BRANCH  13  14
HETATM   14  C   UNL     1      -7.999   4.877  67.087  1.00  0.00    -0.099 C  
HETATM   15  H   UNL     1      -6.124   4.286  66.908  1.00  0.00     0.000 HD 
HETATM   16  O   UNL     1      -6.629   4.850  67.483  1.00  0.00    -0.044 OA 
ENDBRANCH  13  14
BRANCH  13  17
HETATM   17  C   UNL     1      -7.882   6.655  68.894  1.00  0.00    -0.111 C  
HETATM   18  C   UNL     1      -7.755   8.109  68.458  1.00  0.00    -0.112 C  
ENDBRANCH  13  17
ENDBRANCH  11  13
ENDBRANCH  10  11
ENDBRANCH   9  10
ENDBRANCH   7   9
ENDBRANCH   3   7
ENDBRANCH   2   3
TORSDOF 9
ENDMDL
MODEL      309
REMARK 921   NORMALIZED FREE ENERGY PREDICTED BY IDOCK:   -2.09 KCAL/MOL
REMARK 922        TOTAL FREE ENERGY PREDICTED BY IDOCK:   -3.61 KCAL/MOL
REMARK 923 INTER-LIGAND FREE ENERGY PREDICTED BY IDOCK:   -3.25 KCAL/MOL
REMARK 924 INTRA-LIGAND FREE ENERGY PREDICTED BY IDOCK:   -0.36 KCAL/MOL
REMARK 927      BINDING AFFINITY PREDICTED BY RF-SCORE:    0.00 PKD
ROOT
HETATM    1  C   UNL     1     -12.677  11.815  63.367  1.00  0.00    -0.395 C  
HETATM    2  C   UNL     1     -12.001  13.041  63.963  1.00  0.00    -0.523 C  
ENDROOT
BRANCH   2   3
HETATM    3  CA  UNL     1     -11.094  12.737  65.178  1.00  0.00    -0.291 C  
BRANCH   3   4
HETATM    4  C   UNL     1     -11.742  13.130  66.533  1.00  0.00    -0.382 C  
HETATM    5  H   UNL     1     -11.556  12.724  68.490  1.00  0.00     0.000 HD 
HETATM    6  O   UNL     1     -11.160  12.483  67.661  1.00  0.00    -0.235 OA 
ENDBRANCH   3   4
BRANCH   3   7
HETATM    7  N   UNL     1     -10.743  11.306  65.071  1.00  0.00    -0.281 NA 
HETATM    8  H   UNL     1     -11.318  10.845  64.366  1.00  0.00     0.000 HD 
BRANCH   7   9
HETATM    9  C   UNL     1      -9.316  11.069  64.813  1.00  0.00    -0.209 C  
BRANCH   9  10
HETATM   10  C   UNL     1      -8.601  10.619  66.106  1.00  0.00    -0.159 C  
BRANCH  10  11
HETATM   11  N   UNL     1      -8.367   9.164  66.105  1.00  0.00    -0.117 NA 
HETATM   12  H   UNL     1      -7.521   8.930  65.584  1.00  0.00     0.000 HD 
BRANCH  11  13
HETATM   13  CA  UNL     1      -8.328   8.587  67.472  1.00  0.00    -0.128 C  
BRANCH  13  14
HETATM   14  C   UNL     1      -9.632   8.959  68.214  1.00  0.00    -0.146 C  
HETATM   15  H   UNL     1     -11.576   8.815  67.901  1.00  0.00     0.000 HD 
HETATM   16  O   UNL     1     -10.774   8.586  67.445  1.00  0.00    -0.264 OA 
ENDBRANCH  13  14
BRANCH  13  17
HETATM   17  C   UNL     1      -7.097   9.000  68.305  1.00  0.00    -0.077 C  
HETATM   18  C   UNL     1      -5.887   8.087  68.160  1.00  0.00    -0.041 C  
ENDBRANCH  13  17
ENDBRANCH  11  13
ENDBRANCH  10  11
ENDBRANCH   9  10
ENDBRANCH   7   9
ENDBRANCH   3   7
ENDBRANCH   2   3
TORSDOF 9
ENDMDL
MODEL      310
REMARK 921   NORMALIZED FREE ENERGY PREDICTED BY IDOCK:   -2.09 KCAL/MOL
REMARK 922        TOTAL FREE ENERGY PREDICTED BY IDOCK:   -3.60 KCAL/MOL
REMARK 923 INTER-LIGAND FREE ENERGY PREDICTED BY IDOCK:   -3.37 KCAL/MOL
REMARK 924 INTRA-LIGAND FREE ENERGY PREDICTED BY IDOCK:   -0.23 KCAL/MOL
REMARK 927      BINDING AFFINITY PREDICTED BY RF-SCORE:    0.00 PKD
ROOT
HETATM    1  C   UNL     1      -8.612   3.565  65.692  1.00  0.00    -0.115 C  
HETATM    2  C   UNL     1      -9.051   4.971  66.077  1.00  0.00    -0.146 C  
ENDROOT
BRANCH   2   3
HETATM    3  CA  UNL     1     -10.035   5.023  67.269  1.00  0.00    -0.186 C  
BRANCH   3   4
HETATM    4  C   UNL     1      -9.514   4.268  68.522  1.00  0.00    -0.153 C  
HETATM    5  H   UNL     1      -9.815   4.209  70.505  1.00  0.00     0.000 HD 
HETATM    6  O   UNL     1     -10.134   4.671  69.739  1.00  0.00    -0.234 OA 
ENDBRANCH   3   4
BRANCH   3   7
HETATM    7  N   UNL     1     -10.311   6.456  67.502  1.00  0.00    -0.168 NA 
HETATM    8  H   UNL     1     -10.315   6.665  68.500  1.00  0.00     0.000 HD 
BRANCH   7   9
HETATM    9  C   UNL     1      -9.395   7.354  66.785  1.00  0.00    -0.160 C  
BRANCH   9  10
HETATM   10  C   UNL     1     -10.007   8.766  66.663  1.00  0.00    -0.285 C  
BRANCH  10  11
HETATM   11  N   UNL     1     -10.742   9.135  67.885  1.00  0.00    -0.431 NA 
HETATM   12  H   UNL     1     -10.355   8.660  68.701  1.00  0.00     0.000 HD 
BRANCH  11  13
HETATM   13  CA  UNL     1     -10.800  10.603  68.102  1.00  0.00    -0.245 C  
BRANCH  13  14
HETATM   14  C   UNL     1     -11.907  10.917  69.135  1.00  0.00    -0.317 C  
HETATM   15  H   UNL     1     -12.076  11.923  70.824  1.00  0.00     0.000 HD 
HETATM   16  O   UNL     1     -11.396  11.730  70.190  1.00  0.00    -0.157 OA 
ENDBRANCH  13  14
BRANCH  13  17
HETATM   17  C   UNL     1     -11.011  11.430  66.817  1.00  0.00    -0.347 C  
HETATM   18  C   UNL     1     -11.597  12.818  67.035  1.00  0.00    -0.422 C  
ENDBRANCH  13  17
ENDBRANCH  11  13
ENDBRANCH  10  11
ENDBRANCH   9  10
ENDBRANCH   7   9
ENDBRANCH   3   7
ENDBRANCH   2   3
TORSDOF 9
ENDMDL
MODEL      311
REMARK 921   NORMALIZED FREE ENERGY PREDICTED BY IDOCK:   -2.08 KCAL/MOL
REMARK 922        TOTAL FREE ENERGY PREDICTED BY IDOCK:   -3.58 KCAL/MOL
REMARK 923 INTER-LIGAND FREE ENERGY PREDICTED BY IDOCK:   -3.26 KCAL/MOL
REMARK 924 INTRA-LIGAND FREE ENERGY PREDICTED BY IDOCK:   -0.32 KCAL/MOL
REMARK 927      BINDING AFFINITY PREDICTED BY RF-SCORE:    0.00 PKD
ROOT
HETATM    1  C   UNL     1      -8.095   7.287  67.547  1.00  0.00    -0.114 C  
HETATM    2  C   UNL     1      -7.952   8.112  68.819  1.00  0.00    -0.115 C  
ENDROOT
BRANCH   2   3
HETATM    3  CA  UNL     1      -8.989   9.252  68.954  1.00  0.00    -0.136 C  
BRANCH   3   4
HETATM    4  C   UNL     1     -10.311   8.793  69.628  1.00  0.00    -0.213 C  
HETATM    5  H   UNL     1     -10.964   7.408  70.926  1.00  0.00     0.000 HD 
HETATM    6  O   UNL     1     -10.155   7.689  70.514  1.00  0.00    -0.188 OA 
ENDBRANCH   3   4
BRANCH   3   7
HETATM    7  N   UNL     1      -8.296  10.344  69.669  1.00  0.00    -0.345 NA 
HETATM    8  H   UNL     1      -7.537   9.976  70.243  1.00  0.00     0.000 HD 
BRANCH   7   9
HETATM    9  C   UNL     1      -7.807  11.408  68.782  1.00  0.00    -0.128 C  
BRANCH   9  10
HETATM   10  C   UNL     1      -8.985  12.254  68.251  1.00  0.00    -0.182 C  
BRANCH  10  11
HETATM   11  N   UNL     1      -8.955  13.617  68.810  1.00  0.00    -0.378 NA 
HETATM   12  H   UNL     1      -8.138  14.130  68.477  1.00  0.00     0.000 HD 
BRANCH  11  13
HETATM   13  CA  UNL     1     -10.204  14.375  68.547  1.00  0.00    -0.243 C  
BRANCH  13  14
HETATM   14  C   UNL     1     -10.696  14.053  67.116  1.00  0.00    -0.283 C  
HETATM   15  H   UNL     1     -12.412  14.022  66.141  1.00  0.00     0.000 HD 
HETATM   16  O   UNL     1     -12.110  14.219  67.020  1.00  0.00    -0.425 OA 
ENDBRANCH  13  14
BRANCH  13  17
HETATM   17  C   UNL     1     -10.081  15.899  68.745  1.00  0.00    -0.221 C  
HETATM   18  C   UNL     1     -11.019  16.490  69.789  1.00  0.00    -0.292 C  
ENDBRANCH  13  17
ENDBRANCH  11  13
ENDBRANCH  10  11
ENDBRANCH   9  10
ENDBRANCH   7   9
ENDBRANCH   3   7
ENDBRANCH   2   3
TORSDOF 9
ENDMDL
MODEL      312
REMARK 921   NORMALIZED FREE ENERGY PREDICTED BY IDOCK:   -2.08 KCAL/MOL
REMARK 922        TOTAL FREE ENERGY PREDICTED BY IDOCK:   -3.58 KCAL/MOL
REMARK 923 INTER-LIGAND FREE ENERGY PREDICTED BY IDOCK:   -3.39 KCAL/MOL
REMARK 924 INTRA-LIGAND FREE ENERGY PREDICTED BY IDOCK:   -0.18 KCAL/MOL
REMARK 927      BINDING AFFINITY PREDICTED BY RF-SCORE:    0.00 PKD
ROOT
HETATM    1  C   UNL     1      -7.355  14.745  68.162  1.00  0.00    -0.122 C  
HETATM    2  C   UNL     1      -8.038  13.673  67.325  1.00  0.00    -0.152 C  
ENDROOT
BRANCH   2   3
HETATM    3  CA  UNL     1      -9.442  13.271  67.834  1.00  0.00    -0.214 C  
BRANCH   3   4
HETATM    4  C   UNL     1     -10.451  13.005  66.685  1.00  0.00    -0.264 C  
HETATM    5  H   UNL     1     -11.494  14.019  65.301  1.00  0.00     0.000 HD 
HETATM    6  O   UNL     1     -10.877  14.182  66.005  1.00  0.00    -0.291 OA 
ENDBRANCH   3   4
BRANCH   3   7
HETATM    7  N   UNL     1      -9.230  12.115  68.729  1.00  0.00    -0.398 NA 
HETATM    8  H   UNL     1      -8.989  12.426  69.670  1.00  0.00     0.000 HD 
BRANCH   7   9
HETATM    9  C   UNL     1     -10.368  11.185  68.766  1.00  0.00    -0.205 C  
BRANCH   9  10
HETATM   10  C   UNL     1     -10.000   9.853  68.076  1.00  0.00    -0.152 C  
BRANCH  10  11
HETATM   11  N   UNL     1     -11.040   8.834  68.300  1.00  0.00    -0.409 NA 
HETATM   12  H   UNL     1     -11.277   8.356  67.430  1.00  0.00     0.000 HD 
BRANCH  11  13
HETATM   13  CA  UNL     1     -10.673   7.861  69.360  1.00  0.00    -0.168 C  
BRANCH  13  14
HETATM   14  C   UNL     1     -10.455   6.472  68.715  1.00  0.00    -0.213 C  
HETATM   15  H   UNL     1     -10.934   5.559  67.031  1.00  0.00     0.000 HD 
HETATM   16  O   UNL     1     -11.068   6.412  67.428  1.00  0.00    -0.363 OA 
ENDBRANCH  13  14
BRANCH  13  17
HETATM   17  C   UNL     1     -11.687   7.764  70.518  1.00  0.00    -0.118 C  
HETATM   18  C   UNL     1     -11.370   6.703  71.563  1.00  0.00    -0.326 C  
ENDBRANCH  13  17
ENDBRANCH  11  13
ENDBRANCH  10  11
ENDBRANCH   9  10
ENDBRANCH   7   9
ENDBRANCH   3   7
ENDBRANCH   2   3
TORSDOF 9
ENDMDL
MODEL      313
REMARK 921   NORMALIZED FREE ENERGY PREDICTED BY IDOCK:   -2.07 KCAL/MOL
REMARK 922        TOTAL FREE ENERGY PREDICTED BY IDOCK:   -3.57 KCAL/MOL
REMARK 923 INTER-LIGAND FREE ENERGY PREDICTED BY IDOCK:   -3.06 KCAL/MOL
REMARK 924 INTRA-LIGAND FREE ENERGY PREDICTED BY IDOCK:   -0.51 KCAL/MOL
REMARK 927      BINDING AFFINITY PREDICTED BY RF-SCORE:    0.00 PKD
ROOT
HETATM    1  C   UNL     1      -8.377   8.039  72.653  1.00  0.00    -0.221 C  
HETATM    2  C   UNL     1      -9.590   8.601  71.925  1.00  0.00    -0.377 C  
ENDROOT
BRANCH   2   3
HETATM    3  CA  UNL     1     -10.496   7.526  71.281  1.00  0.00    -0.207 C  
BRANCH   3   4
HETATM    4  C   UNL     1     -11.368   6.765  72.317  1.00  0.00    -0.273 C  
HETATM    5  H   UNL     1     -13.238   6.065  72.520  1.00  0.00     0.000 HD 
HETATM    6  O   UNL     1     -12.705   6.531  71.886  1.00  0.00    -0.325 OA 
ENDBRANCH   3   4
BRANCH   3   7
HETATM    7  N   UNL     1     -11.275   8.226  70.238  1.00  0.00    -0.379 NA 
HETATM    8  H   UNL     1     -10.955   9.189  70.134  1.00  0.00     0.000 HD 
BRANCH   7   9
HETATM    9  C   UNL     1     -11.272   7.535  68.941  1.00  0.00     0.309 C  
BRANCH   9  10
HETATM   10  C   UNL     1     -10.026   7.932  68.119  1.00  0.00    -0.180 C  
BRANCH  10  11
HETATM   11  N   UNL     1     -10.392   8.804  66.989  1.00  0.00    -0.280 NA 
HETATM   12  H   UNL     1     -11.349   8.626  66.685  1.00  0.00     0.000 HD 
BRANCH  11  13
HETATM   13  CA  UNL     1     -10.186  10.245  67.284  1.00  0.00    -0.218 C  
BRANCH  13  14
HETATM   14  C   UNL     1      -9.275  10.380  68.526  1.00  0.00    -0.145 C  
HETATM   15  H   UNL     1      -9.391  11.158  70.337  1.00  0.00     0.000 HD 
HETATM   16  O   UNL     1      -9.951  11.075  69.573  1.00  0.00    -0.076 OA 
ENDBRANCH  13  14
BRANCH  13  17
HETATM   17  C   UNL     1     -11.487  11.050  67.479  1.00  0.00    -0.266 C  
HETATM   18  C   UNL     1     -11.499  12.422  66.818  1.00  0.00    -0.423 C  
ENDBRANCH  13  17
ENDBRANCH  11  13
ENDBRANCH  10  11
ENDBRANCH   9  10
ENDBRANCH   7   9
ENDBRANCH   3   7
ENDBRANCH   2   3
TORSDOF 9
ENDMDL
MODEL      314
REMARK 921   NORMALIZED FREE ENERGY PREDICTED BY IDOCK:   -2.07 KCAL/MOL
REMARK 922        TOTAL FREE ENERGY PREDICTED BY IDOCK:   -3.57 KCAL/MOL
REMARK 923 INTER-LIGAND FREE ENERGY PREDICTED BY IDOCK:   -3.27 KCAL/MOL
REMARK 924 INTRA-LIGAND FREE ENERGY PREDICTED BY IDOCK:   -0.29 KCAL/MOL
REMARK 927      BINDING AFFINITY PREDICTED BY RF-SCORE:    0.00 PKD
ROOT
HETATM    1  C   UNL     1      -5.126  15.903  67.844  1.00  0.00    -0.135 C  
HETATM    2  C   UNL     1      -6.598  16.200  67.594  1.00  0.00    -0.180 C  
ENDROOT
BRANCH   2   3
HETATM    3  CA  UNL     1      -7.569  15.201  68.267  1.00  0.00    -0.109 C  
BRANCH   3   4
HETATM    4  C   UNL     1      -6.840  14.009  68.945  1.00  0.00    -0.108 C  
HETATM    5  H   UNL     1      -6.604  12.029  68.712  1.00  0.00     0.000 HD 
HETATM    6  O   UNL     1      -7.050  12.758  68.297  1.00  0.00    -0.086 OA 
ENDBRANCH   3   4
BRANCH   3   7
HETATM    7  N   UNL     1      -8.397  16.004  69.189  1.00  0.00    -0.242 NA 
HETATM    8  H   UNL     1      -8.633  16.904  68.773  1.00  0.00     0.000 HD 
BRANCH   7   9
HETATM    9  C   UNL     1      -9.610  15.309  69.644  1.00  0.00    -0.180 C  
BRANCH   9  10
HETATM   10  C   UNL     1     -10.362  14.693  68.444  1.00  0.00    -0.237 C  
BRANCH  10  11
HETATM   11  N   UNL     1     -11.210  15.696  67.777  1.00  0.00    -0.322 NA 
HETATM   12  H   UNL     1     -11.750  16.229  68.459  1.00  0.00     0.000 HD 
BRANCH  11  13
HETATM   13  CA  UNL     1     -10.440  16.598  66.884  1.00  0.00    -0.271 C  
BRANCH  13  14
HETATM   14  C   UNL     1     -10.773  18.065  67.242  1.00  0.00    -0.290 C  
HETATM   15  H   UNL     1     -10.544  19.274  68.785  1.00  0.00     0.000 HD 
HETATM   16  O   UNL     1     -10.339  18.373  68.566  1.00  0.00    -0.365 OA 
ENDBRANCH  13  14
BRANCH  13  17
HETATM   17  C   UNL     1     -10.659  16.347  65.379  1.00  0.00    -0.338 C  
HETATM   18  C   UNL     1     -11.198  14.966  65.029  1.00  0.00    -0.408 C  
ENDBRANCH  13  17
ENDBRANCH  11  13
ENDBRANCH  10  11
ENDBRANCH   9  10
ENDBRANCH   7   9
ENDBRANCH   3   7
ENDBRANCH   2   3
TORSDOF 9
ENDMDL
MODEL      315
REMARK 921   NORMALIZED FREE ENERGY PREDICTED BY IDOCK:   -2.07 KCAL/MOL
REMARK 922        TOTAL FREE ENERGY PREDICTED BY IDOCK:   -3.56 KCAL/MOL
REMARK 923 INTER-LIGAND FREE ENERGY PREDICTED BY IDOCK:   -3.30 KCAL/MOL
REMARK 924 INTRA-LIGAND FREE ENERGY PREDICTED BY IDOCK:   -0.26 KCAL/MOL
REMARK 927      BINDING AFFINITY PREDICTED BY RF-SCORE:    0.00 PKD
ROOT
HETATM    1  C   UNL     1     -10.231   5.625  71.225  1.00  0.00    -0.279 C  
HETATM    2  C   UNL     1     -11.146   6.763  71.659  1.00  0.00    -0.282 C  
ENDROOT
BRANCH   2   3
HETATM    3  CA  UNL     1     -10.398   8.026  72.146  1.00  0.00    -0.254 C  
BRANCH   3   4
HETATM    4  C   UNL     1      -8.888   7.774  72.411  1.00  0.00    -0.142 C  
HETATM    5  H   UNL     1      -7.447   8.335  73.690  1.00  0.00     0.000 HD 
HETATM    6  O   UNL     1      -8.370   8.489  73.528  1.00  0.00    -0.381 OA 
ENDBRANCH   3   4
BRANCH   3   7
HETATM    7  N   UNL     1     -10.665   9.068  71.134  1.00  0.00    -0.261 NA 
HETATM    8  H   UNL     1     -11.208   9.832  71.537  1.00  0.00     0.000 HD 
BRANCH   7   9
HETATM    9  C   UNL     1      -9.451   9.581  70.484  1.00  0.00    -0.246 C  
BRANCH   9  10
HETATM   10  C   UNL     1      -9.819  10.523  69.317  1.00  0.00    -0.205 C  
BRANCH  10  11
HETATM   11  N   UNL     1      -8.614  11.130  68.725  1.00  0.00    -0.244 NA 
HETATM   12  H   UNL     1      -8.155  10.481  68.085  1.00  0.00     0.000 HD 
BRANCH  11  13
HETATM   13  CA  UNL     1      -8.892  12.428  68.059  1.00  0.00    -0.187 C  
BRANCH  13  14
HETATM   14  C   UNL     1      -7.806  13.449  68.470  1.00  0.00    -0.115 C  
HETATM   15  H   UNL     1      -6.018  14.002  67.844  1.00  0.00     0.000 HD 
HETATM   16  O   UNL     1      -6.685  13.374  67.591  1.00  0.00    -0.149 OA 
ENDBRANCH  13  14
BRANCH  13  17
HETATM   17  C   UNL     1     -10.299  12.998  68.331  1.00  0.00    -0.257 C  
HETATM   18  C   UNL     1     -11.070  13.429  67.091  1.00  0.00    -0.303 C  
ENDBRANCH  13  17
ENDBRANCH  11  13
ENDBRANCH  10  11
ENDBRANCH   9  10
ENDBRANCH   7   9
ENDBRANCH   3   7
ENDBRANCH   2   3
TORSDOF 9
ENDMDL
MODEL      316
REMARK 921   NORMALIZED FREE ENERGY PREDICTED BY IDOCK:   -2.06 KCAL/MOL
REMARK 922        TOTAL FREE ENERGY PREDICTED BY IDOCK:   -3.56 KCAL/MOL
REMARK 923 INTER-LIGAND FREE ENERGY PREDICTED BY IDOCK:   -3.11 KCAL/MOL
REMARK 924 INTRA-LIGAND FREE ENERGY PREDICTED BY IDOCK:   -0.44 KCAL/MOL
REMARK 927      BINDING AFFINITY PREDICTED BY RF-SCORE:    0.00 PKD
ROOT
HETATM    1  C   UNL     1     -11.580   6.553  70.124  1.00  0.00    -0.466 C  
HETATM    2  C   UNL     1     -10.957   6.251  68.769  1.00  0.00    -0.424 C  
ENDROOT
BRANCH   2   3
HETATM    3  CA  UNL     1     -10.057   7.382  68.219  1.00  0.00    -0.177 C  
BRANCH   3   4
HETATM    4  C   UNL     1      -8.819   6.852  67.446  1.00  0.00    -0.118 C  
HETATM    5  H   UNL     1      -7.934   7.056  65.656  1.00  0.00     0.000 HD 
HETATM    6  O   UNL     1      -8.691   7.380  66.129  1.00  0.00    -0.145 OA 
ENDBRANCH   3   4
BRANCH   3   7
HETATM    7  N   UNL     1     -10.943   8.249  67.415  1.00  0.00    -0.466 NA 
HETATM    8  H   UNL     1     -11.882   7.854  67.361  1.00  0.00     0.000 HD 
BRANCH   7   9
HETATM    9  C   UNL     1     -10.991   9.640  67.888  1.00  0.00    -0.145 C  
BRANCH   9  10
HETATM   10  C   UNL     1      -9.800   9.933  68.826  1.00  0.00    -0.171 C  
BRANCH  10  11
HETATM   11  N   UNL     1      -9.487  11.372  68.855  1.00  0.00    -0.383 NA 
HETATM   12  H   UNL     1      -9.255  11.677  69.800  1.00  0.00     0.000 HD 
BRANCH  11  13
HETATM   13  CA  UNL     1      -8.415  11.746  67.897  1.00  0.00    -0.154 C  
BRANCH  13  14
HETATM   14  C   UNL     1      -7.484  10.531  67.682  1.00  0.00    -0.092 C  
HETATM   15  H   UNL     1      -5.544  10.187  67.566  1.00  0.00     0.000 HD 
HETATM   16  O   UNL     1      -6.116  10.934  67.698  1.00  0.00    -0.047 OA 
ENDBRANCH  13  14
BRANCH  13  17
HETATM   17  C   UNL     1      -7.596  12.987  68.308  1.00  0.00    -0.135 C  
HETATM   18  C   UNL     1      -7.727  14.182  67.375  1.00  0.00    -0.189 C  
ENDBRANCH  13  17
ENDBRANCH  11  13
ENDBRANCH  10  11
ENDBRANCH   9  10
ENDBRANCH   7   9
ENDBRANCH   3   7
ENDBRANCH   2   3
TORSDOF 9
ENDMDL
MODEL      317
REMARK 921   NORMALIZED FREE ENERGY PREDICTED BY IDOCK:   -2.06 KCAL/MOL
REMARK 922        TOTAL FREE ENERGY PREDICTED BY IDOCK:   -3.55 KCAL/MOL
REMARK 923 INTER-LIGAND FREE ENERGY PREDICTED BY IDOCK:   -3.21 KCAL/MOL
REMARK 924 INTRA-LIGAND FREE ENERGY PREDICTED BY IDOCK:   -0.35 KCAL/MOL
REMARK 927      BINDING AFFINITY PREDICTED BY RF-SCORE:    0.00 PKD
ROOT
HETATM    1  C   UNL     1     -10.086   4.643  66.188  1.00  0.00    -0.291 C  
HETATM    2  C   UNL     1      -9.097   5.792  66.053  1.00  0.00    -0.163 C  
ENDROOT
BRANCH   2   3
HETATM    3  CA  UNL     1      -8.841   6.566  67.367  1.00  0.00    -0.115 C  
BRANCH   3   4
HETATM    4  C   UNL     1      -7.599   7.496  67.293  1.00  0.00    -0.108 C  
HETATM    5  H   UNL     1      -6.806   8.893  66.090  1.00  0.00     0.000 HD 
HETATM    6  O   UNL     1      -7.566   8.324  66.135  1.00  0.00    -0.083 OA 
ENDBRANCH   3   4
BRANCH   3   7
HETATM    7  N   UNL     1     -10.103   7.271  67.672  1.00  0.00    -0.168 NA 
HETATM    8  H   UNL     1     -10.831   7.015  67.004  1.00  0.00     0.000 HD 
BRANCH   7   9
HETATM    9  C   UNL     1     -10.570   7.070  69.051  1.00  0.00    -0.217 C  
BRANCH   9  10
HETATM   10  C   UNL     1     -10.460   8.383  69.856  1.00  0.00    -0.222 C  
BRANCH  10  11
HETATM   11  N   UNL     1     -11.366   8.372  71.017  1.00  0.00    -0.262 NA 
HETATM   12  H   UNL     1     -12.339   8.451  70.722  1.00  0.00     0.000 HD 
BRANCH  11  13
HETATM   13  CA  UNL     1     -11.169   7.186  71.889  1.00  0.00    -0.249 C  
BRANCH  13  14
HETATM   14  C   UNL     1     -12.520   6.454  72.057  1.00  0.00    -0.160 C  
HETATM   15  H   UNL     1     -14.411   6.763  71.581  1.00  0.00     0.000 HD 
HETATM   16  O   UNL     1     -13.581   7.213  71.478  1.00  0.00    -0.380 OA 
ENDBRANCH  13  14
BRANCH  13  17
HETATM   17  C   UNL     1     -10.551   7.501  73.267  1.00  0.00    -0.438 C  
HETATM   18  C   UNL     1      -9.116   8.008  73.227  1.00  0.00    -0.349 C  
ENDBRANCH  13  17
ENDBRANCH  11  13
ENDBRANCH  10  11
ENDBRANCH   9  10
ENDBRANCH   7   9
ENDBRANCH   3   7
ENDBRANCH   2   3
TORSDOF 9
ENDMDL
MODEL      318
REMARK 921   NORMALIZED FREE ENERGY PREDICTED BY IDOCK:   -2.03 KCAL/MOL
REMARK 922        TOTAL FREE ENERGY PREDICTED BY IDOCK:   -3.51 KCAL/MOL
REMARK 923 INTER-LIGAND FREE ENERGY PREDICTED BY IDOCK:   -3.09 KCAL/MOL
REMARK 924 INTRA-LIGAND FREE ENERGY PREDICTED BY IDOCK:   -0.42 KCAL/MOL
REMARK 927      BINDING AFFINITY PREDICTED BY RF-SCORE:    0.00 PKD
ROOT
HETATM    1  C   UNL     1     -10.404   3.350  72.729  1.00  0.00    -0.240 C  
HETATM    2  C   UNL     1      -9.984   4.795  72.502  1.00  0.00    -0.216 C  
ENDROOT
BRANCH   2   3
HETATM    3  CA  UNL     1      -9.259   5.039  71.158  1.00  0.00    -0.145 C  
BRANCH   3   4
HETATM    4  C   UNL     1      -8.028   4.114  70.954  1.00  0.00    -0.063 C  
HETATM    5  H   UNL     1      -6.176   4.184  70.184  1.00  0.00     0.000 HD 
HETATM    6  O   UNL     1      -6.929   4.750  70.308  1.00  0.00    -0.045 OA 
ENDBRANCH   3   4
BRANCH   3   7
HETATM    7  N   UNL     1     -10.293   4.904  70.111  1.00  0.00    -0.244 NA 
HETATM    8  H   UNL     1     -11.195   5.240  70.449  1.00  0.00     0.000 HD 
BRANCH   7   9
HETATM    9  C   UNL     1      -9.936   5.557  68.844  1.00  0.00    -0.174 C  
BRANCH   9  10
HETATM   10  C   UNL     1      -9.633   7.054  69.075  1.00  0.00    -0.141 C  
BRANCH  10  11
HETATM   11  N   UNL     1     -10.876   7.839  69.171  1.00  0.00    -0.410 NA 
HETATM   12  H   UNL     1     -11.622   7.291  69.598  1.00  0.00     0.000 HD 
BRANCH  11  13
HETATM   13  CA  UNL     1     -10.688   9.129  69.883  1.00  0.00    -0.231 C  
BRANCH  13  14
HETATM   14  C   UNL     1     -11.002   8.926  71.383  1.00  0.00    -0.310 C  
HETATM   15  H   UNL     1      -9.998   8.845  73.081  1.00  0.00     0.000 HD 
HETATM   16  O   UNL     1      -9.805   8.969  72.159  1.00  0.00    -0.273 OA 
ENDBRANCH  13  14
BRANCH  13  17
HETATM   17  C   UNL     1     -11.514  10.300  69.313  1.00  0.00    -0.223 C  
HETATM   18  C   UNL     1     -11.218  10.648  67.860  1.00  0.00    -0.376 C  
ENDBRANCH  13  17
ENDBRANCH  11  13
ENDBRANCH  10  11
ENDBRANCH   9  10
ENDBRANCH   7   9
ENDBRANCH   3   7
ENDBRANCH   2   3
TORSDOF 9
ENDMDL
MODEL      319
REMARK 921   NORMALIZED FREE ENERGY PREDICTED BY IDOCK:   -2.01 KCAL/MOL
REMARK 922        TOTAL FREE ENERGY PREDICTED BY IDOCK:   -3.48 KCAL/MOL
REMARK 923 INTER-LIGAND FREE ENERGY PREDICTED BY IDOCK:   -2.73 KCAL/MOL
REMARK 924 INTRA-LIGAND FREE ENERGY PREDICTED BY IDOCK:   -0.75 KCAL/MOL
REMARK 927      BINDING AFFINITY PREDICTED BY RF-SCORE:    0.00 PKD
ROOT
HETATM    1  C   UNL     1     -11.483  10.796  68.446  1.00  0.00    -0.358 C  
HETATM    2  C   UNL     1     -10.440   9.727  68.151  1.00  0.00    -0.258 C  
ENDROOT
BRANCH   2   3
HETATM    3  CA  UNL     1     -10.427   9.244  66.682  1.00  0.00    -0.167 C  
BRANCH   3   4
HETATM    4  C   UNL     1      -9.057   9.460  65.983  1.00  0.00    -0.183 C  
HETATM    5  H   UNL     1      -7.973   8.693  64.478  1.00  0.00     0.000 HD 
HETATM    6  O   UNL     1      -8.811   8.561  64.905  1.00  0.00    -0.118 OA 
ENDBRANCH   3   4
BRANCH   3   7
HETATM    7  N   UNL     1     -10.870   7.835  66.717  1.00  0.00    -0.447 NA 
HETATM    8  H   UNL     1     -10.583   7.345  65.870  1.00  0.00     0.000 HD 
BRANCH   7   9
HETATM    9  C   UNL     1     -10.421   7.109  67.914  1.00  0.00    -0.212 C  
BRANCH   9  10
HETATM   10  C   UNL     1      -9.549   5.898  67.516  1.00  0.00    -0.112 C  
BRANCH  10  11
HETATM   11  N   UNL     1      -9.423   5.792  66.052  1.00  0.00    -0.285 NA 
HETATM   12  H   UNL     1      -9.006   6.637  65.660  1.00  0.00     0.000 HD 
BRANCH  11  13
HETATM   13  CA  UNL     1      -8.676   4.582  65.625  1.00  0.00    -0.124 C  
BRANCH  13  14
HETATM   14  C   UNL     1      -7.562   4.999  64.638  1.00  0.00    -0.078 C  
HETATM   15  H   UNL     1      -5.990   6.193  64.639  1.00  0.00     0.000 HD 
HETATM   16  O   UNL     1      -6.674   5.937  65.246  1.00  0.00    -0.042 OA 
ENDBRANCH  13  14
BRANCH  13  17
HETATM   17  C   UNL     1      -9.554   3.473  65.010  1.00  0.00    -0.160 C  
HETATM   18  C   UNL     1     -10.706   3.970  64.146  1.00  0.00    -0.185 C  
ENDBRANCH  13  17
ENDBRANCH  11  13
ENDBRANCH  10  11
ENDBRANCH   9  10
ENDBRANCH   7   9
ENDBRANCH   3   7
ENDBRANCH   2   3
TORSDOF 9
ENDMDL
MODEL      320
REMARK 921   NORMALIZED FREE ENERGY PREDICTED BY IDOCK:   -2.01 KCAL/MOL
REMARK 922        TOTAL FREE ENERGY PREDICTED BY IDOCK:   -3.47 KCAL/MOL
REMARK 923 INTER-LIGAND FREE ENERGY PREDICTED BY IDOCK:   -3.29 KCAL/MOL
REMARK 924 INTRA-LIGAND FREE ENERGY PREDICTED BY IDOCK:   -0.18 KCAL/MOL
REMARK 927      BINDING AFFINITY PREDICTED BY RF-SCORE:    0.00 PKD
ROOT
HETATM    1  C   UNL     1     -12.467  15.942  71.559  1.00  0.00    -0.483 C  
HETATM    2  C   UNL     1     -11.065  15.417  71.285  1.00  0.00    -0.341 C  
ENDROOT
BRANCH   2   3
HETATM    3  CA  UNL     1     -10.702  15.334  69.784  1.00  0.00    -0.283 C  
BRANCH   3   4
HETATM    4  C   UNL     1      -9.940  16.586  69.272  1.00  0.00    -0.244 C  
HETATM    5  H   UNL     1     -10.193  18.112  67.992  1.00  0.00     0.000 HD 
HETATM    6  O   UNL     1     -10.659  17.345  68.305  1.00  0.00    -0.365 OA 
ENDBRANCH   3   4
BRANCH   3   7
HETATM    7  N   UNL     1      -9.959  14.068  69.618  1.00  0.00    -0.114 NA 
HETATM    8  H   UNL     1     -10.588  13.268  69.686  1.00  0.00     0.000 HD 
BRANCH   7   9
HETATM    9  C   UNL     1      -9.173  14.007  68.377  1.00  0.00    -0.196 C  
BRANCH   9  10
HETATM   10  C   UNL     1      -9.629  12.815  67.507  1.00  0.00    -0.192 C  
BRANCH  10  11
HETATM   11  N   UNL     1      -8.585  12.434  66.540  1.00  0.00    -0.398 NA 
HETATM   12  H   UNL     1      -7.734  12.976  66.689  1.00  0.00     0.000 HD 
BRANCH  11  13
HETATM   13  CA  UNL     1      -8.296  10.977  66.549  1.00  0.00    -0.163 C  
BRANCH  13  14
HETATM   14  C   UNL     1      -6.926  10.739  67.225  1.00  0.00    -0.086 C  
HETATM   15  H   UNL     1      -6.014  11.275  68.892  1.00  0.00     0.000 HD 
HETATM   16  O   UNL     1      -6.856  11.421  68.476  1.00  0.00    -0.064 OA 
ENDBRANCH  13  14
BRANCH  13  17
HETATM   17  C   UNL     1      -8.336  10.309  65.160  1.00  0.00    -0.162 C  
HETATM   18  C   UNL     1      -9.108   8.998  65.099  1.00  0.00    -0.203 C  
ENDBRANCH  13  17
ENDBRANCH  11  13
ENDBRANCH  10  11
ENDBRANCH   9  10
ENDBRANCH   7   9
ENDBRANCH   3   7
ENDBRANCH   2   3
TORSDOF 9
ENDMDL
MODEL      321
REMARK 921   NORMALIZED FREE ENERGY PREDICTED BY IDOCK:   -2.00 KCAL/MOL
REMARK 922        TOTAL FREE ENERGY PREDICTED BY IDOCK:   -3.47 KCAL/MOL
REMARK 923 INTER-LIGAND FREE ENERGY PREDICTED BY IDOCK:   -3.14 KCAL/MOL
REMARK 924 INTRA-LIGAND FREE ENERGY PREDICTED BY IDOCK:   -0.33 KCAL/MOL
REMARK 927      BINDING AFFINITY PREDICTED BY RF-SCORE:    0.00 PKD
ROOT
HETATM    1  C   UNL     1      -8.994   2.394  67.558  1.00  0.00    -0.187 C  
HETATM    2  C   UNL     1      -8.844   2.537  66.050  1.00  0.00    -0.132 C  
ENDROOT
BRANCH   2   3
HETATM    3  CA  UNL     1      -9.255   3.924  65.501  1.00  0.00    -0.151 C  
BRANCH   3   4
HETATM    4  C   UNL     1     -10.636   3.910  64.791  1.00  0.00    -0.117 C  
HETATM    5  H   UNL     1     -11.413   3.601  62.966  1.00  0.00     0.000 HD 
HETATM    6  O   UNL     1     -10.568   3.610  63.400  1.00  0.00    -0.226 OA 
ENDBRANCH   3   4
BRANCH   3   7
HETATM    7  N   UNL     1      -9.178   4.850  66.649  1.00  0.00    -0.122 NA 
HETATM    8  H   UNL     1      -8.377   5.475  66.556  1.00  0.00     0.000 HD 
BRANCH   7   9
HETATM    9  C   UNL     1     -10.413   5.618  66.868  1.00  0.00    -0.288 C  
BRANCH   9  10
HETATM   10  C   UNL     1     -10.736   5.704  68.375  1.00  0.00    -0.156 C  
BRANCH  10  11
HETATM   11  N   UNL     1     -11.217   7.048  68.740  1.00  0.00    -0.494 NA 
HETATM   12  H   UNL     1     -12.236   7.070  68.788  1.00  0.00     0.000 HD 
BRANCH  11  13
HETATM   13  CA  UNL     1     -10.613   7.554  69.998  1.00  0.00    -0.237 C  
BRANCH  13  14
HETATM   14  C   UNL     1      -9.428   6.641  70.391  1.00  0.00    -0.166 C  
HETATM   15  H   UNL     1      -7.580   6.859  71.048  1.00  0.00     0.000 HD 
HETATM   16  O   UNL     1      -8.307   7.420  70.806  1.00  0.00    -0.116 OA 
ENDBRANCH  13  14
BRANCH  13  17
HETATM   17  C   UNL     1     -11.602   7.690  71.173  1.00  0.00    -0.301 C  
HETATM   18  C   UNL     1     -11.654   9.070  71.814  1.00  0.00    -0.444 C  
ENDBRANCH  13  17
ENDBRANCH  11  13
ENDBRANCH  10  11
ENDBRANCH   9  10
ENDBRANCH   7   9
ENDBRANCH   3   7
ENDBRANCH   2   3
TORSDOF 9
ENDMDL
MODEL      322
REMARK 921   NORMALIZED FREE ENERGY PREDICTED BY IDOCK:   -2.00 KCAL/MOL
REMARK 922        TOTAL FREE ENERGY PREDICTED BY IDOCK:   -3.47 KCAL/MOL
REMARK 923 INTER-LIGAND FREE ENERGY PREDICTED BY IDOCK:   -3.08 KCAL/MOL
REMARK 924 INTRA-LIGAND FREE ENERGY PREDICTED BY IDOCK:   -0.39 KCAL/MOL
REMARK 927      BINDING AFFINITY PREDICTED BY RF-SCORE:    0.00 PKD
ROOT
HETATM    1  C   UNL     1     -10.548  15.330  69.361  1.00  0.00    -0.257 C  
HETATM    2  C   UNL     1     -10.038  14.236  68.434  1.00  0.00    -0.243 C  
ENDROOT
BRANCH   2   3
HETATM    3  CA  UNL     1      -9.902  14.671  66.956  1.00  0.00    -0.244 C  
BRANCH   3   4
HETATM    4  C   UNL     1      -9.548  16.175  66.795  1.00  0.00    -0.240 C  
HETATM    5  H   UNL     1     -10.249  17.820  65.883  1.00  0.00     0.000 HD 
HETATM    6  O   UNL     1     -10.465  16.900  65.981  1.00  0.00    -0.337 OA 
ENDBRANCH   3   4
BRANCH   3   7
HETATM    7  N   UNL     1      -8.912  13.753  66.355  1.00  0.00    -0.471 NA 
HETATM    8  H   UNL     1      -7.977  14.160  66.384  1.00  0.00     0.000 HD 
BRANCH   7   9
HETATM    9  C   UNL     1      -8.914  12.413  66.957  1.00  0.00    -0.209 C  
BRANCH   9  10
HETATM   10  C   UNL     1      -7.501  11.792  66.898  1.00  0.00    -0.106 C  
BRANCH  10  11
HETATM   11  N   UNL     1      -7.567  10.351  66.598  1.00  0.00    -0.110 NA 
HETATM   12  H   UNL     1      -7.330   9.795  67.421  1.00  0.00     0.000 HD 
BRANCH  11  13
HETATM   13  CA  UNL     1      -8.878   9.939  66.037  1.00  0.00    -0.146 C  
BRANCH  13  14
HETATM   14  C   UNL     1      -9.430   8.753  66.863  1.00  0.00    -0.177 C  
HETATM   15  H   UNL     1      -9.443   6.783  66.748  1.00  0.00     0.000 HD 
HETATM   16  O   UNL     1      -9.104   7.511  66.241  1.00  0.00    -0.163 OA 
ENDBRANCH  13  14
BRANCH  13  17
HETATM   17  C   UNL     1      -8.848   9.583  64.536  1.00  0.00    -0.249 C  
HETATM   18  C   UNL     1      -7.472   9.650  63.888  1.00  0.00    -0.123 C  
ENDBRANCH  13  17
ENDBRANCH  11  13
ENDBRANCH  10  11
ENDBRANCH   9  10
ENDBRANCH   7   9
ENDBRANCH   3   7
ENDBRANCH   2   3
TORSDOF 9
ENDMDL
MODEL      323
REMARK 921   NORMALIZED FREE ENERGY PREDICTED BY IDOCK:   -2.00 KCAL/MOL
REMARK 922        TOTAL FREE ENERGY PREDICTED BY IDOCK:   -3.46 KCAL/MOL
REMARK 923 INTER-LIGAND FREE ENERGY PREDICTED BY IDOCK:   -3.00 KCAL/MOL
REMARK 924 INTRA-LIGAND FREE ENERGY PREDICTED BY IDOCK:   -0.46 KCAL/MOL
REMARK 927      BINDING AFFINITY PREDICTED BY RF-SCORE:    0.00 PKD
ROOT
HETATM    1  C   UNL     1      -7.657   3.235  65.493  1.00  0.00    -0.077 C  
HETATM    2  C   UNL     1      -7.843   4.498  66.323  1.00  0.00    -0.099 C  
ENDROOT
BRANCH   2   3
HETATM    3  CA  UNL     1      -9.080   4.469  67.251  1.00  0.00    -0.127 C  
BRANCH   3   4
HETATM    4  C   UNL     1      -9.516   3.030  67.637  1.00  0.00    -0.138 C  
HETATM    5  H   UNL     1      -9.340   1.736  69.162  1.00  0.00     0.000 HD 
HETATM    6  O   UNL     1      -9.072   2.617  68.926  1.00  0.00    -0.111 OA 
ENDBRANCH   3   4
BRANCH   3   7
HETATM    7  N   UNL     1      -8.737   5.324  68.406  1.00  0.00    -0.098 NA 
HETATM    8  H   UNL     1      -7.784   5.679  68.323  1.00  0.00     0.000 HD 
BRANCH   7   9
HETATM    9  C   UNL     1      -9.685   6.425  68.624  1.00  0.00    -0.123 C  
BRANCH   9  10
HETATM   10  C   UNL     1     -10.966   5.907  69.315  1.00  0.00    -0.327 C  
BRANCH  10  11
HETATM   11  N   UNL     1     -10.666   5.370  70.654  1.00  0.00    -0.230 NA 
HETATM   12  H   UNL     1      -9.671   5.448  70.864  1.00  0.00     0.000 HD 
BRANCH  11  13
HETATM   13  CA  UNL     1     -11.487   5.995  71.722  1.00  0.00    -0.253 C  
BRANCH  13  14
HETATM   14  C   UNL     1     -12.383   7.087  71.094  1.00  0.00    -0.378 C  
HETATM   15  H   UNL     1     -14.232   7.748  71.300  1.00  0.00     0.000 HD 
HETATM   16  O   UNL     1     -13.681   7.077  71.686  1.00  0.00    -0.351 OA 
ENDBRANCH  13  14
BRANCH  13  17
HETATM   17  C   UNL     1     -10.673   6.574  72.896  1.00  0.00    -0.280 C  
HETATM   18  C   UNL     1     -10.383   8.066  72.803  1.00  0.00    -0.408 C  
ENDBRANCH  13  17
ENDBRANCH  11  13
ENDBRANCH  10  11
ENDBRANCH   9  10
ENDBRANCH   7   9
ENDBRANCH   3   7
ENDBRANCH   2   3
TORSDOF 9
ENDMDL
MODEL      324
REMARK 921   NORMALIZED FREE ENERGY PREDICTED BY IDOCK:   -2.00 KCAL/MOL
REMARK 922        TOTAL FREE ENERGY PREDICTED BY IDOCK:   -3.46 KCAL/MOL
REMARK 923 INTER-LIGAND FREE ENERGY PREDICTED BY IDOCK:   -3.28 KCAL/MOL
REMARK 924 INTRA-LIGAND FREE ENERGY PREDICTED BY IDOCK:   -0.18 KCAL/MOL
REMARK 927      BINDING AFFINITY PREDICTED BY RF-SCORE:    0.00 PKD
ROOT
HETATM    1  C   UNL     1      -9.499   5.497  71.006  1.00  0.00    -0.203 C  
HETATM    2  C   UNL     1     -10.891   5.313  70.417  1.00  0.00    -0.117 C  
ENDROOT
BRANCH   2   3
HETATM    3  CA  UNL     1     -11.637   6.637  70.129  1.00  0.00    -0.386 C  
BRANCH   3   4
HETATM    4  C   UNL     1     -11.465   7.689  71.259  1.00  0.00    -0.269 C  
HETATM    5  H   UNL     1     -12.571   8.979  72.326  1.00  0.00     0.000 HD 
HETATM    6  O   UNL     1     -12.677   8.336  71.635  1.00  0.00    -0.312 OA 
ENDBRANCH   3   4
BRANCH   3   7
HETATM    7  N   UNL     1     -11.159   7.090  68.807  1.00  0.00    -0.476 NA 
HETATM    8  H   UNL     1     -11.942   7.378  68.219  1.00  0.00     0.000 HD 
BRANCH   7   9
HETATM    9  C   UNL     1     -10.146   8.152  68.881  1.00  0.00    -0.202 C  
BRANCH   9  10
HETATM   10  C   UNL     1     -10.009   8.865  67.518  1.00  0.00    -0.203 C  
BRANCH  10  11
HETATM   11  N   UNL     1      -8.798   8.422  66.806  1.00  0.00    -0.133 NA 
HETATM   12  H   UNL     1      -8.800   7.410  66.678  1.00  0.00     0.000 HD 
BRANCH  11  13
HETATM   13  CA  UNL     1      -8.604   9.122  65.511  1.00  0.00    -0.170 C  
BRANCH  13  14
HETATM   14  C   UNL     1      -7.458  10.149  65.660  1.00  0.00    -0.144 C  
HETATM   15  H   UNL     1      -5.490  10.122  65.803  1.00  0.00     0.000 HD 
HETATM   16  O   UNL     1      -6.194   9.490  65.712  1.00  0.00    -0.061 OA 
ENDBRANCH  13  14
BRANCH  13  17
HETATM   17  C   UNL     1      -9.871   9.805  64.957  1.00  0.00    -0.243 C  
HETATM   18  C   UNL     1      -9.656  10.640  63.702  1.00  0.00    -0.360 C  
ENDBRANCH  13  17
ENDBRANCH  11  13
ENDBRANCH  10  11
ENDBRANCH   9  10
ENDBRANCH   7   9
ENDBRANCH   3   7
ENDBRANCH   2   3
TORSDOF 9
ENDMDL
MODEL      325
REMARK 921   NORMALIZED FREE ENERGY PREDICTED BY IDOCK:   -1.99 KCAL/MOL
REMARK 922        TOTAL FREE ENERGY PREDICTED BY IDOCK:   -3.45 KCAL/MOL
REMARK 923 INTER-LIGAND FREE ENERGY PREDICTED BY IDOCK:   -3.18 KCAL/MOL
REMARK 924 INTRA-LIGAND FREE ENERGY PREDICTED BY IDOCK:   -0.27 KCAL/MOL
REMARK 927      BINDING AFFINITY PREDICTED BY RF-SCORE:    0.00 PKD
ROOT
HETATM    1  C   UNL     1      -9.124   7.062  72.784  1.00  0.00    -0.155 C  
HETATM    2  C   UNL     1     -10.463   7.746  73.019  1.00  0.00    -0.432 C  
ENDROOT
BRANCH   2   3
HETATM    3  CA  UNL     1     -11.209   8.139  71.723  1.00  0.00    -0.272 C  
BRANCH   3   4
HETATM    4  C   UNL     1     -12.201   7.046  71.237  1.00  0.00    -0.377 C  
HETATM    5  H   UNL     1     -12.907   5.258  71.816  1.00  0.00     0.000 HD 
HETATM    6  O   UNL     1     -12.300   5.926  72.113  1.00  0.00    -0.182 OA 
ENDBRANCH   3   4
BRANCH   3   7
HETATM    7  N   UNL     1     -11.843   9.444  72.001  1.00  0.00    -0.322 NA 
HETATM    8  H   UNL     1     -11.334   9.944  72.730  1.00  0.00     0.000 HD 
BRANCH   7   9
HETATM    9  C   UNL     1     -12.001  10.286  70.807  1.00  0.00    -0.360 C  
BRANCH   9  10
HETATM   10  C   UNL     1     -10.819  10.076  69.837  1.00  0.00    -0.285 C  
BRANCH  10  11
HETATM   11  N   UNL     1     -10.897  11.004  68.695  1.00  0.00    -0.198 NA 
HETATM   12  H   UNL     1     -11.781  11.514  68.699  1.00  0.00     0.000 HD 
BRANCH  11  13
HETATM   13  CA  UNL     1      -9.744  11.938  68.634  1.00  0.00    -0.108 C  
BRANCH  13  14
HETATM   14  C   UNL     1     -10.012  12.998  67.540  1.00  0.00    -0.212 C  
HETATM   15  H   UNL     1     -11.309  13.285  66.080  1.00  0.00     0.000 HD 
HETATM   16  O   UNL     1     -11.144  12.634  66.752  1.00  0.00    -0.258 OA 
ENDBRANCH  13  14
BRANCH  13  17
HETATM   17  C   UNL     1      -8.380  11.256  68.401  1.00  0.00    -0.152 C  
HETATM   18  C   UNL     1      -7.356  11.472  69.508  1.00  0.00     0.130 C  
ENDBRANCH  13  17
ENDBRANCH  11  13
ENDBRANCH  10  11
ENDBRANCH   9  10
ENDBRANCH   7   9
ENDBRANCH   3   7
ENDBRANCH   2   3
TORSDOF 9
ENDMDL
MODEL      326
REMARK 921   NORMALIZED FREE ENERGY PREDICTED BY IDOCK:   -1.99 KCAL/MOL
REMARK 922        TOTAL FREE ENERGY PREDICTED BY IDOCK:   -3.45 KCAL/MOL
REMARK 923 INTER-LIGAND FREE ENERGY PREDICTED BY IDOCK:   -3.25 KCAL/MOL
REMARK 924 INTRA-LIGAND FREE ENERGY PREDICTED BY IDOCK:   -0.20 KCAL/MOL
REMARK 927      BINDING AFFINITY PREDICTED BY RF-SCORE:    0.00 PKD
ROOT
HETATM    1  C   UNL     1      -6.817   9.833  65.758  1.00  0.00    -0.098 C  
HETATM    2  C   UNL     1      -7.777   8.652  65.803  1.00  0.00    -0.090 C  
ENDROOT
BRANCH   2   3
HETATM    3  CA  UNL     1      -9.156   8.981  66.420  1.00  0.00    -0.170 C  
BRANCH   3   4
HETATM    4  C   UNL     1      -9.192   8.793  67.962  1.00  0.00    -0.139 C  
HETATM    5  H   UNL     1      -8.415   7.597  69.374  1.00  0.00     0.000 HD 
HETATM    6  O   UNL     1      -8.393   7.712  68.431  1.00  0.00    -0.124 OA 
ENDBRANCH   3   4
BRANCH   3   7
HETATM    7  N   UNL     1      -9.482  10.351  65.973  1.00  0.00    -0.176 NA 
HETATM    8  H   UNL     1      -8.667  10.959  66.050  1.00  0.00     0.000 HD 
BRANCH   7   9
HETATM    9  C   UNL     1     -10.047  10.407  64.617  1.00  0.00    -0.308 C  
BRANCH   9  10
HETATM   10  C   UNL     1     -11.237  11.390  64.568  1.00  0.00    -0.180 C  
BRANCH  10  11
HETATM   11  N   UNL     1     -11.139  12.396  65.639  1.00  0.00    -0.295 NA 
HETATM   12  H   UNL     1     -10.166  12.644  65.819  1.00  0.00     0.000 HD 
BRANCH  11  13
HETATM   13  CA  UNL     1     -11.956  13.607  65.367  1.00  0.00    -0.378 C  
BRANCH  13  14
HETATM   14  C   UNL     1     -11.605  14.145  63.960  1.00  0.00    -0.126 C  
HETATM   15  H   UNL     1     -11.990  15.752  62.880  1.00  0.00     0.000 HD 
HETATM   16  O   UNL     1     -12.206  15.421  63.744  1.00  0.00    -0.543 OA 
ENDBRANCH  13  14
BRANCH  13  17
HETATM   17  C   UNL     1     -11.815  14.723  66.422  1.00  0.00    -0.231 C  
HETATM   18  C   UNL     1     -11.722  14.238  67.862  1.00  0.00    -0.394 C  
ENDBRANCH  13  17
ENDBRANCH  11  13
ENDBRANCH  10  11
ENDBRANCH   9  10
ENDBRANCH   7   9
ENDBRANCH   3   7
ENDBRANCH   2   3
TORSDOF 9
ENDMDL
MODEL      327
REMARK 921   NORMALIZED FREE ENERGY PREDICTED BY IDOCK:   -1.99 KCAL/MOL
REMARK 922        TOTAL FREE ENERGY PREDICTED BY IDOCK:   -3.45 KCAL/MOL
REMARK 923 INTER-LIGAND FREE ENERGY PREDICTED BY IDOCK:   -2.79 KCAL/MOL
REMARK 924 INTRA-LIGAND FREE ENERGY PREDICTED BY IDOCK:   -0.66 KCAL/MOL
REMARK 927      BINDING AFFINITY PREDICTED BY RF-SCORE:    0.00 PKD
ROOT
HETATM    1  C   UNL     1     -10.130   5.856  72.254  1.00  0.00    -0.210 C  
HETATM    2  C   UNL     1     -11.596   5.904  71.844  1.00  0.00    -0.255 C  
ENDROOT
BRANCH   2   3
HETATM    3  CA  UNL     1     -11.963   7.108  70.946  1.00  0.00    -0.334 C  
BRANCH   3   4
HETATM    4  C   UNL     1     -11.082   8.359  71.217  1.00  0.00    -0.255 C  
HETATM    5  H   UNL     1     -11.279  10.268  71.805  1.00  0.00     0.000 HD 
HETATM    6  O   UNL     1     -11.818   9.503  71.639  1.00  0.00    -0.366 OA 
ENDBRANCH   3   4
BRANCH   3   7
HETATM    7  N   UNL     1     -11.892   6.612  69.557  1.00  0.00    -0.632 NA 
HETATM    8  H   UNL     1     -12.779   6.758  69.075  1.00  0.00     0.000 HD 
BRANCH   7   9
HETATM    9  C   UNL     1     -10.781   7.186  68.784  1.00  0.00    -0.169 C  
BRANCH   9  10
HETATM   10  C   UNL     1      -9.699   6.118  68.517  1.00  0.00    -0.127 C  
BRANCH  10  11
HETATM   11  N   UNL     1      -8.363   6.729  68.412  1.00  0.00    -0.122 NA 
HETATM   12  H   UNL     1      -8.410   7.738  68.559  1.00  0.00     0.000 HD 
BRANCH  11  13
HETATM   13  CA  UNL     1      -7.370   6.104  69.322  1.00  0.00    -0.088 C  
BRANCH  13  14
HETATM   14  C   UNL     1      -7.818   4.659  69.640  1.00  0.00    -0.065 C  
HETATM   15  H   UNL     1      -6.964   2.935  70.080  1.00  0.00     0.000 HD 
HETATM   16  O   UNL     1      -6.688   3.823  69.885  1.00  0.00    -0.033 OA 
ENDBRANCH  13  14
BRANCH  13  17
HETATM   17  C   UNL     1      -7.116   6.889  70.626  1.00  0.00    -0.068 C  
HETATM   18  C   UNL     1      -7.480   8.366  70.568  1.00  0.00    -0.065 C  
ENDBRANCH  13  17
ENDBRANCH  11  13
ENDBRANCH  10  11
ENDBRANCH   9  10
ENDBRANCH   7   9
ENDBRANCH   3   7
ENDBRANCH   2   3
TORSDOF 9
ENDMDL
MODEL      328
REMARK 921   NORMALIZED FREE ENERGY PREDICTED BY IDOCK:   -1.99 KCAL/MOL
REMARK 922        TOTAL FREE ENERGY PREDICTED BY IDOCK:   -3.44 KCAL/MOL
REMARK 923 INTER-LIGAND FREE ENERGY PREDICTED BY IDOCK:   -3.07 KCAL/MOL
REMARK 924 INTRA-LIGAND FREE ENERGY PREDICTED BY IDOCK:   -0.37 KCAL/MOL
REMARK 927      BINDING AFFINITY PREDICTED BY RF-SCORE:    0.00 PKD
ROOT
HETATM    1  C   UNL     1     -11.356  11.239  68.843  1.00  0.00    -0.340 C  
HETATM    2  C   UNL     1     -11.138   9.828  69.372  1.00  0.00    -0.205 C  
ENDROOT
BRANCH   2   3
HETATM    3  CA  UNL     1     -11.148   9.721  70.914  1.00  0.00    -0.357 C  
BRANCH   3   4
HETATM    4  C   UNL     1     -12.523  10.080  71.540  1.00  0.00    -0.419 C  
HETATM    5  H   UNL     1     -14.302   9.227  71.910  1.00  0.00     0.000 HD 
HETATM    6  O   UNL     1     -13.461   9.008  71.527  1.00  0.00    -0.355 OA 
ENDBRANCH   3   4
BRANCH   3   7
HETATM    7  N   UNL     1     -10.683   8.354  71.227  1.00  0.00    -0.221 NA 
HETATM    8  H   UNL     1     -11.474   7.738  71.417  1.00  0.00     0.000 HD 
BRANCH   7   9
HETATM    9  C   UNL     1      -9.813   7.779  70.192  1.00  0.00    -0.184 C  
BRANCH   9  10
HETATM   10  C   UNL     1     -10.031   6.253  70.088  1.00  0.00    -0.172 C  
BRANCH  10  11
HETATM   11  N   UNL     1      -8.838   5.514  70.535  1.00  0.00    -0.134 NA 
HETATM   12  H   UNL     1      -8.080   6.155  70.772  1.00  0.00     0.000 HD 
BRANCH  11  13
HETATM   13  CA  UNL     1      -9.123   4.586  71.658  1.00  0.00    -0.131 C  
BRANCH  13  14
HETATM   14  C   UNL     1      -9.761   3.295  71.096  1.00  0.00    -0.142 C  
HETATM   15  H   UNL     1      -9.842   1.383  71.580  1.00  0.00     0.000 HD 
HETATM   16  O   UNL     1      -9.450   2.176  71.926  1.00  0.00    -0.092 OA 
ENDBRANCH  13  14
BRANCH  13  17
HETATM   17  C   UNL     1     -10.007   5.184  72.772  1.00  0.00    -0.195 C  
HETATM   18  C   UNL     1      -9.250   5.688  73.993  1.00  0.00    -0.126 C  
ENDBRANCH  13  17
ENDBRANCH  11  13
ENDBRANCH  10  11
ENDBRANCH   9  10
ENDBRANCH   7   9
ENDBRANCH   3   7
ENDBRANCH   2   3
TORSDOF 9
ENDMDL
MODEL      329
REMARK 921   NORMALIZED FREE ENERGY PREDICTED BY IDOCK:   -1.98 KCAL/MOL
REMARK 922        TOTAL FREE ENERGY PREDICTED BY IDOCK:   -3.43 KCAL/MOL
REMARK 923 INTER-LIGAND FREE ENERGY PREDICTED BY IDOCK:   -3.21 KCAL/MOL
REMARK 924 INTRA-LIGAND FREE ENERGY PREDICTED BY IDOCK:   -0.22 KCAL/MOL
REMARK 927      BINDING AFFINITY PREDICTED BY RF-SCORE:    0.00 PKD
ROOT
HETATM    1  C   UNL     1     -10.708   5.527  70.509  1.00  0.00    -0.310 C  
HETATM    2  C   UNL     1     -11.044   6.404  71.707  1.00  0.00    -0.311 C  
ENDROOT
BRANCH   2   3
HETATM    3  CA  UNL     1      -9.825   7.131  72.322  1.00  0.00    -0.153 C  
BRANCH   3   4
HETATM    4  C   UNL     1      -8.467   6.567  71.824  1.00  0.00    -0.123 C  
HETATM    5  H   UNL     1      -7.166   5.104  72.265  1.00  0.00     0.000 HD 
HETATM    6  O   UNL     1      -7.997   5.449  72.570  1.00  0.00    -0.101 OA 
ENDBRANCH   3   4
BRANCH   3   7
HETATM    7  N   UNL     1     -10.024   8.566  72.032  1.00  0.00    -0.284 NA 
HETATM    8  H   UNL     1      -9.227   9.114  72.356  1.00  0.00     0.000 HD 
BRANCH   7   9
HETATM    9  C   UNL     1     -10.304   8.845  70.616  1.00  0.00    -0.215 C  
BRANCH   9  10
HETATM   10  C   UNL     1      -9.185   9.716  70.005  1.00  0.00    -0.241 C  
BRANCH  10  11
HETATM   11  N   UNL     1      -8.880   9.298  68.625  1.00  0.00    -0.131 NA 
HETATM   12  H   UNL     1      -8.157   8.579  68.613  1.00  0.00     0.000 HD 
BRANCH  11  13
HETATM   13  CA  UNL     1     -10.086   8.855  67.880  1.00  0.00    -0.206 C  
BRANCH  13  14
HETATM   14  C   UNL     1      -9.799   7.482  67.229  1.00  0.00    -0.179 C  
HETATM   15  H   UNL     1     -10.833   5.908  66.638  1.00  0.00     0.000 HD 
HETATM   16  O   UNL     1     -11.009   6.752  67.038  1.00  0.00    -0.377 OA 
ENDBRANCH  13  14
BRANCH  13  17
HETATM   17  C   UNL     1     -10.588   9.858  66.822  1.00  0.00    -0.214 C  
HETATM   18  C   UNL     1     -11.197  11.135  67.385  1.00  0.00    -0.363 C  
ENDBRANCH  13  17
ENDBRANCH  11  13
ENDBRANCH  10  11
ENDBRANCH   9  10
ENDBRANCH   7   9
ENDBRANCH   3   7
ENDBRANCH   2   3
TORSDOF 9
ENDMDL
MODEL      330
REMARK 921   NORMALIZED FREE ENERGY PREDICTED BY IDOCK:   -1.98 KCAL/MOL
REMARK 922        TOTAL FREE ENERGY PREDICTED BY IDOCK:   -3.43 KCAL/MOL
REMARK 923 INTER-LIGAND FREE ENERGY PREDICTED BY IDOCK:   -3.17 KCAL/MOL
REMARK 924 INTRA-LIGAND FREE ENERGY PREDICTED BY IDOCK:   -0.26 KCAL/MOL
REMARK 927      BINDING AFFINITY PREDICTED BY RF-SCORE:    0.00 PKD
ROOT
HETATM    1  C   UNL     1      -9.402   8.562  72.188  1.00  0.00    -0.353 C  
HETATM    2  C   UNL     1      -9.679   8.536  70.691  1.00  0.00    -0.207 C  
ENDROOT
BRANCH   2   3
HETATM    3  CA  UNL     1     -11.140   8.871  70.311  1.00  0.00    -0.228 C  
BRANCH   3   4
HETATM    4  C   UNL     1     -11.694  10.111  71.065  1.00  0.00    -0.382 C  
HETATM    5  H   UNL     1     -12.661  11.828  70.680  1.00  0.00     0.000 HD 
HETATM    6  O   UNL     1     -12.321  11.069  70.218  1.00  0.00    -0.309 OA 
ENDBRANCH   3   4
BRANCH   3   7
HETATM    7  N   UNL     1     -11.153   9.006  68.840  1.00  0.00    -0.437 NA 
HETATM    8  H   UNL     1     -11.241   9.985  68.568  1.00  0.00     0.000 HD 
BRANCH   7   9
HETATM    9  C   UNL     1      -9.994   8.386  68.184  1.00  0.00    -0.191 C  
BRANCH   9  10
HETATM   10  C   UNL     1      -9.474   9.286  67.041  1.00  0.00    -0.159 C  
BRANCH  10  11
HETATM   11  N   UNL     1      -9.959   8.817  65.732  1.00  0.00    -0.411 NA 
HETATM   12  H   UNL     1     -10.972   8.922  65.659  1.00  0.00     0.000 HD 
BRANCH  11  13
HETATM   13  CA  UNL     1      -9.273   9.477  64.593  1.00  0.00    -0.185 C  
BRANCH  13  14
HETATM   14  C   UNL     1      -8.491   8.412  63.790  1.00  0.00     0.027 C  
HETATM   15  H   UNL     1      -8.207   7.940  61.894  1.00  0.00     0.000 HD 
HETATM   16  O   UNL     1      -8.687   8.594  62.388  1.00  0.00    -0.198 OA 
ENDBRANCH  13  14
BRANCH  13  17
HETATM   17  C   UNL     1      -8.342  10.640  64.996  1.00  0.00    -0.106 C  
HETATM   18  C   UNL     1      -6.854  10.359  64.829  1.00  0.00    -0.028 C  
ENDBRANCH  13  17
ENDBRANCH  11  13
ENDBRANCH  10  11
ENDBRANCH   9  10
ENDBRANCH   7   9
ENDBRANCH   3   7
ENDBRANCH   2   3
TORSDOF 9
ENDMDL
MODEL      331
REMARK 921   NORMALIZED FREE ENERGY PREDICTED BY IDOCK:   -1.96 KCAL/MOL
REMARK 922        TOTAL FREE ENERGY PREDICTED BY IDOCK:   -3.41 KCAL/MOL
REMARK 923 INTER-LIGAND FREE ENERGY PREDICTED BY IDOCK:   -3.63 KCAL/MOL
REMARK 924 INTRA-LIGAND FREE ENERGY PREDICTED BY IDOCK:    0.22 KCAL/MOL
REMARK 927      BINDING AFFINITY PREDICTED BY RF-SCORE:    0.00 PKD
ROOT
HETATM    1  C   UNL     1      -5.846  13.565  69.381  1.00  0.00    -0.095 C  
HETATM    2  C   UNL     1      -7.286  13.605  68.890  1.00  0.00    -0.083 C  
ENDROOT
BRANCH   2   3
HETATM    3  CA  UNL     1      -7.493  12.986  67.487  1.00  0.00    -0.156 C  
BRANCH   3   4
HETATM    4  C   UNL     1      -8.071  11.546  67.537  1.00  0.00    -0.137 C  
HETATM    5  H   UNL     1      -8.798  10.237  68.874  1.00  0.00     0.000 HD 
HETATM    6  O   UNL     1      -8.444  11.118  68.844  1.00  0.00    -0.151 OA 
ENDBRANCH   3   4
BRANCH   3   7
HETATM    7  N   UNL     1      -8.334  13.947  66.743  1.00  0.00    -0.422 NA 
HETATM    8  H   UNL     1      -9.324  13.740  66.877  1.00  0.00     0.000 HD 
BRANCH   7   9
HETATM    9  C   UNL     1      -8.049  15.352  67.069  1.00  0.00    -0.230 C  
BRANCH   9  10
HETATM   10  C   UNL     1      -8.985  16.291  66.278  1.00  0.00    -0.331 C  
BRANCH  10  11
HETATM   11  N   UNL     1     -10.392  16.086  66.662  1.00  0.00    -0.293 NA 
HETATM   12  H   UNL     1     -10.987  16.821  66.279  1.00  0.00     0.000 HD 
BRANCH  11  13
HETATM   13  CA  UNL     1     -10.900  14.741  66.289  1.00  0.00    -0.322 C  
BRANCH  13  14
HETATM   14  C   UNL     1     -11.127  14.694  64.761  1.00  0.00    -0.384 C  
HETATM   15  H   UNL     1     -10.570  13.564  63.241  1.00  0.00     0.000 HD 
HETATM   16  O   UNL     1     -10.430  13.592  64.181  1.00  0.00    -0.305 OA 
ENDBRANCH  13  14
BRANCH  13  17
HETATM   17  C   UNL     1     -12.178  14.310  67.038  1.00  0.00    -0.338 C  
HETATM   18  C   UNL     1     -12.002  14.084  68.533  1.00  0.00    -0.383 C  
ENDBRANCH  13  17
ENDBRANCH  11  13
ENDBRANCH  10  11
ENDBRANCH   9  10
ENDBRANCH   7   9
ENDBRANCH   3   7
ENDBRANCH   2   3
TORSDOF 9
ENDMDL
MODEL      332
REMARK 921   NORMALIZED FREE ENERGY PREDICTED BY IDOCK:   -1.96 KCAL/MOL
REMARK 922        TOTAL FREE ENERGY PREDICTED BY IDOCK:   -3.40 KCAL/MOL
REMARK 923 INTER-LIGAND FREE ENERGY PREDICTED BY IDOCK:   -3.33 KCAL/MOL
REMARK 924 INTRA-LIGAND FREE ENERGY PREDICTED BY IDOCK:   -0.07 KCAL/MOL
REMARK 927      BINDING AFFINITY PREDICTED BY RF-SCORE:    0.00 PKD
ROOT
HETATM    1  C   UNL     1      -7.334   9.012  65.831  1.00  0.00    -0.093 C  
HETATM    2  C   UNL     1      -8.424   7.958  65.694  1.00  0.00    -0.160 C  
ENDROOT
BRANCH   2   3
HETATM    3  CA  UNL     1      -9.697   8.255  66.521  1.00  0.00    -0.253 C  
BRANCH   3   4
HETATM    4  C   UNL     1      -9.770   7.436  67.839  1.00  0.00    -0.143 C  
HETATM    5  H   UNL     1      -9.270   5.624  68.542  1.00  0.00     0.000 HD 
HETATM    6  O   UNL     1      -9.226   6.124  67.735  1.00  0.00    -0.114 OA 
ENDBRANCH   3   4
BRANCH   3   7
HETATM    7  N   UNL     1      -9.718   9.718  66.720  1.00  0.00    -0.183 NA 
HETATM    8  H   UNL     1      -8.787  10.064  66.954  1.00  0.00     0.000 HD 
BRANCH   7   9
HETATM    9  C   UNL     1     -10.275  10.458  65.578  1.00  0.00    -0.246 C  
BRANCH   9  10
HETATM   10  C   UNL     1     -11.301  11.506  66.062  1.00  0.00    -0.116 C  
BRANCH  10  11
HETATM   11  N   UNL     1     -11.207  11.709  67.518  1.00  0.00    -0.273 NA 
HETATM   12  H   UNL     1     -10.248  11.581  67.843  1.00  0.00     0.000 HD 
BRANCH  11  13
HETATM   13  CA  UNL     1     -11.745  13.024  67.951  1.00  0.00    -0.357 C  
BRANCH  13  14
HETATM   14  C   UNL     1     -10.993  14.148  67.201  1.00  0.00    -0.299 C  
HETATM   15  H   UNL     1     -10.812  16.109  67.325  1.00  0.00     0.000 HD 
HETATM   16  O   UNL     1     -11.274  15.419  67.785  1.00  0.00    -0.316 OA 
ENDBRANCH  13  14
BRANCH  13  17
HETATM   17  C   UNL     1     -11.695  13.264  69.474  1.00  0.00    -0.384 C  
HETATM   18  C   UNL     1     -12.048  12.053  70.327  1.00  0.00    -0.395 C  
ENDBRANCH  13  17
ENDBRANCH  11  13
ENDBRANCH  10  11
ENDBRANCH   9  10
ENDBRANCH   7   9
ENDBRANCH   3   7
ENDBRANCH   2   3
TORSDOF 9
ENDMDL
MODEL      333
REMARK 921   NORMALIZED FREE ENERGY PREDICTED BY IDOCK:   -1.92 KCAL/MOL
REMARK 922        TOTAL FREE ENERGY PREDICTED BY IDOCK:   -3.34 KCAL/MOL
REMARK 923 INTER-LIGAND FREE ENERGY PREDICTED BY IDOCK:   -2.73 KCAL/MOL
REMARK 924 INTRA-LIGAND FREE ENERGY PREDICTED BY IDOCK:   -0.61 KCAL/MOL
REMARK 927      BINDING AFFINITY PREDICTED BY RF-SCORE:    0.00 PKD
ROOT
HETATM    1  C   UNL     1     -11.875  12.252  68.767  1.00  0.00    -0.356 C  
HETATM    2  C   UNL     1     -11.469  10.970  69.480  1.00  0.00    -0.370 C  
ENDROOT
BRANCH   2   3
HETATM    3  CA  UNL     1     -10.928   9.866  68.541  1.00  0.00    -0.180 C  
BRANCH   3   4
HETATM    4  C   UNL     1      -9.425  10.046  68.194  1.00  0.00    -0.138 C  
HETATM    5  H   UNL     1      -7.648  10.175  69.120  1.00  0.00     0.000 HD 
HETATM    6  O   UNL     1      -8.568  10.065  69.332  1.00  0.00    -0.149 OA 
ENDBRANCH   3   4
BRANCH   3   7
HETATM    7  N   UNL     1     -11.243   8.584  69.203  1.00  0.00    -0.370 NA 
HETATM    8  H   UNL     1     -10.561   7.869  68.950  1.00  0.00     0.000 HD 
BRANCH   7   9
HETATM    9  C   UNL     1     -11.364   8.691  70.664  1.00  0.00    -0.247 C  
BRANCH   9  10
HETATM   10  C   UNL     1     -10.313   7.798  71.360  1.00  0.00    -0.197 C  
BRANCH  10  11
HETATM   11  N   UNL     1      -9.541   7.021  70.376  1.00  0.00    -0.169 NA 
HETATM   12  H   UNL     1      -9.185   7.623  69.633  1.00  0.00     0.000 HD 
BRANCH  11  13
HETATM   13  CA  UNL     1      -8.443   6.236  70.997  1.00  0.00    -0.128 C  
BRANCH  13  14
HETATM   14  C   UNL     1      -7.294   6.081  69.974  1.00  0.00    -0.075 C  
HETATM   15  H   UNL     1      -6.988   6.459  68.061  1.00  0.00     0.000 HD 
HETATM   16  O   UNL     1      -7.695   6.554  68.689  1.00  0.00    -0.098 OA 
ENDBRANCH  13  14
BRANCH  13  17
HETATM   17  C   UNL     1      -8.872   4.857  71.539  1.00  0.00    -0.152 C  
HETATM   18  C   UNL     1      -8.462   3.671  70.677  1.00  0.00    -0.102 C  
ENDBRANCH  13  17
ENDBRANCH  11  13
ENDBRANCH  10  11
ENDBRANCH   9  10
ENDBRANCH   7   9
ENDBRANCH   3   7
ENDBRANCH   2   3
TORSDOF 9
ENDMDL
MODEL      334
REMARK 921   NORMALIZED FREE ENERGY PREDICTED BY IDOCK:   -1.92 KCAL/MOL
REMARK 922        TOTAL FREE ENERGY PREDICTED BY IDOCK:   -3.34 KCAL/MOL
REMARK 923 INTER-LIGAND FREE ENERGY PREDICTED BY IDOCK:   -3.06 KCAL/MOL
REMARK 924 INTRA-LIGAND FREE ENERGY PREDICTED BY IDOCK:   -0.28 KCAL/MOL
REMARK 927      BINDING AFFINITY PREDICTED BY RF-SCORE:    0.00 PKD
ROOT
HETATM    1  C   UNL     1      -7.092   4.197  72.252  1.00  0.00    -0.056 C  
HETATM    2  C   UNL     1      -8.352   3.634  72.895  1.00  0.00    -0.086 C  
ENDROOT
BRANCH   2   3
HETATM    3  CA  UNL     1      -9.658   4.327  72.442  1.00  0.00    -0.141 C  
BRANCH   3   4
HETATM    4  C   UNL     1     -10.740   4.372  73.556  1.00  0.00    -0.251 C  
HETATM    5  H   UNL     1     -12.647   4.943  73.811  1.00  0.00     0.000 HD 
HETATM    6  O   UNL     1     -11.985   4.916  73.130  1.00  0.00    -0.223 OA 
ENDBRANCH   3   4
BRANCH   3   7
HETATM    7  N   UNL     1      -9.256   5.657  71.940  1.00  0.00    -0.145 NA 
HETATM    8  H   UNL     1      -8.248   5.695  71.785  1.00  0.00     0.000 HD 
BRANCH   7   9
HETATM    9  C   UNL     1      -9.984   6.073  70.733  1.00  0.00    -0.191 C  
BRANCH   9  10
HETATM   10  C   UNL     1      -9.969   7.612  70.597  1.00  0.00    -0.183 C  
BRANCH  10  11
HETATM   11  N   UNL     1     -10.782   8.246  71.648  1.00  0.00    -0.241 NA 
HETATM   12  H   UNL     1     -10.240   8.373  72.503  1.00  0.00     0.000 HD 
BRANCH  11  13
HETATM   13  CA  UNL     1     -11.391   9.528  71.209  1.00  0.00    -0.376 C  
BRANCH  13  14
HETATM   14  C   UNL     1     -12.895   9.520  71.566  1.00  0.00    -0.377 C  
HETATM   15  H   UNL     1     -14.024   8.992  73.097  1.00  0.00     0.000 HD 
HETATM   16  O   UNL     1     -13.100   8.997  72.878  1.00  0.00    -0.334 OA 
ENDBRANCH  13  14
BRANCH  13  17
HETATM   17  C   UNL     1     -11.193   9.851  69.714  1.00  0.00    -0.279 C  
HETATM   18  C   UNL     1     -10.542  11.197  69.428  1.00  0.00    -0.174 C  
ENDBRANCH  13  17
ENDBRANCH  11  13
ENDBRANCH  10  11
ENDBRANCH   9  10
ENDBRANCH   7   9
ENDBRANCH   3   7
ENDBRANCH   2   3
TORSDOF 9
ENDMDL
MODEL      335
REMARK 921   NORMALIZED FREE ENERGY PREDICTED BY IDOCK:   -1.89 KCAL/MOL
REMARK 922        TOTAL FREE ENERGY PREDICTED BY IDOCK:   -3.30 KCAL/MOL
REMARK 923 INTER-LIGAND FREE ENERGY PREDICTED BY IDOCK:   -2.92 KCAL/MOL
REMARK 924 INTRA-LIGAND FREE ENERGY PREDICTED BY IDOCK:   -0.37 KCAL/MOL
REMARK 927      BINDING AFFINITY PREDICTED BY RF-SCORE:    0.00 PKD
ROOT
HETATM    1  C   UNL     1      -9.689   3.296  71.574  1.00  0.00    -0.233 C  
HETATM    2  C   UNL     1     -10.309   4.602  72.052  1.00  0.00    -0.234 C  
ENDROOT
BRANCH   2   3
HETATM    3  CA  UNL     1      -9.279   5.664  72.501  1.00  0.00    -0.142 C  
BRANCH   3   4
HETATM    4  C   UNL     1      -8.186   5.091  73.444  1.00  0.00    -0.111 C  
HETATM    5  H   UNL     1      -6.192   4.875  73.516  1.00  0.00     0.000 HD 
HETATM    6  O   UNL     1      -6.861   5.225  72.940  1.00  0.00    -0.075 OA 
ENDBRANCH   3   4
BRANCH   3   7
HETATM    7  N   UNL     1      -8.749   6.263  71.259  1.00  0.00    -0.135 NA 
HETATM    8  H   UNL     1      -8.786   5.592  70.491  1.00  0.00     0.000 HD 
BRANCH   7   9
HETATM    9  C   UNL     1      -9.412   7.520  70.883  1.00  0.00    -0.165 C  
BRANCH   9  10
HETATM   10  C   UNL     1      -9.821   7.492  69.394  1.00  0.00    -0.166 C  
BRANCH  10  11
HETATM   11  N   UNL     1     -11.046   8.277  69.164  1.00  0.00    -0.420 NA 
HETATM   12  H   UNL     1     -11.530   8.463  70.043  1.00  0.00     0.000 HD 
BRANCH  11  13
HETATM   13  CA  UNL     1     -10.791   9.536  68.419  1.00  0.00    -0.137 C  
BRANCH  13  14
HETATM   14  C   UNL     1      -9.529   9.356  67.543  1.00  0.00    -0.127 C  
HETATM   15  H   UNL     1      -9.114   9.031  65.641  1.00  0.00     0.000 HD 
HETATM   16  O   UNL     1      -9.889   9.141  66.179  1.00  0.00    -0.269 OA 
ENDBRANCH  13  14
BRANCH  13  17
HETATM   17  C   UNL     1     -10.656  10.789  69.308  1.00  0.00    -0.261 C  
HETATM   18  C   UNL     1     -11.941  11.229  69.997  1.00  0.00    -0.447 C  
ENDBRANCH  13  17
ENDBRANCH  11  13
ENDBRANCH  10  11
ENDBRANCH   9  10
ENDBRANCH   7   9
ENDBRANCH   3   7
ENDBRANCH   2   3
TORSDOF 9
ENDMDL
MODEL      336
REMARK 921   NORMALIZED FREE ENERGY PREDICTED BY IDOCK:   -1.89 KCAL/MOL
REMARK 922        TOTAL FREE ENERGY PREDICTED BY IDOCK:   -3.29 KCAL/MOL
REMARK 923 INTER-LIGAND FREE ENERGY PREDICTED BY IDOCK:   -2.89 KCAL/MOL
REMARK 924 INTRA-LIGAND FREE ENERGY PREDICTED BY IDOCK:   -0.40 KCAL/MOL
REMARK 927      BINDING AFFINITY PREDICTED BY RF-SCORE:    0.00 PKD
ROOT
HETATM    1  C   UNL     1      -8.577   8.119  72.121  1.00  0.00    -0.226 C  
HETATM    2  C   UNL     1     -10.012   8.518  72.438  1.00  0.00    -0.365 C  
ENDROOT
BRANCH   2   3
HETATM    3  CA  UNL     1     -10.958   8.501  71.215  1.00  0.00    -0.256 C  
BRANCH   3   4
HETATM    4  C   UNL     1     -12.112   9.535  71.326  1.00  0.00    -0.360 C  
HETATM    5  H   UNL     1     -14.056   9.608  71.822  1.00  0.00     0.000 HD 
HETATM    6  O   UNL     1     -13.350   8.975  71.754  1.00  0.00    -0.351 OA 
ENDBRANCH   3   4
BRANCH   3   7
HETATM    7  N   UNL     1     -10.093   8.689  70.033  1.00  0.00    -0.185 NA 
HETATM    8  H   UNL     1      -9.122   8.475  70.258  1.00  0.00     0.000 HD 
BRANCH   7   9
HETATM    9  C   UNL     1     -10.533   7.926  68.856  1.00  0.00    -0.190 C  
BRANCH   9  10
HETATM   10  C   UNL     1      -9.672   8.285  67.626  1.00  0.00    -0.159 C  
BRANCH  10  11
HETATM   11  N   UNL     1      -8.377   7.582  67.660  1.00  0.00    -0.117 NA 
HETATM   12  H   UNL     1      -7.829   7.867  68.472  1.00  0.00     0.000 HD 
BRANCH  11  13
HETATM   13  CA  UNL     1      -8.524   6.106  67.607  1.00  0.00    -0.108 C  
BRANCH  13  14
HETATM   14  C   UNL     1      -7.228   5.452  68.141  1.00  0.00    -0.071 C  
HETATM   15  H   UNL     1      -5.971   5.725  69.638  1.00  0.00     0.000 HD 
HETATM   16  O   UNL     1      -6.767   6.127  69.310  1.00  0.00    -0.055 OA 
ENDBRANCH  13  14
BRANCH  13  17
HETATM   17  C   UNL     1      -8.874   5.548  66.213  1.00  0.00    -0.134 C  
HETATM   18  C   UNL     1     -10.199   4.801  66.134  1.00  0.00    -0.313 C  
ENDBRANCH  13  17
ENDBRANCH  11  13
ENDBRANCH  10  11
ENDBRANCH   9  10
ENDBRANCH   7   9
ENDBRANCH   3   7
ENDBRANCH   2   3
TORSDOF 9
ENDMDL
MODEL      337
REMARK 921   NORMALIZED FREE ENERGY PREDICTED BY IDOCK:   -1.87 KCAL/MOL
REMARK 922        TOTAL FREE ENERGY PREDICTED BY IDOCK:   -3.27 KCAL/MOL
REMARK 923 INTER-LIGAND FREE ENERGY PREDICTED BY IDOCK:   -3.14 KCAL/MOL
REMARK 924 INTRA-LIGAND FREE ENERGY PREDICTED BY IDOCK:   -0.12 KCAL/MOL
REMARK 927      BINDING AFFINITY PREDICTED BY RF-SCORE:    0.00 PKD
ROOT
HETATM    1  C   UNL     1      -6.210  10.810  66.007  1.00  0.00    -0.134 C  
HETATM    2  C   UNL     1      -7.548  11.401  66.431  1.00  0.00    -0.024 C  
ENDROOT
BRANCH   2   3
HETATM    3  CA  UNL     1      -8.777  10.678  65.834  1.00  0.00    -0.177 C  
BRANCH   3   4
HETATM    4  C   UNL     1      -8.415   9.337  65.138  1.00  0.00    -0.159 C  
HETATM    5  H   UNL     1      -8.650   8.424  63.366  1.00  0.00     0.000 HD 
HETATM    6  O   UNL     1      -8.872   9.244  63.792  1.00  0.00    -0.201 OA 
ENDBRANCH   3   4
BRANCH   3   7
HETATM    7  N   UNL     1      -9.741  10.537  66.945  1.00  0.00    -0.175 NA 
HETATM    8  H   UNL     1      -9.853   9.558  67.204  1.00  0.00     0.000 HD 
BRANCH   7   9
HETATM    9  C   UNL     1      -9.404  11.352  68.121  1.00  0.00    -0.181 C  
BRANCH   9  10
HETATM   10  C   UNL     1     -10.225  12.659  68.127  1.00  0.00    -0.240 C  
BRANCH  10  11
HETATM   11  N   UNL     1      -9.478  13.758  67.491  1.00  0.00    -0.214 NA 
HETATM   12  H   UNL     1      -8.516  13.482  67.297  1.00  0.00     0.000 HD 
BRANCH  11  13
HETATM   13  CA  UNL     1     -10.142  14.270  66.265  1.00  0.00    -0.298 C  
BRANCH  13  14
HETATM   14  C   UNL     1     -10.295  15.805  66.378  1.00  0.00    -0.299 C  
HETATM   15  H   UNL     1     -10.053  17.381  65.214  1.00  0.00     0.000 HD 
HETATM   16  O   UNL     1      -9.958  16.438  65.144  1.00  0.00    -0.479 OA 
ENDBRANCH  13  14
BRANCH  13  17
HETATM   17  C   UNL     1     -11.502  13.614  65.953  1.00  0.00    -0.329 C  
HETATM   18  C   UNL     1     -12.599  14.580  65.525  1.00  0.00    -0.233 C  
ENDBRANCH  13  17
ENDBRANCH  11  13
ENDBRANCH  10  11
ENDBRANCH   9  10
ENDBRANCH   7   9
ENDBRANCH   3   7
ENDBRANCH   2   3
TORSDOF 9
ENDMDL
MODEL      338
REMARK 921   NORMALIZED FREE ENERGY PREDICTED BY IDOCK:   -1.85 KCAL/MOL
REMARK 922        TOTAL FREE ENERGY PREDICTED BY IDOCK:   -3.23 KCAL/MOL
REMARK 923 INTER-LIGAND FREE ENERGY PREDICTED BY IDOCK:   -2.86 KCAL/MOL
REMARK 924 INTRA-LIGAND FREE ENERGY PREDICTED BY IDOCK:   -0.38 KCAL/MOL
REMARK 927      BINDING AFFINITY PREDICTED BY RF-SCORE:    0.00 PKD
ROOT
HETATM    1  C   UNL     1      -9.931   4.621  67.013  1.00  0.00    -0.227 C  
HETATM    2  C   UNL     1      -8.502   4.760  66.510  1.00  0.00    -0.110 C  
ENDROOT
BRANCH   2   3
HETATM    3  CA  UNL     1      -8.073   6.217  66.215  1.00  0.00    -0.113 C  
BRANCH   3   4
HETATM    4  C   UNL     1      -8.083   6.559  64.700  1.00  0.00    -0.092 C  
HETATM    5  H   UNL     1      -8.382   5.656  62.932  1.00  0.00     0.000 HD 
HETATM    6  O   UNL     1      -8.376   5.447  63.859  1.00  0.00    -0.131 OA 
ENDBRANCH   3   4
BRANCH   3   7
HETATM    7  N   UNL     1      -8.962   7.071  67.030  1.00  0.00    -0.121 NA 
HETATM    8  H   UNL     1      -8.628   7.125  67.992  1.00  0.00     0.000 HD 
BRANCH   7   9
HETATM    9  C   UNL     1      -9.157   8.416  66.471  1.00  0.00    -0.176 C  
BRANCH   9  10
HETATM   10  C   UNL     1     -10.435   9.062  67.050  1.00  0.00    -0.246 C  
BRANCH  10  11
HETATM   11  N   UNL     1     -10.429   9.026  68.522  1.00  0.00    -0.261 NA 
HETATM   12  H   UNL     1      -9.489   9.184  68.887  1.00  0.00     0.000 HD 
BRANCH  11  13
HETATM   13  CA  UNL     1     -11.400   9.974  69.125  1.00  0.00    -0.094 C  
BRANCH  13  14
HETATM   14  C   UNL     1     -11.333  11.318  68.363  1.00  0.00    -0.281 C  
HETATM   15  H   UNL     1     -10.251  12.968  68.418  1.00  0.00     0.000 HD 
HETATM   16  O   UNL     1     -10.293  12.142  68.886  1.00  0.00    -0.178 OA 
ENDBRANCH  13  14
BRANCH  13  17
HETATM   17  C   UNL     1     -11.215  10.202  70.639  1.00  0.00    -0.418 C  
HETATM   18  C   UNL     1     -10.366   9.156  71.348  1.00  0.00    -0.409 C  
ENDBRANCH  13  17
ENDBRANCH  11  13
ENDBRANCH  10  11
ENDBRANCH   9  10
ENDBRANCH   7   9
ENDBRANCH   3   7
ENDBRANCH   2   3
TORSDOF 9
ENDMDL
MODEL      339
REMARK 921   NORMALIZED FREE ENERGY PREDICTED BY IDOCK:   -1.84 KCAL/MOL
REMARK 922        TOTAL FREE ENERGY PREDICTED BY IDOCK:   -3.22 KCAL/MOL
REMARK 923 INTER-LIGAND FREE ENERGY PREDICTED BY IDOCK:   -2.88 KCAL/MOL
REMARK 924 INTRA-LIGAND FREE ENERGY PREDICTED BY IDOCK:   -0.34 KCAL/MOL
REMARK 927      BINDING AFFINITY PREDICTED BY RF-SCORE:    0.00 PKD
ROOT
HETATM    1  C   UNL     1      -9.825   4.550  67.327  1.00  0.00    -0.216 C  
HETATM    2  C   UNL     1      -8.410   4.925  66.908  1.00  0.00    -0.106 C  
ENDROOT
BRANCH   2   3
HETATM    3  CA  UNL     1      -8.088   6.432  67.041  1.00  0.00    -0.112 C  
BRANCH   3   4
HETATM    4  C   UNL     1      -8.167   7.192  65.689  1.00  0.00    -0.138 C  
HETATM    5  H   UNL     1      -8.276   6.804  63.723  1.00  0.00     0.000 HD 
HETATM    6  O   UNL     1      -8.227   6.339  64.550  1.00  0.00    -0.126 OA 
ENDBRANCH   3   4
BRANCH   3   7
HETATM    7  N   UNL     1      -9.006   6.950  68.077  1.00  0.00    -0.123 NA 
HETATM    8  H   UNL     1      -8.562   6.929  68.995  1.00  0.00     0.000 HD 
BRANCH   7   9
HETATM    9  C   UNL     1      -9.526   8.292  67.782  1.00  0.00    -0.149 C  
BRANCH   9  10
HETATM   10  C   UNL     1     -10.644   8.669  68.778  1.00  0.00    -0.140 C  
BRANCH  10  11
HETATM   11  N   UNL     1     -10.502   7.927  70.042  1.00  0.00    -0.226 NA 
HETATM   12  H   UNL     1      -9.563   7.538  70.134  1.00  0.00     0.000 HD 
BRANCH  11  13
HETATM   13  CA  UNL     1     -10.858   8.743  71.231  1.00  0.00    -0.277 C  
BRANCH  13  14
HETATM   14  C   UNL     1      -9.779   8.543  72.321  1.00  0.00    -0.310 C  
HETATM   15  H   UNL     1      -9.362   7.224  73.730  1.00  0.00     0.000 HD 
HETATM   16  O   UNL     1     -10.025   7.347  73.060  1.00  0.00    -0.201 OA 
ENDBRANCH  13  14
BRANCH  13  17
HETATM   17  C   UNL     1     -12.262   8.459  71.804  1.00  0.00    -0.377 C  
HETATM   18  C   UNL     1     -12.962   7.242  71.215  1.00  0.00    -0.377 C  
ENDBRANCH  13  17
ENDBRANCH  11  13
ENDBRANCH  10  11
ENDBRANCH   9  10
ENDBRANCH   7   9
ENDBRANCH   3   7
ENDBRANCH   2   3
TORSDOF 9
ENDMDL
MODEL      340
REMARK 921   NORMALIZED FREE ENERGY PREDICTED BY IDOCK:   -1.83 KCAL/MOL
REMARK 922        TOTAL FREE ENERGY PREDICTED BY IDOCK:   -3.20 KCAL/MOL
REMARK 923 INTER-LIGAND FREE ENERGY PREDICTED BY IDOCK:   -2.95 KCAL/MOL
REMARK 924 INTRA-LIGAND FREE ENERGY PREDICTED BY IDOCK:   -0.25 KCAL/MOL
REMARK 927      BINDING AFFINITY PREDICTED BY RF-SCORE:    0.00 PKD
ROOT
HETATM    1  C   UNL     1      -6.966   9.364  64.276  1.00  0.00    -0.102 C  
HETATM    2  C   UNL     1      -8.096   8.393  64.588  1.00  0.00    -0.156 C  
ENDROOT
BRANCH   2   3
HETATM    3  CA  UNL     1      -8.997   8.828  65.767  1.00  0.00    -0.206 C  
BRANCH   3   4
HETATM    4  C   UNL     1      -9.003   7.806  66.937  1.00  0.00    -0.134 C  
HETATM    5  H   UNL     1      -9.046   5.821  67.231  1.00  0.00     0.000 HD 
HETATM    6  O   UNL     1      -9.042   6.446  66.515  1.00  0.00    -0.142 OA 
ENDBRANCH   3   4
BRANCH   3   7
HETATM    7  N   UNL     1      -8.535  10.178  66.150  1.00  0.00    -0.127 NA 
HETATM    8  H   UNL     1      -8.015  10.612  65.388  1.00  0.00     0.000 HD 
BRANCH   7   9
HETATM    9  C   UNL     1      -9.618  11.061  66.609  1.00  0.00    -0.189 C  
BRANCH   9  10
HETATM   10  C   UNL     1      -9.064  12.458  66.961  1.00  0.00    -0.207 C  
BRANCH  10  11
HETATM   11  N   UNL     1      -9.208  13.388  65.827  1.00  0.00    -0.402 NA 
HETATM   12  H   UNL     1      -9.700  12.945  65.052  1.00  0.00     0.000 HD 
BRANCH  11  13
HETATM   13  CA  UNL     1      -9.858  14.666  66.210  1.00  0.00    -0.300 C  
BRANCH  13  14
HETATM   14  C   UNL     1     -11.174  14.821  65.412  1.00  0.00    -0.347 C  
HETATM   15  H   UNL     1     -12.247  16.292  64.649  1.00  0.00     0.000 HD 
HETATM   16  O   UNL     1     -11.439  16.197  65.139  1.00  0.00    -0.067 OA 
ENDBRANCH  13  14
BRANCH  13  17
HETATM   17  C   UNL     1      -8.970  15.914  66.033  1.00  0.00    -0.337 C  
HETATM   18  C   UNL     1      -8.009  16.188  67.182  1.00  0.00    -0.232 C  
ENDBRANCH  13  17
ENDBRANCH  11  13
ENDBRANCH  10  11
ENDBRANCH   9  10
ENDBRANCH   7   9
ENDBRANCH   3   7
ENDBRANCH   2   3
TORSDOF 9
ENDMDL
MODEL      341
REMARK 921   NORMALIZED FREE ENERGY PREDICTED BY IDOCK:   -1.78 KCAL/MOL
REMARK 922        TOTAL FREE ENERGY PREDICTED BY IDOCK:   -3.13 KCAL/MOL
REMARK 923 INTER-LIGAND FREE ENERGY PREDICTED BY IDOCK:   -2.78 KCAL/MOL
REMARK 924 INTRA-LIGAND FREE ENERGY PREDICTED BY IDOCK:   -0.35 KCAL/MOL
REMARK 927      BINDING AFFINITY PREDICTED BY RF-SCORE:    0.00 PKD
ROOT
HETATM    1  C   UNL     1      -5.496  11.753  66.875  1.00  0.00    -0.122 C  
HETATM    2  C   UNL     1      -6.821  11.315  67.483  1.00  0.00    -0.086 C  
ENDROOT
BRANCH   2   3
HETATM    3  CA  UNL     1      -7.101   9.798  67.366  1.00  0.00    -0.085 C  
BRANCH   3   4
HETATM    4  C   UNL     1      -5.836   8.973  67.002  1.00  0.00    -0.046 C  
HETATM    5  H   UNL     1      -5.250   7.576  65.685  1.00  0.00     0.000 HD 
HETATM    6  O   UNL     1      -6.024   8.081  65.908  1.00  0.00    -0.037 OA 
ENDBRANCH   3   4
BRANCH   3   7
HETATM    7  N   UNL     1      -7.728   9.404  68.645  1.00  0.00    -0.083 NA 
HETATM    8  H   UNL     1      -8.277  10.173  69.030  1.00  0.00     0.000 HD 
BRANCH   7   9
HETATM    9  C   UNL     1      -8.539   8.183  68.549  1.00  0.00    -0.130 C  
BRANCH   9  10
HETATM   10  C   UNL     1      -9.322   7.949  69.860  1.00  0.00    -0.156 C  
BRANCH  10  11
HETATM   11  N   UNL     1      -9.290   9.146  70.717  1.00  0.00    -0.245 NA 
HETATM   12  H   UNL     1      -8.915   9.948  70.211  1.00  0.00     0.000 HD 
BRANCH  11  13
HETATM   13  CA  UNL     1     -10.614   9.463  71.311  1.00  0.00    -0.330 C  
BRANCH  13  14
HETATM   14  C   UNL     1     -11.184   8.191  71.981  1.00  0.00    -0.310 C  
HETATM   15  H   UNL     1     -10.821   7.108  73.591  1.00  0.00     0.000 HD 
HETATM   16  O   UNL     1     -10.471   7.890  73.180  1.00  0.00    -0.345 OA 
ENDBRANCH  13  14
BRANCH  13  17
HETATM   17  C   UNL     1     -11.636  10.053  70.318  1.00  0.00    -0.354 C  
HETATM   18  C   UNL     1     -13.030  10.278  70.887  1.00  0.00    -0.456 C  
ENDBRANCH  13  17
ENDBRANCH  11  13
ENDBRANCH  10  11
ENDBRANCH   9  10
ENDBRANCH   7   9
ENDBRANCH   3   7
ENDBRANCH   2   3
TORSDOF 9
ENDMDL
MODEL      342
REMARK 921   NORMALIZED FREE ENERGY PREDICTED BY IDOCK:   -1.77 KCAL/MOL
REMARK 922        TOTAL FREE ENERGY PREDICTED BY IDOCK:   -3.12 KCAL/MOL
REMARK 923 INTER-LIGAND FREE ENERGY PREDICTED BY IDOCK:   -2.68 KCAL/MOL
REMARK 924 INTRA-LIGAND FREE ENERGY PREDICTED BY IDOCK:   -0.44 KCAL/MOL
REMARK 927      BINDING AFFINITY PREDICTED BY RF-SCORE:    0.00 PKD
ROOT
HETATM    1  C   UNL     1      -9.755   5.649  66.547  1.00  0.00    -0.181 C  
HETATM    2  C   UNL     1     -10.955   5.968  67.428  1.00  0.00    -0.344 C  
ENDROOT
BRANCH   2   3
HETATM    3  CA  UNL     1     -10.594   6.645  68.771  1.00  0.00    -0.236 C  
BRANCH   3   4
HETATM    4  C   UNL     1      -9.063   6.706  69.027  1.00  0.00    -0.133 C  
HETATM    5  H   UNL     1      -7.736   6.258  70.466  1.00  0.00     0.000 HD 
HETATM    6  O   UNL     1      -8.673   6.221  70.309  1.00  0.00    -0.139 OA 
ENDBRANCH   3   4
BRANCH   3   7
HETATM    7  N   UNL     1     -11.253   7.967  68.747  1.00  0.00    -0.254 NA 
HETATM    8  H   UNL     1     -11.869   8.078  69.552  1.00  0.00     0.000 HD 
BRANCH   7   9
HETATM    9  C   UNL     1     -10.311   9.091  68.655  1.00  0.00    -0.209 C  
BRANCH   9  10
HETATM   10  C   UNL     1     -10.687  10.016  67.477  1.00  0.00    -0.281 C  
BRANCH  10  11
HETATM   11  N   UNL     1      -9.528  10.811  67.035  1.00  0.00    -0.163 NA 
HETATM   12  H   UNL     1      -9.814  11.545  66.386  1.00  0.00     0.000 HD 
BRANCH  11  13
HETATM   13  CA  UNL     1      -8.751  11.375  68.168  1.00  0.00    -0.154 C  
BRANCH  13  14
HETATM   14  C   UNL     1      -8.905  12.913  68.168  1.00  0.00    -0.194 C  
HETATM   15  H   UNL     1      -9.712  14.294  67.012  1.00  0.00     0.000 HD 
HETATM   16  O   UNL     1      -9.617  13.349  67.011  1.00  0.00    -0.228 OA 
ENDBRANCH  13  14
BRANCH  13  17
HETATM   17  C   UNL     1      -7.260  10.982  68.179  1.00  0.00    -0.083 C  
HETATM   18  C   UNL     1      -6.934   9.673  67.471  1.00  0.00    -0.084 C  
ENDBRANCH  13  17
ENDBRANCH  11  13
ENDBRANCH  10  11
ENDBRANCH   9  10
ENDBRANCH   7   9
ENDBRANCH   3   7
ENDBRANCH   2   3
TORSDOF 9
ENDMDL
MODEL      343
REMARK 921   NORMALIZED FREE ENERGY PREDICTED BY IDOCK:   -1.73 KCAL/MOL
REMARK 922        TOTAL FREE ENERGY PREDICTED BY IDOCK:   -3.05 KCAL/MOL
REMARK 923 INTER-LIGAND FREE ENERGY PREDICTED BY IDOCK:   -2.71 KCAL/MOL
REMARK 924 INTRA-LIGAND FREE ENERGY PREDICTED BY IDOCK:   -0.34 KCAL/MOL
REMARK 927      BINDING AFFINITY PREDICTED BY RF-SCORE:    0.00 PKD
ROOT
HETATM    1  C   UNL     1      -6.329  11.326  66.711  1.00  0.00    -0.139 C  
HETATM    2  C   UNL     1      -7.609  10.878  67.403  1.00  0.00    -0.100 C  
ENDROOT
BRANCH   2   3
HETATM    3  CA  UNL     1      -8.042   9.434  67.058  1.00  0.00    -0.105 C  
BRANCH   3   4
HETATM    4  C   UNL     1      -6.992   8.671  66.205  1.00  0.00    -0.077 C  
HETATM    5  H   UNL     1      -6.831   7.787  64.411  1.00  0.00     0.000 HD 
HETATM    6  O   UNL     1      -7.474   8.253  64.932  1.00  0.00    -0.083 OA 
ENDBRANCH   3   4
BRANCH   3   7
HETATM    7  N   UNL     1      -8.353   8.787  68.349  1.00  0.00    -0.125 NA 
HETATM    8  H   UNL     1      -7.693   8.035  68.545  1.00  0.00     0.000 HD 
BRANCH   7   9
HETATM    9  C   UNL     1      -8.418   9.728  69.476  1.00  0.00    -0.170 C  
BRANCH   9  10
HETATM   10  C   UNL     1      -9.413   9.225  70.545  1.00  0.00    -0.264 C  
BRANCH  10  11
HETATM   11  N   UNL     1     -10.806   9.408  70.101  1.00  0.00    -0.237 NA 
HETATM   12  H   UNL     1     -10.874   9.367  69.084  1.00  0.00     0.000 HD 
BRANCH  11  13
HETATM   13  CA  UNL     1     -11.743   8.447  70.737  1.00  0.00    -0.202 C  
BRANCH  13  14
HETATM   14  C   UNL     1     -12.605   9.198  71.778  1.00  0.00    -0.370 C  
HETATM   15  H   UNL     1     -14.521   9.399  72.207  1.00  0.00     0.000 HD 
HETATM   16  O   UNL     1     -13.992   8.938  71.567  1.00  0.00    -0.384 OA 
ENDBRANCH  13  14
BRANCH  13  17
HETATM   17  C   UNL     1     -11.063   7.222  71.382  1.00  0.00    -0.268 C  
HETATM   18  C   UNL     1     -11.528   6.899  72.795  1.00  0.00    -0.183 C  
ENDBRANCH  13  17
ENDBRANCH  11  13
ENDBRANCH  10  11
ENDBRANCH   9  10
ENDBRANCH   7   9
ENDBRANCH   3   7
ENDBRANCH   2   3
TORSDOF 9
ENDMDL
MODEL      344
REMARK 921   NORMALIZED FREE ENERGY PREDICTED BY IDOCK:   -1.73 KCAL/MOL
REMARK 922        TOTAL FREE ENERGY PREDICTED BY IDOCK:   -3.05 KCAL/MOL
REMARK 923 INTER-LIGAND FREE ENERGY PREDICTED BY IDOCK:   -2.83 KCAL/MOL
REMARK 924 INTRA-LIGAND FREE ENERGY PREDICTED BY IDOCK:   -0.22 KCAL/MOL
REMARK 927      BINDING AFFINITY PREDICTED BY RF-SCORE:    0.00 PKD
ROOT
HETATM    1  C   UNL     1      -7.189   7.883  62.706  1.00  0.00    -0.090 C  
HETATM    2  C   UNL     1      -8.383   8.820  62.587  1.00  0.00    -0.198 C  
ENDROOT
BRANCH   2   3
HETATM    3  CA  UNL     1      -8.778   9.514  63.911  1.00  0.00    -0.216 C  
BRANCH   3   4
HETATM    4  C   UNL     1      -9.920  10.551  63.737  1.00  0.00    -0.258 C  
HETATM    5  H   UNL     1     -10.206  12.402  63.014  1.00  0.00     0.000 HD 
HETATM    6  O   UNL     1      -9.507  11.767  63.121  1.00  0.00    -0.330 OA 
ENDBRANCH   3   4
BRANCH   3   7
HETATM    7  N   UNL     1      -9.094   8.425  64.858  1.00  0.00    -0.377 NA 
HETATM    8  H   UNL     1      -8.845   7.518  64.463  1.00  0.00     0.000 HD 
BRANCH   7   9
HETATM    9  C   UNL     1      -8.478   8.600  66.181  1.00  0.00    -0.133 C  
BRANCH   9  10
HETATM   10  C   UNL     1      -9.288   7.846  67.259  1.00  0.00    -0.148 C  
BRANCH  10  11
HETATM   11  N   UNL     1      -8.935   8.312  68.611  1.00  0.00    -0.137 NA 
HETATM   12  H   UNL     1      -8.860   9.329  68.639  1.00  0.00     0.000 HD 
BRANCH  11  13
HETATM   13  CA  UNL     1      -9.872   7.819  69.652  1.00  0.00    -0.182 C  
BRANCH  13  14
HETATM   14  C   UNL     1      -9.935   8.850  70.803  1.00  0.00    -0.226 C  
HETATM   15  H   UNL     1     -11.181   9.333  72.256  1.00  0.00     0.000 HD 
HETATM   16  O   UNL     1     -11.142   8.700  71.549  1.00  0.00    -0.249 OA 
ENDBRANCH  13  14
BRANCH  13  17
HETATM   17  C   UNL     1      -9.537   6.417  70.202  1.00  0.00    -0.173 C  
HETATM   18  C   UNL     1      -8.058   6.168  70.468  1.00  0.00    -0.113 C  
ENDBRANCH  13  17
ENDBRANCH  11  13
ENDBRANCH  10  11
ENDBRANCH   9  10
ENDBRANCH   7   9
ENDBRANCH   3   7
ENDBRANCH   2   3
TORSDOF 9
ENDMDL
MODEL      345
REMARK 921   NORMALIZED FREE ENERGY PREDICTED BY IDOCK:   -1.71 KCAL/MOL
REMARK 922        TOTAL FREE ENERGY PREDICTED BY IDOCK:   -3.02 KCAL/MOL
REMARK 923 INTER-LIGAND FREE ENERGY PREDICTED BY IDOCK:   -2.70 KCAL/MOL
REMARK 924 INTRA-LIGAND FREE ENERGY PREDICTED BY IDOCK:   -0.31 KCAL/MOL
REMARK 927      BINDING AFFINITY PREDICTED BY RF-SCORE:    0.00 PKD
ROOT
HETATM    1  C   UNL     1      -9.988   4.637  65.811  1.00  0.00    -0.246 C  
HETATM    2  C   UNL     1     -10.362   5.542  66.977  1.00  0.00    -0.306 C  
ENDROOT
BRANCH   2   3
HETATM    3  CA  UNL     1      -9.177   6.351  67.556  1.00  0.00    -0.112 C  
BRANCH   3   4
HETATM    4  C   UNL     1      -9.586   7.772  68.030  1.00  0.00    -0.150 C  
HETATM    5  H   UNL     1     -10.288   9.493  67.271  1.00  0.00     0.000 HD 
HETATM    6  O   UNL     1     -10.038   8.623  66.981  1.00  0.00    -0.218 OA 
ENDBRANCH   3   4
BRANCH   3   7
HETATM    7  N   UNL     1      -8.594   5.507  68.619  1.00  0.00    -0.103 NA 
HETATM    8  H   UNL     1      -7.997   6.060  69.233  1.00  0.00     0.000 HD 
BRANCH   7   9
HETATM    9  C   UNL     1      -9.598   4.767  69.398  1.00  0.00    -0.179 C  
BRANCH   9  10
HETATM   10  C   UNL     1      -9.249   4.806  70.902  1.00  0.00    -0.140 C  
BRANCH  10  11
HETATM   11  N   UNL     1     -10.037   5.834  71.604  1.00  0.00    -0.189 NA 
HETATM   12  H   UNL     1     -11.005   5.537  71.720  1.00  0.00     0.000 HD 
BRANCH  11  13
HETATM   13  CA  UNL     1      -9.440   6.227  72.906  1.00  0.00    -0.146 C  
BRANCH  13  14
HETATM   14  C   UNL     1      -9.847   5.191  73.979  1.00  0.00    -0.169 C  
HETATM   15  H   UNL     1     -11.490   4.650  74.929  1.00  0.00     0.000 HD 
HETATM   16  O   UNL     1     -11.240   5.287  74.270  1.00  0.00     0.020 OA 
ENDBRANCH  13  14
BRANCH  13  17
HETATM   17  C   UNL     1      -9.799   7.653  73.369  1.00  0.00    -0.362 C  
HETATM   18  C   UNL     1     -10.363   8.559  72.283  1.00  0.00    -0.402 C  
ENDBRANCH  13  17
ENDBRANCH  11  13
ENDBRANCH  10  11
ENDBRANCH   9  10
ENDBRANCH   7   9
ENDBRANCH   3   7
ENDBRANCH   2   3
TORSDOF 9
ENDMDL
MODEL      346
REMARK 921   NORMALIZED FREE ENERGY PREDICTED BY IDOCK:   -1.69 KCAL/MOL
REMARK 922        TOTAL FREE ENERGY PREDICTED BY IDOCK:   -2.99 KCAL/MOL
REMARK 923 INTER-LIGAND FREE ENERGY PREDICTED BY IDOCK:   -2.62 KCAL/MOL
REMARK 924 INTRA-LIGAND FREE ENERGY PREDICTED BY IDOCK:   -0.37 KCAL/MOL
REMARK 927      BINDING AFFINITY PREDICTED BY RF-SCORE:    0.00 PKD
ROOT
HETATM    1  C   UNL     1      -5.477  11.749  66.857  1.00  0.00    -0.122 C  
HETATM    2  C   UNL     1      -6.845  11.203  67.242  1.00  0.00    -0.095 C  
ENDROOT
BRANCH   2   3
HETATM    3  CA  UNL     1      -7.049   9.709  66.899  1.00  0.00    -0.086 C  
BRANCH   3   4
HETATM    4  C   UNL     1      -5.713   8.945  66.690  1.00  0.00    -0.047 C  
HETATM    5  H   UNL     1      -4.845   7.722  65.356  1.00  0.00     0.000 HD 
HETATM    6  O   UNL     1      -5.663   8.188  65.484  1.00  0.00    -0.039 OA 
ENDBRANCH   3   4
BRANCH   3   7
HETATM    7  N   UNL     1      -7.894   9.159  67.980  1.00  0.00    -0.099 NA 
HETATM    8  H   UNL     1      -8.519   9.875  68.349  1.00  0.00     0.000 HD 
BRANCH   7   9
HETATM    9  C   UNL     1      -8.650   7.963  67.583  1.00  0.00    -0.127 C  
BRANCH   9  10
HETATM   10  C   UNL     1      -9.709   7.614  68.651  1.00  0.00    -0.155 C  
BRANCH  10  11
HETATM   11  N   UNL     1      -9.840   8.696  69.643  1.00  0.00    -0.183 NA 
HETATM   12  H   UNL     1      -9.258   9.495  69.390  1.00  0.00     0.000 HD 
BRANCH  11  13
HETATM   13  CA  UNL     1     -11.249   9.111  69.858  1.00  0.00    -0.102 C  
BRANCH  13  14
HETATM   14  C   UNL     1     -11.472  10.496  69.208  1.00  0.00    -0.256 C  
HETATM   15  H   UNL     1     -11.586  11.247  67.386  1.00  0.00     0.000 HD 
HETATM   16  O   UNL     1     -11.449  10.395  67.785  1.00  0.00    -0.406 OA 
ENDBRANCH  13  14
BRANCH  13  17
HETATM   17  C   UNL     1     -11.691   9.131  71.336  1.00  0.00    -0.413 C  
HETATM   18  C   UNL     1     -13.102   9.650  71.578  1.00  0.00    -0.488 C  
ENDBRANCH  13  17
ENDBRANCH  11  13
ENDBRANCH  10  11
ENDBRANCH   9  10
ENDBRANCH   7   9
ENDBRANCH   3   7
ENDBRANCH   2   3
TORSDOF 9
ENDMDL
MODEL      347
REMARK 921   NORMALIZED FREE ENERGY PREDICTED BY IDOCK:   -1.66 KCAL/MOL
REMARK 922        TOTAL FREE ENERGY PREDICTED BY IDOCK:   -2.94 KCAL/MOL
REMARK 923 INTER-LIGAND FREE ENERGY PREDICTED BY IDOCK:   -2.69 KCAL/MOL
REMARK 924 INTRA-LIGAND FREE ENERGY PREDICTED BY IDOCK:   -0.25 KCAL/MOL
REMARK 927      BINDING AFFINITY PREDICTED BY RF-SCORE:    0.00 PKD
ROOT
HETATM    1  C   UNL     1      -6.835   3.582  71.474  1.00  0.00    -0.031 C  
HETATM    2  C   UNL     1      -7.731   3.086  72.600  1.00  0.00    -0.058 C  
ENDROOT
BRANCH   2   3
HETATM    3  CA  UNL     1      -9.233   3.029  72.235  1.00  0.00    -0.101 C  
BRANCH   3   4
HETATM    4  C   UNL     1     -10.036   2.033  73.116  1.00  0.00    -0.103 C  
HETATM    5  H   UNL     1     -10.712   1.861  74.998  1.00  0.00     0.000 HD 
HETATM    6  O   UNL     1     -10.221   2.470  74.459  1.00  0.00    -0.121 OA 
ENDBRANCH   3   4
BRANCH   3   7
HETATM    7  N   UNL     1      -9.719   4.422  72.307  1.00  0.00    -0.157 NA 
HETATM    8  H   UNL     1      -8.942   5.069  72.445  1.00  0.00     0.000 HD 
BRANCH   7   9
HETATM    9  C   UNL     1     -10.529   4.822  71.147  1.00  0.00    -0.051 C  
BRANCH   9  10
HETATM   10  C   UNL     1     -10.285   6.309  70.805  1.00  0.00    -0.193 C  
BRANCH  10  11
HETATM   11  N   UNL     1     -10.778   7.188  71.879  1.00  0.00    -0.214 NA 
HETATM   12  H   UNL     1     -10.022   7.453  72.510  1.00  0.00     0.000 HD 
BRANCH  11  13
HETATM   13  CA  UNL     1     -11.483   8.389  71.361  1.00  0.00    -0.277 C  
BRANCH  13  14
HETATM   14  C   UNL     1     -10.440   9.379  70.793  1.00  0.00    -0.304 C  
HETATM   15  H   UNL     1      -9.921  10.089  69.026  1.00  0.00     0.000 HD 
HETATM   16  O   UNL     1     -10.562   9.480  69.374  1.00  0.00    -0.207 OA 
ENDBRANCH  13  14
BRANCH  13  17
HETATM   17  C   UNL     1     -12.389   9.092  72.392  1.00  0.00    -0.350 C  
HETATM   18  C   UNL     1     -13.881   9.003  72.102  1.00  0.00    -0.526 C  
ENDBRANCH  13  17
ENDBRANCH  11  13
ENDBRANCH  10  11
ENDBRANCH   9  10
ENDBRANCH   7   9
ENDBRANCH   3   7
ENDBRANCH   2   3
TORSDOF 9
ENDMDL
MODEL      348
REMARK 921   NORMALIZED FREE ENERGY PREDICTED BY IDOCK:   -1.66 KCAL/MOL
REMARK 922        TOTAL FREE ENERGY PREDICTED BY IDOCK:   -2.94 KCAL/MOL
REMARK 923 INTER-LIGAND FREE ENERGY PREDICTED BY IDOCK:   -2.45 KCAL/MOL
REMARK 924 INTRA-LIGAND FREE ENERGY PREDICTED BY IDOCK:   -0.49 KCAL/MOL
REMARK 927      BINDING AFFINITY PREDICTED BY RF-SCORE:    0.00 PKD
ROOT
HETATM    1  C   UNL     1      -7.903  10.009  64.611  1.00  0.00    -0.145 C  
HETATM    2  C   UNL     1      -9.131  10.800  65.040  1.00  0.00    -0.226 C  
ENDROOT
BRANCH   2   3
HETATM    3  CA  UNL     1      -9.092  11.282  66.509  1.00  0.00    -0.184 C  
BRANCH   3   4
HETATM    4  C   UNL     1     -10.243  12.265  66.856  1.00  0.00    -0.213 C  
HETATM    5  H   UNL     1     -10.502  14.162  67.458  1.00  0.00     0.000 HD 
HETATM    6  O   UNL     1      -9.798  13.561  67.246  1.00  0.00    -0.229 OA 
ENDBRANCH   3   4
BRANCH   3   7
HETATM    7  N   UNL     1      -9.078  10.056  67.335  1.00  0.00    -0.135 NA 
HETATM    8  H   UNL     1      -8.607  10.225  68.223  1.00  0.00     0.000 HD 
BRANCH   7   9
HETATM    9  C   UNL     1     -10.413   9.482  67.555  1.00  0.00    -0.275 C  
BRANCH   9  10
HETATM   10  C   UNL     1     -10.473   8.034  67.022  1.00  0.00    -0.340 C  
BRANCH  10  11
HETATM   11  N   UNL     1      -9.328   7.242  67.505  1.00  0.00    -0.128 NA 
HETATM   12  H   UNL     1      -9.598   6.652  68.292  1.00  0.00     0.000 HD 
BRANCH  11  13
HETATM   13  CA  UNL     1      -8.690   6.439  66.431  1.00  0.00    -0.138 C  
BRANCH  13  14
HETATM   14  C   UNL     1      -8.801   4.939  66.790  1.00  0.00    -0.110 C  
HETATM   15  H   UNL     1     -10.207   3.555  66.837  1.00  0.00     0.000 HD 
HETATM   16  O   UNL     1     -10.139   4.476  66.617  1.00  0.00    -0.225 OA 
ENDBRANCH  13  14
BRANCH  13  17
HETATM   17  C   UNL     1      -7.224   6.816  66.135  1.00  0.00    -0.067 C  
HETATM   18  C   UNL     1      -6.218   5.691  66.336  1.00  0.00    -0.034 C  
ENDBRANCH  13  17
ENDBRANCH  11  13
ENDBRANCH  10  11
ENDBRANCH   9  10
ENDBRANCH   7   9
ENDBRANCH   3   7
ENDBRANCH   2   3
TORSDOF 9
ENDMDL
MODEL      349
REMARK 921   NORMALIZED FREE ENERGY PREDICTED BY IDOCK:   -1.57 KCAL/MOL
REMARK 922        TOTAL FREE ENERGY PREDICTED BY IDOCK:   -2.81 KCAL/MOL
REMARK 923 INTER-LIGAND FREE ENERGY PREDICTED BY IDOCK:   -2.47 KCAL/MOL
REMARK 924 INTRA-LIGAND FREE ENERGY PREDICTED BY IDOCK:   -0.34 KCAL/MOL
REMARK 927      BINDING AFFINITY PREDICTED BY RF-SCORE:    0.00 PKD
ROOT
HETATM    1  C   UNL     1      -7.905   9.996  64.606  1.00  0.00    -0.145 C  
HETATM    2  C   UNL     1      -9.111  10.847  64.979  1.00  0.00    -0.209 C  
ENDROOT
BRANCH   2   3
HETATM    3  CA  UNL     1      -9.093  11.367  66.436  1.00  0.00    -0.193 C  
BRANCH   3   4
HETATM    4  C   UNL     1     -10.164  12.458  66.705  1.00  0.00    -0.224 C  
HETATM    5  H   UNL     1     -10.277  14.387  67.250  1.00  0.00     0.000 HD 
HETATM    6  O   UNL     1      -9.622  13.719  67.086  1.00  0.00    -0.229 OA 
ENDBRANCH   3   4
BRANCH   3   7
HETATM    7  N   UNL     1      -9.224  10.170  67.292  1.00  0.00    -0.138 NA 
HETATM    8  H   UNL     1      -8.785  10.325  68.200  1.00  0.00     0.000 HD 
BRANCH   7   9
HETATM    9  C   UNL     1     -10.613   9.717  67.458  1.00  0.00    -0.277 C  
BRANCH   9  10
HETATM   10  C   UNL     1     -10.648   8.248  67.935  1.00  0.00    -0.147 C  
BRANCH  10  11
HETATM   11  N   UNL     1      -9.770   8.047  69.100  1.00  0.00    -0.161 NA 
HETATM   12  H   UNL     1     -10.301   8.096  69.970  1.00  0.00     0.000 HD 
BRANCH  11  13
HETATM   13  CA  UNL     1      -8.991   6.785  69.023  1.00  0.00    -0.131 C  
BRANCH  13  14
HETATM   14  C   UNL     1      -9.356   5.893  70.232  1.00  0.00    -0.158 C  
HETATM   15  H   UNL     1     -10.889   4.799  70.823  1.00  0.00     0.000 HD 
HETATM   16  O   UNL     1     -10.665   5.347  70.080  1.00  0.00    -0.308 OA 
ENDBRANCH  13  14
BRANCH  13  17
HETATM   17  C   UNL     1      -7.464   6.981  68.938  1.00  0.00    -0.095 C  
HETATM   18  C   UNL     1      -6.670   6.345  70.071  1.00  0.00    -0.053 C  
ENDBRANCH  13  17
ENDBRANCH  11  13
ENDBRANCH  10  11
ENDBRANCH   9  10
ENDBRANCH   7   9
ENDBRANCH   3   7
ENDBRANCH   2   3
TORSDOF 9
ENDMDL
MODEL      350
REMARK 921   NORMALIZED FREE ENERGY PREDICTED BY IDOCK:   -1.54 KCAL/MOL
REMARK 922        TOTAL FREE ENERGY PREDICTED BY IDOCK:   -2.75 KCAL/MOL
REMARK 923 INTER-LIGAND FREE ENERGY PREDICTED BY IDOCK:   -2.28 KCAL/MOL
REMARK 924 INTRA-LIGAND FREE ENERGY PREDICTED BY IDOCK:   -0.47 KCAL/MOL
REMARK 927      BINDING AFFINITY PREDICTED BY RF-SCORE:    0.00 PKD
ROOT
HETATM    1  C   UNL     1      -7.389   7.153  67.448  1.00  0.00    -0.092 C  
HETATM    2  C   UNL     1      -8.502   8.013  66.867  1.00  0.00    -0.124 C  
ENDROOT
BRANCH   2   3
HETATM    3  CA  UNL     1      -9.386   8.707  67.930  1.00  0.00    -0.142 C  
BRANCH   3   4
HETATM    4  C   UNL     1     -10.764   9.158  67.373  1.00  0.00    -0.177 C  
HETATM    5  H   UNL     1     -11.970  10.762  67.396  1.00  0.00     0.000 HD 
HETATM    6  O   UNL     1     -11.127  10.487  67.736  1.00  0.00    -0.290 OA 
ENDBRANCH   3   4
BRANCH   3   7
HETATM    7  N   UNL     1      -9.474   7.760  69.061  1.00  0.00    -0.150 NA 
HETATM    8  H   UNL     1      -9.166   8.203  69.927  1.00  0.00     0.000 HD 
BRANCH   7   9
HETATM    9  C   UNL     1     -10.809   7.168  69.228  1.00  0.00    -0.183 C  
BRANCH   9  10
HETATM   10  C   UNL     1     -10.837   6.234  70.457  1.00  0.00    -0.288 C  
BRANCH  10  11
HETATM   11  N   UNL     1      -9.569   6.302  71.204  1.00  0.00    -0.174 NA 
HETATM   12  H   UNL     1      -9.723   6.633  72.157  1.00  0.00     0.000 HD 
BRANCH  11  13
HETATM   13  CA  UNL     1      -8.830   5.014  71.201  1.00  0.00    -0.129 C  
BRANCH  13  14
HETATM   14  C   UNL     1      -7.375   5.268  70.743  1.00  0.00    -0.073 C  
HETATM   15  H   UNL     1      -5.663   4.285  70.722  1.00  0.00     0.000 HD 
HETATM   16  O   UNL     1      -6.557   4.129  71.004  1.00  0.00    -0.025 OA 
ENDBRANCH  13  14
BRANCH  13  17
HETATM   17  C   UNL     1      -9.479   3.906  70.346  1.00  0.00    -0.252 C  
HETATM   18  C   UNL     1      -9.744   2.599  71.081  1.00  0.00    -0.181 C  
ENDBRANCH  13  17
ENDBRANCH  11  13
ENDBRANCH  10  11
ENDBRANCH   9  10
ENDBRANCH   7   9
ENDBRANCH   3   7
ENDBRANCH   2   3
TORSDOF 9
ENDMDL
MODEL      351
REMARK 921   NORMALIZED FREE ENERGY PREDICTED BY IDOCK:   -1.47 KCAL/MOL
REMARK 922        TOTAL FREE ENERGY PREDICTED BY IDOCK:   -2.64 KCAL/MOL
REMARK 923 INTER-LIGAND FREE ENERGY PREDICTED BY IDOCK:   -2.22 KCAL/MOL
REMARK 924 INTRA-LIGAND FREE ENERGY PREDICTED BY IDOCK:   -0.43 KCAL/MOL
REMARK 927      BINDING AFFINITY PREDICTED BY RF-SCORE:    0.00 PKD
ROOT
HETATM    1  C   UNL     1      -5.766  10.077  71.056  1.00  0.00    -0.083 C  
HETATM    2  C   UNL     1      -6.322   8.961  70.183  1.00  0.00    -0.042 C  
ENDROOT
BRANCH   2   3
HETATM    3  CA  UNL     1      -7.186   7.930  70.947  1.00  0.00    -0.053 C  
BRANCH   3   4
HETATM    4  C   UNL     1      -8.279   8.589  71.831  1.00  0.00    -0.142 C  
HETATM    5  H   UNL     1     -10.016   9.576  71.633  1.00  0.00     0.000 HD 
HETATM    6  O   UNL     1      -9.347   9.172  71.091  1.00  0.00    -0.253 OA 
ENDBRANCH   3   4
BRANCH   3   7
HETATM    7  N   UNL     1      -7.717   7.009  69.920  1.00  0.00    -0.106 NA 
HETATM    8  H   UNL     1      -8.735   6.968  69.965  1.00  0.00     0.000 HD 
BRANCH   7   9
HETATM    9  C   UNL     1      -7.269   7.329  68.557  1.00  0.00    -0.094 C  
BRANCH   9  10
HETATM   10  C   UNL     1      -8.473   7.712  67.669  1.00  0.00    -0.117 C  
BRANCH  10  11
HETATM   11  N   UNL     1      -8.273   9.031  67.042  1.00  0.00    -0.109 NA 
HETATM   12  H   UNL     1      -7.558   8.985  66.315  1.00  0.00     0.000 HD 
BRANCH  11  13
HETATM   13  CA  UNL     1      -9.532   9.614  66.515  1.00  0.00    -0.181 C  
BRANCH  13  14
HETATM   14  C   UNL     1      -9.273  11.082  66.102  1.00  0.00    -0.190 C  
HETATM   15  H   UNL     1      -7.855  12.433  66.347  1.00  0.00     0.000 HD 
HETATM   16  O   UNL     1      -8.015  11.531  66.601  1.00  0.00    -0.158 OA 
ENDBRANCH  13  14
BRANCH  13  17
HETATM   17  C   UNL     1     -10.730   9.530  67.482  1.00  0.00    -0.311 C  
HETATM   18  C   UNL     1     -11.238  10.870  67.996  1.00  0.00    -0.378 C  
ENDBRANCH  13  17
ENDBRANCH  11  13
ENDBRANCH  10  11
ENDBRANCH   9  10
ENDBRANCH   7   9
ENDBRANCH   3   7
ENDBRANCH   2   3
TORSDOF 9
ENDMDL
MODEL      352
REMARK 921   NORMALIZED FREE ENERGY PREDICTED BY IDOCK:   -1.46 KCAL/MOL
REMARK 922        TOTAL FREE ENERGY PREDICTED BY IDOCK:   -2.64 KCAL/MOL
REMARK 923 INTER-LIGAND FREE ENERGY PREDICTED BY IDOCK:   -2.33 KCAL/MOL
REMARK 924 INTRA-LIGAND FREE ENERGY PREDICTED BY IDOCK:   -0.31 KCAL/MOL
REMARK 927      BINDING AFFINITY PREDICTED BY RF-SCORE:    0.00 PKD
ROOT
HETATM    1  C   UNL     1      -6.974   4.213  72.287  1.00  0.00    -0.050 C  
HETATM    2  C   UNL     1      -8.376   3.935  72.811  1.00  0.00    -0.095 C  
ENDROOT
BRANCH   2   3
HETATM    3  CA  UNL     1      -9.438   4.961  72.353  1.00  0.00    -0.140 C  
BRANCH   3   4
HETATM    4  C   UNL     1     -10.123   5.697  73.536  1.00  0.00    -0.193 C  
HETATM    5  H   UNL     1     -11.601   7.015  73.866  1.00  0.00     0.000 HD 
HETATM    6  O   UNL     1     -11.182   6.565  73.142  1.00  0.00    -0.205 OA 
ENDBRANCH   3   4
BRANCH   3   7
HETATM    7  N   UNL     1      -8.748   5.859  71.404  1.00  0.00    -0.132 NA 
HETATM    8  H   UNL     1      -7.794   5.541  71.235  1.00  0.00     0.000 HD 
BRANCH   7   9
HETATM    9  C   UNL     1      -9.469   6.039  70.136  1.00  0.00    -0.158 C  
BRANCH   9  10
HETATM   10  C   UNL     1      -8.813   7.157  69.296  1.00  0.00    -0.136 C  
BRANCH  10  11
HETATM   11  N   UNL     1      -9.166   8.489  69.817  1.00  0.00    -0.155 NA 
HETATM   12  H   UNL     1      -8.597   8.726  70.630  1.00  0.00     0.000 HD 
BRANCH  11  13
HETATM   13  CA  UNL     1      -9.085   9.552  68.783  1.00  0.00    -0.133 C  
BRANCH  13  14
HETATM   14  C   UNL     1     -10.370  10.411  68.841  1.00  0.00    -0.209 C  
HETATM   15  H   UNL     1     -11.520  11.215  70.229  1.00  0.00     0.000 HD 
HETATM   16  O   UNL     1     -10.731  10.687  70.194  1.00  0.00    -0.238 OA 
ENDBRANCH  13  14
BRANCH  13  17
HETATM   17  C   UNL     1      -8.848   9.032  67.351  1.00  0.00    -0.125 C  
HETATM   18  C   UNL     1     -10.010   9.244  66.389  1.00  0.00    -0.356 C  
ENDBRANCH  13  17
ENDBRANCH  11  13
ENDBRANCH  10  11
ENDBRANCH   9  10
ENDBRANCH   7   9
ENDBRANCH   3   7
ENDBRANCH   2   3
TORSDOF 9
ENDMDL
MODEL      353
REMARK 921   NORMALIZED FREE ENERGY PREDICTED BY IDOCK:   -1.46 KCAL/MOL
REMARK 922        TOTAL FREE ENERGY PREDICTED BY IDOCK:   -2.64 KCAL/MOL
REMARK 923 INTER-LIGAND FREE ENERGY PREDICTED BY IDOCK:   -2.39 KCAL/MOL
REMARK 924 INTRA-LIGAND FREE ENERGY PREDICTED BY IDOCK:   -0.25 KCAL/MOL
REMARK 927      BINDING AFFINITY PREDICTED BY RF-SCORE:    0.00 PKD
ROOT
HETATM    1  C   UNL     1      -6.433   3.055  71.807  1.00  0.00    -0.015 C  
HETATM    2  C   UNL     1      -7.462   2.578  72.824  1.00  0.00    -0.044 C  
ENDROOT
BRANCH   2   3
HETATM    3  CA  UNL     1      -8.892   2.430  72.255  1.00  0.00    -0.070 C  
BRANCH   3   4
HETATM    4  C   UNL     1      -9.819   1.571  73.158  1.00  0.00    -0.081 C  
HETATM    5  H   UNL     1     -11.752   1.051  73.307  1.00  0.00     0.000 HD 
HETATM    6  O   UNL     1     -11.185   1.577  72.754  1.00  0.00    -0.153 OA 
ENDBRANCH   3   4
BRANCH   3   7
HETATM    7  N   UNL     1      -9.381   3.805  72.027  1.00  0.00    -0.121 NA 
HETATM    8  H   UNL     1     -10.171   3.806  71.382  1.00  0.00     0.000 HD 
BRANCH   7   9
HETATM    9  C   UNL     1      -9.720   4.520  73.265  1.00  0.00    -0.129 C  
BRANCH   9  10
HETATM   10  C   UNL     1     -10.196   5.955  72.948  1.00  0.00    -0.191 C  
BRANCH  10  11
HETATM   11  N   UNL     1      -9.725   6.390  71.622  1.00  0.00    -0.161 NA 
HETATM   12  H   UNL     1      -9.053   5.725  71.237  1.00  0.00     0.000 HD 
BRANCH  11  13
HETATM   13  CA  UNL     1     -10.837   6.635  70.668  1.00  0.00    -0.253 C  
BRANCH  13  14
HETATM   14  C   UNL     1     -10.632   5.749  69.417  1.00  0.00    -0.313 C  
HETATM   15  H   UNL     1     -11.015   5.853  67.484  1.00  0.00     0.000 HD 
HETATM   16  O   UNL     1     -11.141   6.397  68.252  1.00  0.00    -0.308 OA 
ENDBRANCH  13  14
BRANCH  13  17
HETATM   17  C   UNL     1     -11.015   8.112  70.261  1.00  0.00    -0.240 C  
HETATM   18  C   UNL     1      -9.937   9.056  70.777  1.00  0.00    -0.307 C  
ENDBRANCH  13  17
ENDBRANCH  11  13
ENDBRANCH  10  11
ENDBRANCH   9  10
ENDBRANCH   7   9
ENDBRANCH   3   7
ENDBRANCH   2   3
TORSDOF 9
ENDMDL
MODEL      354
REMARK 921   NORMALIZED FREE ENERGY PREDICTED BY IDOCK:   -1.35 KCAL/MOL
REMARK 922        TOTAL FREE ENERGY PREDICTED BY IDOCK:   -2.47 KCAL/MOL
REMARK 923 INTER-LIGAND FREE ENERGY PREDICTED BY IDOCK:   -2.18 KCAL/MOL
REMARK 924 INTRA-LIGAND FREE ENERGY PREDICTED BY IDOCK:   -0.29 KCAL/MOL
REMARK 927      BINDING AFFINITY PREDICTED BY RF-SCORE:    0.00 PKD
ROOT
HETATM    1  C   UNL     1      -7.488  12.922  67.428  1.00  0.00    -0.135 C  
HETATM    2  C   UNL     1      -8.833  12.269  67.142  1.00  0.00    -0.194 C  
ENDROOT
BRANCH   2   3
HETATM    3  CA  UNL     1      -8.964  10.826  67.683  1.00  0.00    -0.140 C  
BRANCH   3   4
HETATM    4  C   UNL     1     -10.263  10.117  67.213  1.00  0.00    -0.222 C  
HETATM    5  H   UNL     1     -11.803   9.083  67.981  1.00  0.00     0.000 HD 
HETATM    6  O   UNL     1     -11.008   9.517  68.269  1.00  0.00    -0.182 OA 
ENDBRANCH   3   4
BRANCH   3   7
HETATM    7  N   UNL     1      -7.722  10.132  67.284  1.00  0.00    -0.095 NA 
HETATM    8  H   UNL     1      -6.970  10.329  67.945  1.00  0.00     0.000 HD 
BRANCH   7   9
HETATM    9  C   UNL     1      -7.891   8.682  67.107  1.00  0.00    -0.097 C  
BRANCH   9  10
HETATM   10  C   UNL     1      -7.589   8.277  65.648  1.00  0.00    -0.083 C  
BRANCH  10  11
HETATM   11  N   UNL     1      -8.649   7.409  65.108  1.00  0.00    -0.347 NA 
HETATM   12  H   UNL     1      -8.685   7.466  64.090  1.00  0.00     0.000 HD 
BRANCH  11  13
HETATM   13  CA  UNL     1      -8.523   5.999  65.557  1.00  0.00    -0.151 C  
BRANCH  13  14
HETATM   14  C   UNL     1      -8.246   5.101  64.329  1.00  0.00    -0.131 C  
HETATM   15  H   UNL     1      -7.543   5.319  62.497  1.00  0.00     0.000 HD 
HETATM   16  O   UNL     1      -7.714   5.871  63.252  1.00  0.00    -0.080 OA 
ENDBRANCH  13  14
BRANCH  13  17
HETATM   17  C   UNL     1      -9.736   5.469  66.350  1.00  0.00    -0.182 C  
HETATM   18  C   UNL     1      -9.606   5.567  67.864  1.00  0.00    -0.143 C  
ENDBRANCH  13  17
ENDBRANCH  11  13
ENDBRANCH  10  11
ENDBRANCH   9  10
ENDBRANCH   7   9
ENDBRANCH   3   7
ENDBRANCH   2   3
TORSDOF 9
ENDMDL
MODEL      355
REMARK 921   NORMALIZED FREE ENERGY PREDICTED BY IDOCK:   -1.35 KCAL/MOL
REMARK 922        TOTAL FREE ENERGY PREDICTED BY IDOCK:   -2.47 KCAL/MOL
REMARK 923 INTER-LIGAND FREE ENERGY PREDICTED BY IDOCK:   -2.05 KCAL/MOL
REMARK 924 INTRA-LIGAND FREE ENERGY PREDICTED BY IDOCK:   -0.42 KCAL/MOL
REMARK 927      BINDING AFFINITY PREDICTED BY RF-SCORE:    0.00 PKD
ROOT
HETATM    1  C   UNL     1      -5.979   6.338  63.468  1.00  0.00    -0.022 C  
HETATM    2  C   UNL     1      -7.053   7.417  63.465  1.00  0.00    -0.066 C  
ENDROOT
BRANCH   2   3
HETATM    3  CA  UNL     1      -7.270   8.097  64.837  1.00  0.00    -0.081 C  
BRANCH   3   4
HETATM    4  C   UNL     1      -8.309   9.250  64.785  1.00  0.00    -0.162 C  
HETATM    5  H   UNL     1      -8.573  11.031  63.898  1.00  0.00     0.000 HD 
HETATM    6  O   UNL     1      -7.937  10.326  63.929  1.00  0.00    -0.155 OA 
ENDBRANCH   3   4
BRANCH   3   7
HETATM    7  N   UNL     1      -7.622   7.011  65.774  1.00  0.00    -0.090 NA 
HETATM    8  H   UNL     1      -7.408   6.100  65.368  1.00  0.00     0.000 HD 
BRANCH   7   9
HETATM    9  C   UNL     1      -6.995   7.150  67.096  1.00  0.00    -0.078 C  
BRANCH   9  10
HETATM   10  C   UNL     1      -7.586   6.123  68.086  1.00  0.00    -0.098 C  
BRANCH  10  11
HETATM   11  N   UNL     1      -8.105   6.787  69.294  1.00  0.00    -0.119 NA 
HETATM   12  H   UNL     1      -7.709   7.721  69.396  1.00  0.00     0.000 HD 
BRANCH  11  13
HETATM   13  CA  UNL     1      -9.589   6.830  69.333  1.00  0.00    -0.146 C  
BRANCH  13  14
HETATM   14  C   UNL     1     -10.062   8.253  68.954  1.00  0.00    -0.199 C  
HETATM   15  H   UNL     1     -10.758   9.175  67.354  1.00  0.00     0.000 HD 
HETATM   16  O   UNL     1     -10.468   8.301  67.587  1.00  0.00    -0.239 OA 
ENDBRANCH  13  14
BRANCH  13  17
HETATM   17  C   UNL     1     -10.205   6.398  70.680  1.00  0.00    -0.229 C  
HETATM   18  C   UNL     1     -11.537   7.055  71.017  1.00  0.00    -0.361 C  
ENDBRANCH  13  17
ENDBRANCH  11  13
ENDBRANCH  10  11
ENDBRANCH   9  10
ENDBRANCH   7   9
ENDBRANCH   3   7
ENDBRANCH   2   3
TORSDOF 9
ENDMDL
MODEL      356
REMARK 921   NORMALIZED FREE ENERGY PREDICTED BY IDOCK:   -1.31 KCAL/MOL
REMARK 922        TOTAL FREE ENERGY PREDICTED BY IDOCK:   -2.41 KCAL/MOL
REMARK 923 INTER-LIGAND FREE ENERGY PREDICTED BY IDOCK:   -2.22 KCAL/MOL
REMARK 924 INTRA-LIGAND FREE ENERGY PREDICTED BY IDOCK:   -0.19 KCAL/MOL
REMARK 927      BINDING AFFINITY PREDICTED BY RF-SCORE:    0.00 PKD
ROOT
HETATM    1  C   UNL     1      -9.647   2.729  71.917  1.00  0.00    -0.212 C  
HETATM    2  C   UNL     1      -9.968   4.212  71.798  1.00  0.00    -0.246 C  
ENDROOT
BRANCH   2   3
HETATM    3  CA  UNL     1      -8.728   5.135  71.856  1.00  0.00    -0.130 C  
BRANCH   3   4
HETATM    4  C   UNL     1      -8.058   5.164  73.257  1.00  0.00    -0.111 C  
HETATM    5  H   UNL     1      -8.559   5.406  75.186  1.00  0.00     0.000 HD 
HETATM    6  O   UNL     1      -8.969   5.388  74.329  1.00  0.00    -0.118 OA 
ENDBRANCH   3   4
BRANCH   3   7
HETATM    7  N   UNL     1      -7.835   4.679  70.771  1.00  0.00    -0.071 NA 
HETATM    8  H   UNL     1      -7.585   3.698  70.897  1.00  0.00     0.000 HD 
BRANCH   7   9
HETATM    9  C   UNL     1      -8.382   4.908  69.426  1.00  0.00    -0.084 C  
BRANCH   9  10
HETATM   10  C   UNL     1      -7.605   6.035  68.711  1.00  0.00    -0.091 C  
BRANCH  10  11
HETATM   11  N   UNL     1      -8.508   7.123  68.299  1.00  0.00    -0.124 NA 
HETATM   12  H   UNL     1      -8.197   8.019  68.676  1.00  0.00     0.000 HD 
BRANCH  11  13
HETATM   13  CA  UNL     1      -8.685   7.198  66.827  1.00  0.00    -0.127 C  
BRANCH  13  14
HETATM   14  C   UNL     1      -9.729   8.290  66.499  1.00  0.00    -0.253 C  
HETATM   15  H   UNL     1      -9.747  10.087  65.681  1.00  0.00     0.000 HD 
HETATM   16  O   UNL     1      -9.105   9.416  65.883  1.00  0.00    -0.166 OA 
ENDBRANCH  13  14
BRANCH  13  17
HETATM   17  C   UNL     1      -9.074   5.862  66.161  1.00  0.00    -0.160 C  
HETATM   18  C   UNL     1     -10.525   5.443  66.362  1.00  0.00    -0.324 C  
ENDBRANCH  13  17
ENDBRANCH  11  13
ENDBRANCH  10  11
ENDBRANCH   9  10
ENDBRANCH   7   9
ENDBRANCH   3   7
ENDBRANCH   2   3
TORSDOF 9
ENDMDL
MODEL      357
REMARK 921   NORMALIZED FREE ENERGY PREDICTED BY IDOCK:   -1.28 KCAL/MOL
REMARK 922        TOTAL FREE ENERGY PREDICTED BY IDOCK:   -2.37 KCAL/MOL
REMARK 923 INTER-LIGAND FREE ENERGY PREDICTED BY IDOCK:   -1.96 KCAL/MOL
REMARK 924 INTRA-LIGAND FREE ENERGY PREDICTED BY IDOCK:   -0.40 KCAL/MOL
REMARK 927      BINDING AFFINITY PREDICTED BY RF-SCORE:    0.00 PKD
ROOT
HETATM    1  C   UNL     1      -5.706   7.960  62.866  1.00  0.00    -0.063 C  
HETATM    2  C   UNL     1      -6.726   9.050  62.568  1.00  0.00    -0.093 C  
ENDROOT
BRANCH   2   3
HETATM    3  CA  UNL     1      -7.202   9.831  63.816  1.00  0.00    -0.120 C  
BRANCH   3   4
HETATM    4  C   UNL     1      -8.616  10.449  63.644  1.00  0.00    -0.186 C  
HETATM    5  H   UNL     1      -9.691  11.445  62.272  1.00  0.00     0.000 HD 
HETATM    6  O   UNL     1      -8.826  11.067  62.377  1.00  0.00    -0.289 OA 
ENDBRANCH   3   4
BRANCH   3   7
HETATM    7  N   UNL     1      -7.091   8.888  64.948  1.00  0.00    -0.083 NA 
HETATM    8  H   UNL     1      -6.120   8.614  65.097  1.00  0.00     0.000 HD 
BRANCH   7   9
HETATM    9  C   UNL     1      -7.684   9.394  66.194  1.00  0.00    -0.100 C  
BRANCH   9  10
HETATM   10  C   UNL     1      -7.982   8.229  67.163  1.00  0.00    -0.105 C  
BRANCH  10  11
HETATM   11  N   UNL     1      -9.414   7.883  67.153  1.00  0.00    -0.150 NA 
HETATM   12  H   UNL     1      -9.963   8.613  66.700  1.00  0.00     0.000 HD 
BRANCH  11  13
HETATM   13  CA  UNL     1      -9.681   6.557  66.539  1.00  0.00    -0.126 C  
BRANCH  13  14
HETATM   14  C   UNL     1     -10.625   5.755  67.464  1.00  0.00    -0.253 C  
HETATM   15  H   UNL     1     -10.726   5.273  69.375  1.00  0.00     0.000 HD 
HETATM   16  O   UNL     1     -10.146   5.766  68.807  1.00  0.00    -0.150 OA 
ENDBRANCH  13  14
BRANCH  13  17
HETATM   17  C   UNL     1      -8.416   5.736  66.217  1.00  0.00    -0.126 C  
HETATM   18  C   UNL     1      -8.678   4.339  65.672  1.00  0.00    -0.120 C  
ENDBRANCH  13  17
ENDBRANCH  11  13
ENDBRANCH  10  11
ENDBRANCH   9  10
ENDBRANCH   7   9
ENDBRANCH   3   7
ENDBRANCH   2   3
TORSDOF 9
ENDMDL
MODEL      358
REMARK 921   NORMALIZED FREE ENERGY PREDICTED BY IDOCK:   -1.07 KCAL/MOL
REMARK 922        TOTAL FREE ENERGY PREDICTED BY IDOCK:   -2.04 KCAL/MOL
REMARK 923 INTER-LIGAND FREE ENERGY PREDICTED BY IDOCK:   -1.67 KCAL/MOL
REMARK 924 INTRA-LIGAND FREE ENERGY PREDICTED BY IDOCK:   -0.37 KCAL/MOL
REMARK 927      BINDING AFFINITY PREDICTED BY RF-SCORE:    0.00 PKD
ROOT
HETATM    1  C   UNL     1      -5.951  11.438  66.613  1.00  0.00    -0.147 C  
HETATM    2  C   UNL     1      -7.139  10.486  66.632  1.00  0.00    -0.118 C  
ENDROOT
BRANCH   2   3
HETATM    3  CA  UNL     1      -7.168   9.485  65.454  1.00  0.00    -0.095 C  
BRANCH   3   4
HETATM    4  C   UNL     1      -5.779   9.292  64.787  1.00  0.00    -0.063 C  
HETATM    5  H   UNL     1      -4.931   9.387  62.970  1.00  0.00     0.000 HD 
HETATM    6  O   UNL     1      -5.781   9.505  63.378  1.00  0.00    -0.085 OA 
ENDBRANCH   3   4
BRANCH   3   7
HETATM    7  N   UNL     1      -7.753   8.241  65.996  1.00  0.00    -0.091 NA 
HETATM    8  H   UNL     1      -8.321   7.772  65.291  1.00  0.00     0.000 HD 
BRANCH   7   9
HETATM    9  C   UNL     1      -6.755   7.320  66.558  1.00  0.00    -0.060 C  
BRANCH   9  10
HETATM   10  C   UNL     1      -7.138   6.923  68.001  1.00  0.00    -0.086 C  
BRANCH  10  11
HETATM   11  N   UNL     1      -8.591   7.044  68.217  1.00  0.00    -0.129 NA 
HETATM   12  H   UNL     1      -8.984   6.166  68.557  1.00  0.00     0.000 HD 
BRANCH  11  13
HETATM   13  CA  UNL     1      -8.946   8.171  69.117  1.00  0.00    -0.144 C  
BRANCH  13  14
HETATM   14  C   UNL     1      -8.761   7.721  70.585  1.00  0.00    -0.139 C  
HETATM   15  H   UNL     1      -7.894   8.410  72.219  1.00  0.00     0.000 HD 
HETATM   16  O   UNL     1      -8.008   8.686  71.317  1.00  0.00    -0.112 OA 
ENDBRANCH  13  14
BRANCH  13  17
HETATM   17  C   UNL     1     -10.364   8.738  68.901  1.00  0.00    -0.229 C  
HETATM   18  C   UNL     1     -11.184   8.921  70.171  1.00  0.00    -0.175 C  
ENDBRANCH  13  17
ENDBRANCH  11  13
ENDBRANCH  10  11
ENDBRANCH   9  10
ENDBRANCH   7   9
ENDBRANCH   3   7
ENDBRANCH   2   3
TORSDOF 9
ENDMDL
MODEL      359
REMARK 921   NORMALIZED FREE ENERGY PREDICTED BY IDOCK:   -1.05 KCAL/MOL
REMARK 922        TOTAL FREE ENERGY PREDICTED BY IDOCK:   -2.01 KCAL/MOL
REMARK 923 INTER-LIGAND FREE ENERGY PREDICTED BY IDOCK:   -1.64 KCAL/MOL
REMARK 924 INTRA-LIGAND FREE ENERGY PREDICTED BY IDOCK:   -0.36 KCAL/MOL
REMARK 927      BINDING AFFINITY PREDICTED BY RF-SCORE:    0.00 PKD
ROOT
HETATM    1  C   UNL     1      -6.076   6.518  63.518  1.00  0.00    -0.030 C  
HETATM    2  C   UNL     1      -6.961   7.610  62.933  1.00  0.00    -0.073 C  
ENDROOT
BRANCH   2   3
HETATM    3  CA  UNL     1      -7.366   8.707  63.946  1.00  0.00    -0.100 C  
BRANCH   3   4
HETATM    4  C   UNL     1      -8.694   9.420  63.571  1.00  0.00    -0.204 C  
HETATM    5  H   UNL     1      -9.455  10.558  62.103  1.00  0.00     0.000 HD 
HETATM    6  O   UNL     1      -8.643  10.122  62.332  1.00  0.00    -0.156 OA 
ENDBRANCH   3   4
BRANCH   3   7
HETATM    7  N   UNL     1      -7.389   8.047  65.267  1.00  0.00    -0.068 NA 
HETATM    8  H   UNL     1      -6.861   7.175  65.245  1.00  0.00     0.000 HD 
BRANCH   7   9
HETATM    9  C   UNL     1      -6.923   8.910  66.362  1.00  0.00    -0.079 C  
BRANCH   9  10
HETATM   10  C   UNL     1      -7.450   8.394  67.719  1.00  0.00    -0.098 C  
BRANCH  10  11
HETATM   11  N   UNL     1      -8.195   9.444  68.434  1.00  0.00    -0.116 NA 
HETATM   12  H   UNL     1      -8.026  10.360  68.017  1.00  0.00     0.000 HD 
BRANCH  11  13
HETATM   13  CA  UNL     1      -9.650   9.160  68.520  1.00  0.00    -0.148 C  
BRANCH  13  14
HETATM   14  C   UNL     1     -10.110   9.328  69.987  1.00  0.00    -0.212 C  
HETATM   15  H   UNL     1      -9.292   9.284  71.782  1.00  0.00     0.000 HD 
HETATM   16  O   UNL     1      -9.009   9.180  70.881  1.00  0.00    -0.219 OA 
ENDBRANCH  13  14
BRANCH  13  17
HETATM   17  C   UNL     1     -10.063   7.775  67.981  1.00  0.00    -0.227 C  
HETATM   18  C   UNL     1     -11.260   7.144  68.680  1.00  0.00     0.085 C  
ENDBRANCH  13  17
ENDBRANCH  11  13
ENDBRANCH  10  11
ENDBRANCH   9  10
ENDBRANCH   7   9
ENDBRANCH   3   7
ENDBRANCH   2   3
TORSDOF 9
ENDMDL
MODEL      360
REMARK 921   NORMALIZED FREE ENERGY PREDICTED BY IDOCK:   -0.98 KCAL/MOL
REMARK 922        TOTAL FREE ENERGY PREDICTED BY IDOCK:   -1.90 KCAL/MOL
REMARK 923 INTER-LIGAND FREE ENERGY PREDICTED BY IDOCK:   -1.87 KCAL/MOL
REMARK 924 INTRA-LIGAND FREE ENERGY PREDICTED BY IDOCK:   -0.03 KCAL/MOL
REMARK 927      BINDING AFFINITY PREDICTED BY RF-SCORE:    0.00 PKD
ROOT
HETATM    1  C   UNL     1      -6.461   7.742  62.385  1.00  0.00    -0.080 C  
HETATM    2  C   UNL     1      -7.398   8.942  62.355  1.00  0.00    -0.099 C  
ENDROOT
BRANCH   2   3
HETATM    3  CA  UNL     1      -7.931   9.364  63.744  1.00  0.00    -0.142 C  
BRANCH   3   4
HETATM    4  C   UNL     1      -9.078  10.408  63.664  1.00  0.00    -0.253 C  
HETATM    5  H   UNL     1      -9.853  11.729  62.366  1.00  0.00     0.000 HD 
HETATM    6  O   UNL     1      -9.150  11.091  62.416  1.00  0.00    -0.313 OA 
ENDBRANCH   3   4
BRANCH   3   7
HETATM    7  N   UNL     1      -8.305   8.110  64.430  1.00  0.00    -0.342 NA 
HETATM    8  H   UNL     1      -8.147   7.305  63.824  1.00  0.00     0.000 HD 
BRANCH   7   9
HETATM    9  C   UNL     1      -7.633   7.926  65.724  1.00  0.00    -0.083 C  
BRANCH   9  10
HETATM   10  C   UNL     1      -8.222   6.709  66.471  1.00  0.00    -0.114 C  
BRANCH  10  11
HETATM   11  N   UNL     1      -9.563   6.373  65.964  1.00  0.00    -0.386 NA 
HETATM   12  H   UNL     1      -9.733   6.815  65.060  1.00  0.00     0.000 HD 
BRANCH  11  13
HETATM   13  CA  UNL     1      -9.802   4.909  65.894  1.00  0.00    -0.191 C  
BRANCH  13  14
HETATM   14  C   UNL     1     -10.713   4.604  64.682  1.00  0.00     0.259 C  
HETATM   15  H   UNL     1     -10.717   3.373  63.139  1.00  0.00     0.000 HD 
HETATM   16  O   UNL     1     -10.157   3.561  63.884  1.00  0.00    -0.169 OA 
ENDBRANCH  13  14
BRANCH  13  17
HETATM   17  C   UNL     1     -10.393   4.296  67.180  1.00  0.00     0.256 C  
HETATM   18  C   UNL     1      -9.449   4.276  68.375  1.00  0.00    -0.215 C  
ENDBRANCH  13  17
ENDBRANCH  11  13
ENDBRANCH  10  11
ENDBRANCH   9  10
ENDBRANCH   7   9
ENDBRANCH   3   7
ENDBRANCH   2   3
TORSDOF 9
ENDMDL
MODEL      361
REMARK 921   NORMALIZED FREE ENERGY PREDICTED BY IDOCK:   -0.87 KCAL/MOL
REMARK 922        TOTAL FREE ENERGY PREDICTED BY IDOCK:   -1.73 KCAL/MOL
REMARK 923 INTER-LIGAND FREE ENERGY PREDICTED BY IDOCK:   -1.56 KCAL/MOL
REMARK 924 INTRA-LIGAND FREE ENERGY PREDICTED BY IDOCK:   -0.17 KCAL/MOL
REMARK 927      BINDING AFFINITY PREDICTED BY RF-SCORE:    0.00 PKD
ROOT
HETATM    1  C   UNL     1      -6.342   7.661  62.372  1.00  0.00    -0.072 C  
HETATM    2  C   UNL     1      -7.455   8.615  62.782  1.00  0.00    -0.103 C  
ENDROOT
BRANCH   2   3
HETATM    3  CA  UNL     1      -7.766   8.612  64.297  1.00  0.00    -0.128 C  
BRANCH   3   4
HETATM    4  C   UNL     1      -8.995   9.487  64.667  1.00  0.00    -0.221 C  
HETATM    5  H   UNL     1     -10.062  11.015  63.922  1.00  0.00     0.000 HD 
HETATM    6  O   UNL     1      -9.310  10.480  63.696  1.00  0.00    -0.236 OA 
ENDBRANCH   3   4
BRANCH   3   7
HETATM    7  N   UNL     1      -7.903   7.191  64.678  1.00  0.00    -0.119 NA 
HETATM    8  H   UNL     1      -7.935   6.597  63.849  1.00  0.00     0.000 HD 
BRANCH   7   9
HETATM    9  C   UNL     1      -6.862   6.730  65.608  1.00  0.00    -0.055 C  
BRANCH   9  10
HETATM   10  C   UNL     1      -7.055   5.233  65.934  1.00  0.00    -0.068 C  
BRANCH  10  11
HETATM   11  N   UNL     1      -8.400   4.773  65.547  1.00  0.00    -0.117 NA 
HETATM   12  H   UNL     1      -8.443   4.570  64.548  1.00  0.00     0.000 HD 
BRANCH  11  13
HETATM   13  CA  UNL     1      -8.863   3.611  66.347  1.00  0.00    -0.129 C  
BRANCH  13  14
HETATM   14  C   UNL     1      -8.738   3.952  67.850  1.00  0.00    -0.103 C  
HETATM   15  H   UNL     1      -9.793   3.677  69.496  1.00  0.00     0.000 HD 
HETATM   16  O   UNL     1      -9.869   3.467  68.573  1.00  0.00    -0.050 OA 
ENDBRANCH  13  14
BRANCH  13  17
HETATM   17  C   UNL     1      -8.135   2.288  66.032  1.00  0.00    -0.085 C  
HETATM   18  C   UNL     1      -8.260   1.813  64.591  1.00  0.00    -0.078 C  
ENDBRANCH  13  17
ENDBRANCH  11  13
ENDBRANCH  10  11
ENDBRANCH   9  10
ENDBRANCH   7   9
ENDBRANCH   3   7
ENDBRANCH   2   3
TORSDOF 9
ENDMDL
MODEL      362
REMARK 921   NORMALIZED FREE ENERGY PREDICTED BY IDOCK:    0.09 KCAL/MOL
REMARK 922        TOTAL FREE ENERGY PREDICTED BY IDOCK:   -0.28 KCAL/MOL
REMARK 923 INTER-LIGAND FREE ENERGY PREDICTED BY IDOCK:   -1.20 KCAL/MOL
REMARK 924 INTRA-LIGAND FREE ENERGY PREDICTED BY IDOCK:    0.92 KCAL/MOL
REMARK 927      BINDING AFFINITY PREDICTED BY RF-SCORE:    0.00 PKD
ROOT
HETATM    1  C   UNL     1      -7.118  13.338  67.321  1.00  0.00    -0.016 C  
HETATM    2  C   UNL     1      -8.122  12.261  67.705  1.00  0.00    -0.165 C  
ENDROOT
BRANCH   2   3
HETATM    3  CA  UNL     1      -7.525  11.109  68.547  1.00  0.00    -0.112 C  
BRANCH   3   4
HETATM    4  C   UNL     1      -8.231   9.748  68.302  1.00  0.00    -0.105 C  
HETATM    5  H   UNL     1      -9.482   8.485  69.236  1.00  0.00     0.000 HD 
HETATM    6  O   UNL     1      -9.050   9.318  69.386  1.00  0.00    -0.141 OA 
ENDBRANCH   3   4
BRANCH   3   7
HETATM    7  N   UNL     1      -6.079  11.099  68.248  1.00  0.00    -0.046 NA 
HETATM    8  H   UNL     1      -5.539  10.855  69.078  1.00  0.00     0.000 HD 
BRANCH   7   9
HETATM    9  C   UNL     1      -5.719  10.227  67.120  1.00  0.00    -0.045 C  
BRANCH   9  10
HETATM   10  C   UNL     1      -6.237  10.820  65.792  1.00  0.00    -0.101 C  
BRANCH  10  11
HETATM   11  N   UNL     1      -6.920   9.794  64.984  1.00  0.00    -0.112 NA 
HETATM   12  H   UNL     1      -7.530  10.224  64.287  1.00  0.00     0.000 HD 
BRANCH  11  13
HETATM   13  CA  UNL     1      -5.976   8.840  64.348  1.00  0.00    -0.066 C  
BRANCH  13  14
HETATM   14  C   UNL     1      -5.868   9.167  62.841  1.00  0.00    -0.089 C  
HETATM   15  H   UNL     1      -5.963  10.767  61.689  1.00  0.00     0.000 HD 
HETATM   16  O   UNL     1      -6.030  10.567  62.615  1.00  0.00    -0.130 OA 
ENDBRANCH  13  14
BRANCH  13  17
HETATM   17  C   UNL     1      -6.335   7.354  64.553  1.00  0.00    -0.040 C  
HETATM   18  C   UNL     1      -5.840   6.747  65.859  1.00  0.00    -0.030 C  
ENDBRANCH  13  17
ENDBRANCH  11  13
ENDBRANCH  10  11
ENDBRANCH   9  10
ENDBRANCH   7   9
ENDBRANCH   3   7
ENDBRANCH   2   3
TORSDOF 9
ENDMDL
MODEL      363
REMARK 921   NORMALIZED FREE ENERGY PREDICTED BY IDOCK:    0.28 KCAL/MOL
REMARK 922        TOTAL FREE ENERGY PREDICTED BY IDOCK:    0.02 KCAL/MOL
REMARK 923 INTER-LIGAND FREE ENERGY PREDICTED BY IDOCK:   -1.82 KCAL/MOL
REMARK 924 INTRA-LIGAND FREE ENERGY PREDICTED BY IDOCK:    1.84 KCAL/MOL
REMARK 927      BINDING AFFINITY PREDICTED BY RF-SCORE:    0.00 PKD
ROOT
HETATM    1  C   UNL     1      -7.071   9.213  67.063  1.00  0.00    -0.086 C  
HETATM    2  C   UNL     1      -7.732   8.516  65.882  1.00  0.00    -0.097 C  
ENDROOT
BRANCH   2   3
HETATM    3  CA  UNL     1      -7.551   6.980  65.871  1.00  0.00    -0.097 C  
BRANCH   3   4
HETATM    4  C   UNL     1      -6.921   6.433  67.181  1.00  0.00    -0.071 C  
HETATM    5  H   UNL     1      -5.364   5.314  67.776  1.00  0.00     0.000 HD 
HETATM    6  O   UNL     1      -5.750   5.648  66.974  1.00  0.00    -0.016 OA 
ENDBRANCH   3   4
BRANCH   3   7
HETATM    7  N   UNL     1      -8.884   6.420  65.565  1.00  0.00    -0.336 NA 
HETATM    8  H   UNL     1      -8.804   5.626  64.929  1.00  0.00     0.000 HD 
BRANCH   7   9
HETATM    9  C   UNL     1      -9.655   6.052  66.761  1.00  0.00    -0.149 C  
BRANCH   9  10
HETATM   10  C   UNL     1      -9.221   6.911  67.969  1.00  0.00    -0.121 C  
BRANCH  10  11
HETATM   11  N   UNL     1     -10.159   6.757  69.095  1.00  0.00    -0.166 NA 
HETATM   12  H   UNL     1     -10.789   5.970  68.940  1.00  0.00     0.000 HD 
BRANCH  11  13
HETATM   13  CA  UNL     1      -9.470   6.638  70.405  1.00  0.00    -0.166 C  
BRANCH  13  14
HETATM   14  C   UNL     1      -8.740   7.966  70.713  1.00  0.00    -0.134 C  
HETATM   15  H   UNL     1      -9.091   9.898  70.514  1.00  0.00     0.000 HD 
HETATM   16  O   UNL     1      -9.539   9.083  70.325  1.00  0.00    -0.174 OA 
ENDBRANCH  13  14
BRANCH  13  17
HETATM   17  C   UNL     1      -8.493   5.449  70.507  1.00  0.00    -0.122 C  
HETATM   18  C   UNL     1      -7.363   5.630  71.513  1.00  0.00    -0.087 C  
ENDBRANCH  13  17
ENDBRANCH  11  13
ENDBRANCH  10  11
ENDBRANCH   9  10
ENDBRANCH   7   9
ENDBRANCH   3   7
ENDBRANCH   2   3
TORSDOF 9
ENDMDL
MODEL      364
REMARK 921   NORMALIZED FREE ENERGY PREDICTED BY IDOCK:    4.86 KCAL/MOL
REMARK 922        TOTAL FREE ENERGY PREDICTED BY IDOCK:    7.01 KCAL/MOL
REMARK 923 INTER-LIGAND FREE ENERGY PREDICTED BY IDOCK:    7.29 KCAL/MOL
REMARK 924 INTRA-LIGAND FREE ENERGY PREDICTED BY IDOCK:   -0.29 KCAL/MOL
REMARK 927      BINDING AFFINITY PREDICTED BY RF-SCORE:    0.00 PKD
ROOT
HETATM    1  C   UNL     1      -9.404   9.291  73.212  1.00  0.00     2.761 C  
HETATM    2  C   UNL     1      -8.080   9.488  73.936  1.00  0.00     2.735 C  
ENDROOT
BRANCH   2   3
HETATM    3  CA  UNL     1      -6.846   9.521  73.003  1.00  0.00     1.186 C  
BRANCH   3   4
HETATM    4  C   UNL     1      -5.659  10.328  73.594  1.00  0.00     0.631 C  
HETATM    5  H   UNL     1      -4.991  12.219  73.684  1.00  0.00     0.000 HD 
HETATM    6  O   UNL     1      -5.718  11.725  73.322  1.00  0.00     0.765 OA 
ENDBRANCH   3   4
BRANCH   3   7
HETATM    7  N   UNL     1      -6.527   8.109  72.708  1.00  0.00    -0.077 NA 
HETATM    8  H   UNL     1      -7.209   7.486  73.141  1.00  0.00     0.000 HD 
BRANCH   7   9
HETATM    9  C   UNL     1      -6.400   7.823  71.272  1.00  0.00    -0.034 C  
BRANCH   9  10
HETATM   10  C   UNL     1      -5.881   6.386  71.050  1.00  0.00    -0.027 C  
BRANCH  10  11
HETATM   11  N   UNL     1      -6.867   5.389  71.503  1.00  0.00    -0.059 NA 
HETATM   12  H   UNL     1      -6.925   5.369  72.521  1.00  0.00     0.000 HD 
BRANCH  11  13
HETATM   13  CA  UNL     1      -8.208   5.590  70.897  1.00  0.00    -0.118 C  
BRANCH  13  14
HETATM   14  C   UNL     1      -9.243   4.742  71.671  1.00  0.00    -0.138 C  
HETATM   15  H   UNL     1      -9.660   4.317  73.553  1.00  0.00     0.000 HD 
HETATM   16  O   UNL     1      -9.024   4.838  73.078  1.00  0.00    -0.115 OA 
ENDBRANCH  13  14
BRANCH  13  17
HETATM   17  C   UNL     1      -8.280   5.284  69.387  1.00  0.00    -0.095 C  
HETATM   18  C   UNL     1      -9.395   6.001  68.638  1.00  0.00    -0.121 C  
ENDBRANCH  13  17
ENDBRANCH  11  13
ENDBRANCH  10  11
ENDBRANCH   9  10
ENDBRANCH   7   9
ENDBRANCH   3   7
ENDBRANCH   2   3
TORSDOF 9
ENDMDL
MODEL      365
REMARK 921   NORMALIZED FREE ENERGY PREDICTED BY IDOCK:   11.35 KCAL/MOL
REMARK 922        TOTAL FREE ENERGY PREDICTED BY IDOCK:   16.92 KCAL/MOL
REMARK 923 INTER-LIGAND FREE ENERGY PREDICTED BY IDOCK:   16.29 KCAL/MOL
REMARK 924 INTRA-LIGAND FREE ENERGY PREDICTED BY IDOCK:    0.63 KCAL/MOL
REMARK 927      BINDING AFFINITY PREDICTED BY RF-SCORE:    0.00 PKD
ROOT
HETATM    1  C   UNL     1      -8.898  10.220  73.626  1.00  0.00    10.093 C  
HETATM    2  C   UNL     1      -7.574  10.427  74.348  1.00  0.00     4.970 C  
ENDROOT
BRANCH   2   3
HETATM    3  CA  UNL     1      -6.343  10.480  73.413  1.00  0.00     2.613 C  
BRANCH   3   4
HETATM    4  C   UNL     1      -5.157  11.281  74.014  1.00  0.00     0.362 C  
HETATM    5  H   UNL     1      -4.663  13.175  74.462  1.00  0.00     0.000 HD 
HETATM    6  O   UNL     1      -5.389  12.684  74.094  1.00  0.00    -0.373 OA 
ENDBRANCH   3   4
BRANCH   3   7
HETATM    7  N   UNL     1      -6.020   9.074  73.094  1.00  0.00    -0.268 NA 
HETATM    8  H   UNL     1      -6.695   8.441  73.524  1.00  0.00     0.000 HD 
BRANCH   7   9
HETATM    9  C   UNL     1      -5.905   8.810  71.653  1.00  0.00    -0.056 C  
BRANCH   9  10
HETATM   10  C   UNL     1      -6.726   7.561  71.265  1.00  0.00    -0.049 C  
BRANCH  10  11
HETATM   11  N   UNL     1      -8.168   7.860  71.236  1.00  0.00    -0.098 NA 
HETATM   12  H   UNL     1      -8.535   7.977  72.181  1.00  0.00     0.000 HD 
BRANCH  11  13
HETATM   13  CA  UNL     1      -8.495   9.035  70.389  1.00  0.00    -0.182 C  
BRANCH  13  14
HETATM   14  C   UNL     1      -9.941   9.488  70.693  1.00  0.00    -0.276 C  
HETATM   15  H   UNL     1     -11.536  10.046  69.671  1.00  0.00     0.000 HD 
HETATM   16  O   UNL     1     -10.647   9.768  69.484  1.00  0.00    -0.208 OA 
ENDBRANCH  13  14
BRANCH  13  17
HETATM   17  C   UNL     1      -8.309   8.802  68.875  1.00  0.00    -0.127 C  
HETATM   18  C   UNL     1      -7.600   7.506  68.506  1.00  0.00    -0.114 C  
ENDBRANCH  13  17
ENDBRANCH  11  13
ENDBRANCH  10  11
ENDBRANCH   9  10
ENDBRANCH   7   9
ENDBRANCH   3   7
ENDBRANCH   2   3
TORSDOF 9
ENDMDL
MODEL      366
REMARK 921   NORMALIZED FREE ENERGY PREDICTED BY IDOCK:   18.60 KCAL/MOL
REMARK 922        TOTAL FREE ENERGY PREDICTED BY IDOCK:   27.97 KCAL/MOL
REMARK 923 INTER-LIGAND FREE ENERGY PREDICTED BY IDOCK:   28.33 KCAL/MOL
REMARK 924 INTRA-LIGAND FREE ENERGY PREDICTED BY IDOCK:   -0.35 KCAL/MOL
REMARK 927      BINDING AFFINITY PREDICTED BY RF-SCORE:    0.00 PKD
ROOT
HETATM    1  C   UNL     1      -8.575  12.048  73.833  1.00  0.00    19.771 C  
HETATM    2  C   UNL     1      -7.302  12.575  74.479  1.00  0.00     6.352 C  
ENDROOT
BRANCH   2   3
HETATM    3  CA  UNL     1      -6.206  12.992  73.471  1.00  0.00     2.499 C  
BRANCH   3   4
HETATM    4  C   UNL     1      -5.168  13.977  74.074  1.00  0.00    -0.229 C  
HETATM    5  H   UNL     1      -4.535  15.867  73.833  1.00  0.00     0.000 HD 
HETATM    6  O   UNL     1      -5.170  15.264  73.463  1.00  0.00     0.343 OA 
ENDBRANCH   3   4
BRANCH   3   7
HETATM    7  N   UNL     1      -5.619  11.733  72.969  1.00  0.00     0.666 NA 
HETATM    8  H   UNL     1      -6.243  10.946  73.149  1.00  0.00     0.000 HD 
BRANCH   7   9
HETATM    9  C   UNL     1      -5.246  11.785  71.548  1.00  0.00     0.027 C  
BRANCH   9  10
HETATM   10  C   UNL     1      -5.897  10.617  70.775  1.00  0.00    -0.084 C  
BRANCH  10  11
HETATM   11  N   UNL     1      -7.189  11.019  70.193  1.00  0.00    -0.441 NA 
HETATM   12  H   UNL     1      -7.136  11.960  69.802  1.00  0.00     0.000 HD 
BRANCH  11  13
HETATM   13  CA  UNL     1      -7.692  10.051  69.185  1.00  0.00    -0.104 C  
BRANCH  13  14
HETATM   14  C   UNL     1      -9.158   9.692  69.519  1.00  0.00    -0.199 C  
HETATM   15  H   UNL     1     -10.115   8.469  70.738  1.00  0.00     0.000 HD 
HETATM   16  O   UNL     1      -9.214   8.689  70.532  1.00  0.00    -0.157 OA 
ENDBRANCH  13  14
BRANCH  13  17
HETATM   17  C   UNL     1      -6.841   8.772  69.047  1.00  0.00    -0.059 C  
HETATM   18  C   UNL     1      -6.454   8.408  67.620  1.00  0.00    -0.057 C  
ENDBRANCH  13  17
ENDBRANCH  11  13
ENDBRANCH  10  11
ENDBRANCH   9  10
ENDBRANCH   7   9
ENDBRANCH   3   7
ENDBRANCH   2   3
TORSDOF 9
ENDMDL
MODEL      367
REMARK 921   NORMALIZED FREE ENERGY PREDICTED BY IDOCK:   19.78 KCAL/MOL
REMARK 922        TOTAL FREE ENERGY PREDICTED BY IDOCK:   29.77 KCAL/MOL
REMARK 923 INTER-LIGAND FREE ENERGY PREDICTED BY IDOCK:   29.94 KCAL/MOL
REMARK 924 INTRA-LIGAND FREE ENERGY PREDICTED BY IDOCK:   -0.16 KCAL/MOL
REMARK 927      BINDING AFFINITY PREDICTED BY RF-SCORE:    0.00 PKD
ROOT
HETATM    1  C   UNL     1      -8.575  12.048  73.833  1.00  0.00    19.771 C  
HETATM    2  C   UNL     1      -7.296  12.574  74.469  1.00  0.00     6.352 C  
ENDROOT
BRANCH   2   3
HETATM    3  CA  UNL     1      -6.219  13.016  73.451  1.00  0.00     2.605 C  
BRANCH   3   4
HETATM    4  C   UNL     1      -5.179  13.999  74.055  1.00  0.00    -0.229 C  
HETATM    5  H   UNL     1      -5.073  15.888  74.726  1.00  0.00     0.000 HD 
HETATM    6  O   UNL     1      -5.709  15.287  74.356  1.00  0.00     1.491 OA 
ENDBRANCH   3   4
BRANCH   3   7
HETATM    7  N   UNL     1      -5.630  11.769  72.921  1.00  0.00     0.626 NA 
HETATM    8  H   UNL     1      -6.245  10.975  73.099  1.00  0.00     0.000 HD 
BRANCH   7   9
HETATM    9  C   UNL     1      -5.278  11.845  71.496  1.00  0.00     0.018 C  
BRANCH   9  10
HETATM   10  C   UNL     1      -5.953  10.700  70.711  1.00  0.00    -0.058 C  
BRANCH  10  11
HETATM   11  N   UNL     1      -5.707  10.831  69.264  1.00  0.00    -0.041 NA 
HETATM   12  H   UNL     1      -4.953  10.212  68.964  1.00  0.00     0.000 HD 
BRANCH  11  13
HETATM   13  CA  UNL     1      -6.930  10.613  68.450  1.00  0.00    -0.066 C  
BRANCH  13  14
HETATM   14  C   UNL     1      -7.039  11.736  67.393  1.00  0.00    -0.126 C  
HETATM   15  H   UNL     1      -6.380  13.582  67.160  1.00  0.00     0.000 HD 
HETATM   16  O   UNL     1      -6.314  12.892  67.810  1.00  0.00    -0.111 OA 
ENDBRANCH  13  14
BRANCH  13  17
HETATM   17  C   UNL     1      -8.233  10.515  69.269  1.00  0.00    -0.151 C  
HETATM   18  C   UNL     1      -8.664   9.098  69.624  1.00  0.00    -0.145 C  
ENDBRANCH  13  17
ENDBRANCH  11  13
ENDBRANCH  10  11
ENDBRANCH   9  10
ENDBRANCH   7   9
ENDBRANCH   3   7
ENDBRANCH   2   3
TORSDOF 9
ENDMDL
