MODEL        1
REMARK 921   NORMALIZED FREE ENERGY PREDICTED BY IDOCK:   -5.33 KCAL/MOL
REMARK 922        TOTAL FREE ENERGY PREDICTED BY IDOCK:  -11.94 KCAL/MOL
REMARK 923 INTER-LIGAND FREE ENERGY PREDICTED BY IDOCK:  -10.00 KCAL/MOL
REMARK 924 INTRA-LIGAND FREE ENERGY PREDICTED BY IDOCK:   -1.95 KCAL/MOL
REMARK 927      BINDING AFFINITY PREDICTED BY RF-SCORE:    0.00 PKD
ROOT
ATOM      1  N   GLY A   1      -9.544  20.403  65.915  1.00  0.00    -0.640 NA 
HETATM    2  C   UNL     1     -10.696  14.092  68.609  1.00  0.00    -0.263 C  
ATOM      3  H2  GLY A   1      -8.585  20.362  66.261  1.00  0.00     0.000 HD 
ATOM      4  H1  GLY A   1      -9.595  20.210  64.915  1.00  0.00     0.000 HD 
ATOM      5  CA  GLY A   1     -10.434  19.497  66.653  1.00  0.00    -0.488 C  
HETATM    6  C   UNL     1     -10.817  13.509  67.210  1.00  0.00    -0.285 C  
ENDROOT
BRANCH   5   7
ATOM      7  C   GLY A   1     -10.356  19.787  68.155  1.00  0.00    -0.431 C  
ATOM      8  H   GLY A   1      -9.052  19.522  69.593  1.00  0.00     0.000 HD 
ATOM      9  O   GLY A   1      -9.100  19.342  68.662  1.00  0.00    -0.361 OA 
ENDBRANCH   5   7
BRANCH   6  10
HETATM   10  C   UNL     1     -12.179  13.749  66.560  1.00  0.00    -0.475 C  
BRANCH  10  11
HETATM   11  C   UNL     1     -12.406  12.976  65.259  1.00  0.00    -0.537 C  
BRANCH  11  12
HETATM   12  C   UNL     1     -11.409  13.447  64.197  1.00  0.00    -0.398 C  
BRANCH  12  13
HETATM   13  C   UNL     1     -10.547  12.304  63.663  1.00  0.00    -0.501 C  
BRANCH  13  14
HETATM   14  C   UNL     1     -10.741  10.995  64.441  1.00  0.00    -0.340 C  
BRANCH  14  15
HETATM   15  C   UNL     1      -9.569  10.584  65.341  1.00  0.00    -0.291 C  
BRANCH  15  16
HETATM   16  C   UNL     1      -9.769   9.276  66.057  1.00  0.00    -0.359 C  
HETATM   17  C   UNL     1     -10.397   9.142  67.235  1.00  0.00    -0.338 C  
BRANCH  17  18
HETATM   18  C   UNL     1     -10.965  10.265  68.053  1.00  0.00    -0.345 C  
BRANCH  18  19
HETATM   19  C   UNL     1     -10.291  10.370  69.419  1.00  0.00    -0.259 C  
BRANCH  19  20
HETATM   20  C   UNL     1     -11.329  10.223  70.531  1.00  0.00    -0.422 C  
BRANCH  20  21
HETATM   21  C   UNL     1     -12.271  11.423  70.574  1.00  0.00    -0.478 C  
BRANCH  21  22
HETATM   22  C   UNL     1     -13.103  11.426  71.853  1.00  0.00    -0.505 C  
BRANCH  22  23
HETATM   23  C   UNL     1     -13.494  12.850  72.241  1.00  0.00    -0.631 C  
BRANCH  23  24
HETATM   24  C   UNL     1     -12.693  13.887  71.459  1.00  0.00    -0.440 C  
HETATM   25  C   UNL     1     -12.202  15.002  72.355  1.00  0.00    -0.351 C  
HETATM   26  O   UNL     1     -11.475  15.917  71.673  1.00  0.00    -0.407 OA 
HETATM   27  O   UNL     1     -12.411  15.094  73.549  1.00  0.00    -0.452 OA 
ENDBRANCH  23  24
ENDBRANCH  22  23
ENDBRANCH  21  22
ENDBRANCH  20  21
ENDBRANCH  19  20
ENDBRANCH  18  19
ENDBRANCH  17  18
ENDBRANCH  15  16
ENDBRANCH  14  15
ENDBRANCH  13  14
ENDBRANCH  12  13
ENDBRANCH  11  12
ENDBRANCH  10  11
ENDBRANCH   6  10
TORSDOF 15
ENDMDL
MODEL        2
REMARK 921   NORMALIZED FREE ENERGY PREDICTED BY IDOCK:   -5.33 KCAL/MOL
REMARK 922        TOTAL FREE ENERGY PREDICTED BY IDOCK:  -11.94 KCAL/MOL
REMARK 923 INTER-LIGAND FREE ENERGY PREDICTED BY IDOCK:   -9.93 KCAL/MOL
REMARK 924 INTRA-LIGAND FREE ENERGY PREDICTED BY IDOCK:   -2.02 KCAL/MOL
REMARK 927      BINDING AFFINITY PREDICTED BY RF-SCORE:    0.00 PKD
ROOT
ATOM      1  N   GLY A   1     -14.183   8.918  73.324  1.00  0.00    -1.237 NA 
HETATM    2  C   UNL     1      -8.776   8.737  68.949  1.00  0.00    -0.134 C  
ATOM      3  H2  GLY A   1     -13.716   8.225  73.909  1.00  0.00     0.000 HD 
ATOM      4  H1  GLY A   1     -14.102   9.858  73.709  1.00  0.00     0.000 HD 
ATOM      5  CA  GLY A   1     -13.688   8.891  71.941  1.00  0.00    -0.439 C  
HETATM    6  C   UNL     1      -8.400  10.157  69.343  1.00  0.00    -0.174 C  
ENDROOT
BRANCH   5   7
ATOM      7  C   GLY A   1     -13.810   7.478  71.362  1.00  0.00    -0.338 C  
ATOM      8  H   GLY A   1     -12.666   5.894  71.215  1.00  0.00     0.000 HD 
ATOM      9  O   GLY A   1     -12.591   6.770  71.574  1.00  0.00    -0.361 OA 
ENDBRANCH   5   7
BRANCH   6  10
HETATM   10  C   UNL     1      -9.239  11.230  68.649  1.00  0.00    -0.163 C  
BRANCH  10  11
HETATM   11  C   UNL     1     -10.732  10.904  68.552  1.00  0.00    -0.239 C  
BRANCH  11  12
HETATM   12  C   UNL     1     -11.142  10.791  67.081  1.00  0.00    -0.297 C  
BRANCH  12  13
HETATM   13  C   UNL     1      -9.989  11.114  66.132  1.00  0.00    -0.273 C  
BRANCH  13  14
HETATM   14  C   UNL     1     -10.247  10.637  64.695  1.00  0.00    -0.404 C  
BRANCH  14  15
HETATM   15  C   UNL     1     -10.259  11.738  63.628  1.00  0.00    -0.461 C  
BRANCH  15  16
HETATM   16  C   UNL     1     -11.628  12.273  63.308  1.00  0.00    -0.434 C  
HETATM   17  C   UNL     1     -12.140  13.406  63.813  1.00  0.00    -0.516 C  
BRANCH  17  18
HETATM   18  C   UNL     1     -11.459  14.303  64.806  1.00  0.00    -0.394 C  
BRANCH  18  19
HETATM   19  C   UNL     1     -12.107  14.218  66.185  1.00  0.00    -0.424 C  
BRANCH  19  20
HETATM   20  C   UNL     1     -11.055  14.422  67.275  1.00  0.00    -0.318 C  
BRANCH  20  21
HETATM   21  C   UNL     1     -11.511  15.453  68.302  1.00  0.00    -0.362 C  
BRANCH  21  22
HETATM   22  C   UNL     1     -11.338  14.929  69.725  1.00  0.00    -0.314 C  
BRANCH  22  23
HETATM   23  C   UNL     1     -12.601  15.170  70.549  1.00  0.00    -0.429 C  
BRANCH  23  24
HETATM   24  C   UNL     1     -12.286  15.855  71.875  1.00  0.00    -0.541 C  
HETATM   25  C   UNL     1     -13.021  15.204  73.025  1.00  0.00    -0.493 C  
HETATM   26  O   UNL     1     -12.734  15.793  74.209  1.00  0.00    -0.552 OA 
HETATM   27  O   UNL     1     -13.781  14.259  72.935  1.00  0.00    -0.629 OA 
ENDBRANCH  23  24
ENDBRANCH  22  23
ENDBRANCH  21  22
ENDBRANCH  20  21
ENDBRANCH  19  20
ENDBRANCH  18  19
ENDBRANCH  17  18
ENDBRANCH  15  16
ENDBRANCH  14  15
ENDBRANCH  13  14
ENDBRANCH  12  13
ENDBRANCH  11  12
ENDBRANCH  10  11
ENDBRANCH   6  10
TORSDOF 15
ENDMDL
MODEL        3
REMARK 921   NORMALIZED FREE ENERGY PREDICTED BY IDOCK:   -5.23 KCAL/MOL
REMARK 922        TOTAL FREE ENERGY PREDICTED BY IDOCK:  -11.77 KCAL/MOL
REMARK 923 INTER-LIGAND FREE ENERGY PREDICTED BY IDOCK:  -10.38 KCAL/MOL
REMARK 924 INTRA-LIGAND FREE ENERGY PREDICTED BY IDOCK:   -1.39 KCAL/MOL
REMARK 927      BINDING AFFINITY PREDICTED BY RF-SCORE:    0.00 PKD
ROOT
ATOM      1  N   GLY A   1     -10.249  13.123  63.864  1.00  0.00    -0.744 NA 
HETATM    2  C   UNL     1     -10.751  19.827  65.654  1.00  0.00    -0.418 C  
ATOM      3  H2  GLY A   1     -10.406  13.384  62.891  1.00  0.00     0.000 HD 
ATOM      4  H1  GLY A   1      -9.265  12.934  64.054  1.00  0.00     0.000 HD 
ATOM      5  CA  GLY A   1     -10.760  14.138  64.794  1.00  0.00    -0.419 C  
HETATM    6  C   UNL     1      -9.274  19.849  66.015  1.00  0.00    -0.345 C  
ENDROOT
BRANCH   5   7
ATOM      7  C   GLY A   1     -12.238  14.422  64.509  1.00  0.00    -0.463 C  
ATOM      8  H   GLY A   1     -13.964  13.648  65.022  1.00  0.00     0.000 HD 
ATOM      9  O   GLY A   1     -13.047  13.473  65.199  1.00  0.00    -0.737 OA 
ENDBRANCH   5   7
BRANCH   6  10
HETATM   10  C   UNL     1      -8.968  19.252  67.389  1.00  0.00    -0.340 C  
BRANCH  10  11
HETATM   11  C   UNL     1     -10.193  19.076  68.291  1.00  0.00    -0.460 C  
BRANCH  11  12
HETATM   12  C   UNL     1     -10.082  17.758  69.061  1.00  0.00    -0.294 C  
BRANCH  12  13
HETATM   13  C   UNL     1     -10.895  16.638  68.413  1.00  0.00    -0.361 C  
BRANCH  13  14
HETATM   14  C   UNL     1     -11.783  15.887  69.414  1.00  0.00    -0.350 C  
BRANCH  14  15
HETATM   15  C   UNL     1     -11.100  15.482  70.726  1.00  0.00    -0.383 C  
BRANCH  15  16
HETATM   16  C   UNL     1     -11.792  15.985  71.964  1.00  0.00    -0.623 C  
HETATM   17  C   UNL     1     -13.002  15.576  72.378  1.00  0.00    -0.511 C  
BRANCH  17  18
HETATM   18  C   UNL     1     -13.881  14.591  71.664  1.00  0.00    -0.513 C  
BRANCH  18  19
HETATM   19  C   UNL     1     -13.823  13.208  72.309  1.00  0.00    -0.586 C  
BRANCH  19  20
HETATM   20  C   UNL     1     -12.967  12.267  71.461  1.00  0.00    -0.390 C  
BRANCH  20  21
HETATM   21  C   UNL     1     -13.310  10.806  71.735  1.00  0.00    -0.429 C  
BRANCH  21  22
HETATM   22  C   UNL     1     -12.370   9.868  70.982  1.00  0.00    -0.451 C  
BRANCH  22  23
HETATM   23  C   UNL     1     -11.102  10.603  70.553  1.00  0.00    -0.176 C  
BRANCH  23  24
HETATM   24  C   UNL     1     -10.581  10.092  69.213  1.00  0.00    -0.249 C  
HETATM   25  C   UNL     1     -11.210  10.829  68.054  1.00  0.00    -0.307 C  
HETATM   26  O   UNL     1     -10.740  10.395  66.861  1.00  0.00    -0.252 OA 
HETATM   27  O   UNL     1     -12.039  11.715  68.143  1.00  0.00    -0.577 OA 
ENDBRANCH  23  24
ENDBRANCH  22  23
ENDBRANCH  21  22
ENDBRANCH  20  21
ENDBRANCH  19  20
ENDBRANCH  18  19
ENDBRANCH  17  18
ENDBRANCH  15  16
ENDBRANCH  14  15
ENDBRANCH  13  14
ENDBRANCH  12  13
ENDBRANCH  11  12
ENDBRANCH  10  11
ENDBRANCH   6  10
TORSDOF 15
ENDMDL
MODEL        4
REMARK 921   NORMALIZED FREE ENERGY PREDICTED BY IDOCK:   -5.17 KCAL/MOL
REMARK 922        TOTAL FREE ENERGY PREDICTED BY IDOCK:  -11.66 KCAL/MOL
REMARK 923 INTER-LIGAND FREE ENERGY PREDICTED BY IDOCK:  -10.69 KCAL/MOL
REMARK 924 INTRA-LIGAND FREE ENERGY PREDICTED BY IDOCK:   -0.97 KCAL/MOL
REMARK 927      BINDING AFFINITY PREDICTED BY RF-SCORE:    0.00 PKD
ROOT
ATOM      1  N   GLY A   1     -11.372   4.441  65.107  1.00  0.00    -1.082 NA 
HETATM    2  C   UNL     1     -10.406   5.016  71.974  1.00  0.00    -0.276 C  
ATOM      3  H2  GLY A   1     -11.713   3.490  65.248  1.00  0.00     0.000 HD 
ATOM      4  H1  GLY A   1     -12.135   5.100  64.953  1.00  0.00     0.000 HD 
ATOM      5  CA  GLY A   1     -10.529   4.892  66.222  1.00  0.00    -0.304 C  
HETATM    6  C   UNL     1     -11.529   6.038  72.054  1.00  0.00    -0.343 C  
ENDROOT
BRANCH   5   7
ATOM      7  C   GLY A   1      -9.384   3.902  66.454  1.00  0.00    -0.182 C  
ATOM      8  H   GLY A   1      -7.491   3.769  65.963  1.00  0.00     0.000 HD 
ATOM      9  O   GLY A   1      -8.202   4.383  65.820  1.00  0.00    -0.108 OA 
ENDBRANCH   5   7
BRANCH   6  10
HETATM   10  C   UNL     1     -11.111   7.445  71.630  1.00  0.00    -0.264 C  
BRANCH  10  11
HETATM   11  C   UNL     1     -12.269   8.352  71.206  1.00  0.00    -0.305 C  
BRANCH  11  12
HETATM   12  C   UNL     1     -11.912   9.813  71.488  1.00  0.00    -0.488 C  
BRANCH  12  13
HETATM   13  C   UNL     1     -13.150  10.679  71.720  1.00  0.00    -0.571 C  
BRANCH  13  14
HETATM   14  C   UNL     1     -12.873  12.178  71.544  1.00  0.00    -0.394 C  
BRANCH  14  15
HETATM   15  C   UNL     1     -13.685  13.109  72.454  1.00  0.00    -0.640 C  
BRANCH  15  16
HETATM   16  C   UNL     1     -14.311  14.277  71.741  1.00  0.00    -0.539 C  
HETATM   17  C   UNL     1     -13.709  15.460  71.545  1.00  0.00    -0.601 C  
BRANCH  17  18
HETATM   18  C   UNL     1     -12.339  15.833  72.034  1.00  0.00    -0.534 C  
BRANCH  18  19
HETATM   19  C   UNL     1     -11.369  16.068  70.878  1.00  0.00    -0.421 C  
BRANCH  19  20
HETATM   20  C   UNL     1     -11.258  14.808  70.020  1.00  0.00    -0.274 C  
BRANCH  20  21
HETATM   21  C   UNL     1     -11.516  15.114  68.548  1.00  0.00    -0.335 C  
BRANCH  21  22
HETATM   22  C   UNL     1     -12.073  13.894  67.820  1.00  0.00    -0.328 C  
BRANCH  22  23
HETATM   23  C   UNL     1     -12.051  14.108  66.308  1.00  0.00    -0.463 C  
BRANCH  23  24
HETATM   24  C   UNL     1     -12.398  12.829  65.553  1.00  0.00    -0.495 C  
HETATM   25  C   UNL     1     -12.581  13.089  64.075  1.00  0.00    -0.209 C  
HETATM   26  O   UNL     1     -12.872  11.957  63.392  1.00  0.00    -0.715 OA 
HETATM   27  O   UNL     1     -12.482  14.171  63.528  1.00  0.00    -0.817 OA 
ENDBRANCH  23  24
ENDBRANCH  22  23
ENDBRANCH  21  22
ENDBRANCH  20  21
ENDBRANCH  19  20
ENDBRANCH  18  19
ENDBRANCH  17  18
ENDBRANCH  15  16
ENDBRANCH  14  15
ENDBRANCH  13  14
ENDBRANCH  12  13
ENDBRANCH  11  12
ENDBRANCH  10  11
ENDBRANCH   6  10
TORSDOF 15
ENDMDL
MODEL        5
REMARK 921   NORMALIZED FREE ENERGY PREDICTED BY IDOCK:   -5.13 KCAL/MOL
REMARK 922        TOTAL FREE ENERGY PREDICTED BY IDOCK:  -11.58 KCAL/MOL
REMARK 923 INTER-LIGAND FREE ENERGY PREDICTED BY IDOCK:   -9.89 KCAL/MOL
REMARK 924 INTRA-LIGAND FREE ENERGY PREDICTED BY IDOCK:   -1.69 KCAL/MOL
REMARK 927      BINDING AFFINITY PREDICTED BY RF-SCORE:    0.00 PKD
ROOT
ATOM      1  N   GLY A   1     -12.789  15.892  74.341  1.00  0.00    -0.925 NA 
HETATM    2  C   UNL     1     -13.484   9.770  71.109  1.00  0.00    -0.304 C  
ATOM      3  H2  GLY A   1     -13.585  15.655  74.933  1.00  0.00     0.000 HD 
ATOM      4  H1  GLY A   1     -11.902  15.766  74.828  1.00  0.00     0.000 HD 
ATOM      5  CA  GLY A   1     -12.792  15.129  73.086  1.00  0.00    -0.497 C  
HETATM    6  C   UNL     1     -12.171   9.295  71.710  1.00  0.00    -0.457 C  
ENDROOT
BRANCH   5   7
ATOM      7  C   GLY A   1     -14.125  15.318  72.355  1.00  0.00    -0.525 C  
ATOM      8  H   GLY A   1     -15.042  14.504  70.826  1.00  0.00     0.000 HD 
ATOM      9  O   GLY A   1     -14.215  14.387  71.280  1.00  0.00    -0.327 OA 
ENDBRANCH   5   7
BRANCH   6  10
HETATM   10  C   UNL     1     -10.935   9.818  70.979  1.00  0.00    -0.402 C  
BRANCH  10  11
HETATM   11  C   UNL     1      -9.651   9.035  71.262  1.00  0.00    -0.361 C  
BRANCH  11  12
HETATM   12  C   UNL     1      -9.997   7.689  71.905  1.00  0.00    -0.217 C  
BRANCH  12  13
HETATM   13  C   UNL     1      -9.392   6.510  71.145  1.00  0.00    -0.167 C  
BRANCH  13  14
HETATM   14  C   UNL     1     -10.449   5.641  70.449  1.00  0.00    -0.355 C  
BRANCH  14  15
HETATM   15  C   UNL     1     -11.324   6.367  69.419  1.00  0.00    -0.443 C  
BRANCH  15  16
HETATM   16  C   UNL     1     -11.023   6.007  67.990  1.00  0.00    -0.340 C  
HETATM   17  C   UNL     1     -10.296   6.763  67.152  1.00  0.00    -0.327 C  
BRANCH  17  18
HETATM   18  C   UNL     1      -9.701   8.101  67.480  1.00  0.00    -0.207 C  
BRANCH  18  19
HETATM   19  C   UNL     1     -10.148   9.178  66.494  1.00  0.00    -0.357 C  
BRANCH  19  20
HETATM   20  C   UNL     1     -10.144  10.548  67.173  1.00  0.00    -0.253 C  
BRANCH  20  21
HETATM   21  C   UNL     1     -11.317  11.403  66.704  1.00  0.00    -0.230 C  
BRANCH  21  22
HETATM   22  C   UNL     1     -10.835  12.727  66.118  1.00  0.00    -0.303 C  
BRANCH  22  23
HETATM   23  C   UNL     1     -11.764  13.869  66.522  1.00  0.00    -0.414 C  
BRANCH  23  24
HETATM   24  C   UNL     1     -11.248  15.217  66.028  1.00  0.00    -0.275 C  
HETATM   25  C   UNL     1     -11.782  15.547  64.653  1.00  0.00    -0.226 C  
HETATM   26  O   UNL     1     -11.345  16.750  64.214  1.00  0.00    -1.170 OA 
HETATM   27  O   UNL     1     -12.522  14.843  63.993  1.00  0.00    -0.807 OA 
ENDBRANCH  23  24
ENDBRANCH  22  23
ENDBRANCH  21  22
ENDBRANCH  20  21
ENDBRANCH  19  20
ENDBRANCH  18  19
ENDBRANCH  17  18
ENDBRANCH  15  16
ENDBRANCH  14  15
ENDBRANCH  13  14
ENDBRANCH  12  13
ENDBRANCH  11  12
ENDBRANCH  10  11
ENDBRANCH   6  10
TORSDOF 15
ENDMDL
MODEL        6
REMARK 921   NORMALIZED FREE ENERGY PREDICTED BY IDOCK:   -5.11 KCAL/MOL
REMARK 922        TOTAL FREE ENERGY PREDICTED BY IDOCK:  -11.54 KCAL/MOL
REMARK 923 INTER-LIGAND FREE ENERGY PREDICTED BY IDOCK:   -9.51 KCAL/MOL
REMARK 924 INTRA-LIGAND FREE ENERGY PREDICTED BY IDOCK:   -2.03 KCAL/MOL
REMARK 927      BINDING AFFINITY PREDICTED BY RF-SCORE:    0.00 PKD
ROOT
ATOM      1  N   GLY A   1      -9.672  19.476  68.423  1.00  0.00    -0.385 NA 
HETATM    2  C   UNL     1     -12.361  13.511  66.059  1.00  0.00    -0.486 C  
ATOM      3  H2  GLY A   1     -10.610  19.784  68.676  1.00  0.00     0.000 HD 
ATOM      4  H1  GLY A   1      -9.145  19.155  69.235  1.00  0.00     0.000 HD 
ATOM      5  CA  GLY A   1      -9.696  18.434  67.389  1.00  0.00    -0.299 C  
HETATM    6  C   UNL     1     -11.691  12.751  67.192  1.00  0.00    -0.443 C  
ENDROOT
BRANCH   5   7
ATOM      7  C   GLY A   1     -10.487  18.917  66.169  1.00  0.00    -0.457 C  
ATOM      8  H   GLY A   1     -11.157  18.134  64.502  1.00  0.00     0.000 HD 
ATOM      9  O   GLY A   1     -10.667  17.835  65.259  1.00  0.00    -0.649 OA 
ENDBRANCH   5   7
BRANCH   6  10
HETATM   10  C   UNL     1     -10.210  12.464  66.948  1.00  0.00    -0.238 C  
BRANCH  10  11
HETATM   11  C   UNL     1      -9.725  11.120  67.496  1.00  0.00    -0.193 C  
BRANCH  11  12
HETATM   12  C   UNL     1     -10.563   9.985  66.900  1.00  0.00    -0.261 C  
BRANCH  12  13
HETATM   13  C   UNL     1     -10.488   8.708  67.735  1.00  0.00    -0.287 C  
BRANCH  13  14
HETATM   14  C   UNL     1      -9.495   8.813  68.901  1.00  0.00    -0.145 C  
BRANCH  14  15
HETATM   15  C   UNL     1      -9.546   7.664  69.915  1.00  0.00    -0.160 C  
BRANCH  15  16
HETATM   16  C   UNL     1     -10.913   7.062  70.099  1.00  0.00    -0.306 C  
HETATM   17  C   UNL     1     -11.824   7.500  70.982  1.00  0.00    -0.319 C  
BRANCH  17  18
HETATM   18  C   UNL     1     -11.624   8.625  71.956  1.00  0.00    -0.440 C  
BRANCH  18  19
HETATM   19  C   UNL     1     -12.590   9.778  71.696  1.00  0.00    -0.509 C  
BRANCH  19  20
HETATM   20  C   UNL     1     -12.043  10.685  70.594  1.00  0.00    -0.461 C  
BRANCH  20  21
HETATM   21  C   UNL     1     -12.453  12.138  70.816  1.00  0.00    -0.362 C  
BRANCH  21  22
HETATM   22  C   UNL     1     -13.320  12.283  72.063  1.00  0.00    -0.491 C  
BRANCH  22  23
HETATM   23  C   UNL     1     -14.014  13.642  72.085  1.00  0.00    -0.609 C  
BRANCH  23  24
HETATM   24  C   UNL     1     -13.208  14.674  72.868  1.00  0.00    -0.609 C  
HETATM   25  C   UNL     1     -12.625  15.731  71.959  1.00  0.00    -0.455 C  
HETATM   26  O   UNL     1     -11.923  16.662  72.647  1.00  0.00    -0.490 OA 
HETATM   27  O   UNL     1     -12.754  15.776  70.750  1.00  0.00    -0.453 OA 
ENDBRANCH  23  24
ENDBRANCH  22  23
ENDBRANCH  21  22
ENDBRANCH  20  21
ENDBRANCH  19  20
ENDBRANCH  18  19
ENDBRANCH  17  18
ENDBRANCH  15  16
ENDBRANCH  14  15
ENDBRANCH  13  14
ENDBRANCH  12  13
ENDBRANCH  11  12
ENDBRANCH  10  11
ENDBRANCH   6  10
TORSDOF 15
ENDMDL
MODEL        7
REMARK 921   NORMALIZED FREE ENERGY PREDICTED BY IDOCK:   -5.11 KCAL/MOL
REMARK 922        TOTAL FREE ENERGY PREDICTED BY IDOCK:  -11.54 KCAL/MOL
REMARK 923 INTER-LIGAND FREE ENERGY PREDICTED BY IDOCK:   -9.35 KCAL/MOL
REMARK 924 INTRA-LIGAND FREE ENERGY PREDICTED BY IDOCK:   -2.19 KCAL/MOL
REMARK 927      BINDING AFFINITY PREDICTED BY RF-SCORE:    0.00 PKD
ROOT
ATOM      1  N   GLY A   1     -10.235  13.212  63.893  1.00  0.00    -0.744 NA 
HETATM    2  C   UNL     1     -10.434  19.780  66.180  1.00  0.00    -0.613 C  
ATOM      3  H2  GLY A   1     -10.125  13.561  62.941  1.00  0.00     0.000 HD 
ATOM      4  H1  GLY A   1      -9.352  12.887  64.284  1.00  0.00     0.000 HD 
ATOM      5  CA  GLY A   1     -10.843  14.215  64.777  1.00  0.00    -0.413 C  
HETATM    6  C   UNL     1      -9.093  19.588  66.871  1.00  0.00    -0.392 C  
ENDROOT
BRANCH   5   7
ATOM      7  C   GLY A   1     -12.171  14.704  64.190  1.00  0.00    -0.315 C  
ATOM      8  H   GLY A   1     -12.910  16.403  63.554  1.00  0.00     0.000 HD 
ATOM      9  O   GLY A   1     -12.086  16.100  63.918  1.00  0.00    -0.956 OA 
ENDBRANCH   5   7
BRANCH   6  10
HETATM   10  C   UNL     1      -9.192  18.860  68.212  1.00  0.00    -0.373 C  
BRANCH  10  11
HETATM   11  C   UNL     1     -10.379  17.902  68.327  1.00  0.00    -0.389 C  
BRANCH  11  12
HETATM   12  C   UNL     1      -9.919  16.470  68.038  1.00  0.00    -0.245 C  
BRANCH  12  13
HETATM   13  C   UNL     1      -9.155  15.859  69.212  1.00  0.00    -0.253 C  
BRANCH  13  14
HETATM   14  C   UNL     1      -8.093  14.842  68.770  1.00  0.00    -0.162 C  
BRANCH  14  15
HETATM   15  C   UNL     1      -8.490  13.946  67.590  1.00  0.00    -0.193 C  
BRANCH  15  16
HETATM   16  C   UNL     1      -7.598  12.750  67.396  1.00  0.00    -0.152 C  
HETATM   17  C   UNL     1      -7.862  11.520  67.863  1.00  0.00    -0.123 C  
BRANCH  17  18
HETATM   18  C   UNL     1      -9.057  11.138  68.687  1.00  0.00    -0.166 C  
BRANCH  18  19
HETATM   19  C   UNL     1     -10.172  10.548  67.828  1.00  0.00    -0.223 C  
BRANCH  19  20
HETATM   20  C   UNL     1     -11.519  11.152  68.225  1.00  0.00    -0.373 C  
BRANCH  20  21
HETATM   21  C   UNL     1     -11.740  12.505  67.556  1.00  0.00    -0.439 C  
BRANCH  21  22
HETATM   22  C   UNL     1     -11.939  13.607  68.593  1.00  0.00    -0.395 C  
BRANCH  22  23
HETATM   23  C   UNL     1     -12.108  13.013  69.989  1.00  0.00    -0.367 C  
BRANCH  23  24
HETATM   24  C   UNL     1     -12.479  14.080  71.015  1.00  0.00    -0.444 C  
HETATM   25  C   UNL     1     -13.304  13.504  72.143  1.00  0.00    -0.500 C  
HETATM   26  O   UNL     1     -13.623  14.439  73.068  1.00  0.00    -0.619 OA 
HETATM   27  O   UNL     1     -13.654  12.343  72.244  1.00  0.00    -0.504 OA 
ENDBRANCH  23  24
ENDBRANCH  22  23
ENDBRANCH  21  22
ENDBRANCH  20  21
ENDBRANCH  19  20
ENDBRANCH  18  19
ENDBRANCH  17  18
ENDBRANCH  15  16
ENDBRANCH  14  15
ENDBRANCH  13  14
ENDBRANCH  12  13
ENDBRANCH  11  12
ENDBRANCH  10  11
ENDBRANCH   6  10
TORSDOF 15
ENDMDL
MODEL        8
REMARK 921   NORMALIZED FREE ENERGY PREDICTED BY IDOCK:   -5.11 KCAL/MOL
REMARK 922        TOTAL FREE ENERGY PREDICTED BY IDOCK:  -11.53 KCAL/MOL
REMARK 923 INTER-LIGAND FREE ENERGY PREDICTED BY IDOCK:   -9.11 KCAL/MOL
REMARK 924 INTRA-LIGAND FREE ENERGY PREDICTED BY IDOCK:   -2.42 KCAL/MOL
REMARK 927      BINDING AFFINITY PREDICTED BY RF-SCORE:    0.00 PKD
ROOT
ATOM      1  N   GLY A   1     -13.002  11.674  62.889  1.00  0.00    -0.792 NA 
HETATM    2  C   UNL     1      -7.519  10.926  67.105  1.00  0.00    -0.109 C  
ATOM      3  H2  GLY A   1     -12.368  11.710  62.091  1.00  0.00     0.000 HD 
ATOM      4  H1  GLY A   1     -13.452  10.763  62.976  1.00  0.00     0.000 HD 
ATOM      5  CA  GLY A   1     -12.327  12.029  64.144  1.00  0.00    -0.350 C  
HETATM    6  C   UNL     1      -7.947   9.502  67.423  1.00  0.00    -0.106 C  
ENDROOT
BRANCH   5   7
ATOM      7  C   GLY A   1     -11.651  13.397  64.013  1.00  0.00    -0.385 C  
ATOM      8  H   GLY A   1     -12.202  15.223  63.562  1.00  0.00     0.000 HD 
ATOM      9  O   GLY A   1     -12.621  14.374  63.643  1.00  0.00    -0.817 OA 
ENDBRANCH   5   7
BRANCH   6  10
HETATM   10  C   UNL     1      -9.066   9.414  68.460  1.00  0.00    -0.131 C  
BRANCH  10  11
HETATM   11  C   UNL     1      -9.783  10.739  68.734  1.00  0.00    -0.197 C  
BRANCH  11  12
HETATM   12  C   UNL     1     -11.090  10.793  67.937  1.00  0.00    -0.369 C  
BRANCH  12  13
HETATM   13  C   UNL     1     -11.637  12.215  67.818  1.00  0.00    -0.410 C  
BRANCH  13  14
HETATM   14  C   UNL     1     -10.535  13.283  67.825  1.00  0.00    -0.242 C  
BRANCH  14  15
HETATM   15  C   UNL     1     -10.615  14.305  68.966  1.00  0.00    -0.243 C  
BRANCH  15  16
HETATM   16  C   UNL     1     -11.938  15.013  69.070  1.00  0.00    -0.298 C  
HETATM   17  C   UNL     1     -12.366  15.670  70.159  1.00  0.00    -0.366 C  
BRANCH  17  18
HETATM   18  C   UNL     1     -11.625  15.777  71.460  1.00  0.00    -0.531 C  
BRANCH  18  19
HETATM   19  C   UNL     1     -12.290  14.956  72.561  1.00  0.00    -0.419 C  
BRANCH  19  20
HETATM   20  C   UNL     1     -13.704  14.555  72.139  1.00  0.00    -0.547 C  
BRANCH  20  21
HETATM   21  C   UNL     1     -13.900  13.045  72.217  1.00  0.00    -0.529 C  
BRANCH  21  22
HETATM   22  C   UNL     1     -12.693  12.301  71.653  1.00  0.00    -0.309 C  
BRANCH  22  23
HETATM   23  C   UNL     1     -13.106  10.941  71.097  1.00  0.00    -0.351 C  
BRANCH  23  24
HETATM   24  C   UNL     1     -12.087   9.858  71.439  1.00  0.00    -0.501 C  
HETATM   25  C   UNL     1     -12.715   8.734  72.232  1.00  0.00    -0.402 C  
HETATM   26  O   UNL     1     -11.823   7.760  72.525  1.00  0.00    -0.335 OA 
HETATM   27  O   UNL     1     -13.880   8.676  72.579  1.00  0.00    -0.374 OA 
ENDBRANCH  23  24
ENDBRANCH  22  23
ENDBRANCH  21  22
ENDBRANCH  20  21
ENDBRANCH  19  20
ENDBRANCH  18  19
ENDBRANCH  17  18
ENDBRANCH  15  16
ENDBRANCH  14  15
ENDBRANCH  13  14
ENDBRANCH  12  13
ENDBRANCH  11  12
ENDBRANCH  10  11
ENDBRANCH   6  10
TORSDOF 15
ENDMDL
MODEL        9
REMARK 921   NORMALIZED FREE ENERGY PREDICTED BY IDOCK:   -5.09 KCAL/MOL
REMARK 922        TOTAL FREE ENERGY PREDICTED BY IDOCK:  -11.51 KCAL/MOL
REMARK 923 INTER-LIGAND FREE ENERGY PREDICTED BY IDOCK:   -9.40 KCAL/MOL
REMARK 924 INTRA-LIGAND FREE ENERGY PREDICTED BY IDOCK:   -2.11 KCAL/MOL
REMARK 927      BINDING AFFINITY PREDICTED BY RF-SCORE:    0.00 PKD
ROOT
ATOM      1  N   GLY A   1      -9.669  20.487  65.980  1.00  0.00    -0.629 NA 
HETATM    2  C   UNL     1     -10.420  14.124  68.692  1.00  0.00    -0.250 C  
ATOM      3  H2  GLY A   1      -8.663  20.422  66.138  1.00  0.00     0.000 HD 
ATOM      4  H1  GLY A   1      -9.912  20.322  65.003  1.00  0.00     0.000 HD 
ATOM      5  CA  GLY A   1     -10.422  19.575  66.851  1.00  0.00    -0.477 C  
HETATM    6  C   UNL     1     -10.815  13.581  67.328  1.00  0.00    -0.285 C  
ENDROOT
BRANCH   5   7
ATOM      7  C   GLY A   1     -10.056  19.823  68.318  1.00  0.00    -0.458 C  
ATOM      8  H   GLY A   1      -8.511  19.497  69.477  1.00  0.00     0.000 HD 
ATOM      9  O   GLY A   1      -8.737  19.344  68.568  1.00  0.00    -0.352 OA 
ENDBRANCH   5   7
BRANCH   6  10
HETATM   10  C   UNL     1     -12.271  13.860  66.954  1.00  0.00    -0.415 C  
BRANCH  10  11
HETATM   11  C   UNL     1     -12.541  13.902  65.448  1.00  0.00    -0.538 C  
BRANCH  11  12
HETATM   12  C   UNL     1     -12.396  12.497  64.857  1.00  0.00    -0.539 C  
BRANCH  12  13
HETATM   13  C   UNL     1     -11.565  12.490  63.574  1.00  0.00    -0.584 C  
BRANCH  13  14
HETATM   14  C   UNL     1     -10.169  11.883  63.770  1.00  0.00    -0.442 C  
BRANCH  14  15
HETATM   15  C   UNL     1     -10.108  10.648  64.677  1.00  0.00    -0.417 C  
BRANCH  15  16
HETATM   16  C   UNL     1      -9.042  10.712  65.737  1.00  0.00    -0.208 C  
HETATM   17  C   UNL     1      -9.138  10.141  66.948  1.00  0.00    -0.160 C  
BRANCH  17  18
HETATM   18  C   UNL     1     -10.328   9.383  67.462  1.00  0.00    -0.314 C  
BRANCH  18  19
HETATM   19  C   UNL     1     -11.361  10.312  68.095  1.00  0.00    -0.233 C  
BRANCH  19  20
HETATM   20  C   UNL     1     -11.014  10.565  69.562  1.00  0.00    -0.312 C  
BRANCH  20  21
HETATM   21  C   UNL     1     -12.240  11.005  70.355  1.00  0.00    -0.461 C  
BRANCH  21  22
HETATM   22  C   UNL     1     -12.463  10.107  71.569  1.00  0.00    -0.526 C  
BRANCH  22  23
HETATM   23  C   UNL     1     -11.247   9.217  71.815  1.00  0.00    -0.451 C  
BRANCH  23  24
HETATM   24  C   UNL     1     -11.600   8.002  72.667  1.00  0.00    -0.448 C  
HETATM   25  C   UNL     1     -11.804   6.767  71.820  1.00  0.00    -0.330 C  
HETATM   26  O   UNL     1     -12.099   5.680  72.569  1.00  0.00    -0.221 OA 
HETATM   27  O   UNL     1     -11.715   6.718  70.607  1.00  0.00    -0.349 OA 
ENDBRANCH  23  24
ENDBRANCH  22  23
ENDBRANCH  21  22
ENDBRANCH  20  21
ENDBRANCH  19  20
ENDBRANCH  18  19
ENDBRANCH  17  18
ENDBRANCH  15  16
ENDBRANCH  14  15
ENDBRANCH  13  14
ENDBRANCH  12  13
ENDBRANCH  11  12
ENDBRANCH  10  11
ENDBRANCH   6  10
TORSDOF 15
ENDMDL
MODEL       10
REMARK 921   NORMALIZED FREE ENERGY PREDICTED BY IDOCK:   -5.06 KCAL/MOL
REMARK 922        TOTAL FREE ENERGY PREDICTED BY IDOCK:  -11.44 KCAL/MOL
REMARK 923 INTER-LIGAND FREE ENERGY PREDICTED BY IDOCK:   -9.00 KCAL/MOL
REMARK 924 INTRA-LIGAND FREE ENERGY PREDICTED BY IDOCK:   -2.44 KCAL/MOL
REMARK 927      BINDING AFFINITY PREDICTED BY RF-SCORE:    0.00 PKD
ROOT
ATOM      1  N   GLY A   1     -10.456  19.794  68.765  1.00  0.00    -0.541 NA 
HETATM    2  C   UNL     1     -12.121  14.507  64.559  1.00  0.00    -0.501 C  
ATOM      3  H2  GLY A   1     -11.132  20.379  68.276  1.00  0.00     0.000 HD 
ATOM      4  H1  GLY A   1     -10.816  19.463  69.660  1.00  0.00     0.000 HD 
ATOM      5  CA  GLY A   1     -10.017  18.658  67.944  1.00  0.00    -0.350 C  
HETATM    6  C   UNL     1     -12.753  13.767  65.727  1.00  0.00    -0.494 C  
ENDROOT
BRANCH   5   7
ATOM      7  C   GLY A   1      -9.477  19.154  66.600  1.00  0.00    -0.344 C  
ATOM      8  H   GLY A   1     -10.215  19.968  64.978  1.00  0.00     0.000 HD 
ATOM      9  O   GLY A   1     -10.551  19.660  65.811  1.00  0.00    -0.522 OA 
ENDBRANCH   5   7
BRANCH   6  10
HETATM   10  C   UNL     1     -11.741  13.055  66.624  1.00  0.00    -0.438 C  
BRANCH  10  11
HETATM   11  C   UNL     1     -11.063  11.844  65.979  1.00  0.00    -0.369 C  
BRANCH  11  12
HETATM   12  C   UNL     1     -10.776  10.784  67.046  1.00  0.00    -0.320 C  
BRANCH  12  13
HETATM   13  C   UNL     1     -10.280  11.397  68.355  1.00  0.00    -0.206 C  
BRANCH  13  14
HETATM   14  C   UNL     1     -11.047  10.886  69.582  1.00  0.00    -0.328 C  
BRANCH  14  15
HETATM   15  C   UNL     1     -12.147  11.818  70.106  1.00  0.00    -0.398 C  
BRANCH  15  16
HETATM   16  C   UNL     1     -12.823  11.331  71.359  1.00  0.00    -0.515 C  
HETATM   17  C   UNL     1     -13.526  12.110  72.196  1.00  0.00    -0.383 C  
BRANCH  17  18
HETATM   18  C   UNL     1     -13.722  13.591  72.050  1.00  0.00    -0.568 C  
BRANCH  18  19
HETATM   19  C   UNL     1     -12.718  14.381  72.886  1.00  0.00    -0.445 C  
BRANCH  19  20
HETATM   20  C   UNL     1     -11.763  15.150  71.973  1.00  0.00    -0.504 C  
BRANCH  20  21
HETATM   21  C   UNL     1     -12.503  15.769  70.791  1.00  0.00    -0.420 C  
BRANCH  21  22
HETATM   22  C   UNL     1     -11.785  15.476  69.476  1.00  0.00    -0.380 C  
BRANCH  22  23
HETATM   23  C   UNL     1     -10.287  15.292  69.707  1.00  0.00    -0.266 C  
BRANCH  23  24
HETATM   24  C   UNL     1      -9.536  15.084  68.395  1.00  0.00    -0.201 C  
HETATM   25  C   UNL     1      -8.050  14.926  68.624  1.00  0.00    -0.151 C  
HETATM   26  O   UNL     1      -7.377  14.722  67.468  1.00  0.00    -0.175 OA 
HETATM   27  O   UNL     1      -7.491  14.967  69.704  1.00  0.00    -0.180 OA 
ENDBRANCH  23  24
ENDBRANCH  22  23
ENDBRANCH  21  22
ENDBRANCH  20  21
ENDBRANCH  19  20
ENDBRANCH  18  19
ENDBRANCH  17  18
ENDBRANCH  15  16
ENDBRANCH  14  15
ENDBRANCH  13  14
ENDBRANCH  12  13
ENDBRANCH  11  12
ENDBRANCH  10  11
ENDBRANCH   6  10
TORSDOF 15
ENDMDL
MODEL       11
REMARK 921   NORMALIZED FREE ENERGY PREDICTED BY IDOCK:   -5.04 KCAL/MOL
REMARK 922        TOTAL FREE ENERGY PREDICTED BY IDOCK:  -11.41 KCAL/MOL
REMARK 923 INTER-LIGAND FREE ENERGY PREDICTED BY IDOCK:   -8.86 KCAL/MOL
REMARK 924 INTRA-LIGAND FREE ENERGY PREDICTED BY IDOCK:   -2.55 KCAL/MOL
REMARK 927      BINDING AFFINITY PREDICTED BY RF-SCORE:    0.00 PKD
ROOT
ATOM      1  N   GLY A   1     -14.409  15.358  71.264  1.00  0.00    -0.763 NA 
HETATM    2  C   UNL     1      -9.191  18.328  67.747  1.00  0.00    -0.276 C  
ATOM      3  H2  GLY A   1     -14.579  16.246  71.735  1.00  0.00     0.000 HD 
ATOM      4  H1  GLY A   1     -15.084  15.186  70.520  1.00  0.00     0.000 HD 
ATOM      5  CA  GLY A   1     -13.040  15.270  70.737  1.00  0.00    -0.414 C  
HETATM    6  C   UNL     1      -9.985  18.211  66.455  1.00  0.00    -0.374 C  
ENDROOT
BRANCH   5   7
ATOM      7  C   GLY A   1     -12.026  15.528  71.855  1.00  0.00    -0.427 C  
ATOM      8  H   GLY A   1     -12.049  16.315  73.649  1.00  0.00     0.000 HD 
ATOM      9  O   GLY A   1     -12.678  16.155  72.956  1.00  0.00    -0.453 OA 
ENDBRANCH   5   7
BRANCH   6  10
HETATM   10  C   UNL     1      -9.939  16.817  65.830  1.00  0.00    -0.242 C  
BRANCH  10  11
HETATM   11  C   UNL     1      -8.887  15.885  66.434  1.00  0.00    -0.368 C  
BRANCH  11  12
HETATM   12  C   UNL     1      -9.537  14.554  66.823  1.00  0.00    -0.274 C  
BRANCH  12  13
HETATM   13  C   UNL     1     -10.588  14.720  67.919  1.00  0.00    -0.248 C  
BRANCH  13  14
HETATM   14  C   UNL     1     -12.014  14.429  67.429  1.00  0.00    -0.407 C  
BRANCH  14  15
HETATM   15  C   UNL     1     -12.143  13.276  66.426  1.00  0.00    -0.454 C  
BRANCH  15  16
HETATM   16  C   UNL     1     -12.406  13.715  65.011  1.00  0.00    -0.462 C  
HETATM   17  C   UNL     1     -11.689  13.322  63.947  1.00  0.00    -0.486 C  
BRANCH  17  18
HETATM   18  C   UNL     1     -10.490  12.421  63.988  1.00  0.00    -0.443 C  
BRANCH  18  19
HETATM   19  C   UNL     1     -10.870  10.986  64.345  1.00  0.00    -0.263 C  
BRANCH  19  20
HETATM   20  C   UNL     1      -9.721  10.306  65.087  1.00  0.00    -0.364 C  
BRANCH  20  21
HETATM   21  C   UNL     1      -9.539  10.890  66.485  1.00  0.00    -0.224 C  
BRANCH  21  22
HETATM   22  C   UNL     1     -10.530  10.279  67.472  1.00  0.00    -0.293 C  
BRANCH  22  23
HETATM   23  C   UNL     1     -10.381  10.914  68.852  1.00  0.00    -0.222 C  
BRANCH  23  24
HETATM   24  C   UNL     1     -11.735  11.264  69.461  1.00  0.00    -0.415 C  
HETATM   25  C   UNL     1     -12.066  10.369  70.633  1.00  0.00    -0.348 C  
HETATM   26  O   UNL     1     -13.258  10.685  71.192  1.00  0.00    -0.345 OA 
HETATM   27  O   UNL     1     -11.367   9.468  71.056  1.00  0.00    -0.292 OA 
ENDBRANCH  23  24
ENDBRANCH  22  23
ENDBRANCH  21  22
ENDBRANCH  20  21
ENDBRANCH  19  20
ENDBRANCH  18  19
ENDBRANCH  17  18
ENDBRANCH  15  16
ENDBRANCH  14  15
ENDBRANCH  13  14
ENDBRANCH  12  13
ENDBRANCH  11  12
ENDBRANCH  10  11
ENDBRANCH   6  10
TORSDOF 15
ENDMDL
MODEL       12
REMARK 921   NORMALIZED FREE ENERGY PREDICTED BY IDOCK:   -5.02 KCAL/MOL
REMARK 922        TOTAL FREE ENERGY PREDICTED BY IDOCK:  -11.37 KCAL/MOL
REMARK 923 INTER-LIGAND FREE ENERGY PREDICTED BY IDOCK:   -9.34 KCAL/MOL
REMARK 924 INTRA-LIGAND FREE ENERGY PREDICTED BY IDOCK:   -2.03 KCAL/MOL
REMARK 927      BINDING AFFINITY PREDICTED BY RF-SCORE:    0.00 PKD
ROOT
ATOM      1  N   GLY A   1     -12.618  12.551  63.156  1.00  0.00    -0.756 NA 
HETATM    2  C   UNL     1      -7.914  13.030  68.260  1.00  0.00    -0.151 C  
ATOM      3  H2  GLY A   1     -12.122  13.283  62.648  1.00  0.00     0.000 HD 
ATOM      4  H1  GLY A   1     -12.417  11.624  62.780  1.00  0.00     0.000 HD 
ATOM      5  CA  GLY A   1     -12.328  12.588  64.595  1.00  0.00    -0.474 C  
HETATM    6  C   UNL     1      -7.388  11.646  67.915  1.00  0.00    -0.096 C  
ENDROOT
BRANCH   5   7
ATOM      7  C   GLY A   1     -12.630  13.980  65.160  1.00  0.00    -0.428 C  
ATOM      8  H   GLY A   1     -12.629  14.835  66.923  1.00  0.00     0.000 HD 
ATOM      9  O   GLY A   1     -12.442  13.972  66.573  1.00  0.00    -0.442 OA 
ENDBRANCH   5   7
BRANCH   6  10
HETATM   10  C   UNL     1      -8.239  10.507  68.474  1.00  0.00    -0.123 C  
BRANCH  10  11
HETATM   11  C   UNL     1      -9.446  10.134  67.610  1.00  0.00    -0.166 C  
BRANCH  11  12
HETATM   12  C   UNL     1     -10.621   9.735  68.507  1.00  0.00    -0.252 C  
BRANCH  12  13
HETATM   13  C   UNL     1     -11.595  10.891  68.735  1.00  0.00    -0.378 C  
BRANCH  13  14
HETATM   14  C   UNL     1     -12.088  10.980  70.186  1.00  0.00    -0.438 C  
BRANCH  14  15
HETATM   15  C   UNL     1     -12.376  12.396  70.698  1.00  0.00    -0.367 C  
BRANCH  15  16
HETATM   16  C   UNL     1     -13.277  12.447  71.901  1.00  0.00    -0.486 C  
HETATM   17  C   UNL     1     -13.907  13.550  72.334  1.00  0.00    -0.687 C  
BRANCH  17  18
HETATM   18  C   UNL     1     -13.790  14.917  71.725  1.00  0.00    -0.556 C  
BRANCH  18  19
HETATM   19  C   UNL     1     -12.707  15.751  72.406  1.00  0.00    -0.537 C  
BRANCH  19  20
HETATM   20  C   UNL     1     -11.489  15.878  71.492  1.00  0.00    -0.484 C  
BRANCH  20  21
HETATM   21  C   UNL     1     -11.878  15.739  70.024  1.00  0.00    -0.365 C  
BRANCH  21  22
HETATM   22  C   UNL     1     -10.728  15.168  69.200  1.00  0.00    -0.253 C  
BRANCH  22  23
HETATM   23  C   UNL     1      -9.844  16.287  68.655  1.00  0.00    -0.230 C  
BRANCH  23  24
HETATM   24  C   UNL     1     -10.536  17.058  67.536  1.00  0.00    -0.310 C  
HETATM   25  C   UNL     1     -10.096  16.576  66.172  1.00  0.00    -0.348 C  
HETATM   26  O   UNL     1     -10.719  17.242  65.172  1.00  0.00    -0.687 OA 
HETATM   27  O   UNL     1      -9.285  15.694  65.961  1.00  0.00    -0.329 OA 
ENDBRANCH  23  24
ENDBRANCH  22  23
ENDBRANCH  21  22
ENDBRANCH  20  21
ENDBRANCH  19  20
ENDBRANCH  18  19
ENDBRANCH  17  18
ENDBRANCH  15  16
ENDBRANCH  14  15
ENDBRANCH  13  14
ENDBRANCH  12  13
ENDBRANCH  11  12
ENDBRANCH  10  11
ENDBRANCH   6  10
TORSDOF 15
ENDMDL
MODEL       13
REMARK 921   NORMALIZED FREE ENERGY PREDICTED BY IDOCK:   -5.02 KCAL/MOL
REMARK 922        TOTAL FREE ENERGY PREDICTED BY IDOCK:  -11.36 KCAL/MOL
REMARK 923 INTER-LIGAND FREE ENERGY PREDICTED BY IDOCK:   -8.99 KCAL/MOL
REMARK 924 INTRA-LIGAND FREE ENERGY PREDICTED BY IDOCK:   -2.37 KCAL/MOL
REMARK 927      BINDING AFFINITY PREDICTED BY RF-SCORE:    0.00 PKD
ROOT
ATOM      1  N   GLY A   1      -8.435  17.822  65.849  1.00  0.00    -0.525 NA 
HETATM    2  C   UNL     1      -8.164  10.872  66.041  1.00  0.00    -0.155 C  
ATOM      3  H2  GLY A   1      -7.436  17.842  65.647  1.00  0.00     0.000 HD 
ATOM      4  H1  GLY A   1      -8.996  17.981  65.012  1.00  0.00     0.000 HD 
ATOM      5  CA  GLY A   1      -8.838  16.568  66.499  1.00  0.00    -0.282 C  
HETATM    6  C   UNL     1      -8.997  10.797  64.771  1.00  0.00    -0.194 C  
ENDROOT
BRANCH   5   7
ATOM      7  C   GLY A   1      -7.996  16.329  67.756  1.00  0.00    -0.142 C  
ATOM      8  H   GLY A   1      -7.454  17.365  69.328  1.00  0.00     0.000 HD 
ATOM      9  O   GLY A   1      -7.976  17.513  68.549  1.00  0.00    -0.255 OA 
ENDBRANCH   5   7
BRANCH   6  10
HETATM   10  C   UNL     1     -10.495  10.989  65.006  1.00  0.00    -0.344 C  
BRANCH  10  11
HETATM   11  C   UNL     1     -11.064  12.290  64.437  1.00  0.00    -0.381 C  
BRANCH  11  12
HETATM   12  C   UNL     1     -12.438  12.567  65.054  1.00  0.00    -0.494 C  
BRANCH  12  13
HETATM   13  C   UNL     1     -12.573  14.005  65.550  1.00  0.00    -0.543 C  
BRANCH  13  14
HETATM   14  C   UNL     1     -11.694  14.300  66.774  1.00  0.00    -0.424 C  
BRANCH  14  15
HETATM   15  C   UNL     1     -11.789  13.280  67.915  1.00  0.00    -0.388 C  
BRANCH  15  16
HETATM   16  C   UNL     1     -10.461  12.755  68.387  1.00  0.00    -0.253 C  
HETATM   17  C   UNL     1     -10.274  11.549  68.946  1.00  0.00    -0.166 C  
BRANCH  17  18
HETATM   18  C   UNL     1     -11.352  10.544  69.230  1.00  0.00    -0.325 C  
BRANCH  18  19
HETATM   19  C   UNL     1     -11.473  10.248  70.723  1.00  0.00    -0.438 C  
BRANCH  19  20
HETATM   20  C   UNL     1     -12.738  10.893  71.287  1.00  0.00    -0.542 C  
BRANCH  20  21
HETATM   21  C   UNL     1     -12.562  12.397  71.470  1.00  0.00    -0.250 C  
BRANCH  21  22
HETATM   22  C   UNL     1     -13.750  13.007  72.209  1.00  0.00    -0.608 C  
BRANCH  22  23
HETATM   23  C   UNL     1     -13.839  14.508  71.945  1.00  0.00    -0.545 C  
BRANCH  23  24
HETATM   24  C   UNL     1     -12.908  14.938  70.816  1.00  0.00    -0.428 C  
HETATM   25  C   UNL     1     -11.934  16.000  71.272  1.00  0.00    -0.424 C  
HETATM   26  O   UNL     1     -11.091  16.376  70.282  1.00  0.00    -0.359 OA 
HETATM   27  O   UNL     1     -11.880  16.480  72.389  1.00  0.00    -0.532 OA 
ENDBRANCH  23  24
ENDBRANCH  22  23
ENDBRANCH  21  22
ENDBRANCH  20  21
ENDBRANCH  19  20
ENDBRANCH  18  19
ENDBRANCH  17  18
ENDBRANCH  15  16
ENDBRANCH  14  15
ENDBRANCH  13  14
ENDBRANCH  12  13
ENDBRANCH  11  12
ENDBRANCH  10  11
ENDBRANCH   6  10
TORSDOF 15
ENDMDL
MODEL       14
REMARK 921   NORMALIZED FREE ENERGY PREDICTED BY IDOCK:   -5.00 KCAL/MOL
REMARK 922        TOTAL FREE ENERGY PREDICTED BY IDOCK:  -11.33 KCAL/MOL
REMARK 923 INTER-LIGAND FREE ENERGY PREDICTED BY IDOCK:  -10.34 KCAL/MOL
REMARK 924 INTRA-LIGAND FREE ENERGY PREDICTED BY IDOCK:   -0.98 KCAL/MOL
REMARK 927      BINDING AFFINITY PREDICTED BY RF-SCORE:    0.00 PKD
ROOT
ATOM      1  N   GLY A   1     -10.182  13.304  64.092  1.00  0.00    -0.724 NA 
HETATM    2  C   UNL     1     -10.659  19.788  66.570  1.00  0.00    -0.580 C  
ATOM      3  H2  GLY A   1      -9.972  13.686  63.170  1.00  0.00     0.000 HD 
ATOM      4  H1  GLY A   1      -9.344  12.966  64.564  1.00  0.00     0.000 HD 
ATOM      5  CA  GLY A   1     -10.887  14.274  64.940  1.00  0.00    -0.416 C  
HETATM    6  C   UNL     1      -9.399  19.574  67.394  1.00  0.00    -0.405 C  
ENDROOT
BRANCH   5   7
ATOM      7  C   GLY A   1     -12.146  14.781  64.231  1.00  0.00    -0.394 C  
ATOM      8  H   GLY A   1     -12.750  16.462  63.423  1.00  0.00     0.000 HD 
ATOM      9  O   GLY A   1     -11.969  16.147  63.863  1.00  0.00    -0.947 OA 
ENDBRANCH   5   7
BRANCH   6  10
HETATM   10  C   UNL     1      -9.637  18.799  68.690  1.00  0.00    -0.432 C  
BRANCH  10  11
HETATM   11  C   UNL     1      -9.531  17.279  68.549  1.00  0.00    -0.285 C  
BRANCH  11  12
HETATM   12  C   UNL     1     -10.868  16.630  68.920  1.00  0.00    -0.321 C  
BRANCH  12  13
HETATM   13  C   UNL     1     -10.790  15.848  70.230  1.00  0.00    -0.349 C  
BRANCH  13  14
HETATM   14  C   UNL     1     -12.035  16.029  71.109  1.00  0.00    -0.443 C  
BRANCH  14  15
HETATM   15  C   UNL     1     -12.054  15.203  72.402  1.00  0.00    -0.478 C  
BRANCH  15  16
HETATM   16  C   UNL     1     -13.164  14.189  72.470  1.00  0.00    -0.596 C  
HETATM   17  C   UNL     1     -13.284  13.136  71.647  1.00  0.00    -0.435 C  
BRANCH  17  18
HETATM   18  C   UNL     1     -12.368  12.815  70.503  1.00  0.00    -0.355 C  
BRANCH  18  19
HETATM   19  C   UNL     1     -12.004  11.332  70.466  1.00  0.00    -0.467 C  
BRANCH  19  20
HETATM   20  C   UNL     1     -12.931  10.540  71.388  1.00  0.00    -0.542 C  
BRANCH  20  21
HETATM   21  C   UNL     1     -12.235   9.303  71.946  1.00  0.00    -0.448 C  
BRANCH  21  22
HETATM   22  C   UNL     1     -10.759   9.277  71.558  1.00  0.00    -0.425 C  
BRANCH  22  23
HETATM   23  C   UNL     1     -10.406   7.966  70.859  1.00  0.00    -0.215 C  
BRANCH  23  24
HETATM   24  C   UNL     1     -10.495   8.095  69.342  1.00  0.00    -0.223 C  
HETATM   25  C   UNL     1     -10.896   6.788  68.695  1.00  0.00    -0.224 C  
HETATM   26  O   UNL     1     -10.995   6.897  67.350  1.00  0.00    -0.307 OA 
HETATM   27  O   UNL     1     -11.116   5.746  69.283  1.00  0.00    -0.333 OA 
ENDBRANCH  23  24
ENDBRANCH  22  23
ENDBRANCH  21  22
ENDBRANCH  20  21
ENDBRANCH  19  20
ENDBRANCH  18  19
ENDBRANCH  17  18
ENDBRANCH  15  16
ENDBRANCH  14  15
ENDBRANCH  13  14
ENDBRANCH  12  13
ENDBRANCH  11  12
ENDBRANCH  10  11
ENDBRANCH   6  10
TORSDOF 15
ENDMDL
MODEL       15
REMARK 921   NORMALIZED FREE ENERGY PREDICTED BY IDOCK:   -4.98 KCAL/MOL
REMARK 922        TOTAL FREE ENERGY PREDICTED BY IDOCK:  -11.30 KCAL/MOL
REMARK 923 INTER-LIGAND FREE ENERGY PREDICTED BY IDOCK:   -8.61 KCAL/MOL
REMARK 924 INTRA-LIGAND FREE ENERGY PREDICTED BY IDOCK:   -2.68 KCAL/MOL
REMARK 927      BINDING AFFINITY PREDICTED BY RF-SCORE:    0.00 PKD
ROOT
ATOM      1  N   GLY A   1     -14.118  15.477  71.168  1.00  0.00    -0.785 NA 
HETATM    2  C   UNL     1     -11.097  15.410  64.900  1.00  0.00    -0.435 C  
ATOM      3  H2  GLY A   1     -14.285  16.478  71.062  1.00  0.00     0.000 HD 
ATOM      4  H1  GLY A   1     -14.961  14.930  70.994  1.00  0.00     0.000 HD 
ATOM      5  CA  GLY A   1     -13.023  15.010  70.308  1.00  0.00    -0.167 C  
HETATM    6  C   UNL     1     -12.247  14.583  64.347  1.00  0.00    -0.480 C  
ENDROOT
BRANCH   5   7
ATOM      7  C   GLY A   1     -11.757  15.831  70.569  1.00  0.00    -0.377 C  
ATOM      8  H   GLY A   1     -10.983  16.820  72.074  1.00  0.00     0.000 HD 
ATOM      9  O   GLY A   1     -11.768  16.310  71.912  1.00  0.00    -0.491 OA 
ENDBRANCH   5   7
BRANCH   6  10
HETATM   10  C   UNL     1     -12.149  13.095  64.680  1.00  0.00    -0.462 C  
BRANCH  10  11
HETATM   11  C   UNL     1     -12.090  12.174  63.459  1.00  0.00    -0.649 C  
BRANCH  11  12
HETATM   12  C   UNL     1     -10.732  11.469  63.409  1.00  0.00    -0.444 C  
BRANCH  12  13
HETATM   13  C   UNL     1      -9.963  11.595  64.723  1.00  0.00    -0.292 C  
BRANCH  13  14
HETATM   14  C   UNL     1      -9.712  10.242  65.402  1.00  0.00    -0.340 C  
BRANCH  14  15
HETATM   15  C   UNL     1      -9.852  10.234  66.929  1.00  0.00    -0.244 C  
BRANCH  15  16
HETATM   16  C   UNL     1     -11.214  10.634  67.427  1.00  0.00    -0.280 C  
HETATM   17  C   UNL     1     -11.457  11.701  68.204  1.00  0.00    -0.382 C  
BRANCH  17  18
HETATM   18  C   UNL     1     -10.419  12.644  68.739  1.00  0.00    -0.167 C  
BRANCH  18  19
HETATM   19  C   UNL     1     -10.160  13.805  67.781  1.00  0.00    -0.245 C  
BRANCH  19  20
HETATM   20  C   UNL     1      -8.943  14.606  68.243  1.00  0.00    -0.184 C  
BRANCH  20  21
HETATM   21  C   UNL     1      -7.972  14.854  67.093  1.00  0.00    -0.227 C  
BRANCH  21  22
HETATM   22  C   UNL     1      -7.413  16.274  67.139  1.00  0.00    -0.238 C  
BRANCH  22  23
HETATM   23  C   UNL     1      -8.364  17.253  66.454  1.00  0.00    -0.315 C  
BRANCH  23  24
HETATM   24  C   UNL     1      -8.582  18.507  67.294  1.00  0.00    -0.268 C  
HETATM   25  C   UNL     1      -9.949  18.513  67.942  1.00  0.00    -0.346 C  
HETATM   26  O   UNL     1     -10.144  19.613  68.704  1.00  0.00    -0.428 OA 
HETATM   27  O   UNL     1     -10.794  17.647  67.819  1.00  0.00    -0.367 OA 
ENDBRANCH  23  24
ENDBRANCH  22  23
ENDBRANCH  21  22
ENDBRANCH  20  21
ENDBRANCH  19  20
ENDBRANCH  18  19
ENDBRANCH  17  18
ENDBRANCH  15  16
ENDBRANCH  14  15
ENDBRANCH  13  14
ENDBRANCH  12  13
ENDBRANCH  11  12
ENDBRANCH  10  11
ENDBRANCH   6  10
TORSDOF 15
ENDMDL
MODEL       16
REMARK 921   NORMALIZED FREE ENERGY PREDICTED BY IDOCK:   -4.97 KCAL/MOL
REMARK 922        TOTAL FREE ENERGY PREDICTED BY IDOCK:  -11.27 KCAL/MOL
REMARK 923 INTER-LIGAND FREE ENERGY PREDICTED BY IDOCK:  -10.28 KCAL/MOL
REMARK 924 INTRA-LIGAND FREE ENERGY PREDICTED BY IDOCK:   -1.00 KCAL/MOL
REMARK 927      BINDING AFFINITY PREDICTED BY RF-SCORE:    0.00 PKD
ROOT
ATOM      1  N   GLY A   1     -10.166  13.185  64.019  1.00  0.00    -0.725 NA 
HETATM    2  C   UNL     1     -10.887  19.541  66.756  1.00  0.00    -0.500 C  
ATOM      3  H2  GLY A   1     -10.047  13.608  63.099  1.00  0.00     0.000 HD 
ATOM      4  H1  GLY A   1      -9.275  12.890  64.420  1.00  0.00     0.000 HD 
ATOM      5  CA  GLY A   1     -10.870  14.078  64.948  1.00  0.00    -0.410 C  
HETATM    6  C   UNL     1      -9.560  19.387  67.483  1.00  0.00    -0.415 C  
ENDROOT
BRANCH   5   7
ATOM      7  C   GLY A   1     -12.207  14.521  64.346  1.00  0.00    -0.458 C  
ATOM      8  H   GLY A   1     -13.334  13.994  62.833  1.00  0.00     0.000 HD 
ATOM      9  O   GLY A   1     -12.505  13.719  63.206  1.00  0.00    -0.819 OA 
ENDBRANCH   5   7
BRANCH   6  10
HETATM   10  C   UNL     1      -9.654  18.558  68.764  1.00  0.00    -0.365 C  
BRANCH  10  11
HETATM   11  C   UNL     1      -9.693  17.044  68.538  1.00  0.00    -0.282 C  
BRANCH  11  12
HETATM   12  C   UNL     1     -11.019  16.479  69.055  1.00  0.00    -0.306 C  
BRANCH  12  13
HETATM   13  C   UNL     1     -10.848  15.693  70.354  1.00  0.00    -0.358 C  
BRANCH  13  14
HETATM   14  C   UNL     1     -11.918  16.030  71.402  1.00  0.00    -0.507 C  
BRANCH  14  15
HETATM   15  C   UNL     1     -11.915  15.145  72.655  1.00  0.00    -0.486 C  
BRANCH  15  16
HETATM   16  C   UNL     1     -13.169  14.336  72.842  1.00  0.00    -0.593 C  
HETATM   17  C   UNL     1     -13.529  13.300  72.068  1.00  0.00    -0.596 C  
BRANCH  17  18
HETATM   18  C   UNL     1     -12.773  12.802  70.871  1.00  0.00    -0.277 C  
BRANCH  18  19
HETATM   19  C   UNL     1     -12.333  11.350  71.041  1.00  0.00    -0.448 C  
BRANCH  19  20
HETATM   20  C   UNL     1     -13.254  10.633  72.028  1.00  0.00    -0.473 C  
BRANCH  20  21
HETATM   21  C   UNL     1     -13.465   9.175  71.632  1.00  0.00    -0.452 C  
BRANCH  21  22
HETATM   22  C   UNL     1     -12.140   8.498  71.294  1.00  0.00    -0.323 C  
BRANCH  22  23
HETATM   23  C   UNL     1     -11.263   8.374  72.538  1.00  0.00    -0.406 C  
BRANCH  23  24
HETATM   24  C   UNL     1      -9.819   8.775  72.251  1.00  0.00    -0.295 C  
HETATM   25  C   UNL     1      -8.869   8.208  73.282  1.00  0.00    -0.256 C  
HETATM   26  O   UNL     1      -7.583   8.543  73.026  1.00  0.00    -0.306 OA 
HETATM   27  O   UNL     1      -9.186   7.525  74.237  1.00  0.00    -0.216 OA 
ENDBRANCH  23  24
ENDBRANCH  22  23
ENDBRANCH  21  22
ENDBRANCH  20  21
ENDBRANCH  19  20
ENDBRANCH  18  19
ENDBRANCH  17  18
ENDBRANCH  15  16
ENDBRANCH  14  15
ENDBRANCH  13  14
ENDBRANCH  12  13
ENDBRANCH  11  12
ENDBRANCH  10  11
ENDBRANCH   6  10
TORSDOF 15
ENDMDL
MODEL       17
REMARK 921   NORMALIZED FREE ENERGY PREDICTED BY IDOCK:   -4.96 KCAL/MOL
REMARK 922        TOTAL FREE ENERGY PREDICTED BY IDOCK:  -11.26 KCAL/MOL
REMARK 923 INTER-LIGAND FREE ENERGY PREDICTED BY IDOCK:   -9.19 KCAL/MOL
REMARK 924 INTRA-LIGAND FREE ENERGY PREDICTED BY IDOCK:   -2.06 KCAL/MOL
REMARK 927      BINDING AFFINITY PREDICTED BY RF-SCORE:    0.00 PKD
ROOT
ATOM      1  N   GLY A   1     -11.779  16.261  63.721  1.00  0.00    -1.488 NA 
HETATM    2  C   UNL     1      -8.059  10.891  66.114  1.00  0.00    -0.160 C  
ATOM      3  H2  GLY A   1     -10.970  16.563  63.177  1.00  0.00     0.000 HD 
ATOM      4  H1  GLY A   1     -12.471  15.787  63.141  1.00  0.00     0.000 HD 
ATOM      5  CA  GLY A   1     -11.393  15.407  64.852  1.00  0.00    -0.363 C  
HETATM    6  C   UNL     1      -8.937   9.925  65.334  1.00  0.00    -0.220 C  
ENDROOT
BRANCH   5   7
ATOM      7  C   GLY A   1     -10.353  16.119  65.722  1.00  0.00    -0.378 C  
ATOM      8  H   GLY A   1      -9.700  17.952  65.953  1.00  0.00     0.000 HD 
ATOM      9  O   GLY A   1     -10.345  17.510  65.413  1.00  0.00    -0.629 OA 
ENDBRANCH   5   7
BRANCH   6  10
HETATM   10  C   UNL     1     -10.271   9.620  66.015  1.00  0.00    -0.255 C  
BRANCH  10  11
HETATM   11  C   UNL     1     -10.158   9.252  67.496  1.00  0.00    -0.273 C  
BRANCH  11  12
HETATM   12  C   UNL     1     -10.835  10.328  68.349  1.00  0.00    -0.288 C  
BRANCH  12  13
HETATM   13  C   UNL     1     -11.765  11.219  67.528  1.00  0.00    -0.166 C  
BRANCH  13  14
HETATM   14  C   UNL     1     -11.374  12.703  67.583  1.00  0.00    -0.362 C  
BRANCH  14  15
HETATM   15  C   UNL     1     -10.231  13.048  68.546  1.00  0.00    -0.218 C  
BRANCH  15  16
HETATM   16  C   UNL     1     -10.049  14.522  68.785  1.00  0.00    -0.239 C  
HETATM   17  C   UNL     1     -10.947  15.310  69.396  1.00  0.00    -0.271 C  
BRANCH  17  18
HETATM   18  C   UNL     1     -12.290  14.871  69.903  1.00  0.00    -0.322 C  
BRANCH  18  19
HETATM   19  C   UNL     1     -12.234  14.453  71.370  1.00  0.00    -0.424 C  
BRANCH  19  20
HETATM   20  C   UNL     1     -13.554  13.801  71.782  1.00  0.00    -0.450 C  
BRANCH  20  21
HETATM   21  C   UNL     1     -13.335  12.381  72.296  1.00  0.00    -0.427 C  
BRANCH  21  22
HETATM   22  C   UNL     1     -12.562  11.541  71.284  1.00  0.00    -0.452 C  
BRANCH  22  23
HETATM   23  C   UNL     1     -13.158  10.139  71.177  1.00  0.00    -0.480 C  
BRANCH  23  24
HETATM   24  C   UNL     1     -12.762   9.265  72.363  1.00  0.00    -0.383 C  
HETATM   25  C   UNL     1     -11.705   8.254  71.981  1.00  0.00    -0.346 C  
HETATM   26  O   UNL     1     -11.333   7.487  73.031  1.00  0.00    -0.341 OA 
HETATM   27  O   UNL     1     -11.220   8.121  70.873  1.00  0.00    -0.258 OA 
ENDBRANCH  23  24
ENDBRANCH  22  23
ENDBRANCH  21  22
ENDBRANCH  20  21
ENDBRANCH  19  20
ENDBRANCH  18  19
ENDBRANCH  17  18
ENDBRANCH  15  16
ENDBRANCH  14  15
ENDBRANCH  13  14
ENDBRANCH  12  13
ENDBRANCH  11  12
ENDBRANCH  10  11
ENDBRANCH   6  10
TORSDOF 15
ENDMDL
MODEL       18
REMARK 921   NORMALIZED FREE ENERGY PREDICTED BY IDOCK:   -4.93 KCAL/MOL
REMARK 922        TOTAL FREE ENERGY PREDICTED BY IDOCK:  -11.21 KCAL/MOL
REMARK 923 INTER-LIGAND FREE ENERGY PREDICTED BY IDOCK:   -9.30 KCAL/MOL
REMARK 924 INTRA-LIGAND FREE ENERGY PREDICTED BY IDOCK:   -1.91 KCAL/MOL
REMARK 927      BINDING AFFINITY PREDICTED BY RF-SCORE:    0.00 PKD
ROOT
ATOM      1  N   GLY A   1     -14.240  15.455  71.473  1.00  0.00    -0.527 NA 
HETATM    2  C   UNL     1      -9.379  16.767  66.670  1.00  0.00    -0.274 C  
ATOM      3  H2  GLY A   1     -14.176  16.424  71.783  1.00  0.00     0.000 HD 
ATOM      4  H1  GLY A   1     -15.062  15.294  70.892  1.00  0.00     0.000 HD 
ATOM      5  CA  GLY A   1     -13.026  15.024  70.765  1.00  0.00    -0.389 C  
HETATM    6  C   UNL     1     -10.411  16.592  65.567  1.00  0.00    -0.320 C  
ENDROOT
BRANCH   5   7
ATOM      7  C   GLY A   1     -11.791  15.265  71.638  1.00  0.00    -0.388 C  
ATOM      8  H   GLY A   1     -11.250  16.541  73.024  1.00  0.00     0.000 HD 
ATOM      9  O   GLY A   1     -12.017  16.391  72.483  1.00  0.00    -0.534 OA 
ENDBRANCH   5   7
BRANCH   6  10
HETATM   10  C   UNL     1     -10.704  15.131  65.225  1.00  0.00    -0.422 C  
BRANCH  10  11
HETATM   11  C   UNL     1     -11.736  14.461  66.136  1.00  0.00    -0.384 C  
BRANCH  11  12
HETATM   12  C   UNL     1     -12.652  13.560  65.303  1.00  0.00    -0.517 C  
BRANCH  12  13
HETATM   13  C   UNL     1     -12.203  13.464  63.846  1.00  0.00    -0.478 C  
BRANCH  13  14
HETATM   14  C   UNL     1     -11.735  12.056  63.455  1.00  0.00    -0.566 C  
BRANCH  14  15
HETATM   15  C   UNL     1     -10.226  11.808  63.571  1.00  0.00    -0.483 C  
BRANCH  15  16
HETATM   16  C   UNL     1      -9.862  10.453  64.115  1.00  0.00    -0.379 C  
HETATM   17  C   UNL     1      -9.805  10.149  65.421  1.00  0.00    -0.375 C  
BRANCH  17  18
HETATM   18  C   UNL     1     -10.050  11.106  66.551  1.00  0.00    -0.265 C  
BRANCH  18  19
HETATM   19  C   UNL     1     -10.842  10.456  67.684  1.00  0.00    -0.361 C  
BRANCH  19  20
HETATM   20  C   UNL     1     -11.777  11.479  68.327  1.00  0.00    -0.371 C  
BRANCH  20  21
HETATM   21  C   UNL     1     -11.845  11.296  69.840  1.00  0.00    -0.436 C  
BRANCH  21  22
HETATM   22  C   UNL     1     -10.776  10.322  70.326  1.00  0.00    -0.310 C  
BRANCH  22  23
HETATM   23  C   UNL     1     -11.415   9.060  70.902  1.00  0.00    -0.347 C  
BRANCH  23  24
HETATM   24  C   UNL     1     -10.824   7.797  70.285  1.00  0.00    -0.252 C  
HETATM   25  C   UNL     1     -11.432   6.548  70.883  1.00  0.00    -0.351 C  
HETATM   26  O   UNL     1     -10.927   5.422  70.329  1.00  0.00    -0.225 OA 
HETATM   27  O   UNL     1     -12.280   6.522  71.755  1.00  0.00    -0.344 OA 
ENDBRANCH  23  24
ENDBRANCH  22  23
ENDBRANCH  21  22
ENDBRANCH  20  21
ENDBRANCH  19  20
ENDBRANCH  18  19
ENDBRANCH  17  18
ENDBRANCH  15  16
ENDBRANCH  14  15
ENDBRANCH  13  14
ENDBRANCH  12  13
ENDBRANCH  11  12
ENDBRANCH  10  11
ENDBRANCH   6  10
TORSDOF 15
ENDMDL
MODEL       19
REMARK 921   NORMALIZED FREE ENERGY PREDICTED BY IDOCK:   -4.92 KCAL/MOL
REMARK 922        TOTAL FREE ENERGY PREDICTED BY IDOCK:  -11.18 KCAL/MOL
REMARK 923 INTER-LIGAND FREE ENERGY PREDICTED BY IDOCK:   -9.88 KCAL/MOL
REMARK 924 INTRA-LIGAND FREE ENERGY PREDICTED BY IDOCK:   -1.31 KCAL/MOL
REMARK 927      BINDING AFFINITY PREDICTED BY RF-SCORE:    0.00 PKD
ROOT
ATOM      1  N   GLY A   1      -9.896   8.497  65.841  1.00  0.00    -0.463 NA 
HETATM    2  C   UNL     1     -10.311   8.105  72.775  1.00  0.00    -0.384 C  
ATOM      3  H2  GLY A   1      -8.908   8.733  65.926  1.00  0.00     0.000 HD 
ATOM      4  H1  GLY A   1     -10.032   7.522  65.573  1.00  0.00     0.000 HD 
ATOM      5  CA  GLY A   1     -10.640   8.794  67.072  1.00  0.00    -0.213 C  
HETATM    6  C   UNL     1     -10.528   6.602  72.685  1.00  0.00    -0.237 C  
ENDROOT
BRANCH   5   7
ATOM      7  C   GLY A   1     -10.435  10.257  67.474  1.00  0.00    -0.244 C  
ATOM      8  H   GLY A   1     -11.552  11.725  68.135  1.00  0.00     0.000 HD 
ATOM      9  O   GLY A   1     -11.679  10.818  67.885  1.00  0.00    -0.543 OA 
ENDBRANCH   5   7
BRANCH   6  10
HETATM   10  C   UNL     1     -11.962   6.209  72.332  1.00  0.00    -0.240 C  
BRANCH  10  11
HETATM   11  C   UNL     1     -12.591   7.041  71.212  1.00  0.00    -0.418 C  
BRANCH  11  12
HETATM   12  C   UNL     1     -13.925   7.623  71.688  1.00  0.00    -0.510 C  
BRANCH  12  13
HETATM   13  C   UNL     1     -13.791   9.071  72.158  1.00  0.00    -0.526 C  
BRANCH  13  14
HETATM   14  C   UNL     1     -13.136   9.981  71.111  1.00  0.00    -0.472 C  
BRANCH  14  15
HETATM   15  C   UNL     1     -12.609  11.321  71.640  1.00  0.00    -0.357 C  
BRANCH  15  16
HETATM   16  C   UNL     1     -13.680  12.255  72.133  1.00  0.00    -0.207 C  
HETATM   17  C   UNL     1     -13.580  13.594  72.136  1.00  0.00    -0.632 C  
BRANCH  17  18
HETATM   18  C   UNL     1     -12.381  14.379  71.691  1.00  0.00    -0.415 C  
BRANCH  18  19
HETATM   19  C   UNL     1     -12.488  14.798  70.227  1.00  0.00    -0.393 C  
BRANCH  19  20
HETATM   20  C   UNL     1     -11.643  13.873  69.351  1.00  0.00    -0.350 C  
BRANCH  20  21
HETATM   21  C   UNL     1     -11.734  14.265  67.880  1.00  0.00    -0.394 C  
BRANCH  21  22
HETATM   22  C   UNL     1     -10.417  14.857  67.385  1.00  0.00    -0.255 C  
BRANCH  22  23
HETATM   23  C   UNL     1     -10.071  14.322  65.997  1.00  0.00    -0.333 C  
BRANCH  23  24
HETATM   24  C   UNL     1     -11.191  14.584  64.996  1.00  0.00    -0.384 C  
HETATM   25  C   UNL     1     -11.299  16.053  64.653  1.00  0.00    -0.306 C  
HETATM   26  O   UNL     1     -12.279  16.293  63.751  1.00  0.00    -0.923 OA 
HETATM   27  O   UNL     1     -10.603  16.940  65.110  1.00  0.00    -0.679 OA 
ENDBRANCH  23  24
ENDBRANCH  22  23
ENDBRANCH  21  22
ENDBRANCH  20  21
ENDBRANCH  19  20
ENDBRANCH  18  19
ENDBRANCH  17  18
ENDBRANCH  15  16
ENDBRANCH  14  15
ENDBRANCH  13  14
ENDBRANCH  12  13
ENDBRANCH  11  12
ENDBRANCH  10  11
ENDBRANCH   6  10
TORSDOF 15
ENDMDL
MODEL       20
REMARK 921   NORMALIZED FREE ENERGY PREDICTED BY IDOCK:   -4.92 KCAL/MOL
REMARK 922        TOTAL FREE ENERGY PREDICTED BY IDOCK:  -11.18 KCAL/MOL
REMARK 923 INTER-LIGAND FREE ENERGY PREDICTED BY IDOCK:   -9.19 KCAL/MOL
REMARK 924 INTRA-LIGAND FREE ENERGY PREDICTED BY IDOCK:   -1.99 KCAL/MOL
REMARK 927      BINDING AFFINITY PREDICTED BY RF-SCORE:    0.00 PKD
ROOT
ATOM      1  N   GLY A   1      -6.337  15.640  67.257  1.00  0.00    -0.314 NA 
HETATM    2  C   UNL     1      -9.964  10.445  64.381  1.00  0.00    -0.388 C  
ATOM      3  H2  GLY A   1      -5.475  15.133  67.055  1.00  0.00     0.000 HD 
ATOM      4  H1  GLY A   1      -6.499  16.394  66.590  1.00  0.00     0.000 HD 
ATOM      5  CA  GLY A   1      -7.501  14.746  67.304  1.00  0.00    -0.141 C  
HETATM    6  C   UNL     1     -10.368  11.353  63.231  1.00  0.00    -0.422 C  
ENDROOT
BRANCH   5   7
ATOM      7  C   GLY A   1      -7.258  13.612  68.305  1.00  0.00    -0.111 C  
ATOM      8  H   GLY A   1      -7.192  11.654  68.254  1.00  0.00     0.000 HD 
ATOM      9  O   GLY A   1      -7.343  12.358  67.634  1.00  0.00    -0.109 OA 
ENDBRANCH   5   7
BRANCH   6  10
HETATM   10  C   UNL     1     -11.521  12.297  63.570  1.00  0.00    -0.558 C  
BRANCH  10  11
HETATM   11  C   UNL     1     -11.201  13.324  64.659  1.00  0.00    -0.370 C  
BRANCH  11  12
HETATM   12  C   UNL     1     -12.437  13.550  65.535  1.00  0.00    -0.538 C  
BRANCH  12  13
HETATM   13  C   UNL     1     -12.123  13.422  67.025  1.00  0.00    -0.390 C  
BRANCH  13  14
HETATM   14  C   UNL     1     -10.928  12.502  67.308  1.00  0.00    -0.300 C  
BRANCH  14  15
HETATM   15  C   UNL     1     -11.282  11.052  67.661  1.00  0.00    -0.373 C  
BRANCH  15  16
HETATM   16  C   UNL     1     -10.562  10.517  68.869  1.00  0.00    -0.243 C  
HETATM   17  C   UNL     1     -11.102  10.416  70.094  1.00  0.00    -0.383 C  
BRANCH  17  18
HETATM   18  C   UNL     1     -12.486  10.852  70.475  1.00  0.00    -0.438 C  
BRANCH  18  19
HETATM   19  C   UNL     1     -12.529  12.328  70.864  1.00  0.00    -0.371 C  
BRANCH  19  20
HETATM   20  C   UNL     1     -13.407  12.522  72.099  1.00  0.00    -0.540 C  
BRANCH  20  21
HETATM   21  C   UNL     1     -13.861  13.972  72.237  1.00  0.00    -0.655 C  
BRANCH  21  22
HETATM   22  C   UNL     1     -12.946  14.749  73.179  1.00  0.00    -0.623 C  
BRANCH  22  23
HETATM   23  C   UNL     1     -11.790  15.384  72.410  1.00  0.00    -0.558 C  
BRANCH  23  24
HETATM   24  C   UNL     1     -12.242  15.924  71.057  1.00  0.00    -0.421 C  
HETATM   25  C   UNL     1     -11.181  15.731  69.997  1.00  0.00    -0.342 C  
HETATM   26  O   UNL     1     -11.581  16.191  68.789  1.00  0.00    -0.368 OA 
HETATM   27  O   UNL     1     -10.090  15.222  70.172  1.00  0.00    -0.238 OA 
ENDBRANCH  23  24
ENDBRANCH  22  23
ENDBRANCH  21  22
ENDBRANCH  20  21
ENDBRANCH  19  20
ENDBRANCH  18  19
ENDBRANCH  17  18
ENDBRANCH  15  16
ENDBRANCH  14  15
ENDBRANCH  13  14
ENDBRANCH  12  13
ENDBRANCH  11  12
ENDBRANCH  10  11
ENDBRANCH   6  10
TORSDOF 15
ENDMDL
MODEL       21
REMARK 921   NORMALIZED FREE ENERGY PREDICTED BY IDOCK:   -4.91 KCAL/MOL
REMARK 922        TOTAL FREE ENERGY PREDICTED BY IDOCK:  -11.17 KCAL/MOL
REMARK 923 INTER-LIGAND FREE ENERGY PREDICTED BY IDOCK:   -8.67 KCAL/MOL
REMARK 924 INTRA-LIGAND FREE ENERGY PREDICTED BY IDOCK:   -2.50 KCAL/MOL
REMARK 927      BINDING AFFINITY PREDICTED BY RF-SCORE:    0.00 PKD
ROOT
ATOM      1  N   GLY A   1     -12.301   6.896  70.383  1.00  0.00    -0.604 NA 
HETATM    2  C   UNL     1     -12.397  13.845  70.732  1.00  0.00    -0.449 C  
ATOM      3  H2  GLY A   1     -13.298   6.885  70.596  1.00  0.00     0.000 HD 
ATOM      4  H1  GLY A   1     -12.123   6.744  69.391  1.00  0.00     0.000 HD 
ATOM      5  CA  GLY A   1     -11.659   8.139  70.830  1.00  0.00    -0.267 C  
HETATM    6  C   UNL     1     -12.140  13.931  69.236  1.00  0.00    -0.383 C  
ENDROOT
BRANCH   5   7
ATOM      7  C   GLY A   1     -11.927   8.367  72.321  1.00  0.00    -0.389 C  
ATOM      8  H   GLY A   1     -11.098   7.841  74.016  1.00  0.00     0.000 HD 
ATOM      9  O   GLY A   1     -10.932   7.700  73.092  1.00  0.00    -0.392 OA 
ENDBRANCH   5   7
BRANCH   6  10
HETATM   10  C   UNL     1     -10.675  13.726  68.852  1.00  0.00    -0.249 C  
BRANCH  10  11
HETATM   11  C   UNL     1     -10.351  12.336  68.300  1.00  0.00    -0.227 C  
BRANCH  11  12
HETATM   12  C   UNL     1      -9.093  12.404  67.431  1.00  0.00    -0.183 C  
BRANCH  12  13
HETATM   13  C   UNL     1      -8.695  11.037  66.878  1.00  0.00    -0.148 C  
BRANCH  13  14
HETATM   14  C   UNL     1      -8.793  10.959  65.348  1.00  0.00    -0.192 C  
BRANCH  14  15
HETATM   15  C   UNL     1     -10.179  10.606  64.794  1.00  0.00    -0.401 C  
BRANCH  15  16
HETATM   16  C   UNL     1     -10.632  11.483  63.659  1.00  0.00    -0.491 C  
HETATM   17  C   UNL     1     -11.571  12.436  63.763  1.00  0.00    -0.553 C  
BRANCH  17  18
HETATM   18  C   UNL     1     -12.352  12.759  65.003  1.00  0.00    -0.559 C  
BRANCH  18  19
HETATM   19  C   UNL     1     -12.165  14.213  65.429  1.00  0.00    -0.441 C  
BRANCH  19  20
HETATM   20  C   UNL     1     -10.922  14.801  64.762  1.00  0.00    -0.393 C  
BRANCH  20  21
HETATM   21  C   UNL     1      -9.990  15.440  65.788  1.00  0.00    -0.393 C  
BRANCH  21  22
HETATM   22  C   UNL     1     -10.316  16.917  65.985  1.00  0.00    -0.335 C  
BRANCH  22  23
HETATM   23  C   UNL     1     -10.508  17.237  67.465  1.00  0.00    -0.356 C  
BRANCH  23  24
HETATM   24  C   UNL     1      -9.172  17.435  68.176  1.00  0.00    -0.270 C  
HETATM   25  C   UNL     1      -8.826  18.901  68.311  1.00  0.00    -0.332 C  
HETATM   26  O   UNL     1      -7.652  19.088  68.957  1.00  0.00    -0.330 OA 
HETATM   27  O   UNL     1      -9.501  19.828  67.905  1.00  0.00    -0.331 OA 
ENDBRANCH  23  24
ENDBRANCH  22  23
ENDBRANCH  21  22
ENDBRANCH  20  21
ENDBRANCH  19  20
ENDBRANCH  18  19
ENDBRANCH  17  18
ENDBRANCH  15  16
ENDBRANCH  14  15
ENDBRANCH  13  14
ENDBRANCH  12  13
ENDBRANCH  11  12
ENDBRANCH  10  11
ENDBRANCH   6  10
TORSDOF 15
ENDMDL
MODEL       22
REMARK 921   NORMALIZED FREE ENERGY PREDICTED BY IDOCK:   -4.89 KCAL/MOL
REMARK 922        TOTAL FREE ENERGY PREDICTED BY IDOCK:  -11.12 KCAL/MOL
REMARK 923 INTER-LIGAND FREE ENERGY PREDICTED BY IDOCK:   -9.32 KCAL/MOL
REMARK 924 INTRA-LIGAND FREE ENERGY PREDICTED BY IDOCK:   -1.80 KCAL/MOL
REMARK 927      BINDING AFFINITY PREDICTED BY RF-SCORE:    0.00 PKD
ROOT
ATOM      1  N   GLY A   1     -11.258   4.425  65.012  1.00  0.00    -1.057 NA 
HETATM    2  C   UNL     1     -10.730   5.870  71.798  1.00  0.00    -0.299 C  
ATOM      3  H2  GLY A   1     -11.327   3.434  65.242  1.00  0.00     0.000 HD 
ATOM      4  H1  GLY A   1     -12.167   4.829  64.788  1.00  0.00     0.000 HD 
ATOM      5  CA  GLY A   1     -10.612   5.193  66.085  1.00  0.00    -0.236 C  
HETATM    6  C   UNL     1     -12.094   6.541  71.769  1.00  0.00    -0.393 C  
ENDROOT
BRANCH   5   7
ATOM      7  C   GLY A   1      -9.247   4.588  66.422  1.00  0.00    -0.137 C  
ATOM      8  H   GLY A   1      -7.597   4.163  65.454  1.00  0.00     0.000 HD 
ATOM      9  O   GLY A   1      -8.444   4.539  65.245  1.00  0.00    -0.118 OA 
ENDBRANCH   5   7
BRANCH   6  10
HETATM   10  C   UNL     1     -12.067   7.965  71.214  1.00  0.00    -0.317 C  
BRANCH  10  11
HETATM   11  C   UNL     1     -12.872   8.980  72.030  1.00  0.00    -0.468 C  
BRANCH  11  12
HETATM   12  C   UNL     1     -12.700  10.378  71.430  1.00  0.00    -0.551 C  
BRANCH  12  13
HETATM   13  C   UNL     1     -11.707  10.393  70.268  1.00  0.00    -0.406 C  
BRANCH  13  14
HETATM   14  C   UNL     1     -12.017  11.481  69.231  1.00  0.00    -0.397 C  
BRANCH  14  15
HETATM   15  C   UNL     1     -11.722  12.919  69.675  1.00  0.00    -0.367 C  
BRANCH  15  16
HETATM   16  C   UNL     1     -12.028  13.962  68.636  1.00  0.00    -0.401 C  
HETATM   17  C   UNL     1     -11.107  14.566  67.869  1.00  0.00    -0.290 C  
BRANCH  17  18
HETATM   18  C   UNL     1      -9.625  14.337  67.944  1.00  0.00    -0.221 C  
BRANCH  18  19
HETATM   19  C   UNL     1      -9.098  13.621  66.703  1.00  0.00    -0.189 C  
BRANCH  19  20
HETATM   20  C   UNL     1      -8.915  12.131  66.993  1.00  0.00    -0.201 C  
BRANCH  20  21
HETATM   21  C   UNL     1     -10.036  11.303  66.373  1.00  0.00    -0.252 C  
BRANCH  21  22
HETATM   22  C   UNL     1      -9.761  11.016  64.899  1.00  0.00    -0.303 C  
BRANCH  22  23
HETATM   23  C   UNL     1     -11.022  11.220  64.064  1.00  0.00    -0.377 C  
BRANCH  23  24
HETATM   24  C   UNL     1     -11.132  12.651  63.548  1.00  0.00    -0.449 C  
HETATM   25  C   UNL     1     -12.251  13.404  64.230  1.00  0.00    -0.392 C  
HETATM   26  O   UNL     1     -12.345  14.681  63.792  1.00  0.00    -0.720 OA 
HETATM   27  O   UNL     1     -12.996  12.951  65.078  1.00  0.00    -0.777 OA 
ENDBRANCH  23  24
ENDBRANCH  22  23
ENDBRANCH  21  22
ENDBRANCH  20  21
ENDBRANCH  19  20
ENDBRANCH  18  19
ENDBRANCH  17  18
ENDBRANCH  15  16
ENDBRANCH  14  15
ENDBRANCH  13  14
ENDBRANCH  12  13
ENDBRANCH  11  12
ENDBRANCH  10  11
ENDBRANCH   6  10
TORSDOF 15
ENDMDL
MODEL       23
REMARK 921   NORMALIZED FREE ENERGY PREDICTED BY IDOCK:   -4.87 KCAL/MOL
REMARK 922        TOTAL FREE ENERGY PREDICTED BY IDOCK:  -11.09 KCAL/MOL
REMARK 923 INTER-LIGAND FREE ENERGY PREDICTED BY IDOCK:   -8.96 KCAL/MOL
REMARK 924 INTRA-LIGAND FREE ENERGY PREDICTED BY IDOCK:   -2.13 KCAL/MOL
REMARK 927      BINDING AFFINITY PREDICTED BY RF-SCORE:    0.00 PKD
ROOT
ATOM      1  N   GLY A   1     -13.654  16.300  73.600  1.00  0.00    -0.853 NA 
HETATM    2  C   UNL     1      -9.578  14.101  68.407  1.00  0.00    -0.225 C  
ATOM      3  H2  GLY A   1     -12.869  16.198  74.242  1.00  0.00     0.000 HD 
ATOM      4  H1  GLY A   1     -13.809  17.273  73.339  1.00  0.00     0.000 HD 
ATOM      5  CA  GLY A   1     -13.491  15.472  72.397  1.00  0.00    -0.509 C  
HETATM    6  C   UNL     1      -9.620  15.485  67.778  1.00  0.00    -0.209 C  
ENDROOT
BRANCH   5   7
ATOM      7  C   GLY A   1     -13.258  14.010  72.788  1.00  0.00    -0.481 C  
ATOM      8  H   GLY A   1     -14.251  12.325  72.666  1.00  0.00     0.000 HD 
ATOM      9  O   GLY A   1     -14.395  13.232  72.423  1.00  0.00    -0.574 OA 
ENDBRANCH   5   7
BRANCH   6  10
HETATM   10  C   UNL     1     -10.897  15.762  66.985  1.00  0.00    -0.273 C  
BRANCH  10  11
HETATM   11  C   UNL     1     -10.697  15.846  65.470  1.00  0.00    -0.386 C  
BRANCH  11  12
HETATM   12  C   UNL     1     -11.544  14.775  64.777  1.00  0.00    -0.418 C  
BRANCH  12  13
HETATM   13  C   UNL     1     -12.368  13.955  65.769  1.00  0.00    -0.518 C  
BRANCH  13  14
HETATM   14  C   UNL     1     -12.032  12.458  65.732  1.00  0.00    -0.437 C  
BRANCH  14  15
HETATM   15  C   UNL     1     -10.732  12.093  65.003  1.00  0.00    -0.338 C  
BRANCH  15  16
HETATM   16  C   UNL     1      -9.567  11.825  65.916  1.00  0.00    -0.249 C  
HETATM   17  C   UNL     1      -9.456  10.751  66.714  1.00  0.00    -0.198 C  
BRANCH  17  18
HETATM   18  C   UNL     1     -10.483   9.667  66.863  1.00  0.00    -0.282 C  
BRANCH  18  19
HETATM   19  C   UNL     1     -10.840   9.420  68.327  1.00  0.00    -0.163 C  
BRANCH  19  20
HETATM   20  C   UNL     1     -11.527  10.652  68.916  1.00  0.00    -0.334 C  
BRANCH  20  21
HETATM   21  C   UNL     1     -11.569  10.589  70.440  1.00  0.00    -0.430 C  
BRANCH  21  22
HETATM   22  C   UNL     1     -12.984  10.314  70.942  1.00  0.00    -0.456 C  
BRANCH  22  23
HETATM   23  C   UNL     1     -13.087   8.910  71.531  1.00  0.00    -0.376 C  
BRANCH  23  24
HETATM   24  C   UNL     1     -11.747   8.429  72.079  1.00  0.00    -0.417 C  
HETATM   25  C   UNL     1     -11.231   7.231  71.316  1.00  0.00    -0.256 C  
HETATM   26  O   UNL     1     -10.033   6.808  71.783  1.00  0.00    -0.175 OA 
HETATM   27  O   UNL     1     -11.795   6.688  70.384  1.00  0.00    -0.396 OA 
ENDBRANCH  23  24
ENDBRANCH  22  23
ENDBRANCH  21  22
ENDBRANCH  20  21
ENDBRANCH  19  20
ENDBRANCH  18  19
ENDBRANCH  17  18
ENDBRANCH  15  16
ENDBRANCH  14  15
ENDBRANCH  13  14
ENDBRANCH  12  13
ENDBRANCH  11  12
ENDBRANCH  10  11
ENDBRANCH   6  10
TORSDOF 15
ENDMDL
MODEL       24
REMARK 921   NORMALIZED FREE ENERGY PREDICTED BY IDOCK:   -4.86 KCAL/MOL
REMARK 922        TOTAL FREE ENERGY PREDICTED BY IDOCK:  -11.07 KCAL/MOL
REMARK 923 INTER-LIGAND FREE ENERGY PREDICTED BY IDOCK:   -9.16 KCAL/MOL
REMARK 924 INTRA-LIGAND FREE ENERGY PREDICTED BY IDOCK:   -1.90 KCAL/MOL
REMARK 927      BINDING AFFINITY PREDICTED BY RF-SCORE:    0.00 PKD
ROOT
ATOM      1  N   GLY A   1     -14.170   8.957  72.861  1.00  0.00    -1.123 NA 
HETATM    2  C   UNL     1     -10.780   7.175  67.052  1.00  0.00    -0.420 C  
ATOM      3  H2  GLY A   1     -15.030   9.039  72.318  1.00  0.00     0.000 HD 
ATOM      4  H1  GLY A   1     -14.137   8.086  73.391  1.00  0.00     0.000 HD 
ATOM      5  CA  GLY A   1     -12.975   9.083  72.017  1.00  0.00    -0.407 C  
HETATM    6  C   UNL     1     -10.583   5.766  67.590  1.00  0.00    -0.313 C  
ENDROOT
BRANCH   5   7
ATOM      7  C   GLY A   1     -13.025  10.390  71.220  1.00  0.00    -0.419 C  
ATOM      8  H   GLY A   1     -13.405  12.275  71.595  1.00  0.00     0.000 HD 
ATOM      9  O   GLY A   1     -13.374  11.465  72.089  1.00  0.00    -0.469 OA 
ENDBRANCH   5   7
BRANCH   6  10
HETATM   10  C   UNL     1      -9.433   5.646  68.590  1.00  0.00    -0.152 C  
BRANCH  10  11
HETATM   11  C   UNL     1      -9.873   5.552  70.053  1.00  0.00    -0.262 C  
BRANCH  11  12
HETATM   12  C   UNL     1      -8.983   6.449  70.919  1.00  0.00    -0.144 C  
BRANCH  12  13
HETATM   13  C   UNL     1      -9.708   7.712  71.381  1.00  0.00    -0.183 C  
BRANCH  13  14
HETATM   14  C   UNL     1      -9.038   9.001  70.887  1.00  0.00    -0.309 C  
BRANCH  14  15
HETATM   15  C   UNL     1      -9.773   9.735  69.759  1.00  0.00    -0.256 C  
BRANCH  15  16
HETATM   16  C   UNL     1      -8.943  10.773  69.053  1.00  0.00    -0.141 C  
HETATM   17  C   UNL     1      -9.414  11.623  68.128  1.00  0.00    -0.191 C  
BRANCH  17  18
HETATM   18  C   UNL     1     -10.823  11.658  67.612  1.00  0.00    -0.273 C  
BRANCH  18  19
HETATM   19  C   UNL     1     -11.719  12.550  68.469  1.00  0.00    -0.369 C  
BRANCH  19  20
HETATM   20  C   UNL     1     -10.931  13.759  68.973  1.00  0.00    -0.277 C  
BRANCH  20  21
HETATM   21  C   UNL     1     -11.067  14.945  68.023  1.00  0.00    -0.301 C  
BRANCH  21  22
HETATM   22  C   UNL     1      -9.698  15.482  67.613  1.00  0.00    -0.212 C  
BRANCH  22  23
HETATM   23  C   UNL     1      -9.581  15.558  66.092  1.00  0.00    -0.362 C  
BRANCH  23  24
HETATM   24  C   UNL     1     -10.666  14.739  65.401  1.00  0.00    -0.385 C  
HETATM   25  C   UNL     1     -11.478  15.585  64.446  1.00  0.00    -0.259 C  
HETATM   26  O   UNL     1     -12.432  14.862  63.813  1.00  0.00    -0.768 OA 
HETATM   27  O   UNL     1     -11.317  16.773  64.240  1.00  0.00    -1.170 OA 
ENDBRANCH  23  24
ENDBRANCH  22  23
ENDBRANCH  21  22
ENDBRANCH  20  21
ENDBRANCH  19  20
ENDBRANCH  18  19
ENDBRANCH  17  18
ENDBRANCH  15  16
ENDBRANCH  14  15
ENDBRANCH  13  14
ENDBRANCH  12  13
ENDBRANCH  11  12
ENDBRANCH  10  11
ENDBRANCH   6  10
TORSDOF 15
ENDMDL
MODEL       25
REMARK 921   NORMALIZED FREE ENERGY PREDICTED BY IDOCK:   -4.85 KCAL/MOL
REMARK 922        TOTAL FREE ENERGY PREDICTED BY IDOCK:  -11.06 KCAL/MOL
REMARK 923 INTER-LIGAND FREE ENERGY PREDICTED BY IDOCK:   -9.34 KCAL/MOL
REMARK 924 INTRA-LIGAND FREE ENERGY PREDICTED BY IDOCK:   -1.72 KCAL/MOL
REMARK 927      BINDING AFFINITY PREDICTED BY RF-SCORE:    0.00 PKD
ROOT
ATOM      1  N   GLY A   1     -10.016   6.108  65.903  1.00  0.00    -0.372 NA 
HETATM    2  C   UNL     1     -12.266   8.588  72.002  1.00  0.00    -0.429 C  
ATOM      3  H2  GLY A   1     -10.619   5.295  66.026  1.00  0.00     0.000 HD 
ATOM      4  H1  GLY A   1     -10.416   6.782  65.249  1.00  0.00     0.000 HD 
ATOM      5  CA  GLY A   1      -9.709   6.762  67.181  1.00  0.00    -0.151 C  
HETATM    6  C   UNL     1     -12.984   9.720  71.285  1.00  0.00    -0.470 C  
ENDROOT
BRANCH   5   7
ATOM      7  C   GLY A   1      -9.110   5.751  68.163  1.00  0.00    -0.110 C  
ATOM      8  H   GLY A   1      -9.518   3.931  68.763  1.00  0.00     0.000 HD 
ATOM      9  O   GLY A   1      -9.890   4.558  68.154  1.00  0.00    -0.147 OA 
ENDBRANCH   5   7
BRANCH   6  10
HETATM   10  C   UNL     1     -12.064  10.871  70.879  1.00  0.00    -0.455 C  
BRANCH  10  11
HETATM   11  C   UNL     1     -12.745  12.241  70.834  1.00  0.00    -0.277 C  
BRANCH  11  12
HETATM   12  C   UNL     1     -13.512  12.481  72.137  1.00  0.00    -0.523 C  
BRANCH  12  13
HETATM   13  C   UNL     1     -13.908  13.945  72.317  1.00  0.00    -0.669 C  
BRANCH  13  14
HETATM   14  C   UNL     1     -12.813  14.782  72.994  1.00  0.00    -0.583 C  
BRANCH  14  15
HETATM   15  C   UNL     1     -11.889  15.552  72.042  1.00  0.00    -0.538 C  
BRANCH  15  16
HETATM   16  C   UNL     1     -12.473  15.796  70.677  1.00  0.00    -0.397 C  
HETATM   17  C   UNL     1     -11.793  15.673  69.527  1.00  0.00    -0.387 C  
BRANCH  17  18
HETATM   18  C   UNL     1     -10.340  15.317  69.406  1.00  0.00    -0.255 C  
BRANCH  18  19
HETATM   19  C   UNL     1     -10.141  13.977  68.702  1.00  0.00    -0.217 C  
BRANCH  19  20
HETATM   20  C   UNL     1     -10.525  14.094  67.228  1.00  0.00    -0.272 C  
BRANCH  20  21
HETATM   21  C   UNL     1     -11.584  13.064  66.846  1.00  0.00    -0.419 C  
BRANCH  21  22
HETATM   22  C   UNL     1     -12.475  13.580  65.719  1.00  0.00    -0.514 C  
BRANCH  22  23
HETATM   23  C   UNL     1     -12.625  12.528  64.624  1.00  0.00    -0.507 C  
BRANCH  23  24
HETATM   24  C   UNL     1     -11.505  12.623  63.593  1.00  0.00    -0.563 C  
HETATM   25  C   UNL     1     -10.498  11.508  63.761  1.00  0.00    -0.405 C  
HETATM   26  O   UNL     1      -9.510  11.572  62.839  1.00  0.00    -0.381 OA 
HETATM   27  O   UNL     1     -10.542  10.636  64.609  1.00  0.00    -0.296 OA 
ENDBRANCH  23  24
ENDBRANCH  22  23
ENDBRANCH  21  22
ENDBRANCH  20  21
ENDBRANCH  19  20
ENDBRANCH  18  19
ENDBRANCH  17  18
ENDBRANCH  15  16
ENDBRANCH  14  15
ENDBRANCH  13  14
ENDBRANCH  12  13
ENDBRANCH  11  12
ENDBRANCH  10  11
ENDBRANCH   6  10
TORSDOF 15
ENDMDL
MODEL       26
REMARK 921   NORMALIZED FREE ENERGY PREDICTED BY IDOCK:   -4.85 KCAL/MOL
REMARK 922        TOTAL FREE ENERGY PREDICTED BY IDOCK:  -11.06 KCAL/MOL
REMARK 923 INTER-LIGAND FREE ENERGY PREDICTED BY IDOCK:   -8.94 KCAL/MOL
REMARK 924 INTRA-LIGAND FREE ENERGY PREDICTED BY IDOCK:   -2.12 KCAL/MOL
REMARK 927      BINDING AFFINITY PREDICTED BY RF-SCORE:    0.00 PKD
ROOT
ATOM      1  N   GLY A   1     -11.215   5.433  65.990  1.00  0.00    -0.774 NA 
HETATM    2  C   UNL     1     -12.275   8.406  72.191  1.00  0.00    -0.434 C  
ATOM      3  H2  GLY A   1     -11.820   4.661  66.271  1.00  0.00     0.000 HD 
ATOM      4  H1  GLY A   1     -11.694   6.084  65.368  1.00  0.00     0.000 HD 
ATOM      5  CA  GLY A   1     -10.665   6.150  67.149  1.00  0.00    -0.346 C  
HETATM    6  C   UNL     1     -13.059   9.527  71.528  1.00  0.00    -0.470 C  
ENDROOT
BRANCH   5   7
ATOM      7  C   GLY A   1      -9.947   5.172  68.083  1.00  0.00    -0.145 C  
ATOM      8  H   GLY A   1      -9.457   5.111  69.980  1.00  0.00     0.000 HD 
ATOM      9  O   GLY A   1      -9.902   5.717  69.400  1.00  0.00    -0.152 OA 
ENDBRANCH   5   7
BRANCH   6  10
HETATM   10  C   UNL     1     -12.178  10.600  70.891  1.00  0.00    -0.497 C  
BRANCH  10  11
HETATM   11  C   UNL     1     -12.853  11.965  70.733  1.00  0.00    -0.138 C  
BRANCH  11  12
HETATM   12  C   UNL     1     -13.263  12.501  72.107  1.00  0.00    -0.508 C  
BRANCH  12  13
HETATM   13  C   UNL     1     -13.559  13.999  72.081  1.00  0.00    -0.582 C  
BRANCH  13  14
HETATM   14  C   UNL     1     -12.379  14.851  72.570  1.00  0.00    -0.419 C  
BRANCH  14  15
HETATM   15  C   UNL     1     -11.544  15.515  71.468  1.00  0.00    -0.487 C  
BRANCH  15  16
HETATM   16  C   UNL     1     -12.223  15.568  70.126  1.00  0.00    -0.404 C  
HETATM   17  C   UNL     1     -11.771  14.956  69.020  1.00  0.00    -0.347 C  
BRANCH  17  18
HETATM   18  C   UNL     1     -10.503  14.158  68.922  1.00  0.00    -0.229 C  
BRANCH  18  19
HETATM   19  C   UNL     1     -10.488  13.269  67.681  1.00  0.00    -0.231 C  
BRANCH  19  20
HETATM   20  C   UNL     1      -9.755  13.971  66.539  1.00  0.00    -0.305 C  
BRANCH  20  21
HETATM   21  C   UNL     1     -10.712  14.346  65.412  1.00  0.00    -0.359 C  
BRANCH  21  22
HETATM   22  C   UNL     1     -10.828  15.861  65.268  1.00  0.00    -0.401 C  
BRANCH  22  23
HETATM   23  C   UNL     1      -9.833  16.569  66.183  1.00  0.00    -0.355 C  
BRANCH  23  24
HETATM   24  C   UNL     1     -10.409  17.864  66.748  1.00  0.00    -0.357 C  
HETATM   25  C   UNL     1      -9.837  18.180  68.111  1.00  0.00    -0.343 C  
HETATM   26  O   UNL     1     -10.329  19.338  68.612  1.00  0.00    -0.380 OA 
HETATM   27  O   UNL     1      -9.027  17.503  68.713  1.00  0.00    -0.272 OA 
ENDBRANCH  23  24
ENDBRANCH  22  23
ENDBRANCH  21  22
ENDBRANCH  20  21
ENDBRANCH  19  20
ENDBRANCH  18  19
ENDBRANCH  17  18
ENDBRANCH  15  16
ENDBRANCH  14  15
ENDBRANCH  13  14
ENDBRANCH  12  13
ENDBRANCH  11  12
ENDBRANCH  10  11
ENDBRANCH   6  10
TORSDOF 15
ENDMDL
MODEL       27
REMARK 921   NORMALIZED FREE ENERGY PREDICTED BY IDOCK:   -4.84 KCAL/MOL
REMARK 922        TOTAL FREE ENERGY PREDICTED BY IDOCK:  -11.03 KCAL/MOL
REMARK 923 INTER-LIGAND FREE ENERGY PREDICTED BY IDOCK:   -8.58 KCAL/MOL
REMARK 924 INTRA-LIGAND FREE ENERGY PREDICTED BY IDOCK:   -2.46 KCAL/MOL
REMARK 927      BINDING AFFINITY PREDICTED BY RF-SCORE:    0.00 PKD
ROOT
ATOM      1  N   GLY A   1     -12.423  14.498  63.515  1.00  0.00    -1.063 NA 
HETATM    2  C   UNL     1     -12.014  13.101  70.319  1.00  0.00    -0.366 C  
ATOM      3  H2  GLY A   1     -13.081  13.725  63.409  1.00  0.00     0.000 HD 
ATOM      4  H1  GLY A   1     -12.896  15.401  63.520  1.00  0.00     0.000 HD 
ATOM      5  CA  GLY A   1     -11.594  14.351  64.718  1.00  0.00    -0.408 C  
HETATM    6  C   UNL     1     -12.723  14.408  70.637  1.00  0.00    -0.421 C  
ENDROOT
BRANCH   5   7
ATOM      7  C   GLY A   1     -10.884  12.994  64.710  1.00  0.00    -0.337 C  
ATOM      8  H   GLY A   1     -10.641  11.519  63.443  1.00  0.00     0.000 HD 
ATOM      9  O   GLY A   1     -11.081  12.361  63.448  1.00  0.00    -0.455 OA 
ENDBRANCH   5   7
BRANCH   6  10
HETATM   10  C   UNL     1     -11.810  15.632  70.584  1.00  0.00    -0.409 C  
BRANCH  10  11
HETATM   11  C   UNL     1     -10.408  15.354  70.036  1.00  0.00    -0.288 C  
BRANCH  11  12
HETATM   12  C   UNL     1      -9.987  16.486  69.095  1.00  0.00    -0.275 C  
BRANCH  12  13
HETATM   13  C   UNL     1     -10.800  16.498  67.801  1.00  0.00    -0.304 C  
BRANCH  13  14
HETATM   14  C   UNL     1     -10.018  17.066  66.609  1.00  0.00    -0.307 C  
BRANCH  14  15
HETATM   15  C   UNL     1     -10.491  18.435  66.103  1.00  0.00    -0.422 C  
BRANCH  15  16
HETATM   16  C   UNL     1     -10.577  19.492  67.170  1.00  0.00    -0.605 C  
HETATM   17  C   UNL     1      -9.579  20.328  67.495  1.00  0.00    -0.562 C  
BRANCH  17  18
HETATM   18  C   UNL     1      -8.207  20.327  66.885  1.00  0.00    -0.345 C  
BRANCH  18  19
HETATM   19  C   UNL     1      -7.117  20.172  67.943  1.00  0.00    -0.325 C  
BRANCH  19  20
HETATM   20  C   UNL     1      -7.403  18.953  68.820  1.00  0.00    -0.356 C  
BRANCH  20  21
HETATM   21  C   UNL     1      -6.296  17.911  68.701  1.00  0.00    -0.209 C  
BRANCH  21  22
HETATM   22  C   UNL     1      -6.493  17.033  67.469  1.00  0.00    -0.167 C  
BRANCH  22  23
HETATM   23  C   UNL     1      -5.912  15.640  67.698  1.00  0.00    -0.159 C  
BRANCH  23  24
HETATM   24  C   UNL     1      -7.007  14.586  67.830  1.00  0.00    -0.194 C  
HETATM   25  C   UNL     1      -6.501  13.209  67.464  1.00  0.00    -0.147 C  
HETATM   26  O   UNL     1      -7.461  12.264  67.596  1.00  0.00    -0.112 OA 
HETATM   27  O   UNL     1      -5.373  12.944  67.095  1.00  0.00    -0.343 OA 
ENDBRANCH  23  24
ENDBRANCH  22  23
ENDBRANCH  21  22
ENDBRANCH  20  21
ENDBRANCH  19  20
ENDBRANCH  18  19
ENDBRANCH  17  18
ENDBRANCH  15  16
ENDBRANCH  14  15
ENDBRANCH  13  14
ENDBRANCH  12  13
ENDBRANCH  11  12
ENDBRANCH  10  11
ENDBRANCH   6  10
TORSDOF 15
ENDMDL
MODEL       28
REMARK 921   NORMALIZED FREE ENERGY PREDICTED BY IDOCK:   -4.83 KCAL/MOL
REMARK 922        TOTAL FREE ENERGY PREDICTED BY IDOCK:  -11.02 KCAL/MOL
REMARK 923 INTER-LIGAND FREE ENERGY PREDICTED BY IDOCK:   -8.90 KCAL/MOL
REMARK 924 INTRA-LIGAND FREE ENERGY PREDICTED BY IDOCK:   -2.12 KCAL/MOL
REMARK 927      BINDING AFFINITY PREDICTED BY RF-SCORE:    0.00 PKD
ROOT
ATOM      1  N   GLY A   1     -11.440   4.898  65.446  1.00  0.00    -0.941 NA 
HETATM    2  C   UNL     1     -11.128   7.722  71.797  1.00  0.00    -0.287 C  
ATOM      3  H2  GLY A   1     -12.022   4.149  65.821  1.00  0.00     0.000 HD 
ATOM      4  H1  GLY A   1     -11.992   5.591  64.941  1.00  0.00     0.000 HD 
ATOM      5  CA  GLY A   1     -10.640   5.548  66.492  1.00  0.00    -0.279 C  
HETATM    6  C   UNL     1     -11.961   8.902  71.321  1.00  0.00    -0.365 C  
ENDROOT
BRANCH   5   7
ATOM      7  C   GLY A   1      -9.812   4.507  67.249  1.00  0.00    -0.175 C  
ATOM      8  H   GLY A   1      -8.951   2.795  66.839  1.00  0.00     0.000 HD 
ATOM      9  O   GLY A   1      -9.465   3.441  66.369  1.00  0.00    -0.177 OA 
ENDBRANCH   5   7
BRANCH   6  10
HETATM   10  C   UNL     1     -11.159   9.949  70.549  1.00  0.00    -0.398 C  
BRANCH  10  11
HETATM   11  C   UNL     1     -12.012  10.977  69.803  1.00  0.00    -0.428 C  
BRANCH  11  12
HETATM   12  C   UNL     1     -11.506  11.124  68.366  1.00  0.00    -0.377 C  
BRANCH  12  13
HETATM   13  C   UNL     1     -10.387  10.136  68.041  1.00  0.00    -0.227 C  
BRANCH  13  14
HETATM   14  C   UNL     1     -10.660   9.318  66.771  1.00  0.00    -0.207 C  
BRANCH  14  15
HETATM   15  C   UNL     1      -9.631   9.485  65.646  1.00  0.00    -0.346 C  
BRANCH  15  16
HETATM   16  C   UNL     1      -9.161  10.900  65.443  1.00  0.00    -0.231 C  
HETATM   17  C   UNL     1      -9.670  11.748  64.537  1.00  0.00    -0.165 C  
BRANCH  17  18
HETATM   18  C   UNL     1     -10.755  11.423  63.552  1.00  0.00    -0.453 C  
BRANCH  18  19
HETATM   19  C   UNL     1     -11.911  12.418  63.633  1.00  0.00    -0.626 C  
BRANCH  19  20
HETATM   20  C   UNL     1     -12.388  12.554  65.078  1.00  0.00    -0.522 C  
BRANCH  20  21
HETATM   21  C   UNL     1     -12.607  14.016  65.455  1.00  0.00    -0.543 C  
BRANCH  21  22
HETATM   22  C   UNL     1     -11.554  14.915  64.814  1.00  0.00    -0.410 C  
BRANCH  22  23
HETATM   23  C   UNL     1     -10.384  15.144  65.767  1.00  0.00    -0.359 C  
BRANCH  23  24
HETATM   24  C   UNL     1     -10.205  16.623  66.096  1.00  0.00    -0.360 C  
HETATM   25  C   UNL     1     -10.746  16.957  67.468  1.00  0.00    -0.270 C  
HETATM   26  O   UNL     1     -10.575  18.263  67.776  1.00  0.00    -0.408 OA 
HETATM   27  O   UNL     1     -11.273  16.170  68.232  1.00  0.00    -0.352 OA 
ENDBRANCH  23  24
ENDBRANCH  22  23
ENDBRANCH  21  22
ENDBRANCH  20  21
ENDBRANCH  19  20
ENDBRANCH  18  19
ENDBRANCH  17  18
ENDBRANCH  15  16
ENDBRANCH  14  15
ENDBRANCH  13  14
ENDBRANCH  12  13
ENDBRANCH  11  12
ENDBRANCH  10  11
ENDBRANCH   6  10
TORSDOF 15
ENDMDL
MODEL       29
REMARK 921   NORMALIZED FREE ENERGY PREDICTED BY IDOCK:   -4.82 KCAL/MOL
REMARK 922        TOTAL FREE ENERGY PREDICTED BY IDOCK:  -11.00 KCAL/MOL
REMARK 923 INTER-LIGAND FREE ENERGY PREDICTED BY IDOCK:   -8.65 KCAL/MOL
REMARK 924 INTRA-LIGAND FREE ENERGY PREDICTED BY IDOCK:   -2.35 KCAL/MOL
REMARK 927      BINDING AFFINITY PREDICTED BY RF-SCORE:    0.00 PKD
ROOT
ATOM      1  N   GLY A   1     -11.780  12.788  63.005  1.00  0.00    -0.789 NA 
HETATM    2  C   UNL     1      -8.754  10.832  68.957  1.00  0.00    -0.136 C  
ATOM      3  H2  GLY A   1     -11.334  13.700  63.092  1.00  0.00     0.000 HD 
ATOM      4  H1  GLY A   1     -11.302  12.194  62.328  1.00  0.00     0.000 HD 
ATOM      5  CA  GLY A   1     -11.885  12.101  64.299  1.00  0.00    -0.378 C  
HETATM    6  C   UNL     1      -7.881   9.845  68.197  1.00  0.00    -0.085 C  
ENDROOT
BRANCH   5   7
ATOM      7  C   GLY A   1     -12.603  12.993  65.315  1.00  0.00    -0.457 C  
ATOM      8  H   GLY A   1     -12.722  13.123  67.267  1.00  0.00     0.000 HD 
ATOM      9  O   GLY A   1     -12.277  12.570  66.636  1.00  0.00    -0.552 OA 
ENDBRANCH   5   7
BRANCH   6  10
HETATM   10  C   UNL     1      -8.593   8.539  67.845  1.00  0.00    -0.134 C  
BRANCH  10  11
HETATM   11  C   UNL     1     -10.118   8.594  67.970  1.00  0.00    -0.241 C  
BRANCH  11  12
HETATM   12  C   UNL     1     -10.684   7.172  68.009  1.00  0.00    -0.232 C  
BRANCH  12  13
HETATM   13  C   UNL     1      -9.641   6.143  68.440  1.00  0.00    -0.123 C  
BRANCH  13  14
HETATM   14  C   UNL     1     -10.147   5.204  69.543  1.00  0.00    -0.316 C  
BRANCH  14  15
HETATM   15  C   UNL     1      -9.473   5.370  70.910  1.00  0.00    -0.214 C  
BRANCH  15  16
HETATM   16  C   UNL     1      -8.932   6.750  71.169  1.00  0.00    -0.147 C  
HETATM   17  C   UNL     1      -9.618   7.736  71.767  1.00  0.00    -0.204 C  
BRANCH  17  18
HETATM   18  C   UNL     1     -11.041   7.647  72.237  1.00  0.00    -0.336 C  
BRANCH  18  19
HETATM   19  C   UNL     1     -11.984   8.452  71.347  1.00  0.00    -0.337 C  
BRANCH  19  20
HETATM   20  C   UNL     1     -11.509   9.902  71.251  1.00  0.00    -0.435 C  
BRANCH  20  21
HETATM   21  C   UNL     1     -12.620  10.819  70.749  1.00  0.00    -0.476 C  
BRANCH  21  22
HETATM   22  C   UNL     1     -13.137  11.721  71.866  1.00  0.00    -0.482 C  
BRANCH  22  23
HETATM   23  C   UNL     1     -12.835  13.186  71.562  1.00  0.00    -0.401 C  
BRANCH  23  24
HETATM   24  C   UNL     1     -13.523  14.121  72.551  1.00  0.00    -0.634 C  
HETATM   25  C   UNL     1     -12.616  15.257  72.967  1.00  0.00    -0.430 C  
HETATM   26  O   UNL     1     -13.224  16.102  73.831  1.00  0.00    -0.649 OA 
HETATM   27  O   UNL     1     -11.473  15.426  72.587  1.00  0.00    -0.459 OA 
ENDBRANCH  23  24
ENDBRANCH  22  23
ENDBRANCH  21  22
ENDBRANCH  20  21
ENDBRANCH  19  20
ENDBRANCH  18  19
ENDBRANCH  17  18
ENDBRANCH  15  16
ENDBRANCH  14  15
ENDBRANCH  13  14
ENDBRANCH  12  13
ENDBRANCH  11  12
ENDBRANCH  10  11
ENDBRANCH   6  10
TORSDOF 15
ENDMDL
MODEL       30
REMARK 921   NORMALIZED FREE ENERGY PREDICTED BY IDOCK:   -4.82 KCAL/MOL
REMARK 922        TOTAL FREE ENERGY PREDICTED BY IDOCK:  -10.99 KCAL/MOL
REMARK 923 INTER-LIGAND FREE ENERGY PREDICTED BY IDOCK:   -9.07 KCAL/MOL
REMARK 924 INTRA-LIGAND FREE ENERGY PREDICTED BY IDOCK:   -1.92 KCAL/MOL
REMARK 927      BINDING AFFINITY PREDICTED BY RF-SCORE:    0.00 PKD
ROOT
ATOM      1  N   GLY A   1     -10.460  10.845  65.143  1.00  0.00    -0.272 NA 
HETATM    2  C   UNL     1      -9.071   6.641  70.510  1.00  0.00    -0.152 C  
ATOM      3  H2  GLY A   1      -9.611  10.518  64.683  1.00  0.00     0.000 HD 
ATOM      4  H1  GLY A   1     -11.296  10.409  64.753  1.00  0.00     0.000 HD 
ATOM      5  CA  GLY A   1     -10.411  10.641  66.596  1.00  0.00    -0.237 C  
HETATM    6  C   UNL     1     -10.273   5.780  70.157  1.00  0.00    -0.301 C  
ENDROOT
BRANCH   5   7
ATOM      7  C   GLY A   1      -9.156  11.295  67.181  1.00  0.00    -0.157 C  
ATOM      8  H   GLY A   1      -7.999  12.812  66.735  1.00  0.00     0.000 HD 
ATOM      9  O   GLY A   1      -8.777  12.406  66.372  1.00  0.00    -0.119 OA 
ENDBRANCH   5   7
BRANCH   6  10
HETATM   10  C   UNL     1     -11.604   6.357  70.637  1.00  0.00    -0.412 C  
BRANCH  10  11
HETATM   11  C   UNL     1     -11.744   6.449  72.159  1.00  0.00    -0.366 C  
BRANCH  11  12
HETATM   12  C   UNL     1     -11.773   7.918  72.588  1.00  0.00    -0.398 C  
BRANCH  12  13
HETATM   13  C   UNL     1     -12.388   8.822  71.520  1.00  0.00    -0.380 C  
BRANCH  13  14
HETATM   14  C   UNL     1     -11.565  10.091  71.265  1.00  0.00    -0.430 C  
BRANCH  14  15
HETATM   15  C   UNL     1     -12.356  11.297  70.742  1.00  0.00    -0.495 C  
BRANCH  15  16
HETATM   16  C   UNL     1     -13.407  11.804  71.691  1.00  0.00    -0.242 C  
HETATM   17  C   UNL     1     -13.475  13.064  72.148  1.00  0.00    -0.638 C  
BRANCH  17  18
HETATM   18  C   UNL     1     -12.502  14.161  71.828  1.00  0.00    -0.360 C  
BRANCH  18  19
HETATM   19  C   UNL     1     -13.117  15.217  70.913  1.00  0.00    -0.523 C  
BRANCH  19  20
HETATM   20  C   UNL     1     -12.110  15.641  69.845  1.00  0.00    -0.360 C  
BRANCH  20  21
HETATM   21  C   UNL     1     -11.271  14.458  69.372  1.00  0.00    -0.317 C  
BRANCH  21  22
HETATM   22  C   UNL     1     -10.526  14.790  68.082  1.00  0.00    -0.239 C  
BRANCH  22  23
HETATM   23  C   UNL     1     -11.501  14.937  66.916  1.00  0.00    -0.318 C  
BRANCH  23  24
HETATM   24  C   UNL     1     -12.154  13.606  66.557  1.00  0.00    -0.469 C  
HETATM   25  C   UNL     1     -12.651  13.598  65.129  1.00  0.00    -0.430 C  
HETATM   26  O   UNL     1     -13.216  12.414  64.795  1.00  0.00    -0.784 OA 
HETATM   27  O   UNL     1     -12.566  14.523  64.344  1.00  0.00    -0.665 OA 
ENDBRANCH  23  24
ENDBRANCH  22  23
ENDBRANCH  21  22
ENDBRANCH  20  21
ENDBRANCH  19  20
ENDBRANCH  18  19
ENDBRANCH  17  18
ENDBRANCH  15  16
ENDBRANCH  14  15
ENDBRANCH  13  14
ENDBRANCH  12  13
ENDBRANCH  11  12
ENDBRANCH  10  11
ENDBRANCH   6  10
TORSDOF 15
ENDMDL
MODEL       31
REMARK 921   NORMALIZED FREE ENERGY PREDICTED BY IDOCK:   -4.81 KCAL/MOL
REMARK 922        TOTAL FREE ENERGY PREDICTED BY IDOCK:  -10.97 KCAL/MOL
REMARK 923 INTER-LIGAND FREE ENERGY PREDICTED BY IDOCK:   -9.37 KCAL/MOL
REMARK 924 INTRA-LIGAND FREE ENERGY PREDICTED BY IDOCK:   -1.60 KCAL/MOL
REMARK 927      BINDING AFFINITY PREDICTED BY RF-SCORE:    0.00 PKD
ROOT
ATOM      1  N   GLY A   1     -14.093  15.519  71.283  1.00  0.00    -0.729 NA 
HETATM    2  C   UNL     1     -11.004  15.461  65.049  1.00  0.00    -0.450 C  
ATOM      3  H2  GLY A   1     -14.227  16.526  71.193  1.00  0.00     0.000 HD 
ATOM      4  H1  GLY A   1     -14.952  15.003  71.090  1.00  0.00     0.000 HD 
ATOM      5  CA  GLY A   1     -13.004  15.031  70.427  1.00  0.00    -0.240 C  
HETATM    6  C   UNL     1     -12.174  14.681  64.468  1.00  0.00    -0.473 C  
ENDROOT
BRANCH   5   7
ATOM      7  C   GLY A   1     -11.715  15.806  70.716  1.00  0.00    -0.399 C  
ATOM      8  H   GLY A   1     -10.997  16.881  72.189  1.00  0.00     0.000 HD 
ATOM      9  O   GLY A   1     -11.796  16.400  72.010  1.00  0.00    -0.511 OA 
ENDBRANCH   5   7
BRANCH   6  10
HETATM   10  C   UNL     1     -12.129  13.185  64.777  1.00  0.00    -0.459 C  
BRANCH  10  11
HETATM   11  C   UNL     1     -12.097  12.283  63.540  1.00  0.00    -0.649 C  
BRANCH  11  12
HETATM   12  C   UNL     1     -10.881  11.354  63.609  1.00  0.00    -0.459 C  
BRANCH  12  13
HETATM   13  C   UNL     1     -10.082  11.539  64.898  1.00  0.00    -0.314 C  
BRANCH  13  14
HETATM   14  C   UNL     1      -9.899  10.232  65.681  1.00  0.00    -0.332 C  
BRANCH  14  15
HETATM   15  C   UNL     1     -10.395  10.258  67.132  1.00  0.00    -0.292 C  
BRANCH  15  16
HETATM   16  C   UNL     1     -10.982  11.575  67.561  1.00  0.00    -0.308 C  
HETATM   17  C   UNL     1     -11.683  11.764  68.690  1.00  0.00    -0.389 C  
BRANCH  17  18
HETATM   18  C   UNL     1     -12.034  10.698  69.687  1.00  0.00    -0.340 C  
BRANCH  18  19
HETATM   19  C   UNL     1     -12.566  11.293  70.989  1.00  0.00    -0.495 C  
BRANCH  19  20
HETATM   20  C   UNL     1     -12.891  10.178  71.982  1.00  0.00    -0.472 C  
BRANCH  20  21
HETATM   21  C   UNL     1     -12.415   8.821  71.471  1.00  0.00    -0.374 C  
BRANCH  21  22
HETATM   22  C   UNL     1     -11.721   8.028  72.575  1.00  0.00    -0.446 C  
BRANCH  22  23
HETATM   23  C   UNL     1     -10.687   7.071  71.986  1.00  0.00    -0.243 C  
BRANCH  23  24
HETATM   24  C   UNL     1     -10.793   6.993  70.466  1.00  0.00    -0.279 C  
HETATM   25  C   UNL     1     -10.465   5.608  69.956  1.00  0.00    -0.297 C  
HETATM   26  O   UNL     1     -10.574   5.524  68.610  1.00  0.00    -0.196 OA 
HETATM   27  O   UNL     1     -10.143   4.658  70.644  1.00  0.00    -0.223 OA 
ENDBRANCH  23  24
ENDBRANCH  22  23
ENDBRANCH  21  22
ENDBRANCH  20  21
ENDBRANCH  19  20
ENDBRANCH  18  19
ENDBRANCH  17  18
ENDBRANCH  15  16
ENDBRANCH  14  15
ENDBRANCH  13  14
ENDBRANCH  12  13
ENDBRANCH  11  12
ENDBRANCH  10  11
ENDBRANCH   6  10
TORSDOF 15
ENDMDL
MODEL       32
REMARK 921   NORMALIZED FREE ENERGY PREDICTED BY IDOCK:   -4.81 KCAL/MOL
REMARK 922        TOTAL FREE ENERGY PREDICTED BY IDOCK:  -10.97 KCAL/MOL
REMARK 923 INTER-LIGAND FREE ENERGY PREDICTED BY IDOCK:   -7.84 KCAL/MOL
REMARK 924 INTRA-LIGAND FREE ENERGY PREDICTED BY IDOCK:   -3.12 KCAL/MOL
REMARK 927      BINDING AFFINITY PREDICTED BY RF-SCORE:    0.00 PKD
ROOT
ATOM      1  N   GLY A   1     -14.095  15.586  71.185  1.00  0.00    -0.785 NA 
HETATM    2  C   UNL     1     -10.877  15.605  65.016  1.00  0.00    -0.468 C  
ATOM      3  H2  GLY A   1     -14.205  16.598  71.115  1.00  0.00     0.000 HD 
ATOM      4  H1  GLY A   1     -14.959  15.093  70.962  1.00  0.00     0.000 HD 
ATOM      5  CA  GLY A   1     -12.998  15.095  70.340  1.00  0.00    -0.256 C  
HETATM    6  C   UNL     1     -12.049  14.863  64.393  1.00  0.00    -0.417 C  
ENDROOT
BRANCH   5   7
ATOM      7  C   GLY A   1     -11.700  15.837  70.674  1.00  0.00    -0.385 C  
ATOM      8  H   GLY A   1     -10.285  16.755  69.677  1.00  0.00     0.000 HD 
ATOM      9  O   GLY A   1     -11.089  16.295  69.470  1.00  0.00    -0.316 OA 
ENDBRANCH   5   7
BRANCH   6  10
HETATM   10  C   UNL     1     -12.041  13.360  64.668  1.00  0.00    -0.456 C  
BRANCH  10  11
HETATM   11  C   UNL     1     -11.882  12.488  63.420  1.00  0.00    -0.587 C  
BRANCH  11  12
HETATM   12  C   UNL     1     -10.605  11.651  63.533  1.00  0.00    -0.496 C  
BRANCH  12  13
HETATM   13  C   UNL     1     -10.436  11.035  64.921  1.00  0.00    -0.371 C  
BRANCH  13  14
HETATM   14  C   UNL     1      -9.560   9.775  64.913  1.00  0.00    -0.316 C  
BRANCH  14  15
HETATM   15  C   UNL     1      -9.616   8.925  66.189  1.00  0.00    -0.335 C  
BRANCH  15  16
HETATM   16  C   UNL     1      -8.592   9.299  67.226  1.00  0.00    -0.125 C  
HETATM   17  C   UNL     1      -8.851   9.436  68.535  1.00  0.00    -0.128 C  
BRANCH  17  18
HETATM   18  C   UNL     1     -10.199   9.284  69.178  1.00  0.00    -0.214 C  
BRANCH  18  19
HETATM   19  C   UNL     1     -10.801  10.634  69.560  1.00  0.00    -0.303 C  
BRANCH  19  20
HETATM   20  C   UNL     1     -11.727  11.130  68.449  1.00  0.00    -0.349 C  
BRANCH  20  21
HETATM   21  C   UNL     1     -11.511  12.614  68.168  1.00  0.00    -0.359 C  
BRANCH  21  22
HETATM   22  C   UNL     1     -10.077  13.032  68.480  1.00  0.00    -0.195 C  
BRANCH  22  23
HETATM   23  C   UNL     1      -9.308  13.327  67.195  1.00  0.00    -0.240 C  
BRANCH  23  24
HETATM   24  C   UNL     1      -7.831  12.966  67.327  1.00  0.00    -0.134 C  
HETATM   25  C   UNL     1      -6.968  14.198  67.479  1.00  0.00    -0.152 C  
HETATM   26  O   UNL     1      -5.658  13.887  67.615  1.00  0.00    -0.298 OA 
HETATM   27  O   UNL     1      -7.369  15.347  67.487  1.00  0.00    -0.158 OA 
ENDBRANCH  23  24
ENDBRANCH  22  23
ENDBRANCH  21  22
ENDBRANCH  20  21
ENDBRANCH  19  20
ENDBRANCH  18  19
ENDBRANCH  17  18
ENDBRANCH  15  16
ENDBRANCH  14  15
ENDBRANCH  13  14
ENDBRANCH  12  13
ENDBRANCH  11  12
ENDBRANCH  10  11
ENDBRANCH   6  10
TORSDOF 15
ENDMDL
MODEL       33
REMARK 921   NORMALIZED FREE ENERGY PREDICTED BY IDOCK:   -4.80 KCAL/MOL
REMARK 922        TOTAL FREE ENERGY PREDICTED BY IDOCK:  -10.96 KCAL/MOL
REMARK 923 INTER-LIGAND FREE ENERGY PREDICTED BY IDOCK:   -8.92 KCAL/MOL
REMARK 924 INTRA-LIGAND FREE ENERGY PREDICTED BY IDOCK:   -2.05 KCAL/MOL
REMARK 927      BINDING AFFINITY PREDICTED BY RF-SCORE:    0.00 PKD
ROOT
ATOM      1  N   GLY A   1     -10.148   5.209  69.980  1.00  0.00    -0.253 NA 
HETATM    2  C   UNL     1      -9.323  11.347  66.809  1.00  0.00    -0.192 C  
ATOM      3  H2  GLY A   1      -9.178   4.980  69.763  1.00  0.00     0.000 HD 
ATOM      4  H1  GLY A   1     -10.262   5.495  70.952  1.00  0.00     0.000 HD 
ATOM      5  CA  GLY A   1     -10.685   6.238  69.081  1.00  0.00    -0.301 C  
HETATM    6  C   UNL     1      -9.450  12.062  68.145  1.00  0.00    -0.200 C  
ENDROOT
BRANCH   5   7
ATOM      7  C   GLY A   1     -10.512   5.808  67.621  1.00  0.00    -0.235 C  
ATOM      8  H   GLY A   1     -10.928   6.552  65.856  1.00  0.00     0.000 HD 
ATOM      9  O   GLY A   1     -11.034   6.818  66.762  1.00  0.00    -0.337 OA 
ENDBRANCH   5   7
BRANCH   6  10
HETATM   10  C   UNL     1     -10.893  12.225  68.620  1.00  0.00    -0.268 C  
BRANCH  10  11
HETATM   11  C   UNL     1     -11.713  10.932  68.616  1.00  0.00    -0.334 C  
BRANCH  11  12
HETATM   12  C   UNL     1     -12.209  10.630  70.032  1.00  0.00    -0.373 C  
BRANCH  12  13
HETATM   13  C   UNL     1     -12.202  11.869  70.926  1.00  0.00    -0.351 C  
BRANCH  13  14
HETATM   14  C   UNL     1     -13.417  11.938  71.862  1.00  0.00    -0.289 C  
BRANCH  14  15
HETATM   15  C   UNL     1     -13.573  13.248  72.643  1.00  0.00    -0.496 C  
BRANCH  15  16
HETATM   16  C   UNL     1     -14.219  14.360  71.862  1.00  0.00    -0.610 C  
HETATM   17  C   UNL     1     -13.569  15.433  71.387  1.00  0.00    -0.604 C  
BRANCH  17  18
HETATM   18  C   UNL     1     -12.111  15.728  71.587  1.00  0.00    -0.522 C  
BRANCH  18  19
HETATM   19  C   UNL     1     -11.273  15.283  70.391  1.00  0.00    -0.325 C  
BRANCH  19  20
HETATM   20  C   UNL     1     -11.704  16.039  69.135  1.00  0.00    -0.310 C  
BRANCH  20  21
HETATM   21  C   UNL     1     -10.512  16.344  68.234  1.00  0.00    -0.302 C  
BRANCH  21  22
HETATM   22  C   UNL     1     -10.902  16.274  66.760  1.00  0.00    -0.125 C  
BRANCH  22  23
HETATM   23  C   UNL     1     -11.278  14.848  66.367  1.00  0.00    -0.331 C  
BRANCH  23  24
HETATM   24  C   UNL     1     -11.497  14.716  64.863  1.00  0.00    -0.401 C  
HETATM   25  C   UNL     1     -12.285  13.472  64.522  1.00  0.00    -0.398 C  
HETATM   26  O   UNL     1     -12.500  13.356  63.191  1.00  0.00    -0.710 OA 
HETATM   27  O   UNL     1     -12.696  12.653  65.322  1.00  0.00    -0.652 OA 
ENDBRANCH  23  24
ENDBRANCH  22  23
ENDBRANCH  21  22
ENDBRANCH  20  21
ENDBRANCH  19  20
ENDBRANCH  18  19
ENDBRANCH  17  18
ENDBRANCH  15  16
ENDBRANCH  14  15
ENDBRANCH  13  14
ENDBRANCH  12  13
ENDBRANCH  11  12
ENDBRANCH  10  11
ENDBRANCH   6  10
TORSDOF 15
ENDMDL
MODEL       34
REMARK 921   NORMALIZED FREE ENERGY PREDICTED BY IDOCK:   -4.79 KCAL/MOL
REMARK 922        TOTAL FREE ENERGY PREDICTED BY IDOCK:  -10.94 KCAL/MOL
REMARK 923 INTER-LIGAND FREE ENERGY PREDICTED BY IDOCK:   -8.85 KCAL/MOL
REMARK 924 INTRA-LIGAND FREE ENERGY PREDICTED BY IDOCK:   -2.09 KCAL/MOL
REMARK 927      BINDING AFFINITY PREDICTED BY RF-SCORE:    0.00 PKD
ROOT
ATOM      1  N   GLY A   1     -12.889  15.848  73.967  1.00  0.00    -0.795 NA 
HETATM    2  C   UNL     1     -11.415  12.342  68.140  1.00  0.00    -0.370 C  
ATOM      3  H2  GLY A   1     -13.033  14.961  74.449  1.00  0.00     0.000 HD 
ATOM      4  H1  GLY A   1     -11.983  16.260  74.192  1.00  0.00     0.000 HD 
ATOM      5  CA  GLY A   1     -13.039  15.713  72.512  1.00  0.00    -0.472 C  
HETATM    6  C   UNL     1      -9.968  12.801  68.221  1.00  0.00    -0.230 C  
ENDROOT
BRANCH   5   7
ATOM      7  C   GLY A   1     -14.398  15.094  72.175  1.00  0.00    -0.552 C  
ATOM      8  H   GLY A   1     -15.228  13.323  72.294  1.00  0.00     0.000 HD 
ATOM      9  O   GLY A   1     -14.385  13.707  72.503  1.00  0.00    -0.707 OA 
ENDBRANCH   5   7
BRANCH   6  10
HETATM   10  C   UNL     1      -9.746  14.225  67.712  1.00  0.00    -0.222 C  
BRANCH  10  11
HETATM   11  C   UNL     1     -10.975  14.866  67.063  1.00  0.00    -0.327 C  
BRANCH  11  12
HETATM   12  C   UNL     1     -10.609  15.395  65.673  1.00  0.00    -0.379 C  
BRANCH  12  13
HETATM   13  C   UNL     1     -11.455  14.761  64.570  1.00  0.00    -0.333 C  
BRANCH  13  14
HETATM   14  C   UNL     1     -12.636  13.946  65.116  1.00  0.00    -0.466 C  
BRANCH  14  15
HETATM   15  C   UNL     1     -12.598  12.444  64.808  1.00  0.00    -0.419 C  
BRANCH  15  16
HETATM   16  C   UNL     1     -11.668  12.067  63.687  1.00  0.00    -0.587 C  
HETATM   17  C   UNL     1     -10.472  11.480  63.856  1.00  0.00    -0.439 C  
BRANCH  17  18
HETATM   18  C   UNL     1      -9.846  11.141  65.177  1.00  0.00    -0.307 C  
BRANCH  18  19
HETATM   19  C   UNL     1      -8.898   9.950  65.066  1.00  0.00    -0.220 C  
BRANCH  19  20
HETATM   20  C   UNL     1      -8.914   9.142  66.364  1.00  0.00    -0.182 C  
BRANCH  20  21
HETATM   21  C   UNL     1     -10.318   8.645  66.691  1.00  0.00    -0.303 C  
BRANCH  21  22
HETATM   22  C   UNL     1     -10.295   7.642  67.841  1.00  0.00    -0.270 C  
BRANCH  22  23
HETATM   23  C   UNL     1      -9.835   8.312  69.134  1.00  0.00    -0.179 C  
BRANCH  23  24
HETATM   24  C   UNL     1     -11.016   8.717  70.010  1.00  0.00    -0.216 C  
HETATM   25  C   UNL     1     -11.590   7.533  70.754  1.00  0.00    -0.277 C  
HETATM   26  O   UNL     1     -12.627   7.886  71.549  1.00  0.00    -0.311 OA 
HETATM   27  O   UNL     1     -11.189   6.387  70.677  1.00  0.00    -0.293 OA 
ENDBRANCH  23  24
ENDBRANCH  22  23
ENDBRANCH  21  22
ENDBRANCH  20  21
ENDBRANCH  19  20
ENDBRANCH  18  19
ENDBRANCH  17  18
ENDBRANCH  15  16
ENDBRANCH  14  15
ENDBRANCH  13  14
ENDBRANCH  12  13
ENDBRANCH  11  12
ENDBRANCH  10  11
ENDBRANCH   6  10
TORSDOF 15
ENDMDL
MODEL       35
REMARK 921   NORMALIZED FREE ENERGY PREDICTED BY IDOCK:   -4.79 KCAL/MOL
REMARK 922        TOTAL FREE ENERGY PREDICTED BY IDOCK:  -10.94 KCAL/MOL
REMARK 923 INTER-LIGAND FREE ENERGY PREDICTED BY IDOCK:   -8.48 KCAL/MOL
REMARK 924 INTRA-LIGAND FREE ENERGY PREDICTED BY IDOCK:   -2.45 KCAL/MOL
REMARK 927      BINDING AFFINITY PREDICTED BY RF-SCORE:    0.00 PKD
ROOT
ATOM      1  N   GLY A   1     -12.176  15.969  73.350  1.00  0.00    -0.495 NA 
HETATM    2  C   UNL     1      -8.001  14.132  68.096  1.00  0.00    -0.143 C  
ATOM      3  H2  GLY A   1     -11.764  15.230  73.919  1.00  0.00     0.000 HD 
ATOM      4  H1  GLY A   1     -11.805  16.887  73.594  1.00  0.00     0.000 HD 
ATOM      5  CA  GLY A   1     -12.004  15.717  71.913  1.00  0.00    -0.466 C  
HETATM    6  C   UNL     1      -7.239  15.441  68.233  1.00  0.00    -0.118 C  
ENDROOT
BRANCH   5   7
ATOM      7  C   GLY A   1     -12.561  14.338  71.548  1.00  0.00    -0.354 C  
ATOM      8  H   GLY A   1     -13.701  12.989  72.396  1.00  0.00     0.000 HD 
ATOM      9  O   GLY A   1     -13.356  13.845  72.623  1.00  0.00    -0.512 OA 
ENDBRANCH   5   7
BRANCH   6  10
HETATM   10  C   UNL     1      -7.942  16.632  67.582  1.00  0.00    -0.188 C  
BRANCH  10  11
HETATM   11  C   UNL     1      -8.311  17.758  68.550  1.00  0.00    -0.298 C  
BRANCH  11  12
HETATM   12  C   UNL     1      -9.819  17.742  68.811  1.00  0.00    -0.343 C  
BRANCH  12  13
HETATM   13  C   UNL     1     -10.595  17.047  67.693  1.00  0.00    -0.333 C  
BRANCH  13  14
HETATM   14  C   UNL     1     -11.405  15.841  68.187  1.00  0.00    -0.337 C  
BRANCH  14  15
HETATM   15  C   UNL     1     -11.415  14.626  67.251  1.00  0.00    -0.386 C  
BRANCH  15  16
HETATM   16  C   UNL     1     -11.097  14.949  65.816  1.00  0.00    -0.342 C  
HETATM   17  C   UNL     1     -11.629  14.317  64.758  1.00  0.00    -0.404 C  
BRANCH  17  18
HETATM   18  C   UNL     1     -12.588  13.165  64.823  1.00  0.00    -0.426 C  
BRANCH  18  19
HETATM   19  C   UNL     1     -12.113  11.983  63.982  1.00  0.00    -0.506 C  
BRANCH  19  20
HETATM   20  C   UNL     1     -10.615  12.102  63.705  1.00  0.00    -0.504 C  
BRANCH  20  21
HETATM   21  C   UNL     1      -9.926  10.743  63.782  1.00  0.00    -0.411 C  
BRANCH  21  22
HETATM   22  C   UNL     1      -9.950  10.193  65.205  1.00  0.00    -0.381 C  
BRANCH  22  23
HETATM   23  C   UNL     1      -9.576  11.278  66.212  1.00  0.00    -0.235 C  
BRANCH  23  24
HETATM   24  C   UNL     1      -9.654  10.766  67.647  1.00  0.00    -0.174 C  
HETATM   25  C   UNL     1     -11.053  10.892  68.207  1.00  0.00    -0.266 C  
HETATM   26  O   UNL     1     -11.136  10.423  69.474  1.00  0.00    -0.231 OA 
HETATM   27  O   UNL     1     -12.013  11.349  67.618  1.00  0.00    -0.630 OA 
ENDBRANCH  23  24
ENDBRANCH  22  23
ENDBRANCH  21  22
ENDBRANCH  20  21
ENDBRANCH  19  20
ENDBRANCH  18  19
ENDBRANCH  17  18
ENDBRANCH  15  16
ENDBRANCH  14  15
ENDBRANCH  13  14
ENDBRANCH  12  13
ENDBRANCH  11  12
ENDBRANCH  10  11
ENDBRANCH   6  10
TORSDOF 15
ENDMDL
MODEL       36
REMARK 921   NORMALIZED FREE ENERGY PREDICTED BY IDOCK:   -4.78 KCAL/MOL
REMARK 922        TOTAL FREE ENERGY PREDICTED BY IDOCK:  -10.93 KCAL/MOL
REMARK 923 INTER-LIGAND FREE ENERGY PREDICTED BY IDOCK:   -9.29 KCAL/MOL
REMARK 924 INTRA-LIGAND FREE ENERGY PREDICTED BY IDOCK:   -1.64 KCAL/MOL
REMARK 927      BINDING AFFINITY PREDICTED BY RF-SCORE:    0.00 PKD
ROOT
ATOM      1  N   GLY A   1     -10.231  19.655  69.153  1.00  0.00    -0.627 NA 
HETATM    2  C   UNL     1     -12.297  13.748  66.113  1.00  0.00    -0.496 C  
ATOM      3  H2  GLY A   1     -11.208  19.928  69.257  1.00  0.00     0.000 HD 
ATOM      4  H1  GLY A   1      -9.838  19.308  70.028  1.00  0.00     0.000 HD 
ATOM      5  CA  GLY A   1     -10.049  18.663  68.085  1.00  0.00    -0.378 C  
HETATM    6  C   UNL     1     -11.802  12.950  67.309  1.00  0.00    -0.416 C  
ENDROOT
BRANCH   5   7
ATOM      7  C   GLY A   1     -10.639  19.185  66.772  1.00  0.00    -0.439 C  
ATOM      8  H   GLY A   1      -9.961  20.033  65.140  1.00  0.00     0.000 HD 
ATOM      9  O   GLY A   1      -9.595  19.709  65.955  1.00  0.00    -0.376 OA 
ENDBRANCH   5   7
BRANCH   6  10
HETATM   10  C   UNL     1     -10.293  12.711  67.306  1.00  0.00    -0.230 C  
BRANCH  10  11
HETATM   11  C   UNL     1      -9.872  11.306  67.745  1.00  0.00    -0.186 C  
BRANCH  11  12
HETATM   12  C   UNL     1     -10.724  10.261  67.020  1.00  0.00    -0.281 C  
BRANCH  12  13
HETATM   13  C   UNL     1      -9.899   9.401  66.065  1.00  0.00    -0.366 C  
BRANCH  13  14
HETATM   14  C   UNL     1      -9.678   7.973  66.583  1.00  0.00    -0.313 C  
BRANCH  14  15
HETATM   15  C   UNL     1     -10.815   7.400  67.439  1.00  0.00    -0.299 C  
BRANCH  15  16
HETATM   16  C   UNL     1     -10.591   5.985  67.897  1.00  0.00    -0.337 C  
HETATM   17  C   UNL     1     -10.387   5.622  69.173  1.00  0.00    -0.328 C  
BRANCH  17  18
HETATM   18  C   UNL     1     -10.307   6.558  70.343  1.00  0.00    -0.237 C  
BRANCH  18  19
HETATM   19  C   UNL     1     -11.638   6.652  71.086  1.00  0.00    -0.384 C  
BRANCH  19  20
HETATM   20  C   UNL     1     -11.528   7.649  72.239  1.00  0.00    -0.366 C  
BRANCH  20  21
HETATM   21  C   UNL     1     -12.348   8.906  71.967  1.00  0.00    -0.460 C  
BRANCH  21  22
HETATM   22  C   UNL     1     -11.671   9.792  70.925  1.00  0.00    -0.429 C  
BRANCH  22  23
HETATM   23  C   UNL     1     -12.535  11.008  70.605  1.00  0.00    -0.465 C  
BRANCH  23  24
HETATM   24  C   UNL     1     -13.065  11.674  71.871  1.00  0.00    -0.490 C  
HETATM   25  C   UNL     1     -13.093  13.179  71.739  1.00  0.00    -0.383 C  
HETATM   26  O   UNL     1     -13.579  13.778  72.852  1.00  0.00    -0.681 OA 
HETATM   27  O   UNL     1     -12.735  13.811  70.763  1.00  0.00    -0.322 OA 
ENDBRANCH  23  24
ENDBRANCH  22  23
ENDBRANCH  21  22
ENDBRANCH  20  21
ENDBRANCH  19  20
ENDBRANCH  18  19
ENDBRANCH  17  18
ENDBRANCH  15  16
ENDBRANCH  14  15
ENDBRANCH  13  14
ENDBRANCH  12  13
ENDBRANCH  11  12
ENDBRANCH  10  11
ENDBRANCH   6  10
TORSDOF 15
ENDMDL
MODEL       37
REMARK 921   NORMALIZED FREE ENERGY PREDICTED BY IDOCK:   -4.78 KCAL/MOL
REMARK 922        TOTAL FREE ENERGY PREDICTED BY IDOCK:  -10.92 KCAL/MOL
REMARK 923 INTER-LIGAND FREE ENERGY PREDICTED BY IDOCK:   -8.04 KCAL/MOL
REMARK 924 INTRA-LIGAND FREE ENERGY PREDICTED BY IDOCK:   -2.89 KCAL/MOL
REMARK 927      BINDING AFFINITY PREDICTED BY RF-SCORE:    0.00 PKD
ROOT
ATOM      1  N   GLY A   1     -10.395  12.366  65.781  1.00  0.00    -0.257 NA 
HETATM    2  C   UNL     1     -13.585  15.257  71.247  1.00  0.00    -0.584 C  
ATOM      3  H2  GLY A   1      -9.842  13.215  65.671  1.00  0.00     0.000 HD 
ATOM      4  H1  GLY A   1      -9.862  11.620  66.228  1.00  0.00     0.000 HD 
ATOM      5  CA  GLY A   1     -11.640  12.613  66.522  1.00  0.00    -0.381 C  
HETATM    6  C   UNL     1     -12.912  14.260  72.177  1.00  0.00    -0.456 C  
ENDROOT
BRANCH   5   7
ATOM      7  C   GLY A   1     -12.441  13.733  65.851  1.00  0.00    -0.468 C  
ATOM      8  H   GLY A   1     -13.511  13.944  64.224  1.00  0.00     0.000 HD 
ATOM      9  O   GLY A   1     -13.015  13.250  64.640  1.00  0.00    -0.692 OA 
ENDBRANCH   5   7
BRANCH   6  10
HETATM   10  C   UNL     1     -13.585  12.889  72.199  1.00  0.00    -0.589 C  
BRANCH  10  11
HETATM   11  C   UNL     1     -12.856  11.811  71.393  1.00  0.00    -0.440 C  
BRANCH  11  12
HETATM   12  C   UNL     1     -13.317  10.424  71.849  1.00  0.00    -0.469 C  
BRANCH  12  13
HETATM   13  C   UNL     1     -12.280   9.342  71.553  1.00  0.00    -0.439 C  
BRANCH  13  14
HETATM   14  C   UNL     1     -12.447   8.096  72.433  1.00  0.00    -0.309 C  
BRANCH  14  15
HETATM   15  C   UNL     1     -12.621   6.773  71.677  1.00  0.00    -0.380 C  
BRANCH  15  16
HETATM   16  C   UNL     1     -11.904   6.719  70.355  1.00  0.00    -0.395 C  
HETATM   17  C   UNL     1     -10.782   6.019  70.126  1.00  0.00    -0.379 C  
BRANCH  17  18
HETATM   18  C   UNL     1     -10.034   5.213  71.148  1.00  0.00    -0.272 C  
BRANCH  18  19
HETATM   19  C   UNL     1      -8.716   5.877  71.540  1.00  0.00    -0.132 C  
BRANCH  19  20
HETATM   20  C   UNL     1      -8.913   6.741  72.786  1.00  0.00    -0.139 C  
BRANCH  20  21
HETATM   21  C   UNL     1      -8.722   8.221  72.470  1.00  0.00    -0.284 C  
BRANCH  21  22
HETATM   22  C   UNL     1      -7.974   8.413  71.154  1.00  0.00    -0.127 C  
BRANCH  22  23
HETATM   23  C   UNL     1      -8.581   9.560  70.349  1.00  0.00    -0.246 C  
BRANCH  23  24
HETATM   24  C   UNL     1      -9.373   9.049  69.149  1.00  0.00    -0.148 C  
HETATM   25  C   UNL     1      -9.244   9.975  67.962  1.00  0.00    -0.134 C  
HETATM   26  O   UNL     1      -9.928   9.521  66.886  1.00  0.00    -0.188 OA 
HETATM   27  O   UNL     1      -8.606  11.011  67.938  1.00  0.00    -0.127 OA 
ENDBRANCH  23  24
ENDBRANCH  22  23
ENDBRANCH  21  22
ENDBRANCH  20  21
ENDBRANCH  19  20
ENDBRANCH  18  19
ENDBRANCH  17  18
ENDBRANCH  15  16
ENDBRANCH  14  15
ENDBRANCH  13  14
ENDBRANCH  12  13
ENDBRANCH  11  12
ENDBRANCH  10  11
ENDBRANCH   6  10
TORSDOF 15
ENDMDL
MODEL       38
REMARK 921   NORMALIZED FREE ENERGY PREDICTED BY IDOCK:   -4.78 KCAL/MOL
REMARK 922        TOTAL FREE ENERGY PREDICTED BY IDOCK:  -10.92 KCAL/MOL
REMARK 923 INTER-LIGAND FREE ENERGY PREDICTED BY IDOCK:   -8.51 KCAL/MOL
REMARK 924 INTRA-LIGAND FREE ENERGY PREDICTED BY IDOCK:   -2.41 KCAL/MOL
REMARK 927      BINDING AFFINITY PREDICTED BY RF-SCORE:    0.00 PKD
ROOT
ATOM      1  N   GLY A   1     -12.488  13.748  63.136  1.00  0.00    -1.074 NA 
HETATM    2  C   UNL     1      -8.155   9.391  66.399  1.00  0.00    -0.108 C  
ATOM      3  H2  GLY A   1     -11.798  13.859  62.394  1.00  0.00     0.000 HD 
ATOM      4  H1  GLY A   1     -13.243  13.119  62.863  1.00  0.00     0.000 HD 
ATOM      5  CA  GLY A   1     -11.877  13.293  64.392  1.00  0.00    -0.399 C  
HETATM    6  C   UNL     1      -9.100   8.232  66.124  1.00  0.00    -0.238 C  
ENDROOT
BRANCH   5   7
ATOM      7  C   GLY A   1     -10.744  14.238  64.802  1.00  0.00    -0.416 C  
ATOM      8  H   GLY A   1     -10.405  15.514  66.250  1.00  0.00     0.000 HD 
ATOM      9  O   GLY A   1     -11.108  14.928  65.996  1.00  0.00    -0.329 OA 
ENDBRANCH   5   7
BRANCH   6  10
HETATM   10  C   UNL     1     -10.285   8.164  67.086  1.00  0.00    -0.366 C  
BRANCH  10  11
HETATM   11  C   UNL     1     -10.996   6.809  67.122  1.00  0.00    -0.458 C  
BRANCH  11  12
HETATM   12  C   UNL     1     -11.020   6.276  68.558  1.00  0.00    -0.421 C  
BRANCH  12  13
HETATM   13  C   UNL     1      -9.847   5.342  68.850  1.00  0.00    -0.230 C  
BRANCH  13  14
HETATM   14  C   UNL     1      -9.171   5.633  70.196  1.00  0.00    -0.170 C  
BRANCH  14  15
HETATM   15  C   UNL     1     -10.016   5.325  71.438  1.00  0.00    -0.245 C  
BRANCH  15  16
HETATM   16  C   UNL     1     -10.307   6.522  72.301  1.00  0.00    -0.212 C  
HETATM   17  C   UNL     1     -11.494   7.147  72.360  1.00  0.00    -0.303 C  
BRANCH  17  18
HETATM   18  C   UNL     1     -12.708   6.788  71.555  1.00  0.00    -0.341 C  
BRANCH  18  19
HETATM   19  C   UNL     1     -13.864   7.753  71.810  1.00  0.00    -0.440 C  
BRANCH  19  20
HETATM   20  C   UNL     1     -13.334   9.073  72.369  1.00  0.00    -0.516 C  
BRANCH  20  21
HETATM   21  C   UNL     1     -13.508  10.210  71.367  1.00  0.00    -0.325 C  
BRANCH  21  22
HETATM   22  C   UNL     1     -12.171  10.872  71.045  1.00  0.00    -0.464 C  
BRANCH  22  23
HETATM   23  C   UNL     1     -11.410  10.071  69.992  1.00  0.00    -0.334 C  
BRANCH  23  24
HETATM   24  C   UNL     1     -10.260  10.876  69.394  1.00  0.00    -0.151 C  
HETATM   25  C   UNL     1     -10.695  11.636  68.162  1.00  0.00    -0.213 C  
HETATM   26  O   UNL     1      -9.686  12.368  67.634  1.00  0.00    -0.188 OA 
HETATM   27  O   UNL     1     -11.811  11.620  67.677  1.00  0.00    -0.575 OA 
ENDBRANCH  23  24
ENDBRANCH  22  23
ENDBRANCH  21  22
ENDBRANCH  20  21
ENDBRANCH  19  20
ENDBRANCH  18  19
ENDBRANCH  17  18
ENDBRANCH  15  16
ENDBRANCH  14  15
ENDBRANCH  13  14
ENDBRANCH  12  13
ENDBRANCH  11  12
ENDBRANCH  10  11
ENDBRANCH   6  10
TORSDOF 15
ENDMDL
MODEL       39
REMARK 921   NORMALIZED FREE ENERGY PREDICTED BY IDOCK:   -4.78 KCAL/MOL
REMARK 922        TOTAL FREE ENERGY PREDICTED BY IDOCK:  -10.92 KCAL/MOL
REMARK 923 INTER-LIGAND FREE ENERGY PREDICTED BY IDOCK:   -9.42 KCAL/MOL
REMARK 924 INTRA-LIGAND FREE ENERGY PREDICTED BY IDOCK:   -1.50 KCAL/MOL
REMARK 927      BINDING AFFINITY PREDICTED BY RF-SCORE:    0.00 PKD
ROOT
ATOM      1  N   GLY A   1      -9.223  19.940  65.891  1.00  0.00    -0.471 NA 
HETATM    2  C   UNL     1     -11.962  13.840  67.817  1.00  0.00    -0.391 C  
ATOM      3  H2  GLY A   1      -8.468  19.798  66.562  1.00  0.00     0.000 HD 
ATOM      4  H1  GLY A   1      -8.927  19.738  64.937  1.00  0.00     0.000 HD 
ATOM      5  CA  GLY A   1     -10.414  19.150  66.231  1.00  0.00    -0.467 C  
HETATM    6  C   UNL     1     -11.628  13.252  66.455  1.00  0.00    -0.387 C  
ENDROOT
BRANCH   5   7
ATOM      7  C   GLY A   1     -10.859  19.454  67.665  1.00  0.00    -0.351 C  
ATOM      8  H   GLY A   1     -10.206  19.071  69.472  1.00  0.00     0.000 HD 
ATOM      9  O   GLY A   1      -9.930  18.883  68.583  1.00  0.00    -0.381 OA 
ENDBRANCH   5   7
BRANCH   6  10
HETATM   10  C   UNL     1     -12.624  13.631  65.360  1.00  0.00    -0.533 C  
BRANCH  10  11
HETATM   11  C   UNL     1     -12.127  13.376  63.935  1.00  0.00    -0.514 C  
BRANCH  11  12
HETATM   12  C   UNL     1     -11.699  11.913  63.790  1.00  0.00    -0.554 C  
BRANCH  12  13
HETATM   13  C   UNL     1     -10.190  11.766  63.604  1.00  0.00    -0.461 C  
BRANCH  13  14
HETATM   14  C   UNL     1      -9.485  11.213  64.850  1.00  0.00    -0.251 C  
BRANCH  14  15
HETATM   15  C   UNL     1     -10.028   9.879  65.376  1.00  0.00    -0.349 C  
BRANCH  15  16
HETATM   16  C   UNL     1     -10.234   9.841  66.866  1.00  0.00    -0.310 C  
HETATM   17  C   UNL     1     -10.471   8.725  67.573  1.00  0.00    -0.340 C  
BRANCH  17  18
HETATM   18  C   UNL     1     -10.611   7.344  67.002  1.00  0.00    -0.414 C  
BRANCH  18  19
HETATM   19  C   UNL     1     -10.172   6.272  67.996  1.00  0.00    -0.205 C  
BRANCH  19  20
HETATM   20  C   UNL     1     -11.031   6.342  69.259  1.00  0.00    -0.435 C  
BRANCH  20  21
HETATM   21  C   UNL     1     -10.168   6.426  70.514  1.00  0.00    -0.230 C  
BRANCH  21  22
HETATM   22  C   UNL     1     -10.407   7.735  71.261  1.00  0.00    -0.222 C  
BRANCH  22  23
HETATM   23  C   UNL     1     -11.848   8.206  71.080  1.00  0.00    -0.303 C  
BRANCH  23  24
HETATM   24  C   UNL     1     -11.958   9.726  71.153  1.00  0.00    -0.463 C  
HETATM   25  C   UNL     1     -13.184  10.159  71.925  1.00  0.00    -0.452 C  
HETATM   26  O   UNL     1     -13.280  11.506  72.011  1.00  0.00    -0.509 OA 
HETATM   27  O   UNL     1     -14.004   9.414  72.427  1.00  0.00    -0.426 OA 
ENDBRANCH  23  24
ENDBRANCH  22  23
ENDBRANCH  21  22
ENDBRANCH  20  21
ENDBRANCH  19  20
ENDBRANCH  18  19
ENDBRANCH  17  18
ENDBRANCH  15  16
ENDBRANCH  14  15
ENDBRANCH  13  14
ENDBRANCH  12  13
ENDBRANCH  11  12
ENDBRANCH  10  11
ENDBRANCH   6  10
TORSDOF 15
ENDMDL
MODEL       40
REMARK 921   NORMALIZED FREE ENERGY PREDICTED BY IDOCK:   -4.78 KCAL/MOL
REMARK 922        TOTAL FREE ENERGY PREDICTED BY IDOCK:  -10.92 KCAL/MOL
REMARK 923 INTER-LIGAND FREE ENERGY PREDICTED BY IDOCK:   -9.33 KCAL/MOL
REMARK 924 INTRA-LIGAND FREE ENERGY PREDICTED BY IDOCK:   -1.58 KCAL/MOL
REMARK 927      BINDING AFFINITY PREDICTED BY RF-SCORE:    0.00 PKD
ROOT
ATOM      1  N   GLY A   1      -7.417  10.983  69.983  1.00  0.00    -0.392 NA 
HETATM    2  C   UNL     1      -7.815  16.962  66.447  1.00  0.00    -0.348 C  
ATOM      3  H2  GLY A   1      -6.529  11.292  70.379  1.00  0.00     0.000 HD 
ATOM      4  H1  GLY A   1      -8.185  11.086  70.645  1.00  0.00     0.000 HD 
ATOM      5  CA  GLY A   1      -7.730  11.681  68.728  1.00  0.00    -0.111 C  
HETATM    6  C   UNL     1      -8.997  17.397  67.300  1.00  0.00    -0.241 C  
ENDROOT
BRANCH   5   7
ATOM      7  C   GLY A   1      -6.576  11.526  67.734  1.00  0.00    -0.068 C  
ATOM      8  H   GLY A   1      -5.509  12.708  66.592  1.00  0.00     0.000 HD 
ATOM      9  O   GLY A   1      -6.224  12.804  67.208  1.00  0.00    -0.212 OA 
ENDBRANCH   5   7
BRANCH   6  10
HETATM   10  C   UNL     1     -10.325  16.772  66.873  1.00  0.00    -0.294 C  
BRANCH  10  11
HETATM   11  C   UNL     1     -11.120  16.130  68.013  1.00  0.00    -0.317 C  
BRANCH  11  12
HETATM   12  C   UNL     1     -10.474  16.483  69.356  1.00  0.00    -0.320 C  
BRANCH  12  13
HETATM   13  C   UNL     1     -10.793  15.455  70.440  1.00  0.00    -0.333 C  
BRANCH  13  14
HETATM   14  C   UNL     1     -11.832  15.957  71.452  1.00  0.00    -0.524 C  
BRANCH  14  15
HETATM   15  C   UNL     1     -11.797  15.274  72.826  1.00  0.00    -0.521 C  
BRANCH  15  16
HETATM   16  C   UNL     1     -13.071  14.565  73.196  1.00  0.00    -0.553 C  
HETATM   17  C   UNL     1     -13.594  13.534  72.513  1.00  0.00    -0.674 C  
BRANCH  17  18
HETATM   18  C   UNL     1     -13.027  12.947  71.253  1.00  0.00    -0.317 C  
BRANCH  18  19
HETATM   19  C   UNL     1     -12.689  11.467  71.420  1.00  0.00    -0.489 C  
BRANCH  19  20
HETATM   20  C   UNL     1     -12.077  10.918  70.131  1.00  0.00    -0.431 C  
BRANCH  20  21
HETATM   21  C   UNL     1     -11.775  12.037  69.139  1.00  0.00    -0.389 C  
BRANCH  21  22
HETATM   22  C   UNL     1     -11.712  11.506  67.710  1.00  0.00    -0.299 C  
BRANCH  22  23
HETATM   23  C   UNL     1     -11.302  12.611  66.739  1.00  0.00    -0.373 C  
BRANCH  23  24
HETATM   24  C   UNL     1     -12.265  12.711  65.560  1.00  0.00    -0.501 C  
HETATM   25  C   UNL     1     -11.750  13.657  64.500  1.00  0.00    -0.400 C  
HETATM   26  O   UNL     1     -12.589  13.738  63.441  1.00  0.00    -0.842 OA 
HETATM   27  O   UNL     1     -10.709  14.283  64.555  1.00  0.00    -0.388 OA 
ENDBRANCH  23  24
ENDBRANCH  22  23
ENDBRANCH  21  22
ENDBRANCH  20  21
ENDBRANCH  19  20
ENDBRANCH  18  19
ENDBRANCH  17  18
ENDBRANCH  15  16
ENDBRANCH  14  15
ENDBRANCH  13  14
ENDBRANCH  12  13
ENDBRANCH  11  12
ENDBRANCH  10  11
ENDBRANCH   6  10
TORSDOF 15
ENDMDL
MODEL       41
REMARK 921   NORMALIZED FREE ENERGY PREDICTED BY IDOCK:   -4.77 KCAL/MOL
REMARK 922        TOTAL FREE ENERGY PREDICTED BY IDOCK:  -10.91 KCAL/MOL
REMARK 923 INTER-LIGAND FREE ENERGY PREDICTED BY IDOCK:   -8.95 KCAL/MOL
REMARK 924 INTRA-LIGAND FREE ENERGY PREDICTED BY IDOCK:   -1.96 KCAL/MOL
REMARK 927      BINDING AFFINITY PREDICTED BY RF-SCORE:    0.00 PKD
ROOT
ATOM      1  N   GLY A   1     -12.649  11.371  62.764  1.00  0.00    -0.763 NA 
HETATM    2  C   UNL     1      -8.518  11.799  68.346  1.00  0.00    -0.155 C  
ATOM      3  H2  GLY A   1     -11.821  11.325  62.170  1.00  0.00     0.000 HD 
ATOM      4  H1  GLY A   1     -13.075  10.453  62.895  1.00  0.00     0.000 HD 
ATOM      5  CA  GLY A   1     -12.359  11.986  64.066  1.00  0.00    -0.401 C  
HETATM    6  C   UNL     1      -8.969  10.418  68.795  1.00  0.00    -0.157 C  
ENDROOT
BRANCH   5   7
ATOM      7  C   GLY A   1     -11.720  13.364  63.869  1.00  0.00    -0.404 C  
ATOM      8  H   GLY A   1     -12.301  15.131  63.251  1.00  0.00     0.000 HD 
ATOM      9  O   GLY A   1     -12.697  14.276  63.373  1.00  0.00    -0.733 OA 
ENDBRANCH   5   7
BRANCH   6  10
HETATM   10  C   UNL     1     -10.326  10.413  69.496  1.00  0.00    -0.264 C  
BRANCH  10  11
HETATM   11  C   UNL     1     -11.465  11.026  68.678  1.00  0.00    -0.375 C  
BRANCH  11  12
HETATM   12  C   UNL     1     -12.653  11.333  69.595  1.00  0.00    -0.044 C  
BRANCH  12  13
HETATM   13  C   UNL     1     -12.267  11.306  71.073  1.00  0.00    -0.417 C  
BRANCH  13  14
HETATM   14  C   UNL     1     -13.366  11.866  71.988  1.00  0.00    -0.425 C  
BRANCH  14  15
HETATM   15  C   UNL     1     -13.627  13.371  71.858  1.00  0.00    -0.494 C  
BRANCH  15  16
HETATM   16  C   UNL     1     -12.993  14.203  72.939  1.00  0.00    -0.498 C  
HETATM   17  C   UNL     1     -12.337  15.355  72.727  1.00  0.00    -0.508 C  
BRANCH  17  18
HETATM   18  C   UNL     1     -12.088  15.982  71.386  1.00  0.00    -0.479 C  
BRANCH  18  19
HETATM   19  C   UNL     1     -10.945  15.297  70.643  1.00  0.00    -0.318 C  
BRANCH  19  20
HETATM   20  C   UNL     1     -11.422  14.811  69.274  1.00  0.00    -0.322 C  
BRANCH  20  21
HETATM   21  C   UNL     1     -10.397  15.118  68.187  1.00  0.00    -0.239 C  
BRANCH  21  22
HETATM   22  C   UNL     1     -11.034  15.082  66.801  1.00  0.00    -0.323 C  
BRANCH  22  23
HETATM   23  C   UNL     1     -10.518  16.231  65.938  1.00  0.00    -0.359 C  
BRANCH  23  24
HETATM   24  C   UNL     1      -9.330  16.934  66.586  1.00  0.00    -0.278 C  
HETATM   25  C   UNL     1      -9.695  18.324  67.056  1.00  0.00    -0.303 C  
HETATM   26  O   UNL     1      -8.651  18.949  67.649  1.00  0.00    -0.275 OA 
HETATM   27  O   UNL     1     -10.786  18.849  66.936  1.00  0.00    -0.421 OA 
ENDBRANCH  23  24
ENDBRANCH  22  23
ENDBRANCH  21  22
ENDBRANCH  20  21
ENDBRANCH  19  20
ENDBRANCH  18  19
ENDBRANCH  17  18
ENDBRANCH  15  16
ENDBRANCH  14  15
ENDBRANCH  13  14
ENDBRANCH  12  13
ENDBRANCH  11  12
ENDBRANCH  10  11
ENDBRANCH   6  10
TORSDOF 15
ENDMDL
MODEL       42
REMARK 921   NORMALIZED FREE ENERGY PREDICTED BY IDOCK:   -4.77 KCAL/MOL
REMARK 922        TOTAL FREE ENERGY PREDICTED BY IDOCK:  -10.90 KCAL/MOL
REMARK 923 INTER-LIGAND FREE ENERGY PREDICTED BY IDOCK:   -8.49 KCAL/MOL
REMARK 924 INTRA-LIGAND FREE ENERGY PREDICTED BY IDOCK:   -2.41 KCAL/MOL
REMARK 927      BINDING AFFINITY PREDICTED BY RF-SCORE:    0.00 PKD
ROOT
ATOM      1  N   GLY A   1     -14.336   8.842  73.200  1.00  0.00    -1.145 NA 
HETATM    2  C   UNL     1     -10.766   7.620  67.354  1.00  0.00    -0.318 C  
ATOM      3  H2  GLY A   1     -15.162   9.046  72.638  1.00  0.00     0.000 HD 
ATOM      4  H1  GLY A   1     -14.377   7.910  73.613  1.00  0.00     0.000 HD 
ATOM      5  CA  GLY A   1     -13.095   9.003  72.431  1.00  0.00    -0.423 C  
HETATM    6  C   UNL     1     -10.674   6.144  67.710  1.00  0.00    -0.382 C  
ENDROOT
BRANCH   5   7
ATOM      7  C   GLY A   1     -13.033  10.402  71.812  1.00  0.00    -0.475 C  
ATOM      8  H   GLY A   1     -13.461  11.216  70.082  1.00  0.00     0.000 HD 
ATOM      9  O   GLY A   1     -13.499  10.349  70.466  1.00  0.00    -0.142 OA 
ENDBRANCH   5   7
BRANCH   6  10
HETATM   10  C   UNL     1      -9.584   5.825  68.733  1.00  0.00    -0.156 C  
BRANCH  10  11
HETATM   11  C   UNL     1      -8.774   7.039  69.196  1.00  0.00    -0.132 C  
BRANCH  11  12
HETATM   12  C   UNL     1      -9.231   7.462  70.594  1.00  0.00    -0.157 C  
BRANCH  12  13
HETATM   13  C   UNL     1      -9.326   8.980  70.739  1.00  0.00    -0.305 C  
BRANCH  13  14
HETATM   14  C   UNL     1      -8.350   9.731  69.822  1.00  0.00    -0.189 C  
BRANCH  14  15
HETATM   15  C   UNL     1      -8.981  10.796  68.918  1.00  0.00    -0.158 C  
BRANCH  15  16
HETATM   16  C   UNL     1     -10.485  10.767  68.887  1.00  0.00    -0.228 C  
HETATM   17  C   UNL     1     -11.234  11.223  67.870  1.00  0.00    -0.353 C  
BRANCH  17  18
HETATM   18  C   UNL     1     -10.708  11.870  66.623  1.00  0.00    -0.291 C  
BRANCH  18  19
HETATM   19  C   UNL     1     -11.829  12.486  65.788  1.00  0.00    -0.494 C  
BRANCH  19  20
HETATM   20  C   UNL     1     -12.273  13.814  66.401  1.00  0.00    -0.480 C  
BRANCH  20  21
HETATM   21  C   UNL     1     -11.098  14.557  67.028  1.00  0.00    -0.324 C  
BRANCH  21  22
HETATM   22  C   UNL     1     -11.540  15.354  68.252  1.00  0.00    -0.361 C  
BRANCH  22  23
HETATM   23  C   UNL     1     -11.169  14.621  69.539  1.00  0.00    -0.300 C  
BRANCH  23  24
HETATM   24  C   UNL     1     -12.382  13.950  70.176  1.00  0.00    -0.400 C  
HETATM   25  C   UNL     1     -13.040  14.846  71.200  1.00  0.00    -0.396 C  
HETATM   26  O   UNL     1     -14.129  14.267  71.757  1.00  0.00    -0.425 OA 
HETATM   27  O   UNL     1     -12.667  15.962  71.508  1.00  0.00    -0.460 OA 
ENDBRANCH  23  24
ENDBRANCH  22  23
ENDBRANCH  21  22
ENDBRANCH  20  21
ENDBRANCH  19  20
ENDBRANCH  18  19
ENDBRANCH  17  18
ENDBRANCH  15  16
ENDBRANCH  14  15
ENDBRANCH  13  14
ENDBRANCH  12  13
ENDBRANCH  11  12
ENDBRANCH  10  11
ENDBRANCH   6  10
TORSDOF 15
ENDMDL
MODEL       43
REMARK 921   NORMALIZED FREE ENERGY PREDICTED BY IDOCK:   -4.76 KCAL/MOL
REMARK 922        TOTAL FREE ENERGY PREDICTED BY IDOCK:  -10.87 KCAL/MOL
REMARK 923 INTER-LIGAND FREE ENERGY PREDICTED BY IDOCK:   -8.41 KCAL/MOL
REMARK 924 INTRA-LIGAND FREE ENERGY PREDICTED BY IDOCK:   -2.47 KCAL/MOL
REMARK 927      BINDING AFFINITY PREDICTED BY RF-SCORE:    0.00 PKD
ROOT
ATOM      1  N   GLY A   1     -12.268  10.918  68.954  1.00  0.00    -0.764 NA 
HETATM    2  C   UNL     1      -6.445  14.632  69.801  1.00  0.00    -0.159 C  
ATOM      3  H2  GLY A   1     -12.481  11.051  69.943  1.00  0.00     0.000 HD 
ATOM      4  H1  GLY A   1     -12.819  11.537  68.360  1.00  0.00     0.000 HD 
ATOM      5  CA  GLY A   1     -10.836  11.088  68.674  1.00  0.00    -0.215 C  
HETATM    6  C   UNL     1      -7.023  15.747  68.943  1.00  0.00    -0.135 C  
ENDROOT
BRANCH   5   7
ATOM      7  C   GLY A   1     -10.008  10.160  69.566  1.00  0.00    -0.235 C  
ATOM      8  H   GLY A   1      -9.786   8.227  69.797  1.00  0.00     0.000 HD 
ATOM      9  O   GLY A   1     -10.300   8.803  69.244  1.00  0.00    -0.207 OA 
ENDBRANCH   5   7
BRANCH   6  10
HETATM   10  C   UNL     1      -6.925  15.480  67.441  1.00  0.00    -0.232 C  
BRANCH  10  11
HETATM   11  C   UNL     1      -6.717  16.733  66.586  1.00  0.00    -0.241 C  
BRANCH  11  12
HETATM   12  C   UNL     1      -6.363  17.920  67.486  1.00  0.00    -0.179 C  
BRANCH  12  13
HETATM   13  C   UNL     1      -6.665  19.262  66.821  1.00  0.00    -0.204 C  
BRANCH  13  14
HETATM   14  C   UNL     1      -7.579  20.157  67.669  1.00  0.00    -0.339 C  
BRANCH  14  15
HETATM   15  C   UNL     1      -8.510  19.419  68.638  1.00  0.00    -0.395 C  
BRANCH  15  16
HETATM   16  C   UNL     1      -9.974  19.683  68.411  1.00  0.00    -0.543 C  
HETATM   17  C   UNL     1     -10.705  19.127  67.433  1.00  0.00    -0.578 C  
BRANCH  17  18
HETATM   18  C   UNL     1     -10.186  18.187  66.384  1.00  0.00    -0.405 C  
BRANCH  18  19
HETATM   19  C   UNL     1     -10.725  16.771  66.573  1.00  0.00    -0.104 C  
BRANCH  19  20
HETATM   20  C   UNL     1     -10.423  16.277  67.987  1.00  0.00    -0.293 C  
BRANCH  20  21
HETATM   21  C   UNL     1     -11.688  15.791  68.688  1.00  0.00    -0.353 C  
BRANCH  21  22
HETATM   22  C   UNL     1     -11.639  16.087  70.184  1.00  0.00    -0.324 C  
BRANCH  22  23
HETATM   23  C   UNL     1     -12.788  15.394  70.911  1.00  0.00    -0.536 C  
BRANCH  23  24
HETATM   24  C   UNL     1     -12.727  13.878  70.747  1.00  0.00    -0.383 C  
HETATM   25  C   UNL     1     -13.292  13.165  71.954  1.00  0.00    -0.455 C  
HETATM   26  O   UNL     1     -13.259  11.819  71.810  1.00  0.00    -0.457 OA 
HETATM   27  O   UNL     1     -13.737  13.702  72.951  1.00  0.00    -0.672 OA 
ENDBRANCH  23  24
ENDBRANCH  22  23
ENDBRANCH  21  22
ENDBRANCH  20  21
ENDBRANCH  19  20
ENDBRANCH  18  19
ENDBRANCH  17  18
ENDBRANCH  15  16
ENDBRANCH  14  15
ENDBRANCH  13  14
ENDBRANCH  12  13
ENDBRANCH  11  12
ENDBRANCH  10  11
ENDBRANCH   6  10
TORSDOF 15
ENDMDL
MODEL       44
REMARK 921   NORMALIZED FREE ENERGY PREDICTED BY IDOCK:   -4.75 KCAL/MOL
REMARK 922        TOTAL FREE ENERGY PREDICTED BY IDOCK:  -10.87 KCAL/MOL
REMARK 923 INTER-LIGAND FREE ENERGY PREDICTED BY IDOCK:   -8.30 KCAL/MOL
REMARK 924 INTRA-LIGAND FREE ENERGY PREDICTED BY IDOCK:   -2.57 KCAL/MOL
REMARK 927      BINDING AFFINITY PREDICTED BY RF-SCORE:    0.00 PKD
ROOT
ATOM      1  N   GLY A   1     -12.648  14.377  63.347  1.00  0.00    -0.970 NA 
HETATM    2  C   UNL     1      -9.193  11.842  68.829  1.00  0.00     0.025 C  
ATOM      3  H2  GLY A   1     -11.928  13.996  62.734  1.00  0.00     0.000 HD 
ATOM      4  H1  GLY A   1     -13.489  13.801  63.352  1.00  0.00     0.000 HD 
ATOM      5  CA  GLY A   1     -12.155  14.568  64.718  1.00  0.00    -0.445 C  
HETATM    6  C   UNL     1     -10.311  10.842  69.081  1.00  0.00    -0.228 C  
ENDROOT
BRANCH   5   7
ATOM      7  C   GLY A   1     -10.892  15.434  64.711  1.00  0.00    -0.364 C  
ATOM      8  H   GLY A   1     -10.391  17.222  64.084  1.00  0.00     0.000 HD 
ATOM      9  O   GLY A   1     -11.175  16.685  64.088  1.00  0.00    -1.103 OA 
ENDBRANCH   5   7
BRANCH   6  10
HETATM   10  C   UNL     1     -11.516  11.438  69.807  1.00  0.00    -0.376 C  
BRANCH  10  11
HETATM   11  C   UNL     1     -12.645  10.443  70.085  1.00  0.00    -0.197 C  
BRANCH  11  12
HETATM   12  C   UNL     1     -12.708  10.139  71.585  1.00  0.00    -0.549 C  
BRANCH  12  13
HETATM   13  C   UNL     1     -12.662   8.640  71.875  1.00  0.00    -0.413 C  
BRANCH  13  14
HETATM   14  C   UNL     1     -11.268   8.155  72.294  1.00  0.00    -0.425 C  
BRANCH  14  15
HETATM   15  C   UNL     1     -10.450   7.470  71.191  1.00  0.00    -0.216 C  
BRANCH  15  16
HETATM   16  C   UNL     1     -11.216   6.444  70.401  1.00  0.00    -0.435 C  
HETATM   17  C   UNL     1     -11.281   6.410  69.061  1.00  0.00    -0.402 C  
BRANCH  17  18
HETATM   18  C   UNL     1     -10.644   7.401  68.131  1.00  0.00    -0.216 C  
BRANCH  18  19
HETATM   19  C   UNL     1      -9.230   6.982  67.737  1.00  0.00    -0.124 C  
BRANCH  19  20
HETATM   20  C   UNL     1      -8.232   8.078  68.110  1.00  0.00    -0.126 C  
BRANCH  20  21
HETATM   21  C   UNL     1      -7.364   8.468  66.917  1.00  0.00    -0.083 C  
BRANCH  21  22
HETATM   22  C   UNL     1      -8.125   8.306  65.604  1.00  0.00    -0.124 C  
BRANCH  22  23
HETATM   23  C   UNL     1      -8.343   9.661  64.934  1.00  0.00    -0.152 C  
BRANCH  23  24
HETATM   24  C   UNL     1      -9.782  10.141  65.090  1.00  0.00    -0.370 C  
HETATM   25  C   UNL     1     -10.204  11.018  63.933  1.00  0.00    -0.364 C  
HETATM   26  O   UNL     1     -11.486  11.435  64.053  1.00  0.00    -0.318 OA 
HETATM   27  O   UNL     1      -9.504  11.329  62.988  1.00  0.00    -0.324 OA 
ENDBRANCH  23  24
ENDBRANCH  22  23
ENDBRANCH  21  22
ENDBRANCH  20  21
ENDBRANCH  19  20
ENDBRANCH  18  19
ENDBRANCH  17  18
ENDBRANCH  15  16
ENDBRANCH  14  15
ENDBRANCH  13  14
ENDBRANCH  12  13
ENDBRANCH  11  12
ENDBRANCH  10  11
ENDBRANCH   6  10
TORSDOF 15
ENDMDL
MODEL       45
REMARK 921   NORMALIZED FREE ENERGY PREDICTED BY IDOCK:   -4.75 KCAL/MOL
REMARK 922        TOTAL FREE ENERGY PREDICTED BY IDOCK:  -10.85 KCAL/MOL
REMARK 923 INTER-LIGAND FREE ENERGY PREDICTED BY IDOCK:   -8.13 KCAL/MOL
REMARK 924 INTRA-LIGAND FREE ENERGY PREDICTED BY IDOCK:   -2.73 KCAL/MOL
REMARK 927      BINDING AFFINITY PREDICTED BY RF-SCORE:    0.00 PKD
ROOT
ATOM      1  N   GLY A   1     -10.569  11.165  62.988  1.00  0.00    -0.801 NA 
HETATM    2  C   UNL     1     -11.994  13.128  69.509  1.00  0.00    -0.354 C  
ATOM      3  H2  GLY A   1      -9.829  11.865  62.953  1.00  0.00     0.000 HD 
ATOM      4  H1  GLY A   1     -10.198  10.226  63.134  1.00  0.00     0.000 HD 
ATOM      5  CA  GLY A   1     -11.574  11.479  64.013  1.00  0.00    -0.191 C  
HETATM    6  C   UNL     1     -11.486  11.793  70.030  1.00  0.00    -0.234 C  
ENDROOT
BRANCH   5   7
ATOM      7  C   GLY A   1     -12.130  12.889  63.793  1.00  0.00    -0.508 C  
ATOM      8  H   GLY A   1     -13.534  14.007  64.581  1.00  0.00     0.000 HD 
ATOM      9  O   GLY A   1     -13.188  13.133  64.717  1.00  0.00    -0.670 OA 
ENDBRANCH   5   7
BRANCH   6  10
HETATM   10  C   UNL     1     -12.496  10.655  69.892  1.00  0.00    -0.241 C  
BRANCH  10  11
HETATM   11  C   UNL     1     -12.513   9.676  71.069  1.00  0.00    -0.382 C  
BRANCH  11  12
HETATM   12  C   UNL     1     -11.078   9.327  71.472  1.00  0.00    -0.443 C  
BRANCH  12  13
HETATM   13  C   UNL     1     -10.903   7.837  71.761  1.00  0.00    -0.277 C  
BRANCH  13  14
HETATM   14  C   UNL     1     -11.885   6.956  70.976  1.00  0.00    -0.411 C  
BRANCH  14  15
HETATM   15  C   UNL     1     -11.336   6.357  69.675  1.00  0.00    -0.479 C  
BRANCH  15  16
HETATM   16  C   UNL     1      -9.930   6.776  69.346  1.00  0.00    -0.167 C  
HETATM   17  C   UNL     1      -9.602   7.651  68.383  1.00  0.00    -0.155 C  
BRANCH  17  18
HETATM   18  C   UNL     1     -10.568   8.323  67.451  1.00  0.00    -0.324 C  
BRANCH  18  19
HETATM   19  C   UNL     1     -10.088   9.714  67.044  1.00  0.00    -0.275 C  
BRANCH  19  20
HETATM   20  C   UNL     1      -8.665   9.950  67.549  1.00  0.00    -0.121 C  
BRANCH  20  21
HETATM   21  C   UNL     1      -8.432  11.419  67.887  1.00  0.00    -0.139 C  
BRANCH  21  22
HETATM   22  C   UNL     1      -9.261  12.331  66.988  1.00  0.00    -0.205 C  
BRANCH  22  23
HETATM   23  C   UNL     1      -9.111  13.790  67.411  1.00  0.00    -0.221 C  
BRANCH  23  24
HETATM   24  C   UNL     1      -9.171  14.733  66.213  1.00  0.00    -0.278 C  
HETATM   25  C   UNL     1     -10.566  15.274  65.999  1.00  0.00    -0.319 C  
HETATM   26  O   UNL     1     -10.625  16.127  64.949  1.00  0.00    -0.622 OA 
HETATM   27  O   UNL     1     -11.542  15.002  66.673  1.00  0.00    -0.311 OA 
ENDBRANCH  23  24
ENDBRANCH  22  23
ENDBRANCH  21  22
ENDBRANCH  20  21
ENDBRANCH  19  20
ENDBRANCH  18  19
ENDBRANCH  17  18
ENDBRANCH  15  16
ENDBRANCH  14  15
ENDBRANCH  13  14
ENDBRANCH  12  13
ENDBRANCH  11  12
ENDBRANCH  10  11
ENDBRANCH   6  10
TORSDOF 15
ENDMDL
MODEL       46
REMARK 921   NORMALIZED FREE ENERGY PREDICTED BY IDOCK:   -4.73 KCAL/MOL
REMARK 922        TOTAL FREE ENERGY PREDICTED BY IDOCK:  -10.83 KCAL/MOL
REMARK 923 INTER-LIGAND FREE ENERGY PREDICTED BY IDOCK:   -8.44 KCAL/MOL
REMARK 924 INTRA-LIGAND FREE ENERGY PREDICTED BY IDOCK:   -2.39 KCAL/MOL
REMARK 927      BINDING AFFINITY PREDICTED BY RF-SCORE:    0.00 PKD
ROOT
ATOM      1  N   GLY A   1     -10.975  11.074  62.893  1.00  0.00    -0.741 NA 
HETATM    2  C   UNL     1      -7.458  12.950  68.596  1.00  0.00    -0.092 C  
ATOM      3  H2  GLY A   1     -11.638  10.571  63.483  1.00  0.00     0.000 HD 
ATOM      4  H1  GLY A   1     -11.348  11.969  62.580  1.00  0.00     0.000 HD 
ATOM      5  CA  GLY A   1      -9.682  11.268  63.563  1.00  0.00    -0.336 C  
HETATM    6  C   UNL     1      -7.873  14.397  68.385  1.00  0.00    -0.138 C  
ENDROOT
BRANCH   5   7
ATOM      7  C   GLY A   1      -9.122   9.923  64.034  1.00  0.00    -0.259 C  
ATOM      8  H   GLY A   1      -8.509   8.261  63.195  1.00  0.00     0.000 HD 
ATOM      9  O   GLY A   1      -8.857   9.095  62.904  1.00  0.00    -0.213 OA 
ENDBRANCH   5   7
BRANCH   6  10
HETATM   10  C   UNL     1      -7.039  15.128  67.333  1.00  0.00    -0.219 C  
BRANCH  10  11
HETATM   11  C   UNL     1      -6.676  16.569  67.700  1.00  0.00    -0.161 C  
BRANCH  11  12
HETATM   12  C   UNL     1      -6.271  17.338  66.440  1.00  0.00    -0.246 C  
BRANCH  12  13
HETATM   13  C   UNL     1      -5.356  18.521  66.750  1.00  0.00    -0.156 C  
BRANCH  13  14
HETATM   14  C   UNL     1      -5.477  19.005  68.202  1.00  0.00    -0.185 C  
BRANCH  14  15
HETATM   15  C   UNL     1      -6.133  20.380  68.385  1.00  0.00    -0.338 C  
BRANCH  15  16
HETATM   16  C   UNL     1      -7.063  20.774  67.271  1.00  0.00    -0.417 C  
HETATM   17  C   UNL     1      -8.373  20.483  67.235  1.00  0.00    -0.355 C  
BRANCH  17  18
HETATM   18  C   UNL     1      -9.118  19.687  68.267  1.00  0.00    -0.395 C  
BRANCH  18  19
HETATM   19  C   UNL     1     -10.539  19.360  67.814  1.00  0.00    -0.538 C  
BRANCH  19  20
HETATM   20  C   UNL     1     -10.504  18.474  66.569  1.00  0.00    -0.435 C  
BRANCH  20  21
HETATM   21  C   UNL     1     -10.562  16.995  66.938  1.00  0.00    -0.208 C  
BRANCH  21  22
HETATM   22  C   UNL     1     -10.063  16.120  65.791  1.00  0.00    -0.390 C  
BRANCH  22  23
HETATM   23  C   UNL     1     -11.223  15.679  64.902  1.00  0.00    -0.376 C  
BRANCH  23  24
HETATM   24  C   UNL     1     -11.879  14.404  65.423  1.00  0.00    -0.366 C  
HETATM   25  C   UNL     1     -12.523  13.613  64.307  1.00  0.00    -0.248 C  
HETATM   26  O   UNL     1     -13.092  12.471  64.757  1.00  0.00    -0.853 OA 
HETATM   27  O   UNL     1     -12.543  13.932  63.133  1.00  0.00    -0.775 OA 
ENDBRANCH  23  24
ENDBRANCH  22  23
ENDBRANCH  21  22
ENDBRANCH  20  21
ENDBRANCH  19  20
ENDBRANCH  18  19
ENDBRANCH  17  18
ENDBRANCH  15  16
ENDBRANCH  14  15
ENDBRANCH  13  14
ENDBRANCH  12  13
ENDBRANCH  11  12
ENDBRANCH  10  11
ENDBRANCH   6  10
TORSDOF 15
ENDMDL
MODEL       47
REMARK 921   NORMALIZED FREE ENERGY PREDICTED BY IDOCK:   -4.72 KCAL/MOL
REMARK 922        TOTAL FREE ENERGY PREDICTED BY IDOCK:  -10.81 KCAL/MOL
REMARK 923 INTER-LIGAND FREE ENERGY PREDICTED BY IDOCK:   -8.83 KCAL/MOL
REMARK 924 INTRA-LIGAND FREE ENERGY PREDICTED BY IDOCK:   -1.98 KCAL/MOL
REMARK 927      BINDING AFFINITY PREDICTED BY RF-SCORE:    0.00 PKD
ROOT
ATOM      1  N   GLY A   1     -12.732  11.576  62.742  1.00  0.00    -0.746 NA 
HETATM    2  C   UNL     1      -7.526  11.478  67.358  1.00  0.00    -0.127 C  
ATOM      3  H2  GLY A   1     -12.047  11.666  61.991  1.00  0.00     0.000 HD 
ATOM      4  H1  GLY A   1     -13.090  10.625  62.818  1.00  0.00     0.000 HD 
ATOM      5  CA  GLY A   1     -12.191  12.021  64.034  1.00  0.00    -0.403 C  
HETATM    6  C   UNL     1      -7.827  10.022  67.677  1.00  0.00    -0.095 C  
ENDROOT
BRANCH   5   7
ATOM      7  C   GLY A   1     -11.654  13.450  63.919  1.00  0.00    -0.354 C  
ATOM      8  H   GLY A   1     -12.410  15.251  63.766  1.00  0.00     0.000 HD 
ATOM      9  O   GLY A   1     -12.744  14.365  63.837  1.00  0.00    -0.771 OA 
ENDBRANCH   5   7
BRANCH   6  10
HETATM   10  C   UNL     1      -9.005   9.834  68.634  1.00  0.00    -0.130 C  
BRANCH  10  11
HETATM   11  C   UNL     1      -9.853   8.590  68.358  1.00  0.00    -0.189 C  
BRANCH  11  12
HETATM   12  C   UNL     1     -10.484   8.095  69.663  1.00  0.00    -0.224 C  
BRANCH  12  13
HETATM   13  C   UNL     1      -9.760   8.632  70.897  1.00  0.00    -0.254 C  
BRANCH  13  14
HETATM   14  C   UNL     1     -10.706   8.893  72.077  1.00  0.00    -0.389 C  
BRANCH  14  15
HETATM   15  C   UNL     1     -12.195   8.981  71.722  1.00  0.00    -0.434 C  
BRANCH  15  16
HETATM   16  C   UNL     1     -12.803  10.339  71.940  1.00  0.00    -0.528 C  
HETATM   17  C   UNL     1     -12.830  11.317  71.022  1.00  0.00    -0.395 C  
BRANCH  17  18
HETATM   18  C   UNL     1     -12.228  11.241  69.649  1.00  0.00    -0.340 C  
BRANCH  18  19
HETATM   19  C   UNL     1     -11.563  12.555  69.247  1.00  0.00    -0.378 C  
BRANCH  19  20
HETATM   20  C   UNL     1     -11.906  12.896  67.797  1.00  0.00    -0.391 C  
BRANCH  20  21
HETATM   21  C   UNL     1     -11.103  14.096  67.304  1.00  0.00    -0.315 C  
BRANCH  21  22
HETATM   22  C   UNL     1     -11.327  15.314  68.195  1.00  0.00    -0.346 C  
BRANCH  22  23
HETATM   23  C   UNL     1     -10.103  16.227  68.182  1.00  0.00    -0.244 C  
BRANCH  23  24
HETATM   24  C   UNL     1     -10.493  17.690  67.993  1.00  0.00    -0.395 C  
HETATM   25  C   UNL     1     -10.350  18.122  66.551  1.00  0.00    -0.386 C  
HETATM   26  O   UNL     1     -10.711  19.414  66.370  1.00  0.00    -0.436 OA 
HETATM   27  O   UNL     1      -9.964  17.419  65.636  1.00  0.00    -0.559 OA 
ENDBRANCH  23  24
ENDBRANCH  22  23
ENDBRANCH  21  22
ENDBRANCH  20  21
ENDBRANCH  19  20
ENDBRANCH  18  19
ENDBRANCH  17  18
ENDBRANCH  15  16
ENDBRANCH  14  15
ENDBRANCH  13  14
ENDBRANCH  12  13
ENDBRANCH  11  12
ENDBRANCH  10  11
ENDBRANCH   6  10
TORSDOF 15
ENDMDL
MODEL       48
REMARK 921   NORMALIZED FREE ENERGY PREDICTED BY IDOCK:   -4.71 KCAL/MOL
REMARK 922        TOTAL FREE ENERGY PREDICTED BY IDOCK:  -10.80 KCAL/MOL
REMARK 923 INTER-LIGAND FREE ENERGY PREDICTED BY IDOCK:   -8.82 KCAL/MOL
REMARK 924 INTRA-LIGAND FREE ENERGY PREDICTED BY IDOCK:   -1.98 KCAL/MOL
REMARK 927      BINDING AFFINITY PREDICTED BY RF-SCORE:    0.00 PKD
ROOT
ATOM      1  N   GLY A   1     -10.306  10.600  62.522  1.00  0.00    -0.697 NA 
HETATM    2  C   UNL     1      -7.157  12.474  68.437  1.00  0.00    -0.107 C  
ATOM      3  H2  GLY A   1      -9.553  11.042  61.996  1.00  0.00     0.000 HD 
ATOM      4  H1  GLY A   1     -10.206   9.586  62.551  1.00  0.00     0.000 HD 
ATOM      5  CA  GLY A   1     -10.413  11.138  63.885  1.00  0.00    -0.381 C  
HETATM    6  C   UNL     1      -6.852  11.016  68.745  1.00  0.00    -0.073 C  
ENDROOT
BRANCH   5   7
ATOM      7  C   GLY A   1     -10.563  12.662  63.842  1.00  0.00    -0.428 C  
ATOM      8  H   GLY A   1     -11.913  13.946  63.234  1.00  0.00     0.000 HD 
ATOM      9  O   GLY A   1     -11.820  13.001  63.261  1.00  0.00    -0.534 OA 
ENDBRANCH   5   7
BRANCH   6  10
HETATM   10  C   UNL     1      -8.038  10.252  69.332  1.00  0.00    -0.167 C  
BRANCH  10  11
HETATM   11  C   UNL     1      -9.396  10.630  68.735  1.00  0.00    -0.183 C  
BRANCH  11  12
HETATM   12  C   UNL     1     -10.258   9.375  68.574  1.00  0.00    -0.223 C  
BRANCH  12  13
HETATM   13  C   UNL     1     -10.982   8.999  69.865  1.00  0.00    -0.204 C  
BRANCH  13  14
HETATM   14  C   UNL     1     -11.274  10.211  70.762  1.00  0.00    -0.414 C  
BRANCH  14  15
HETATM   15  C   UNL     1     -12.688  10.793  70.643  1.00  0.00    -0.417 C  
BRANCH  15  16
HETATM   16  C   UNL     1     -13.236  11.351  71.928  1.00  0.00    -0.485 C  
HETATM   17  C   UNL     1     -13.527  12.646  72.132  1.00  0.00    -0.561 C  
BRANCH  17  18
HETATM   18  C   UNL     1     -13.320  13.753  71.140  1.00  0.00    -0.218 C  
BRANCH  18  19
HETATM   19  C   UNL     1     -13.549  15.126  71.766  1.00  0.00    -0.553 C  
BRANCH  19  20
HETATM   20  C   UNL     1     -12.299  15.991  71.609  1.00  0.00    -0.472 C  
BRANCH  20  21
HETATM   21  C   UNL     1     -11.179  15.228  70.908  1.00  0.00    -0.367 C  
BRANCH  21  22
HETATM   22  C   UNL     1     -10.619  16.024  69.733  1.00  0.00    -0.323 C  
BRANCH  22  23
HETATM   23  C   UNL     1     -11.161  15.490  68.410  1.00  0.00    -0.341 C  
BRANCH  23  24
HETATM   24  C   UNL     1     -11.229  13.966  68.402  1.00  0.00    -0.291 C  
HETATM   25  C   UNL     1     -12.000  13.449  67.209  1.00  0.00    -0.347 C  
HETATM   26  O   UNL     1     -12.049  12.097  67.183  1.00  0.00    -0.575 OA 
HETATM   27  O   UNL     1     -12.523  14.136  66.352  1.00  0.00    -0.461 OA 
ENDBRANCH  23  24
ENDBRANCH  22  23
ENDBRANCH  21  22
ENDBRANCH  20  21
ENDBRANCH  19  20
ENDBRANCH  18  19
ENDBRANCH  17  18
ENDBRANCH  15  16
ENDBRANCH  14  15
ENDBRANCH  13  14
ENDBRANCH  12  13
ENDBRANCH  11  12
ENDBRANCH  10  11
ENDBRANCH   6  10
TORSDOF 15
ENDMDL
MODEL       49
REMARK 921   NORMALIZED FREE ENERGY PREDICTED BY IDOCK:   -4.71 KCAL/MOL
REMARK 922        TOTAL FREE ENERGY PREDICTED BY IDOCK:  -10.79 KCAL/MOL
REMARK 923 INTER-LIGAND FREE ENERGY PREDICTED BY IDOCK:   -7.93 KCAL/MOL
REMARK 924 INTRA-LIGAND FREE ENERGY PREDICTED BY IDOCK:   -2.86 KCAL/MOL
REMARK 927      BINDING AFFINITY PREDICTED BY RF-SCORE:    0.00 PKD
ROOT
ATOM      1  N   GLY A   1     -10.672   5.933  70.295  1.00  0.00    -0.289 NA 
HETATM    2  C   UNL     1      -7.359   9.253  65.157  1.00  0.00    -0.098 C  
ATOM      3  H2  GLY A   1      -9.805   5.447  70.523  1.00  0.00     0.000 HD 
ATOM      4  H1  GLY A   1     -10.861   6.697  70.943  1.00  0.00     0.000 HD 
ATOM      5  CA  GLY A   1     -10.678   6.427  68.912  1.00  0.00    -0.288 C  
HETATM    6  C   UNL     1      -7.486  10.567  65.913  1.00  0.00    -0.147 C  
ENDROOT
BRANCH   5   7
ATOM      7  C   GLY A   1     -10.394   5.279  67.939  1.00  0.00    -0.125 C  
ATOM      8  H   GLY A   1     -10.570   4.965  66.012  1.00  0.00     0.000 HD 
ATOM      9  O   GLY A   1     -10.746   5.677  66.616  1.00  0.00    -0.293 OA 
ENDBRANCH   5   7
BRANCH   6  10
HETATM   10  C   UNL     1      -8.861  11.221  65.779  1.00  0.00    -0.154 C  
BRANCH  10  11
HETATM   11  C   UNL     1      -9.938  10.317  65.176  1.00  0.00    -0.395 C  
BRANCH  11  12
HETATM   12  C   UNL     1     -10.404  10.892  63.835  1.00  0.00    -0.397 C  
BRANCH  12  13
HETATM   13  C   UNL     1     -10.372  12.420  63.817  1.00  0.00    -0.454 C  
BRANCH  13  14
HETATM   14  C   UNL     1     -11.773  13.047  63.819  1.00  0.00    -0.547 C  
BRANCH  14  15
HETATM   15  C   UNL     1     -11.886  14.403  64.528  1.00  0.00    -0.463 C  
BRANCH  15  16
HETATM   16  C   UNL     1     -10.575  14.956  65.016  1.00  0.00    -0.446 C  
HETATM   17  C   UNL     1     -10.233  15.076  66.308  1.00  0.00    -0.306 C  
BRANCH  17  18
HETATM   18  C   UNL     1     -11.106  14.722  67.477  1.00  0.00    -0.323 C  
BRANCH  18  19
HETATM   19  C   UNL     1     -10.754  13.353  68.054  1.00  0.00    -0.261 C  
BRANCH  19  20
HETATM   20  C   UNL     1     -11.778  12.312  67.605  1.00  0.00    -0.403 C  
BRANCH  20  21
HETATM   21  C   UNL     1     -11.781  11.100  68.531  1.00  0.00    -0.368 C  
BRANCH  21  22
HETATM   22  C   UNL     1     -10.395  10.851  69.118  1.00  0.00    -0.228 C  
BRANCH  22  23
HETATM   23  C   UNL     1     -10.483   9.964  70.358  1.00  0.00    -0.347 C  
BRANCH  23  24
HETATM   24  C   UNL     1     -11.881   9.986  70.968  1.00  0.00    -0.476 C  
HETATM   25  C   UNL     1     -12.033   8.939  72.048  1.00  0.00    -0.369 C  
HETATM   26  O   UNL     1     -13.265   8.963  72.608  1.00  0.00    -0.427 OA 
HETATM   27  O   UNL     1     -11.172   8.156  72.402  1.00  0.00    -0.330 OA 
ENDBRANCH  23  24
ENDBRANCH  22  23
ENDBRANCH  21  22
ENDBRANCH  20  21
ENDBRANCH  19  20
ENDBRANCH  18  19
ENDBRANCH  17  18
ENDBRANCH  15  16
ENDBRANCH  14  15
ENDBRANCH  13  14
ENDBRANCH  12  13
ENDBRANCH  11  12
ENDBRANCH  10  11
ENDBRANCH   6  10
TORSDOF 15
ENDMDL
MODEL       50
REMARK 921   NORMALIZED FREE ENERGY PREDICTED BY IDOCK:   -4.70 KCAL/MOL
REMARK 922        TOTAL FREE ENERGY PREDICTED BY IDOCK:  -10.77 KCAL/MOL
REMARK 923 INTER-LIGAND FREE ENERGY PREDICTED BY IDOCK:   -8.35 KCAL/MOL
REMARK 924 INTRA-LIGAND FREE ENERGY PREDICTED BY IDOCK:   -2.42 KCAL/MOL
REMARK 927      BINDING AFFINITY PREDICTED BY RF-SCORE:    0.00 PKD
ROOT
ATOM      1  N   GLY A   1     -10.756  11.055  63.023  1.00  0.00    -0.803 NA 
HETATM    2  C   UNL     1     -11.545  15.342  68.446  1.00  0.00    -0.365 C  
ATOM      3  H2  GLY A   1      -9.983  11.634  62.694  1.00  0.00     0.000 HD 
ATOM      4  H1  GLY A   1     -10.427  10.205  63.481  1.00  0.00     0.000 HD 
ATOM      5  CA  GLY A   1     -11.656  11.797  63.915  1.00  0.00    -0.377 C  
HETATM    6  C   UNL     1     -11.071  14.248  69.389  1.00  0.00    -0.283 C  
ENDROOT
BRANCH   5   7
ATOM      7  C   GLY A   1     -12.150  13.073  63.227  1.00  0.00    -0.422 C  
ATOM      8  H   GLY A   1     -12.894  14.798  63.785  1.00  0.00     0.000 HD 
ATOM      9  O   GLY A   1     -12.588  14.006  64.211  1.00  0.00    -0.670 OA 
ENDBRANCH   5   7
BRANCH   6  10
HETATM   10  C   UNL     1     -12.150  13.221  69.731  1.00  0.00    -0.355 C  
BRANCH  10  11
HETATM   11  C   UNL     1     -12.570  13.207  71.203  1.00  0.00    -0.403 C  
BRANCH  11  12
HETATM   12  C   UNL     1     -12.875  11.772  71.640  1.00  0.00    -0.433 C  
BRANCH  12  13
HETATM   13  C   UNL     1     -12.510  10.749  70.567  1.00  0.00    -0.447 C  
BRANCH  13  14
HETATM   14  C   UNL     1     -11.235   9.961  70.901  1.00  0.00    -0.433 C  
BRANCH  14  15
HETATM   15  C   UNL     1     -11.402   8.852  71.947  1.00  0.00    -0.446 C  
BRANCH  15  16
HETATM   16  C   UNL     1     -12.134   7.636  71.447  1.00  0.00    -0.342 C  
HETATM   17  C   UNL     1     -11.547   6.588  70.848  1.00  0.00    -0.417 C  
BRANCH  17  18
HETATM   18  C   UNL     1     -10.084   6.468  70.538  1.00  0.00    -0.213 C  
BRANCH  18  19
HETATM   19  C   UNL     1      -9.835   6.264  69.045  1.00  0.00    -0.165 C  
BRANCH  19  20
HETATM   20  C   UNL     1      -9.566   7.607  68.368  1.00  0.00    -0.155 C  
BRANCH  20  21
HETATM   21  C   UNL     1     -10.622   7.917  67.311  1.00  0.00    -0.365 C  
BRANCH  21  22
HETATM   22  C   UNL     1     -10.256   9.168  66.517  1.00  0.00    -0.322 C  
BRANCH  22  23
HETATM   23  C   UNL     1     -10.610  10.429  67.301  1.00  0.00    -0.322 C  
BRANCH  23  24
HETATM   24  C   UNL     1      -9.628  11.562  67.019  1.00  0.00    -0.199 C  
HETATM   25  C   UNL     1      -8.509  11.594  68.036  1.00  0.00    -0.151 C  
HETATM   26  O   UNL     1      -7.622  12.584  67.783  1.00  0.00    -0.113 OA 
HETATM   27  O   UNL     1      -8.386  10.833  68.977  1.00  0.00    -0.148 OA 
ENDBRANCH  23  24
ENDBRANCH  22  23
ENDBRANCH  21  22
ENDBRANCH  20  21
ENDBRANCH  19  20
ENDBRANCH  18  19
ENDBRANCH  17  18
ENDBRANCH  15  16
ENDBRANCH  14  15
ENDBRANCH  13  14
ENDBRANCH  12  13
ENDBRANCH  11  12
ENDBRANCH  10  11
ENDBRANCH   6  10
TORSDOF 15
ENDMDL
MODEL       51
REMARK 921   NORMALIZED FREE ENERGY PREDICTED BY IDOCK:   -4.69 KCAL/MOL
REMARK 922        TOTAL FREE ENERGY PREDICTED BY IDOCK:  -10.75 KCAL/MOL
REMARK 923 INTER-LIGAND FREE ENERGY PREDICTED BY IDOCK:   -8.60 KCAL/MOL
REMARK 924 INTRA-LIGAND FREE ENERGY PREDICTED BY IDOCK:   -2.15 KCAL/MOL
REMARK 927      BINDING AFFINITY PREDICTED BY RF-SCORE:    0.00 PKD
ROOT
ATOM      1  N   GLY A   1     -12.290  11.534  63.328  1.00  0.00    -0.869 NA 
HETATM    2  C   UNL     1     -10.211   8.882  69.415  1.00  0.00    -0.210 C  
ATOM      3  H2  GLY A   1     -12.495  10.590  63.002  1.00  0.00     0.000 HD 
ATOM      4  H1  GLY A   1     -13.135  12.035  63.602  1.00  0.00     0.000 HD 
ATOM      5  CA  GLY A   1     -11.320  11.534  64.431  1.00  0.00    -0.209 C  
HETATM    6  C   UNL     1     -11.408   9.514  70.108  1.00  0.00    -0.241 C  
ENDROOT
BRANCH   5   7
ATOM      7  C   GLY A   1     -10.050  10.783  64.020  1.00  0.00    -0.345 C  
ATOM      8  H   GLY A   1      -8.555  11.076  62.788  1.00  0.00     0.000 HD 
ATOM      9  O   GLY A   1      -9.342  11.542  63.043  1.00  0.00    -0.338 OA 
ENDBRANCH   5   7
BRANCH   6  10
HETATM   10  C   UNL     1     -11.226  11.000  70.415  1.00  0.00    -0.102 C  
BRANCH  10  11
HETATM   11  C   UNL     1     -12.528  11.804  70.453  1.00  0.00    -0.280 C  
BRANCH  11  12
HETATM   12  C   UNL     1     -12.971  12.003  71.905  1.00  0.00    -0.428 C  
BRANCH  12  13
HETATM   13  C   UNL     1     -13.826  13.257  72.083  1.00  0.00    -0.555 C  
BRANCH  13  14
HETATM   14  C   UNL     1     -13.102  14.369  72.854  1.00  0.00    -0.612 C  
BRANCH  14  15
HETATM   15  C   UNL     1     -12.086  15.180  72.041  1.00  0.00    -0.453 C  
BRANCH  15  16
HETATM   16  C   UNL     1     -12.550  15.542  70.656  1.00  0.00    -0.493 C  
HETATM   17  C   UNL     1     -11.802  15.426  69.548  1.00  0.00    -0.370 C  
BRANCH  17  18
HETATM   18  C   UNL     1     -10.376  14.959  69.504  1.00  0.00    -0.168 C  
BRANCH  18  19
HETATM   19  C   UNL     1     -10.163  13.887  68.438  1.00  0.00    -0.243 C  
BRANCH  19  20
HETATM   20  C   UNL     1     -10.968  14.225  67.183  1.00  0.00    -0.305 C  
BRANCH  20  21
HETATM   21  C   UNL     1     -10.087  14.861  66.112  1.00  0.00    -0.316 C  
BRANCH  21  22
HETATM   22  C   UNL     1     -10.902  15.766  65.193  1.00  0.00    -0.444 C  
BRANCH  22  23
HETATM   23  C   UNL     1     -10.644  17.236  65.514  1.00  0.00    -0.136 C  
BRANCH  23  24
HETATM   24  C   UNL     1      -9.798  17.399  66.773  1.00  0.00    -0.297 C  
HETATM   25  C   UNL     1     -10.188  18.636  67.549  1.00  0.00    -0.386 C  
HETATM   26  O   UNL     1      -9.455  18.779  68.678  1.00  0.00    -0.344 OA 
HETATM   27  O   UNL     1     -11.055  19.428  67.231  1.00  0.00    -0.458 OA 
ENDBRANCH  23  24
ENDBRANCH  22  23
ENDBRANCH  21  22
ENDBRANCH  20  21
ENDBRANCH  19  20
ENDBRANCH  18  19
ENDBRANCH  17  18
ENDBRANCH  15  16
ENDBRANCH  14  15
ENDBRANCH  13  14
ENDBRANCH  12  13
ENDBRANCH  11  12
ENDBRANCH  10  11
ENDBRANCH   6  10
TORSDOF 15
ENDMDL
MODEL       52
REMARK 921   NORMALIZED FREE ENERGY PREDICTED BY IDOCK:   -4.69 KCAL/MOL
REMARK 922        TOTAL FREE ENERGY PREDICTED BY IDOCK:  -10.75 KCAL/MOL
REMARK 923 INTER-LIGAND FREE ENERGY PREDICTED BY IDOCK:   -8.75 KCAL/MOL
REMARK 924 INTRA-LIGAND FREE ENERGY PREDICTED BY IDOCK:   -2.00 KCAL/MOL
REMARK 927      BINDING AFFINITY PREDICTED BY RF-SCORE:    0.00 PKD
ROOT
ATOM      1  N   GLY A   1     -12.904  13.912  71.884  1.00  0.00    -0.332 NA 
HETATM    2  C   UNL     1     -10.594  18.729  67.427  1.00  0.00    -0.505 C  
ATOM      3  H2  GLY A   1     -13.836  14.321  71.823  1.00  0.00     0.000 HD 
ATOM      4  H1  GLY A   1     -12.824  13.062  71.326  1.00  0.00     0.000 HD 
ATOM      5  CA  GLY A   1     -11.858  14.870  71.503  1.00  0.00    -0.361 C  
HETATM    6  C   UNL     1     -10.375  17.658  66.370  1.00  0.00    -0.345 C  
ENDROOT
BRANCH   5   7
ATOM      7  C   GLY A   1     -11.978  16.146  72.342  1.00  0.00    -0.554 C  
ATOM      8  H   GLY A   1     -12.149  16.593  74.242  1.00  0.00     0.000 HD 
ATOM      9  O   GLY A   1     -12.074  15.802  73.722  1.00  0.00    -0.462 OA 
ENDBRANCH   5   7
BRANCH   6  10
HETATM   10  C   UNL     1      -9.085  16.862  66.560  1.00  0.00    -0.302 C  
BRANCH  10  11
HETATM   11  C   UNL     1      -9.283  15.348  66.672  1.00  0.00    -0.303 C  
BRANCH  11  12
HETATM   12  C   UNL     1      -9.987  15.015  67.990  1.00  0.00    -0.219 C  
BRANCH  12  13
HETATM   13  C   UNL     1      -9.999  13.515  68.278  1.00  0.00    -0.237 C  
BRANCH  13  14
HETATM   14  C   UNL     1     -11.415  12.953  68.466  1.00  0.00    -0.345 C  
BRANCH  14  15
HETATM   15  C   UNL     1     -11.600  11.486  68.061  1.00  0.00    -0.370 C  
BRANCH  15  16
HETATM   16  C   UNL     1     -11.025  10.497  69.037  1.00  0.00    -0.289 C  
HETATM   17  C   UNL     1     -10.531   9.295  68.702  1.00  0.00    -0.236 C  
BRANCH  17  18
HETATM   18  C   UNL     1     -10.506   8.719  67.316  1.00  0.00    -0.353 C  
BRANCH  18  19
HETATM   19  C   UNL     1      -9.091   8.674  66.745  1.00  0.00    -0.183 C  
BRANCH  19  20
HETATM   20  C   UNL     1      -9.115   8.997  65.252  1.00  0.00    -0.226 C  
BRANCH  20  21
HETATM   21  C   UNL     1      -9.960  10.234  64.964  1.00  0.00    -0.393 C  
BRANCH  21  22
HETATM   22  C   UNL     1      -9.965  10.566  63.475  1.00  0.00    -0.278 C  
BRANCH  22  23
HETATM   23  C   UNL     1     -10.370  12.020  63.245  1.00  0.00    -0.398 C  
BRANCH  23  24
HETATM   24  C   UNL     1     -10.922  12.659  64.515  1.00  0.00    -0.365 C  
HETATM   25  C   UNL     1     -12.167  13.469  64.234  1.00  0.00    -0.396 C  
HETATM   26  O   UNL     1     -12.675  14.025  65.359  1.00  0.00    -0.561 OA 
HETATM   27  O   UNL     1     -12.681  13.622  63.143  1.00  0.00    -0.737 OA 
ENDBRANCH  23  24
ENDBRANCH  22  23
ENDBRANCH  21  22
ENDBRANCH  20  21
ENDBRANCH  19  20
ENDBRANCH  18  19
ENDBRANCH  17  18
ENDBRANCH  15  16
ENDBRANCH  14  15
ENDBRANCH  13  14
ENDBRANCH  12  13
ENDBRANCH  11  12
ENDBRANCH  10  11
ENDBRANCH   6  10
TORSDOF 15
ENDMDL
MODEL       53
REMARK 921   NORMALIZED FREE ENERGY PREDICTED BY IDOCK:   -4.68 KCAL/MOL
REMARK 922        TOTAL FREE ENERGY PREDICTED BY IDOCK:  -10.74 KCAL/MOL
REMARK 923 INTER-LIGAND FREE ENERGY PREDICTED BY IDOCK:   -9.15 KCAL/MOL
REMARK 924 INTRA-LIGAND FREE ENERGY PREDICTED BY IDOCK:   -1.59 KCAL/MOL
REMARK 927      BINDING AFFINITY PREDICTED BY RF-SCORE:    0.00 PKD
ROOT
ATOM      1  N   GLY A   1      -5.937  15.312  69.231  1.00  0.00    -0.101 NA 
HETATM    2  C   UNL     1      -9.267   9.219  69.676  1.00  0.00    -0.182 C  
ATOM      3  H2  GLY A   1      -5.347  14.921  68.497  1.00  0.00     0.000 HD 
ATOM      4  H1  GLY A   1      -6.666  15.915  68.852  1.00  0.00     0.000 HD 
ATOM      5  CA  GLY A   1      -6.531  14.265  70.073  1.00  0.00    -0.126 C  
HETATM    6  C   UNL     1     -10.526   9.857  69.111  1.00  0.00    -0.235 C  
ENDROOT
BRANCH   5   7
ATOM      7  C   GLY A   1      -5.436  13.358  70.642  1.00  0.00    -0.160 C  
ATOM      8  H   GLY A   1      -5.308  11.517  71.302  1.00  0.00     0.000 HD 
ATOM      9  O   GLY A   1      -5.987  12.080  70.949  1.00  0.00    -0.343 OA 
ENDBRANCH   5   7
BRANCH   6  10
HETATM   10  C   UNL     1     -11.330  10.650  70.141  1.00  0.00    -0.402 C  
BRANCH  10  11
HETATM   11  C   UNL     1     -12.292   9.806  70.981  1.00  0.00    -0.422 C  
BRANCH  11  12
HETATM   12  C   UNL     1     -13.056  10.708  71.954  1.00  0.00    -0.563 C  
BRANCH  12  13
HETATM   13  C   UNL     1     -12.872  12.191  71.636  1.00  0.00    -0.390 C  
BRANCH  13  14
HETATM   14  C   UNL     1     -13.745  13.102  72.510  1.00  0.00    -0.563 C  
BRANCH  14  15
HETATM   15  C   UNL     1     -13.215  14.527  72.711  1.00  0.00    -0.600 C  
BRANCH  15  16
HETATM   16  C   UNL     1     -13.428  15.438  71.533  1.00  0.00    -0.601 C  
HETATM   17  C   UNL     1     -12.454  15.862  70.713  1.00  0.00    -0.311 C  
BRANCH  17  18
HETATM   18  C   UNL     1     -10.995  15.539  70.853  1.00  0.00    -0.333 C  
BRANCH  18  19
HETATM   19  C   UNL     1     -10.303  15.438  69.496  1.00  0.00    -0.269 C  
BRANCH  19  20
HETATM   20  C   UNL     1     -11.331  15.558  68.371  1.00  0.00    -0.357 C  
BRANCH  20  21
HETATM   21  C   UNL     1     -11.295  14.340  67.453  1.00  0.00    -0.349 C  
BRANCH  21  22
HETATM   22  C   UNL     1     -10.039  14.340  66.586  1.00  0.00    -0.274 C  
BRANCH  22  23
HETATM   23  C   UNL     1     -10.356  13.848  65.175  1.00  0.00    -0.403 C  
BRANCH  23  24
HETATM   24  C   UNL     1     -11.431  12.765  65.184  1.00  0.00    -0.356 C  
HETATM   25  C   UNL     1     -12.474  13.010  64.117  1.00  0.00    -0.300 C  
HETATM   26  O   UNL     1     -13.422  12.044  64.105  1.00  0.00    -0.672 OA 
HETATM   27  O   UNL     1     -12.489  13.947  63.343  1.00  0.00    -0.833 OA 
ENDBRANCH  23  24
ENDBRANCH  22  23
ENDBRANCH  21  22
ENDBRANCH  20  21
ENDBRANCH  19  20
ENDBRANCH  18  19
ENDBRANCH  17  18
ENDBRANCH  15  16
ENDBRANCH  14  15
ENDBRANCH  13  14
ENDBRANCH  12  13
ENDBRANCH  11  12
ENDBRANCH  10  11
ENDBRANCH   6  10
TORSDOF 15
ENDMDL
MODEL       54
REMARK 921   NORMALIZED FREE ENERGY PREDICTED BY IDOCK:   -4.68 KCAL/MOL
REMARK 922        TOTAL FREE ENERGY PREDICTED BY IDOCK:  -10.73 KCAL/MOL
REMARK 923 INTER-LIGAND FREE ENERGY PREDICTED BY IDOCK:   -8.82 KCAL/MOL
REMARK 924 INTRA-LIGAND FREE ENERGY PREDICTED BY IDOCK:   -1.91 KCAL/MOL
REMARK 927      BINDING AFFINITY PREDICTED BY RF-SCORE:    0.00 PKD
ROOT
ATOM      1  N   GLY A   1      -8.683   8.438  73.373  1.00  0.00    -0.327 NA 
HETATM    2  C   UNL     1     -11.002   6.368  67.148  1.00  0.00    -0.476 C  
ATOM      3  H2  GLY A   1      -8.633   7.462  73.665  1.00  0.00     0.000 HD 
ATOM      4  H1  GLY A   1      -7.765   8.811  73.135  1.00  0.00     0.000 HD 
ATOM      5  CA  GLY A   1      -9.615   8.629  72.254  1.00  0.00    -0.278 C  
HETATM    6  C   UNL     1      -9.706   6.833  66.502  1.00  0.00    -0.183 C  
ENDROOT
BRANCH   5   7
ATOM      7  C   GLY A   1     -10.994   8.068  72.612  1.00  0.00    -0.382 C  
ATOM      8  H   GLY A   1     -11.702   6.646  73.760  1.00  0.00     0.000 HD 
ATOM      9  O   GLY A   1     -10.847   6.994  73.538  1.00  0.00    -0.341 OA 
ENDBRANCH   5   7
BRANCH   6  10
HETATM   10  C   UNL     1      -9.650   8.340  66.253  1.00  0.00    -0.266 C  
BRANCH  10  11
HETATM   11  C   UNL     1     -10.361   9.185  67.313  1.00  0.00    -0.338 C  
BRANCH  11  12
HETATM   12  C   UNL     1     -10.568  10.608  66.786  1.00  0.00    -0.297 C  
BRANCH  12  13
HETATM   13  C   UNL     1      -9.876  10.836  65.443  1.00  0.00    -0.317 C  
BRANCH  13  14
HETATM   14  C   UNL     1     -10.833  11.345  64.356  1.00  0.00    -0.397 C  
BRANCH  14  15
HETATM   15  C   UNL     1     -10.908  12.870  64.206  1.00  0.00    -0.423 C  
BRANCH  15  16
HETATM   16  C   UNL     1     -12.263  13.453  64.497  1.00  0.00    -0.450 C  
HETATM   17  C   UNL     1     -12.649  13.920  65.695  1.00  0.00    -0.553 C  
BRANCH  17  18
HETATM   18  C   UNL     1     -11.820  13.902  66.946  1.00  0.00    -0.453 C  
BRANCH  18  19
HETATM   19  C   UNL     1     -11.127  15.241  67.187  1.00  0.00    -0.323 C  
BRANCH  19  20
HETATM   20  C   UNL     1     -11.575  15.833  68.523  1.00  0.00    -0.367 C  
BRANCH  20  21
HETATM   21  C   UNL     1     -11.199  14.923  69.688  1.00  0.00    -0.300 C  
BRANCH  21  22
HETATM   22  C   UNL     1     -12.177  15.080  70.849  1.00  0.00    -0.386 C  
BRANCH  22  23
HETATM   23  C   UNL     1     -12.702  13.720  71.303  1.00  0.00    -0.450 C  
BRANCH  23  24
HETATM   24  C   UNL     1     -12.204  12.594  70.402  1.00  0.00    -0.368 C  
HETATM   25  C   UNL     1     -12.569  11.236  70.955  1.00  0.00    -0.394 C  
HETATM   26  O   UNL     1     -12.148  10.231  70.153  1.00  0.00    -0.254 OA 
HETATM   27  O   UNL     1     -13.174  11.032  71.991  1.00  0.00    -0.499 OA 
ENDBRANCH  23  24
ENDBRANCH  22  23
ENDBRANCH  21  22
ENDBRANCH  20  21
ENDBRANCH  19  20
ENDBRANCH  18  19
ENDBRANCH  17  18
ENDBRANCH  15  16
ENDBRANCH  14  15
ENDBRANCH  13  14
ENDBRANCH  12  13
ENDBRANCH  11  12
ENDBRANCH  10  11
ENDBRANCH   6  10
TORSDOF 15
ENDMDL
MODEL       55
REMARK 921   NORMALIZED FREE ENERGY PREDICTED BY IDOCK:   -4.68 KCAL/MOL
REMARK 922        TOTAL FREE ENERGY PREDICTED BY IDOCK:  -10.73 KCAL/MOL
REMARK 923 INTER-LIGAND FREE ENERGY PREDICTED BY IDOCK:   -9.31 KCAL/MOL
REMARK 924 INTRA-LIGAND FREE ENERGY PREDICTED BY IDOCK:   -1.42 KCAL/MOL
REMARK 927      BINDING AFFINITY PREDICTED BY RF-SCORE:    0.00 PKD
ROOT
ATOM      1  N   GLY A   1     -13.453  11.387  72.182  1.00  0.00    -0.524 NA 
HETATM    2  C   UNL     1      -9.137   7.023  68.905  1.00  0.00    -0.134 C  
ATOM      3  H2  GLY A   1     -12.854  11.340  73.006  1.00  0.00     0.000 HD 
ATOM      4  H1  GLY A   1     -13.310  12.249  71.656  1.00  0.00     0.000 HD 
ATOM      5  CA  GLY A   1     -13.273  10.221  71.306  1.00  0.00    -0.356 C  
HETATM    6  C   UNL     1      -8.715   8.138  67.961  1.00  0.00    -0.128 C  
ENDROOT
BRANCH   5   7
ATOM      7  C   GLY A   1     -13.488   8.927  72.096  1.00  0.00    -0.448 C  
ATOM      8  H   GLY A   1     -14.231   7.148  71.746  1.00  0.00     0.000 HD 
ATOM      9  O   GLY A   1     -14.097   7.951  71.256  1.00  0.00    -0.326 OA 
ENDBRANCH   5   7
BRANCH   6  10
HETATM   10  C   UNL     1      -9.709   8.393  66.829  1.00  0.00    -0.309 C  
BRANCH  10  11
HETATM   11  C   UNL     1      -9.116   9.111  65.614  1.00  0.00    -0.273 C  
BRANCH  11  12
HETATM   12  C   UNL     1     -10.028  10.270  65.202  1.00  0.00    -0.395 C  
BRANCH  12  13
HETATM   13  C   UNL     1      -9.702  10.797  63.806  1.00  0.00    -0.372 C  
BRANCH  13  14
HETATM   14  C   UNL     1     -10.264  12.203  63.551  1.00  0.00    -0.453 C  
BRANCH  14  15
HETATM   15  C   UNL     1     -11.789  12.330  63.649  1.00  0.00    -0.610 C  
BRANCH  15  16
HETATM   16  C   UNL     1     -12.268  13.684  64.098  1.00  0.00    -0.450 C  
HETATM   17  C   UNL     1     -12.358  14.073  65.379  1.00  0.00    -0.495 C  
BRANCH  17  18
HETATM   18  C   UNL     1     -12.040  13.220  66.573  1.00  0.00    -0.435 C  
BRANCH  18  19
HETATM   19  C   UNL     1     -10.656  13.530  67.139  1.00  0.00    -0.264 C  
BRANCH  19  20
HETATM   20  C   UNL     1     -10.731  13.682  68.658  1.00  0.00    -0.272 C  
BRANCH  20  21
HETATM   21  C   UNL     1     -11.564  14.897  69.055  1.00  0.00    -0.330 C  
BRANCH  21  22
HETATM   22  C   UNL     1     -12.616  14.528  70.097  1.00  0.00    -0.339 C  
BRANCH  22  23
HETATM   23  C   UNL     1     -12.026  14.584  71.505  1.00  0.00    -0.362 C  
BRANCH  23  24
HETATM   24  C   UNL     1     -12.068  15.997  72.078  1.00  0.00    -0.606 C  
HETATM   25  C   UNL     1     -12.195  15.983  73.584  1.00  0.00    -0.523 C  
HETATM   26  O   UNL     1     -12.215  17.232  74.104  1.00  0.00    -0.303 OA 
HETATM   27  O   UNL     1     -12.269  14.987  74.279  1.00  0.00    -0.604 OA 
ENDBRANCH  23  24
ENDBRANCH  22  23
ENDBRANCH  21  22
ENDBRANCH  20  21
ENDBRANCH  19  20
ENDBRANCH  18  19
ENDBRANCH  17  18
ENDBRANCH  15  16
ENDBRANCH  14  15
ENDBRANCH  13  14
ENDBRANCH  12  13
ENDBRANCH  11  12
ENDBRANCH  10  11
ENDBRANCH   6  10
TORSDOF 15
ENDMDL
MODEL       56
REMARK 921   NORMALIZED FREE ENERGY PREDICTED BY IDOCK:   -4.67 KCAL/MOL
REMARK 922        TOTAL FREE ENERGY PREDICTED BY IDOCK:  -10.72 KCAL/MOL
REMARK 923 INTER-LIGAND FREE ENERGY PREDICTED BY IDOCK:   -8.99 KCAL/MOL
REMARK 924 INTRA-LIGAND FREE ENERGY PREDICTED BY IDOCK:   -1.72 KCAL/MOL
REMARK 927      BINDING AFFINITY PREDICTED BY RF-SCORE:    0.00 PKD
ROOT
ATOM      1  N   GLY A   1      -8.328  20.244  66.375  1.00  0.00    -0.526 NA 
HETATM    2  C   UNL     1     -12.030  14.443  67.403  1.00  0.00    -0.407 C  
ATOM      3  H2  GLY A   1      -7.786  20.030  67.212  1.00  0.00     0.000 HD 
ATOM      4  H1  GLY A   1      -7.819  20.012  65.522  1.00  0.00     0.000 HD 
ATOM      5  CA  GLY A   1      -9.636  19.575  66.383  1.00  0.00    -0.390 C  
HETATM    6  C   UNL     1     -11.417  13.822  66.158  1.00  0.00    -0.350 C  
ENDROOT
BRANCH   5   7
ATOM      7  C   GLY A   1     -10.400  19.922  67.664  1.00  0.00    -0.416 C  
ATOM      8  H   GLY A   1     -10.348  19.384  69.547  1.00  0.00     0.000 HD 
ATOM      9  O   GLY A   1      -9.874  19.168  68.753  1.00  0.00    -0.400 OA 
ENDBRANCH   5   7
BRANCH   6  10
HETATM   10  C   UNL     1     -12.061  14.294  64.855  1.00  0.00    -0.442 C  
BRANCH  10  11
HETATM   11  C   UNL     1     -12.028  13.266  63.722  1.00  0.00    -0.551 C  
BRANCH  11  12
HETATM   12  C   UNL     1     -11.710  11.881  64.290  1.00  0.00    -0.388 C  
BRANCH  12  13
HETATM   13  C   UNL     1     -10.470  11.261  63.646  1.00  0.00    -0.464 C  
BRANCH  13  14
HETATM   14  C   UNL     1      -9.515  10.634  64.671  1.00  0.00    -0.308 C  
BRANCH  14  15
HETATM   15  C   UNL     1     -10.135  10.302  66.033  1.00  0.00    -0.311 C  
BRANCH  15  16
HETATM   16  C   UNL     1      -9.436  10.940  67.203  1.00  0.00    -0.178 C  
HETATM   17  C   UNL     1     -10.018  11.212  68.381  1.00  0.00    -0.193 C  
BRANCH  17  18
HETATM   18  C   UNL     1     -11.460  10.968  68.718  1.00  0.00    -0.372 C  
BRANCH  18  19
HETATM   19  C   UNL     1     -11.855  11.633  70.035  1.00  0.00    -0.435 C  
BRANCH  19  20
HETATM   20  C   UNL     1     -12.251  10.573  71.062  1.00  0.00    -0.505 C  
BRANCH  20  21
HETATM   21  C   UNL     1     -11.127   9.565  71.281  1.00  0.00    -0.449 C  
BRANCH  21  22
HETATM   22  C   UNL     1     -11.591   8.402  72.154  1.00  0.00    -0.442 C  
BRANCH  22  23
HETATM   23  C   UNL     1     -12.287   7.336  71.311  1.00  0.00    -0.401 C  
BRANCH  23  24
HETATM   24  C   UNL     1     -11.334   6.702  70.303  1.00  0.00    -0.431 C  
HETATM   25  C   UNL     1     -10.536   5.578  70.924  1.00  0.00    -0.249 C  
HETATM   26  O   UNL     1      -9.700   4.997  70.032  1.00  0.00    -0.169 OA 
HETATM   27  O   UNL     1     -10.613   5.209  72.080  1.00  0.00    -0.216 OA 
ENDBRANCH  23  24
ENDBRANCH  22  23
ENDBRANCH  21  22
ENDBRANCH  20  21
ENDBRANCH  19  20
ENDBRANCH  18  19
ENDBRANCH  17  18
ENDBRANCH  15  16
ENDBRANCH  14  15
ENDBRANCH  13  14
ENDBRANCH  12  13
ENDBRANCH  11  12
ENDBRANCH  10  11
ENDBRANCH   6  10
TORSDOF 15
ENDMDL
MODEL       57
REMARK 921   NORMALIZED FREE ENERGY PREDICTED BY IDOCK:   -4.66 KCAL/MOL
REMARK 922        TOTAL FREE ENERGY PREDICTED BY IDOCK:  -10.69 KCAL/MOL
REMARK 923 INTER-LIGAND FREE ENERGY PREDICTED BY IDOCK:   -8.14 KCAL/MOL
REMARK 924 INTRA-LIGAND FREE ENERGY PREDICTED BY IDOCK:   -2.55 KCAL/MOL
REMARK 927      BINDING AFFINITY PREDICTED BY RF-SCORE:    0.00 PKD
ROOT
ATOM      1  N   GLY A   1      -6.046  12.375  66.748  1.00  0.00    -0.492 NA 
HETATM    2  C   UNL     1     -10.195   9.154  71.310  1.00  0.00    -0.400 C  
ATOM      3  H2  GLY A   1      -5.604  11.480  66.538  1.00  0.00     0.000 HD 
ATOM      4  H1  GLY A   1      -6.712  12.649  66.025  1.00  0.00     0.000 HD 
ATOM      5  CA  GLY A   1      -6.699  12.369  68.063  1.00  0.00    -0.081 C  
HETATM    6  C   UNL     1     -11.396   9.415  70.414  1.00  0.00    -0.295 C  
ENDROOT
BRANCH   5   7
ATOM      7  C   GLY A   1      -5.700  11.958  69.148  1.00  0.00    -0.059 C  
ATOM      8  H   GLY A   1      -5.712  11.761  71.098  1.00  0.00     0.000 HD 
ATOM      9  O   GLY A   1      -6.331  12.016  70.425  1.00  0.00    -0.169 OA 
ENDBRANCH   5   7
BRANCH   6  10
HETATM   10  C   UNL     1     -11.956  10.832  70.534  1.00  0.00    -0.456 C  
BRANCH  10  11
HETATM   11  C   UNL     1     -11.485  11.795  69.442  1.00  0.00    -0.371 C  
BRANCH  11  12
HETATM   12  C   UNL     1     -11.422  11.062  68.099  1.00  0.00    -0.374 C  
BRANCH  12  13
HETATM   13  C   UNL     1      -9.986  10.819  67.637  1.00  0.00    -0.199 C  
BRANCH  13  14
HETATM   14  C   UNL     1      -9.692  11.421  66.256  1.00  0.00    -0.239 C  
BRANCH  14  15
HETATM   15  C   UNL     1     -10.282  10.656  65.065  1.00  0.00    -0.380 C  
BRANCH  15  16
HETATM   16  C   UNL     1     -10.595  11.517  63.871  1.00  0.00    -0.448 C  
HETATM   17  C   UNL     1     -11.618  12.384  63.807  1.00  0.00    -0.553 C  
BRANCH  17  18
HETATM   18  C   UNL     1     -12.637  12.612  64.885  1.00  0.00    -0.525 C  
BRANCH  18  19
HETATM   19  C   UNL     1     -12.440  13.958  65.578  1.00  0.00    -0.541 C  
BRANCH  19  20
HETATM   20  C   UNL     1     -11.748  14.940  64.633  1.00  0.00    -0.406 C  
BRANCH  20  21
HETATM   21  C   UNL     1     -10.749  15.819  65.379  1.00  0.00    -0.420 C  
BRANCH  21  22
HETATM   22  C   UNL     1      -9.576  14.997  65.906  1.00  0.00    -0.356 C  
BRANCH  22  23
HETATM   23  C   UNL     1      -9.127  15.507  67.273  1.00  0.00    -0.215 C  
BRANCH  23  24
HETATM   24  C   UNL     1     -10.051  15.024  68.386  1.00  0.00    -0.225 C  
HETATM   25  C   UNL     1     -10.758  16.177  69.062  1.00  0.00    -0.287 C  
HETATM   26  O   UNL     1     -11.594  15.757  70.040  1.00  0.00    -0.310 OA 
HETATM   27  O   UNL     1     -10.620  17.353  68.784  1.00  0.00    -0.341 OA 
ENDBRANCH  23  24
ENDBRANCH  22  23
ENDBRANCH  21  22
ENDBRANCH  20  21
ENDBRANCH  19  20
ENDBRANCH  18  19
ENDBRANCH  17  18
ENDBRANCH  15  16
ENDBRANCH  14  15
ENDBRANCH  13  14
ENDBRANCH  12  13
ENDBRANCH  11  12
ENDBRANCH  10  11
ENDBRANCH   6  10
TORSDOF 15
ENDMDL
MODEL       58
REMARK 921   NORMALIZED FREE ENERGY PREDICTED BY IDOCK:   -4.66 KCAL/MOL
REMARK 922        TOTAL FREE ENERGY PREDICTED BY IDOCK:  -10.68 KCAL/MOL
REMARK 923 INTER-LIGAND FREE ENERGY PREDICTED BY IDOCK:   -8.76 KCAL/MOL
REMARK 924 INTRA-LIGAND FREE ENERGY PREDICTED BY IDOCK:   -1.92 KCAL/MOL
REMARK 927      BINDING AFFINITY PREDICTED BY RF-SCORE:    0.00 PKD
ROOT
ATOM      1  N   GLY A   1      -9.355   6.466  74.263  1.00  0.00    -0.170 NA 
HETATM    2  C   UNL     1     -12.381  10.889  69.825  1.00  0.00    -0.326 C  
ATOM      3  H2  GLY A   1      -8.567   6.382  73.621  1.00  0.00     0.000 HD 
ATOM      4  H1  GLY A   1      -9.143   7.079  75.049  1.00  0.00     0.000 HD 
ATOM      5  CA  GLY A   1     -10.573   6.920  73.579  1.00  0.00    -0.348 C  
HETATM    6  C   UNL     1     -12.187  12.027  70.815  1.00  0.00    -0.382 C  
ENDROOT
BRANCH   5   7
ATOM      7  C   GLY A   1     -10.893   5.999  72.398  1.00  0.00    -0.247 C  
ATOM      8  H   GLY A   1     -12.169   5.975  70.912  1.00  0.00     0.000 HD 
ATOM      9  O   GLY A   1     -11.971   6.547  71.644  1.00  0.00    -0.322 OA 
ENDBRANCH   5   7
BRANCH   6  10
HETATM   10  C   UNL     1     -13.228  12.053  71.934  1.00  0.00    -0.469 C  
BRANCH  10  11
HETATM   11  C   UNL     1     -13.740  13.451  72.291  1.00  0.00    -0.705 C  
BRANCH  11  12
HETATM   12  C   UNL     1     -12.600  14.465  72.172  1.00  0.00    -0.377 C  
BRANCH  12  13
HETATM   13  C   UNL     1     -12.866  15.512  71.090  1.00  0.00    -0.551 C  
BRANCH  13  14
HETATM   14  C   UNL     1     -11.613  15.858  70.273  1.00  0.00    -0.365 C  
BRANCH  14  15
HETATM   15  C   UNL     1     -11.737  15.650  68.758  1.00  0.00    -0.382 C  
BRANCH  15  16
HETATM   16  C   UNL     1     -10.713  14.714  68.178  1.00  0.00    -0.242 C  
HETATM   17  C   UNL     1     -10.985  13.746  67.289  1.00  0.00    -0.302 C  
BRANCH  17  18
HETATM   18  C   UNL     1     -12.347  13.408  66.758  1.00  0.00    -0.287 C  
BRANCH  18  19
HETATM   19  C   UNL     1     -12.577  13.997  65.368  1.00  0.00    -0.529 C  
BRANCH  19  20
HETATM   20  C   UNL     1     -11.481  13.530  64.410  1.00  0.00    -0.422 C  
BRANCH  20  21
HETATM   21  C   UNL     1     -11.789  12.147  63.846  1.00  0.00    -0.558 C  
BRANCH  21  22
HETATM   22  C   UNL     1     -10.506  11.381  63.533  1.00  0.00    -0.477 C  
BRANCH  22  23
HETATM   23  C   UNL     1      -9.679  11.171  64.799  1.00  0.00    -0.303 C  
BRANCH  23  24
HETATM   24  C   UNL     1     -10.489  10.485  65.895  1.00  0.00    -0.224 C  
HETATM   25  C   UNL     1      -9.936   9.116  66.220  1.00  0.00    -0.282 C  
HETATM   26  O   UNL     1     -10.637   8.507  67.205  1.00  0.00    -0.303 OA 
HETATM   27  O   UNL     1      -8.976   8.594  65.686  1.00  0.00    -0.189 OA 
ENDBRANCH  23  24
ENDBRANCH  22  23
ENDBRANCH  21  22
ENDBRANCH  20  21
ENDBRANCH  19  20
ENDBRANCH  18  19
ENDBRANCH  17  18
ENDBRANCH  15  16
ENDBRANCH  14  15
ENDBRANCH  13  14
ENDBRANCH  12  13
ENDBRANCH  11  12
ENDBRANCH  10  11
ENDBRANCH   6  10
TORSDOF 15
ENDMDL
MODEL       59
REMARK 921   NORMALIZED FREE ENERGY PREDICTED BY IDOCK:   -4.65 KCAL/MOL
REMARK 922        TOTAL FREE ENERGY PREDICTED BY IDOCK:  -10.68 KCAL/MOL
REMARK 923 INTER-LIGAND FREE ENERGY PREDICTED BY IDOCK:   -8.73 KCAL/MOL
REMARK 924 INTRA-LIGAND FREE ENERGY PREDICTED BY IDOCK:   -1.95 KCAL/MOL
REMARK 927      BINDING AFFINITY PREDICTED BY RF-SCORE:    0.00 PKD
ROOT
ATOM      1  N   GLY A   1     -13.986  13.401  72.399  1.00  0.00    -0.694 NA 
HETATM    2  C   UNL     1     -12.348  14.213  65.685  1.00  0.00    -0.473 C  
ATOM      3  H2  GLY A   1     -14.886  13.846  72.219  1.00  0.00     0.000 HD 
ATOM      4  H1  GLY A   1     -14.070  12.387  72.467  1.00  0.00     0.000 HD 
ATOM      5  CA  GLY A   1     -12.984  13.761  71.386  1.00  0.00    -0.355 C  
HETATM    6  C   UNL     1     -12.410  12.708  65.480  1.00  0.00    -0.455 C  
ENDROOT
BRANCH   5   7
ATOM      7  C   GLY A   1     -12.858  15.284  71.284  1.00  0.00    -0.425 C  
ATOM      8  H   GLY A   1     -12.122  16.571  70.003  1.00  0.00     0.000 HD 
ATOM      9  O   GLY A   1     -12.200  15.627  70.067  1.00  0.00    -0.367 OA 
ENDBRANCH   5   7
BRANCH   6  10
HETATM   10  C   UNL     1     -11.156  11.971  65.950  1.00  0.00    -0.369 C  
BRANCH  10  11
HETATM   11  C   UNL     1     -10.712  12.318  67.373  1.00  0.00    -0.261 C  
BRANCH  11  12
HETATM   12  C   UNL     1     -11.655  11.660  68.384  1.00  0.00    -0.376 C  
BRANCH  12  13
HETATM   13  C   UNL     1     -10.966  10.560  69.190  1.00  0.00    -0.286 C  
BRANCH  13  14
HETATM   14  C   UNL     1     -11.512  10.434  70.619  1.00  0.00    -0.438 C  
BRANCH  14  15
HETATM   15  C   UNL     1     -13.033  10.266  70.730  1.00  0.00    -0.408 C  
BRANCH  15  16
HETATM   16  C   UNL     1     -13.506   9.807  72.082  1.00  0.00    -0.491 C  
HETATM   17  C   UNL     1     -13.490   8.532  72.501  1.00  0.00    -0.261 C  
BRANCH  17  18
HETATM   18  C   UNL     1     -13.042   7.352  71.688  1.00  0.00    -0.412 C  
BRANCH  18  19
HETATM   19  C   UNL     1     -11.630   6.910  72.060  1.00  0.00    -0.322 C  
BRANCH  19  20
HETATM   20  C   UNL     1     -11.064   5.989  70.979  1.00  0.00    -0.348 C  
BRANCH  20  21
HETATM   21  C   UNL     1     -11.429   6.482  69.583  1.00  0.00    -0.417 C  
BRANCH  21  22
HETATM   22  C   UNL     1     -10.753   5.639  68.506  1.00  0.00    -0.232 C  
BRANCH  22  23
HETATM   23  C   UNL     1     -10.989   6.238  67.121  1.00  0.00    -0.453 C  
BRANCH  23  24
HETATM   24  C   UNL     1     -10.619   7.717  67.077  1.00  0.00    -0.406 C  
HETATM   25  C   UNL     1      -9.298   7.939  66.376  1.00  0.00    -0.189 C  
HETATM   26  O   UNL     1      -8.970   9.251  66.315  1.00  0.00    -0.144 OA 
HETATM   27  O   UNL     1      -8.590   7.068  65.906  1.00  0.00    -0.143 OA 
ENDBRANCH  23  24
ENDBRANCH  22  23
ENDBRANCH  21  22
ENDBRANCH  20  21
ENDBRANCH  19  20
ENDBRANCH  18  19
ENDBRANCH  17  18
ENDBRANCH  15  16
ENDBRANCH  14  15
ENDBRANCH  13  14
ENDBRANCH  12  13
ENDBRANCH  11  12
ENDBRANCH  10  11
ENDBRANCH   6  10
TORSDOF 15
ENDMDL
MODEL       60
REMARK 921   NORMALIZED FREE ENERGY PREDICTED BY IDOCK:   -4.65 KCAL/MOL
REMARK 922        TOTAL FREE ENERGY PREDICTED BY IDOCK:  -10.68 KCAL/MOL
REMARK 923 INTER-LIGAND FREE ENERGY PREDICTED BY IDOCK:   -8.66 KCAL/MOL
REMARK 924 INTRA-LIGAND FREE ENERGY PREDICTED BY IDOCK:   -2.01 KCAL/MOL
REMARK 927      BINDING AFFINITY PREDICTED BY RF-SCORE:    0.00 PKD
ROOT
ATOM      1  N   GLY A   1     -10.075  12.999  63.845  1.00  0.00    -0.757 NA 
HETATM    2  C   UNL     1     -10.441  19.531  66.211  1.00  0.00    -0.609 C  
ATOM      3  H2  GLY A   1     -10.080  13.358  62.890  1.00  0.00     0.000 HD 
ATOM      4  H1  GLY A   1      -9.139  12.726  64.143  1.00  0.00     0.000 HD 
ATOM      5  CA  GLY A   1     -10.652  13.958  64.795  1.00  0.00    -0.426 C  
HETATM    6  C   UNL     1      -9.029  19.418  66.766  1.00  0.00    -0.373 C  
ENDROOT
BRANCH   5   7
ATOM      7  C   GLY A   1     -12.057  14.368  64.346  1.00  0.00    -0.470 C  
ATOM      8  H   GLY A   1     -13.892  13.759  64.668  1.00  0.00     0.000 HD 
ATOM      9  O   GLY A   1     -13.020  13.505  64.946  1.00  0.00    -0.708 OA 
ENDBRANCH   5   7
BRANCH   6  10
HETATM   10  C   UNL     1      -8.951  18.678  68.101  1.00  0.00    -0.335 C  
BRANCH  10  11
HETATM   11  C   UNL     1     -10.236  17.946  68.497  1.00  0.00    -0.393 C  
BRANCH  11  12
HETATM   12  C   UNL     1     -10.080  16.447  68.228  1.00  0.00    -0.248 C  
BRANCH  12  13
HETATM   13  C   UNL     1      -9.401  15.717  69.386  1.00  0.00    -0.269 C  
BRANCH  13  14
HETATM   14  C   UNL     1      -8.029  15.143  69.008  1.00  0.00    -0.188 C  
BRANCH  14  15
HETATM   15  C   UNL     1      -7.871  14.725  67.541  1.00  0.00    -0.208 C  
BRANCH  15  16
HETATM   16  C   UNL     1      -7.194  13.396  67.346  1.00  0.00    -0.116 C  
HETATM   17  C   UNL     1      -7.753  12.209  67.629  1.00  0.00    -0.148 C  
BRANCH  17  18
HETATM   18  C   UNL     1      -9.118  12.007  68.219  1.00  0.00    -0.190 C  
BRANCH  18  19
HETATM   19  C   UNL     1     -10.071  11.340  67.229  1.00  0.00    -0.214 C  
BRANCH  19  20
HETATM   20  C   UNL     1     -11.521  11.598  67.639  1.00  0.00    -0.373 C  
BRANCH  20  21
HETATM   21  C   UNL     1     -11.620  12.747  68.638  1.00  0.00    -0.352 C  
BRANCH  21  22
HETATM   22  C   UNL     1     -12.083  12.251  70.005  1.00  0.00    -0.346 C  
BRANCH  22  23
HETATM   23  C   UNL     1     -12.396  10.758  69.961  1.00  0.00    -0.371 C  
BRANCH  23  24
HETATM   24  C   UNL     1     -11.477   9.962  70.883  1.00  0.00    -0.456 C  
HETATM   25  C   UNL     1     -12.259   9.023  71.773  1.00  0.00    -0.364 C  
HETATM   26  O   UNL     1     -11.451   8.299  72.582  1.00  0.00    -0.395 OA 
HETATM   27  O   UNL     1     -13.470   8.902  71.784  1.00  0.00    -0.355 OA 
ENDBRANCH  23  24
ENDBRANCH  22  23
ENDBRANCH  21  22
ENDBRANCH  20  21
ENDBRANCH  19  20
ENDBRANCH  18  19
ENDBRANCH  17  18
ENDBRANCH  15  16
ENDBRANCH  14  15
ENDBRANCH  13  14
ENDBRANCH  12  13
ENDBRANCH  11  12
ENDBRANCH  10  11
ENDBRANCH   6  10
TORSDOF 15
ENDMDL
MODEL       61
REMARK 921   NORMALIZED FREE ENERGY PREDICTED BY IDOCK:   -4.65 KCAL/MOL
REMARK 922        TOTAL FREE ENERGY PREDICTED BY IDOCK:  -10.67 KCAL/MOL
REMARK 923 INTER-LIGAND FREE ENERGY PREDICTED BY IDOCK:   -8.29 KCAL/MOL
REMARK 924 INTRA-LIGAND FREE ENERGY PREDICTED BY IDOCK:   -2.38 KCAL/MOL
REMARK 927      BINDING AFFINITY PREDICTED BY RF-SCORE:    0.00 PKD
ROOT
ATOM      1  N   GLY A   1     -12.748  12.314  63.329  1.00  0.00    -0.821 NA 
HETATM    2  C   UNL     1      -7.697  13.910  67.840  1.00  0.00    -0.161 C  
ATOM      3  H2  GLY A   1     -12.331  12.956  62.655  1.00  0.00     0.000 HD 
ATOM      4  H1  GLY A   1     -12.529  11.342  63.114  1.00  0.00     0.000 HD 
ATOM      5  CA  GLY A   1     -12.351  12.631  64.708  1.00  0.00    -0.489 C  
HETATM    6  C   UNL     1      -7.128  12.506  67.711  1.00  0.00    -0.126 C  
ENDROOT
BRANCH   5   7
ATOM      7  C   GLY A   1     -12.679  14.091  65.031  1.00  0.00    -0.328 C  
ATOM      8  H   GLY A   1     -12.722  15.792  64.060  1.00  0.00     0.000 HD 
ATOM      9  O   GLY A   1     -12.518  14.887  63.859  1.00  0.00    -0.806 OA 
ENDBRANCH   5   7
BRANCH   6  10
HETATM   10  C   UNL     1      -7.874  11.461  68.541  1.00  0.00    -0.140 C  
BRANCH  10  11
HETATM   11  C   UNL     1      -9.397  11.505  68.394  1.00  0.00    -0.194 C  
BRANCH  11  12
HETATM   12  C   UNL     1      -9.811  10.805  67.096  1.00  0.00    -0.216 C  
BRANCH  12  13
HETATM   13  C   UNL     1     -10.087   9.316  67.303  1.00  0.00    -0.291 C  
BRANCH  13  14
HETATM   14  C   UNL     1     -10.484   8.976  68.746  1.00  0.00    -0.230 C  
BRANCH  14  15
HETATM   15  C   UNL     1      -9.472   8.128  69.525  1.00  0.00    -0.156 C  
BRANCH  15  16
HETATM   16  C   UNL     1      -8.962   8.776  70.784  1.00  0.00    -0.231 C  
HETATM   17  C   UNL     1      -8.911   8.173  71.982  1.00  0.00    -0.233 C  
BRANCH  17  18
HETATM   18  C   UNL     1      -9.385   6.781  72.279  1.00  0.00    -0.145 C  
BRANCH  18  19
HETATM   19  C   UNL     1     -10.778   6.777  72.905  1.00  0.00    -0.291 C  
BRANCH  19  20
HETATM   20  C   UNL     1     -11.824   6.389  71.860  1.00  0.00    -0.380 C  
BRANCH  20  21
HETATM   21  C   UNL     1     -12.730   7.568  71.518  1.00  0.00    -0.391 C  
BRANCH  21  22
HETATM   22  C   UNL     1     -12.471   8.751  72.445  1.00  0.00    -0.421 C  
BRANCH  22  23
HETATM   23  C   UNL     1     -13.315   9.955  72.036  1.00  0.00    -0.532 C  
BRANCH  23  24
HETATM   24  C   UNL     1     -12.537  10.910  71.135  1.00  0.00    -0.532 C  
HETATM   25  C   UNL     1     -12.835  12.354  71.467  1.00  0.00    -0.274 C  
HETATM   26  O   UNL     1     -12.134  13.209  70.685  1.00  0.00    -0.348 OA 
HETATM   27  O   UNL     1     -13.602  12.740  72.329  1.00  0.00    -0.556 OA 
ENDBRANCH  23  24
ENDBRANCH  22  23
ENDBRANCH  21  22
ENDBRANCH  20  21
ENDBRANCH  19  20
ENDBRANCH  18  19
ENDBRANCH  17  18
ENDBRANCH  15  16
ENDBRANCH  14  15
ENDBRANCH  13  14
ENDBRANCH  12  13
ENDBRANCH  11  12
ENDBRANCH  10  11
ENDBRANCH   6  10
TORSDOF 15
ENDMDL
MODEL       62
REMARK 921   NORMALIZED FREE ENERGY PREDICTED BY IDOCK:   -4.65 KCAL/MOL
REMARK 922        TOTAL FREE ENERGY PREDICTED BY IDOCK:  -10.67 KCAL/MOL
REMARK 923 INTER-LIGAND FREE ENERGY PREDICTED BY IDOCK:   -8.75 KCAL/MOL
REMARK 924 INTRA-LIGAND FREE ENERGY PREDICTED BY IDOCK:   -1.92 KCAL/MOL
REMARK 927      BINDING AFFINITY PREDICTED BY RF-SCORE:    0.00 PKD
ROOT
ATOM      1  N   GLY A   1     -14.212  15.491  71.202  1.00  0.00    -0.793 NA 
HETATM    2  C   UNL     1     -11.050  15.274  65.008  1.00  0.00    -0.436 C  
ATOM      3  H2  GLY A   1     -14.349  16.495  71.082  1.00  0.00     0.000 HD 
ATOM      4  H1  GLY A   1     -15.065  14.966  71.014  1.00  0.00     0.000 HD 
ATOM      5  CA  GLY A   1     -13.110  14.985  70.372  1.00  0.00    -0.182 C  
HETATM    6  C   UNL     1     -12.209  14.472  64.436  1.00  0.00    -0.480 C  
ENDROOT
BRANCH   5   7
ATOM      7  C   GLY A   1     -11.829  15.775  70.655  1.00  0.00    -0.385 C  
ATOM      8  H   GLY A   1     -10.602  16.010  72.164  1.00  0.00     0.000 HD 
ATOM      9  O   GLY A   1     -11.396  15.520  71.989  1.00  0.00    -0.415 OA 
ENDBRANCH   5   7
BRANCH   6  10
HETATM   10  C   UNL     1     -12.160  12.986  64.787  1.00  0.00    -0.465 C  
BRANCH  10  11
HETATM   11  C   UNL     1     -11.961  12.057  63.587  1.00  0.00    -0.612 C  
BRANCH  11  12
HETATM   12  C   UNL     1     -10.548  11.467  63.618  1.00  0.00    -0.476 C  
BRANCH  12  13
HETATM   13  C   UNL     1      -9.951  11.466  65.024  1.00  0.00    -0.312 C  
BRANCH  13  14
HETATM   14  C   UNL     1     -10.053  10.100  65.716  1.00  0.00    -0.324 C  
BRANCH  14  15
HETATM   15  C   UNL     1     -10.338  10.144  67.223  1.00  0.00    -0.291 C  
BRANCH  15  16
HETATM   16  C   UNL     1     -10.225  11.514  67.833  1.00  0.00    -0.200 C  
HETATM   17  C   UNL     1     -11.054  12.001  68.769  1.00  0.00    -0.298 C  
BRANCH  17  18
HETATM   18  C   UNL     1     -12.248  11.287  69.332  1.00  0.00    -0.315 C  
BRANCH  18  19
HETATM   19  C   UNL     1     -12.287  11.361  70.857  1.00  0.00    -0.483 C  
BRANCH  19  20
HETATM   20  C   UNL     1     -12.583   9.981  71.443  1.00  0.00    -0.518 C  
BRANCH  20  21
HETATM   21  C   UNL     1     -11.717   8.905  70.796  1.00  0.00    -0.269 C  
BRANCH  21  22
HETATM   22  C   UNL     1     -10.299   8.926  71.358  1.00  0.00    -0.377 C  
BRANCH  22  23
HETATM   23  C   UNL     1     -10.190   8.028  72.588  1.00  0.00    -0.385 C  
BRANCH  23  24
HETATM   24  C   UNL     1      -8.877   7.251  72.605  1.00  0.00    -0.152 C  
HETATM   25  C   UNL     1      -7.850   7.914  73.494  1.00  0.00    -0.167 C  
HETATM   26  O   UNL     1      -6.687   7.222  73.530  1.00  0.00    -0.065 OA 
HETATM   27  O   UNL     1      -8.014   8.943  74.121  1.00  0.00    -0.348 OA 
ENDBRANCH  23  24
ENDBRANCH  22  23
ENDBRANCH  21  22
ENDBRANCH  20  21
ENDBRANCH  19  20
ENDBRANCH  18  19
ENDBRANCH  17  18
ENDBRANCH  15  16
ENDBRANCH  14  15
ENDBRANCH  13  14
ENDBRANCH  12  13
ENDBRANCH  11  12
ENDBRANCH  10  11
ENDBRANCH   6  10
TORSDOF 15
ENDMDL
MODEL       63
REMARK 921   NORMALIZED FREE ENERGY PREDICTED BY IDOCK:   -4.64 KCAL/MOL
REMARK 922        TOTAL FREE ENERGY PREDICTED BY IDOCK:  -10.66 KCAL/MOL
REMARK 923 INTER-LIGAND FREE ENERGY PREDICTED BY IDOCK:   -9.42 KCAL/MOL
REMARK 924 INTRA-LIGAND FREE ENERGY PREDICTED BY IDOCK:   -1.25 KCAL/MOL
REMARK 927      BINDING AFFINITY PREDICTED BY RF-SCORE:    0.00 PKD
ROOT
ATOM      1  N   GLY A   1     -12.842  12.449  63.218  1.00  0.00    -0.732 NA 
HETATM    2  C   UNL     1      -8.748   7.789  66.370  1.00  0.00    -0.167 C  
ATOM      3  H2  GLY A   1     -12.382  12.235  62.333  1.00  0.00     0.000 HD 
ATOM      4  H1  GLY A   1     -13.755  12.000  63.290  1.00  0.00     0.000 HD 
ATOM      5  CA  GLY A   1     -12.007  12.090  64.371  1.00  0.00    -0.300 C  
HETATM    6  C   UNL     1      -9.949   6.889  66.616  1.00  0.00    -0.211 C  
ENDROOT
BRANCH   5   7
ATOM      7  C   GLY A   1     -10.636  12.763  64.262  1.00  0.00    -0.400 C  
ATOM      8  H   GLY A   1      -8.945  12.416  63.334  1.00  0.00     0.000 HD 
ATOM      9  O   GLY A   1      -9.795  11.998  63.402  1.00  0.00    -0.390 OA 
ENDBRANCH   5   7
BRANCH   6  10
HETATM   10  C   UNL     1     -10.801   7.314  67.812  1.00  0.00    -0.214 C  
BRANCH  10  11
HETATM   11  C   UNL     1     -10.967   6.237  68.887  1.00  0.00    -0.435 C  
BRANCH  11  12
HETATM   12  C   UNL     1     -10.429   6.754  70.224  1.00  0.00    -0.238 C  
BRANCH  12  13
HETATM   13  C   UNL     1     -10.865   5.883  71.401  1.00  0.00    -0.332 C  
BRANCH  13  14
HETATM   14  C   UNL     1     -12.074   6.457  72.153  1.00  0.00    -0.316 C  
BRANCH  14  15
HETATM   15  C   UNL     1     -13.149   7.107  71.274  1.00  0.00    -0.361 C  
BRANCH  15  16
HETATM   16  C   UNL     1     -13.747   8.360  71.854  1.00  0.00    -0.433 C  
HETATM   17  C   UNL     1     -13.133   9.553  71.885  1.00  0.00    -0.517 C  
BRANCH  17  18
HETATM   18  C   UNL     1     -11.744   9.830  71.389  1.00  0.00    -0.475 C  
BRANCH  18  19
HETATM   19  C   UNL     1     -11.754  10.657  70.106  1.00  0.00    -0.417 C  
BRANCH  19  20
HETATM   20  C   UNL     1     -12.010  12.129  70.430  1.00  0.00    -0.360 C  
BRANCH  20  21
HETATM   21  C   UNL     1     -11.795  13.013  69.205  1.00  0.00    -0.360 C  
BRANCH  21  22
HETATM   22  C   UNL     1     -11.885  14.492  69.569  1.00  0.00    -0.374 C  
BRANCH  22  23
HETATM   23  C   UNL     1     -13.127  14.767  70.414  1.00  0.00    -0.189 C  
BRANCH  23  24
HETATM   24  C   UNL     1     -12.865  15.836  71.470  1.00  0.00    -0.512 C  
HETATM   25  C   UNL     1     -13.268  15.366  72.849  1.00  0.00    -0.518 C  
HETATM   26  O   UNL     1     -13.023  16.301  73.796  1.00  0.00    -0.631 OA 
HETATM   27  O   UNL     1     -13.753  14.283  73.114  1.00  0.00    -0.534 OA 
ENDBRANCH  23  24
ENDBRANCH  22  23
ENDBRANCH  21  22
ENDBRANCH  20  21
ENDBRANCH  19  20
ENDBRANCH  18  19
ENDBRANCH  17  18
ENDBRANCH  15  16
ENDBRANCH  14  15
ENDBRANCH  13  14
ENDBRANCH  12  13
ENDBRANCH  11  12
ENDBRANCH  10  11
ENDBRANCH   6  10
TORSDOF 15
ENDMDL
MODEL       64
REMARK 921   NORMALIZED FREE ENERGY PREDICTED BY IDOCK:   -4.63 KCAL/MOL
REMARK 922        TOTAL FREE ENERGY PREDICTED BY IDOCK:  -10.64 KCAL/MOL
REMARK 923 INTER-LIGAND FREE ENERGY PREDICTED BY IDOCK:   -7.52 KCAL/MOL
REMARK 924 INTRA-LIGAND FREE ENERGY PREDICTED BY IDOCK:   -3.12 KCAL/MOL
REMARK 927      BINDING AFFINITY PREDICTED BY RF-SCORE:    0.00 PKD
ROOT
ATOM      1  N   GLY A   1     -13.233  11.372  72.024  1.00  0.00    -0.527 NA 
HETATM    2  C   UNL     1     -10.316   5.579  69.507  1.00  0.00    -0.357 C  
ATOM      3  H2  GLY A   1     -12.634  11.301  72.846  1.00  0.00     0.000 HD 
ATOM      4  H1  GLY A   1     -12.895  12.074  71.366  1.00  0.00     0.000 HD 
ATOM      5  CA  GLY A   1     -13.394  10.078  71.349  1.00  0.00    -0.347 C  
HETATM    6  C   UNL     1      -9.660   6.383  68.395  1.00  0.00    -0.125 C  
ENDROOT
BRANCH   5   7
ATOM      7  C   GLY A   1     -13.903   9.025  72.337  1.00  0.00    -0.475 C  
ATOM      8  H   GLY A   1     -14.618   7.203  72.239  1.00  0.00     0.000 HD 
ATOM      9  O   GLY A   1     -14.303   7.856  71.626  1.00  0.00    -0.426 OA 
ENDBRANCH   5   7
BRANCH   6  10
HETATM   10  C   UNL     1     -10.599   6.708  67.234  1.00  0.00    -0.387 C  
BRANCH  10  11
HETATM   11  C   UNL     1     -10.298   8.030  66.525  1.00  0.00    -0.144 C  
BRANCH  11  12
HETATM   12  C   UNL     1      -8.877   7.999  65.954  1.00  0.00    -0.189 C  
BRANCH  12  13
HETATM   13  C   UNL     1      -8.694   8.983  64.800  1.00  0.00    -0.187 C  
BRANCH  13  14
HETATM   14  C   UNL     1      -7.834  10.196  65.180  1.00  0.00    -0.140 C  
BRANCH  14  15
HETATM   15  C   UNL     1      -7.158  10.120  66.555  1.00  0.00    -0.103 C  
BRANCH  15  16
HETATM   16  C   UNL     1      -7.409  11.315  67.434  1.00  0.00    -0.115 C  
HETATM   17  C   UNL     1      -7.977  11.261  68.648  1.00  0.00    -0.145 C  
BRANCH  17  18
HETATM   18  C   UNL     1      -8.493  10.018  69.314  1.00  0.00    -0.165 C  
BRANCH  18  19
HETATM   19  C   UNL     1     -10.013  10.041  69.459  1.00  0.00    -0.249 C  
BRANCH  19  20
HETATM   20  C   UNL     1     -10.541  11.459  69.242  1.00  0.00    -0.148 C  
BRANCH  20  21
HETATM   21  C   UNL     1     -11.711  11.472  68.263  1.00  0.00    -0.371 C  
BRANCH  21  22
HETATM   22  C   UNL     1     -11.223  11.376  66.820  1.00  0.00    -0.319 C  
BRANCH  22  23
HETATM   23  C   UNL     1     -10.701  12.726  66.334  1.00  0.00    -0.282 C  
BRANCH  23  24
HETATM   24  C   UNL     1     -10.957  12.926  64.843  1.00  0.00    -0.327 C  
HETATM   25  C   UNL     1     -12.279  13.616  64.593  1.00  0.00    -0.409 C  
HETATM   26  O   UNL     1     -12.507  13.814  63.274  1.00  0.00    -0.819 OA 
HETATM   27  O   UNL     1     -13.067  13.969  65.450  1.00  0.00    -0.763 OA 
ENDBRANCH  23  24
ENDBRANCH  22  23
ENDBRANCH  21  22
ENDBRANCH  20  21
ENDBRANCH  19  20
ENDBRANCH  18  19
ENDBRANCH  17  18
ENDBRANCH  15  16
ENDBRANCH  14  15
ENDBRANCH  13  14
ENDBRANCH  12  13
ENDBRANCH  11  12
ENDBRANCH  10  11
ENDBRANCH   6  10
TORSDOF 15
ENDMDL
MODEL       65
REMARK 921   NORMALIZED FREE ENERGY PREDICTED BY IDOCK:   -4.62 KCAL/MOL
REMARK 922        TOTAL FREE ENERGY PREDICTED BY IDOCK:  -10.63 KCAL/MOL
REMARK 923 INTER-LIGAND FREE ENERGY PREDICTED BY IDOCK:   -8.45 KCAL/MOL
REMARK 924 INTRA-LIGAND FREE ENERGY PREDICTED BY IDOCK:   -2.18 KCAL/MOL
REMARK 927      BINDING AFFINITY PREDICTED BY RF-SCORE:    0.00 PKD
ROOT
ATOM      1  N   GLY A   1     -14.387  15.361  71.172  1.00  0.00    -0.821 NA 
HETATM    2  C   UNL     1      -8.669  17.777  68.028  1.00  0.00    -0.251 C  
ATOM      3  H2  GLY A   1     -14.505  16.267  71.626  1.00  0.00     0.000 HD 
ATOM      4  H1  GLY A   1     -15.021  15.246  70.382  1.00  0.00     0.000 HD 
ATOM      5  CA  GLY A   1     -12.999  15.137  70.747  1.00  0.00    -0.414 C  
HETATM    6  C   UNL     1      -9.376  17.721  66.683  1.00  0.00    -0.296 C  
ENDROOT
BRANCH   5   7
ATOM      7  C   GLY A   1     -12.047  15.310  71.934  1.00  0.00    -0.381 C  
ATOM      8  H   GLY A   1     -11.403  16.793  73.042  1.00  0.00     0.000 HD 
ATOM      9  O   GLY A   1     -11.993  16.685  72.306  1.00  0.00    -0.421 OA 
ENDBRANCH   5   7
BRANCH   6  10
HETATM   10  C   UNL     1      -9.420  16.322  66.069  1.00  0.00    -0.369 C  
BRANCH  10  11
HETATM   11  C   UNL     1      -8.549  15.288  66.786  1.00  0.00    -0.300 C  
BRANCH  11  12
HETATM   12  C   UNL     1      -9.404  14.085  67.194  1.00  0.00    -0.244 C  
BRANCH  12  13
HETATM   13  C   UNL     1     -10.599  14.490  68.056  1.00  0.00    -0.237 C  
BRANCH  13  14
HETATM   14  C   UNL     1     -11.945  14.075  67.445  1.00  0.00    -0.439 C  
BRANCH  14  15
HETATM   15  C   UNL     1     -11.884  12.914  66.445  1.00  0.00    -0.478 C  
BRANCH  15  16
HETATM   16  C   UNL     1     -12.471  13.230  65.096  1.00  0.00    -0.525 C  
HETATM   17  C   UNL     1     -11.829  13.065  63.929  1.00  0.00    -0.542 C  
BRANCH  17  18
HETATM   18  C   UNL     1     -10.416  12.582  63.773  1.00  0.00    -0.451 C  
BRANCH  18  19
HETATM   19  C   UNL     1     -10.344  11.060  63.685  1.00  0.00    -0.415 C  
BRANCH  19  20
HETATM   20  C   UNL     1      -9.017  10.562  64.259  1.00  0.00    -0.237 C  
BRANCH  20  21
HETATM   21  C   UNL     1      -8.863  10.956  65.725  1.00  0.00    -0.202 C  
BRANCH  21  22
HETATM   22  C   UNL     1      -9.777  10.123  66.619  1.00  0.00    -0.242 C  
BRANCH  22  23
HETATM   23  C   UNL     1      -9.680   8.642  66.263  1.00  0.00    -0.322 C  
BRANCH  23  24
HETATM   24  C   UNL     1     -10.510   7.779  67.208  1.00  0.00    -0.392 C  
HETATM   25  C   UNL     1      -9.736   7.415  68.454  1.00  0.00    -0.153 C  
HETATM   26  O   UNL     1     -10.471   6.664  69.308  1.00  0.00    -0.188 OA 
HETATM   27  O   UNL     1      -8.590   7.742  68.697  1.00  0.00    -0.128 OA 
ENDBRANCH  23  24
ENDBRANCH  22  23
ENDBRANCH  21  22
ENDBRANCH  20  21
ENDBRANCH  19  20
ENDBRANCH  18  19
ENDBRANCH  17  18
ENDBRANCH  15  16
ENDBRANCH  14  15
ENDBRANCH  13  14
ENDBRANCH  12  13
ENDBRANCH  11  12
ENDBRANCH  10  11
ENDBRANCH   6  10
TORSDOF 15
ENDMDL
MODEL       66
REMARK 921   NORMALIZED FREE ENERGY PREDICTED BY IDOCK:   -4.62 KCAL/MOL
REMARK 922        TOTAL FREE ENERGY PREDICTED BY IDOCK:  -10.61 KCAL/MOL
REMARK 923 INTER-LIGAND FREE ENERGY PREDICTED BY IDOCK:   -8.01 KCAL/MOL
REMARK 924 INTRA-LIGAND FREE ENERGY PREDICTED BY IDOCK:   -2.60 KCAL/MOL
REMARK 927      BINDING AFFINITY PREDICTED BY RF-SCORE:    0.00 PKD
ROOT
ATOM      1  N   GLY A   1      -9.383  20.314  65.586  1.00  0.00    -0.476 NA 
HETATM    2  C   UNL     1      -7.447  15.019  69.663  1.00  0.00    -0.161 C  
ATOM      3  H2  GLY A   1      -8.914  20.959  66.222  1.00  0.00     0.000 HD 
ATOM      4  H1  GLY A   1      -8.831  20.138  64.747  1.00  0.00     0.000 HD 
ATOM      5  CA  GLY A   1      -9.726  19.046  66.243  1.00  0.00    -0.354 C  
HETATM    6  C   UNL     1      -6.511  14.515  68.576  1.00  0.00    -0.094 C  
ENDROOT
BRANCH   5   7
ATOM      7  C   GLY A   1     -10.556  19.311  67.503  1.00  0.00    -0.474 C  
ATOM      8  H   GLY A   1     -10.264  19.260  69.440  1.00  0.00     0.000 HD 
ATOM      9  O   GLY A   1      -9.749  19.096  68.659  1.00  0.00    -0.369 OA 
ENDBRANCH   5   7
BRANCH   6  10
HETATM   10  C   UNL     1      -7.217  13.727  67.474  1.00  0.00    -0.173 C  
BRANCH  10  11
HETATM   11  C   UNL     1      -7.088  12.207  67.597  1.00  0.00    -0.124 C  
BRANCH  11  12
HETATM   12  C   UNL     1      -8.479  11.566  67.565  1.00  0.00    -0.143 C  
BRANCH  12  13
HETATM   13  C   UNL     1      -8.495  10.184  68.216  1.00  0.00    -0.115 C  
BRANCH  13  14
HETATM   14  C   UNL     1      -9.897   9.562  68.263  1.00  0.00    -0.174 C  
BRANCH  14  15
HETATM   15  C   UNL     1     -11.056  10.527  67.983  1.00  0.00    -0.361 C  
BRANCH  15  16
HETATM   16  C   UNL     1     -11.806  10.964  69.212  1.00  0.00    -0.395 C  
HETATM   17  C   UNL     1     -11.844  12.225  69.671  1.00  0.00    -0.393 C  
BRANCH  17  18
HETATM   18  C   UNL     1     -11.120  13.394  69.070  1.00  0.00    -0.293 C  
BRANCH  18  19
HETATM   19  C   UNL     1     -12.033  14.609  68.917  1.00  0.00    -0.309 C  
BRANCH  19  20
HETATM   20  C   UNL     1     -11.199  15.865  68.665  1.00  0.00    -0.360 C  
BRANCH  20  21
HETATM   21  C   UNL     1     -10.163  15.633  67.569  1.00  0.00    -0.263 C  
BRANCH  21  22
HETATM   22  C   UNL     1     -10.821  15.551  66.195  1.00  0.00    -0.295 C  
BRANCH  22  23
HETATM   23  C   UNL     1     -10.281  14.361  65.406  1.00  0.00    -0.408 C  
BRANCH  23  24
HETATM   24  C   UNL     1     -11.258  13.189  65.413  1.00  0.00    -0.315 C  
HETATM   25  C   UNL     1     -12.417  13.426  64.472  1.00  0.00    -0.301 C  
HETATM   26  O   UNL     1     -13.280  12.384  64.458  1.00  0.00    -0.834 OA 
HETATM   27  O   UNL     1     -12.585  14.420  63.791  1.00  0.00    -0.829 OA 
ENDBRANCH  23  24
ENDBRANCH  22  23
ENDBRANCH  21  22
ENDBRANCH  20  21
ENDBRANCH  19  20
ENDBRANCH  18  19
ENDBRANCH  17  18
ENDBRANCH  15  16
ENDBRANCH  14  15
ENDBRANCH  13  14
ENDBRANCH  12  13
ENDBRANCH  11  12
ENDBRANCH  10  11
ENDBRANCH   6  10
TORSDOF 15
ENDMDL
MODEL       67
REMARK 921   NORMALIZED FREE ENERGY PREDICTED BY IDOCK:   -4.61 KCAL/MOL
REMARK 922        TOTAL FREE ENERGY PREDICTED BY IDOCK:  -10.59 KCAL/MOL
REMARK 923 INTER-LIGAND FREE ENERGY PREDICTED BY IDOCK:   -7.86 KCAL/MOL
REMARK 924 INTRA-LIGAND FREE ENERGY PREDICTED BY IDOCK:   -2.74 KCAL/MOL
REMARK 927      BINDING AFFINITY PREDICTED BY RF-SCORE:    0.00 PKD
ROOT
ATOM      1  N   GLY A   1     -10.340   7.315  68.889  1.00  0.00    -0.197 NA 
HETATM    2  C   UNL     1      -9.173  10.497  62.812  1.00  0.00    -0.324 C  
ATOM      3  H2  GLY A   1      -9.336   7.319  69.069  1.00  0.00     0.000 HD 
ATOM      4  H1  GLY A   1     -10.824   8.045  69.412  1.00  0.00     0.000 HD 
ATOM      5  CA  GLY A   1     -10.641   7.433  67.456  1.00  0.00    -0.269 C  
HETATM    6  C   UNL     1      -9.848  11.756  63.334  1.00  0.00    -0.407 C  
ENDROOT
BRANCH   5   7
ATOM      7  C   GLY A   1      -9.914   6.336  66.671  1.00  0.00    -0.153 C  
ATOM      8  H   GLY A   1     -10.154   4.419  66.343  1.00  0.00     0.000 HD 
ATOM      9  O   GLY A   1     -10.604   5.099  66.830  1.00  0.00    -0.264 OA 
ENDBRANCH   5   7
BRANCH   6  10
HETATM   10  C   UNL     1     -11.374  11.699  63.290  1.00  0.00    -0.288 C  
BRANCH  10  11
HETATM   11  C   UNL     1     -12.065  13.052  63.480  1.00  0.00    -0.617 C  
BRANCH  11  12
HETATM   12  C   UNL     1     -12.966  13.003  64.717  1.00  0.00    -0.207 C  
BRANCH  12  13
HETATM   13  C   UNL     1     -12.391  13.800  65.886  1.00  0.00    -0.516 C  
BRANCH  13  14
HETATM   14  C   UNL     1     -11.429  12.978  66.755  1.00  0.00    -0.392 C  
BRANCH  14  15
HETATM   15  C   UNL     1     -10.006  13.537  66.871  1.00  0.00    -0.256 C  
BRANCH  15  16
HETATM   16  C   UNL     1      -9.688  14.628  65.885  1.00  0.00    -0.341 C  
HETATM   17  C   UNL     1      -9.390  15.893  66.220  1.00  0.00    -0.357 C  
BRANCH  17  18
HETATM   18  C   UNL     1      -9.363  16.441  67.617  1.00  0.00    -0.212 C  
BRANCH  18  19
HETATM   19  C   UNL     1     -10.737  16.940  68.057  1.00  0.00    -0.364 C  
BRANCH  19  20
HETATM   20  C   UNL     1     -11.015  16.515  69.499  1.00  0.00    -0.289 C  
BRANCH  20  21
HETATM   21  C   UNL     1     -12.008  15.358  69.554  1.00  0.00    -0.358 C  
BRANCH  21  22
HETATM   22  C   UNL     1     -11.506  14.243  70.467  1.00  0.00    -0.151 C  
BRANCH  22  23
HETATM   23  C   UNL     1     -12.535  13.119  70.565  1.00  0.00    -0.322 C  
BRANCH  23  24
HETATM   24  C   UNL     1     -11.955  11.783  70.110  1.00  0.00    -0.421 C  
HETATM   25  C   UNL     1     -12.403  10.649  71.003  1.00  0.00    -0.403 C  
HETATM   26  O   UNL     1     -11.908   9.457  70.596  1.00  0.00    -0.265 OA 
HETATM   27  O   UNL     1     -13.125  10.757  71.976  1.00  0.00    -0.483 OA 
ENDBRANCH  23  24
ENDBRANCH  22  23
ENDBRANCH  21  22
ENDBRANCH  20  21
ENDBRANCH  19  20
ENDBRANCH  18  19
ENDBRANCH  17  18
ENDBRANCH  15  16
ENDBRANCH  14  15
ENDBRANCH  13  14
ENDBRANCH  12  13
ENDBRANCH  11  12
ENDBRANCH  10  11
ENDBRANCH   6  10
TORSDOF 15
ENDMDL
MODEL       68
REMARK 921   NORMALIZED FREE ENERGY PREDICTED BY IDOCK:   -4.60 KCAL/MOL
REMARK 922        TOTAL FREE ENERGY PREDICTED BY IDOCK:  -10.58 KCAL/MOL
REMARK 923 INTER-LIGAND FREE ENERGY PREDICTED BY IDOCK:   -8.16 KCAL/MOL
REMARK 924 INTRA-LIGAND FREE ENERGY PREDICTED BY IDOCK:   -2.42 KCAL/MOL
REMARK 927      BINDING AFFINITY PREDICTED BY RF-SCORE:    0.00 PKD
ROOT
ATOM      1  N   GLY A   1     -14.254  14.828  71.991  1.00  0.00    -0.489 NA 
HETATM    2  C   UNL     1      -8.019  15.941  69.111  1.00  0.00    -0.233 C  
ATOM      3  H2  GLY A   1     -14.526  15.778  71.740  1.00  0.00     0.000 HD 
ATOM      4  H1  GLY A   1     -14.653  14.138  71.355  1.00  0.00     0.000 HD 
ATOM      5  CA  GLY A   1     -12.795  14.674  72.059  1.00  0.00    -0.330 C  
HETATM    6  C   UNL     1      -8.344  14.948  68.006  1.00  0.00    -0.147 C  
ENDROOT
BRANCH   5   7
ATOM      7  C   GLY A   1     -12.197  15.710  73.015  1.00  0.00    -0.466 C  
ATOM      8  H   GLY A   1     -11.834  15.837  74.936  1.00  0.00     0.000 HD 
ATOM      9  O   GLY A   1     -12.205  15.194  74.343  1.00  0.00    -0.634 OA 
ENDBRANCH   5   7
BRANCH   6  10
HETATM   10  C   UNL     1      -8.165  13.488  68.419  1.00  0.00    -0.141 C  
BRANCH  10  11
HETATM   11  C   UNL     1      -7.090  12.734  67.633  1.00  0.00    -0.145 C  
BRANCH  11  12
HETATM   12  C   UNL     1      -6.987  11.295  68.147  1.00  0.00    -0.069 C  
BRANCH  12  13
HETATM   13  C   UNL     1      -8.266  10.836  68.845  1.00  0.00    -0.149 C  
BRANCH  13  14
HETATM   14  C   UNL     1      -8.893   9.597  68.189  1.00  0.00    -0.119 C  
BRANCH  14  15
HETATM   15  C   UNL     1      -9.573   8.616  69.152  1.00  0.00    -0.163 C  
BRANCH  15  16
HETATM   16  C   UNL     1      -9.210   8.817  70.598  1.00  0.00    -0.233 C  
HETATM   17  C   UNL     1     -10.092   9.089  71.573  1.00  0.00    -0.409 C  
BRANCH  17  18
HETATM   18  C   UNL     1     -11.569   9.278  71.384  1.00  0.00    -0.437 C  
BRANCH  18  19
HETATM   19  C   UNL     1     -11.918  10.726  71.050  1.00  0.00    -0.409 C  
BRANCH  19  20
HETATM   20  C   UNL     1     -12.240  10.860  69.562  1.00  0.00    -0.331 C  
BRANCH  20  21
HETATM   21  C   UNL     1     -11.709  12.173  68.995  1.00  0.00    -0.377 C  
BRANCH  21  22
HETATM   22  C   UNL     1     -11.634  12.126  67.471  1.00  0.00    -0.413 C  
BRANCH  22  23
HETATM   23  C   UNL     1     -11.581  13.536  66.888  1.00  0.00    -0.398 C  
BRANCH  23  24
HETATM   24  C   UNL     1     -12.447  13.662  65.638  1.00  0.00    -0.540 C  
HETATM   25  C   UNL     1     -11.630  13.498  64.377  1.00  0.00    -0.396 C  
HETATM   26  O   UNL     1     -12.393  13.589  63.262  1.00  0.00    -0.709 OA 
HETATM   27  O   UNL     1     -10.431  13.300  64.330  1.00  0.00    -0.424 OA 
ENDBRANCH  23  24
ENDBRANCH  22  23
ENDBRANCH  21  22
ENDBRANCH  20  21
ENDBRANCH  19  20
ENDBRANCH  18  19
ENDBRANCH  17  18
ENDBRANCH  15  16
ENDBRANCH  14  15
ENDBRANCH  13  14
ENDBRANCH  12  13
ENDBRANCH  11  12
ENDBRANCH  10  11
ENDBRANCH   6  10
TORSDOF 15
ENDMDL
MODEL       69
REMARK 921   NORMALIZED FREE ENERGY PREDICTED BY IDOCK:   -4.59 KCAL/MOL
REMARK 922        TOTAL FREE ENERGY PREDICTED BY IDOCK:  -10.56 KCAL/MOL
REMARK 923 INTER-LIGAND FREE ENERGY PREDICTED BY IDOCK:   -8.19 KCAL/MOL
REMARK 924 INTRA-LIGAND FREE ENERGY PREDICTED BY IDOCK:   -2.37 KCAL/MOL
REMARK 927      BINDING AFFINITY PREDICTED BY RF-SCORE:    0.00 PKD
ROOT
ATOM      1  N   GLY A   1     -11.451  16.356  63.842  1.00  0.00    -1.618 NA 
HETATM    2  C   UNL     1      -7.140  13.418  68.445  1.00  0.00    -0.108 C  
ATOM      3  H2  GLY A   1     -10.650  16.577  63.251  1.00  0.00     0.000 HD 
ATOM      4  H1  GLY A   1     -11.966  15.546  63.498  1.00  0.00     0.000 HD 
ATOM      5  CA  GLY A   1     -11.061  16.153  65.243  1.00  0.00    -0.181 C  
HETATM    6  C   UNL     1      -7.720  12.049  68.125  1.00  0.00    -0.135 C  
ENDROOT
BRANCH   5   7
ATOM      7  C   GLY A   1     -10.288  17.370  65.759  1.00  0.00    -0.216 C  
ATOM      8  H   GLY A   1      -8.409  17.903  65.922  1.00  0.00     0.000 HD 
ATOM      9  O   GLY A   1      -8.889  17.148  65.602  1.00  0.00    -0.482 OA 
ENDBRANCH   5   7
BRANCH   6  10
HETATM   10  C   UNL     1      -9.050  11.766  68.822  1.00  0.00     0.009 C  
BRANCH  10  11
HETATM   11  C   UNL     1      -9.161  10.368  69.436  1.00  0.00    -0.177 C  
BRANCH  11  12
HETATM   12  C   UNL     1     -10.635  10.009  69.641  1.00  0.00    -0.278 C  
BRANCH  12  13
HETATM   13  C   UNL     1     -10.874   9.265  70.953  1.00  0.00    -0.365 C  
BRANCH  13  14
HETATM   14  C   UNL     1     -11.224   7.785  70.746  1.00  0.00    -0.281 C  
BRANCH  14  15
HETATM   15  C   UNL     1     -10.026   6.834  70.633  1.00  0.00    -0.201 C  
BRANCH  15  16
HETATM   16  C   UNL     1     -10.164   5.791  69.558  1.00  0.00    -0.306 C  
HETATM   17  C   UNL     1      -9.689   5.919  68.309  1.00  0.00    -0.147 C  
BRANCH  17  18
HETATM   18  C   UNL     1      -8.983   7.126  67.764  1.00  0.00    -0.122 C  
BRANCH  18  19
HETATM   19  C   UNL     1      -9.840   7.874  66.746  1.00  0.00    -0.318 C  
BRANCH  19  20
HETATM   20  C   UNL     1      -9.039   9.016  66.121  1.00  0.00    -0.246 C  
BRANCH  20  21
HETATM   21  C   UNL     1      -9.949  10.164  65.695  1.00  0.00    -0.348 C  
BRANCH  21  22
HETATM   22  C   UNL     1      -9.793  10.469  64.208  1.00  0.00    -0.402 C  
BRANCH  22  23
HETATM   23  C   UNL     1     -10.810  11.515  63.760  1.00  0.00    -0.486 C  
BRANCH  23  24
HETATM   24  C   UNL     1     -11.753  11.907  64.893  1.00  0.00    -0.262 C  
HETATM   25  C   UNL     1     -12.639  13.068  64.504  1.00  0.00    -0.320 C  
HETATM   26  O   UNL     1     -13.492  13.410  65.497  1.00  0.00    -0.400 OA 
HETATM   27  O   UNL     1     -12.620  13.646  63.434  1.00  0.00    -0.799 OA 
ENDBRANCH  23  24
ENDBRANCH  22  23
ENDBRANCH  21  22
ENDBRANCH  20  21
ENDBRANCH  19  20
ENDBRANCH  18  19
ENDBRANCH  17  18
ENDBRANCH  15  16
ENDBRANCH  14  15
ENDBRANCH  13  14
ENDBRANCH  12  13
ENDBRANCH  11  12
ENDBRANCH  10  11
ENDBRANCH   6  10
TORSDOF 15
ENDMDL
MODEL       70
REMARK 921   NORMALIZED FREE ENERGY PREDICTED BY IDOCK:   -4.58 KCAL/MOL
REMARK 922        TOTAL FREE ENERGY PREDICTED BY IDOCK:  -10.54 KCAL/MOL
REMARK 923 INTER-LIGAND FREE ENERGY PREDICTED BY IDOCK:   -7.92 KCAL/MOL
REMARK 924 INTRA-LIGAND FREE ENERGY PREDICTED BY IDOCK:   -2.61 KCAL/MOL
REMARK 927      BINDING AFFINITY PREDICTED BY RF-SCORE:    0.00 PKD
ROOT
ATOM      1  N   GLY A   1     -14.145  13.033  72.594  1.00  0.00    -0.695 NA 
HETATM    2  C   UNL     1     -12.339  13.914  65.933  1.00  0.00    -0.517 C  
ATOM      3  H2  GLY A   1     -15.126  13.082  72.321  1.00  0.00     0.000 HD 
ATOM      4  H1  GLY A   1     -13.844  12.073  72.762  1.00  0.00     0.000 HD 
ATOM      5  CA  GLY A   1     -13.267  13.675  71.606  1.00  0.00    -0.367 C  
HETATM    6  C   UNL     1     -11.808  12.490  65.880  1.00  0.00    -0.489 C  
ENDROOT
BRANCH   5   7
ATOM      7  C   GLY A   1     -13.719  15.116  71.355  1.00  0.00    -0.495 C  
ATOM      8  H   GLY A   1     -14.584  16.541  72.386  1.00  0.00     0.000 HD 
ATOM      9  O   GLY A   1     -14.304  15.647  72.541  1.00  0.00    -0.537 OA 
ENDBRANCH   5   7
BRANCH   6  10
HETATM   10  C   UNL     1     -10.416  12.331  66.491  1.00  0.00    -0.254 C  
BRANCH  10  11
HETATM   11  C   UNL     1     -10.413  11.999  67.986  1.00  0.00    -0.224 C  
BRANCH  11  12
HETATM   12  C   UNL     1     -11.359  10.827  68.257  1.00  0.00    -0.376 C  
BRANCH  12  13
HETATM   13  C   UNL     1     -12.183  11.028  69.528  1.00  0.00    -0.352 C  
BRANCH  13  14
HETATM   14  C   UNL     1     -11.444  10.583  70.797  1.00  0.00    -0.376 C  
BRANCH  14  15
HETATM   15  C   UNL     1     -11.030   9.106  70.835  1.00  0.00    -0.349 C  
BRANCH  15  16
HETATM   16  C   UNL     1      -9.732   8.846  71.549  1.00  0.00    -0.372 C  
HETATM   17  C   UNL     1      -8.518   9.094  71.034  1.00  0.00    -0.221 C  
BRANCH  17  18
HETATM   18  C   UNL     1      -8.247   9.628  69.657  1.00  0.00    -0.148 C  
BRANCH  18  19
HETATM   19  C   UNL     1      -7.926   8.510  68.668  1.00  0.00    -0.116 C  
BRANCH  19  20
HETATM   20  C   UNL     1      -7.987   9.040  67.236  1.00  0.00    -0.099 C  
BRANCH  20  21
HETATM   21  C   UNL     1      -8.768   8.095  66.327  1.00  0.00    -0.172 C  
BRANCH  21  22
HETATM   22  C   UNL     1     -10.221   7.972  66.776  1.00  0.00    -0.367 C  
BRANCH  22  23
HETATM   23  C   UNL     1     -10.557   6.526  67.131  1.00  0.00    -0.398 C  
BRANCH  23  24
HETATM   24  C   UNL     1     -10.988   6.389  68.588  1.00  0.00    -0.404 C  
HETATM   25  C   UNL     1     -10.071   5.463  69.355  1.00  0.00    -0.234 C  
HETATM   26  O   UNL     1     -10.435   5.350  70.654  1.00  0.00    -0.257 OA 
HETATM   27  O   UNL     1      -9.109   4.878  68.895  1.00  0.00    -0.103 OA 
ENDBRANCH  23  24
ENDBRANCH  22  23
ENDBRANCH  21  22
ENDBRANCH  20  21
ENDBRANCH  19  20
ENDBRANCH  18  19
ENDBRANCH  17  18
ENDBRANCH  15  16
ENDBRANCH  14  15
ENDBRANCH  13  14
ENDBRANCH  12  13
ENDBRANCH  11  12
ENDBRANCH  10  11
ENDBRANCH   6  10
TORSDOF 15
ENDMDL
MODEL       71
REMARK 921   NORMALIZED FREE ENERGY PREDICTED BY IDOCK:   -4.58 KCAL/MOL
REMARK 922        TOTAL FREE ENERGY PREDICTED BY IDOCK:  -10.54 KCAL/MOL
REMARK 923 INTER-LIGAND FREE ENERGY PREDICTED BY IDOCK:   -8.56 KCAL/MOL
REMARK 924 INTRA-LIGAND FREE ENERGY PREDICTED BY IDOCK:   -1.98 KCAL/MOL
REMARK 927      BINDING AFFINITY PREDICTED BY RF-SCORE:    0.00 PKD
ROOT
ATOM      1  N   GLY A   1     -11.447   6.244  69.803  1.00  0.00    -0.477 NA 
HETATM    2  C   UNL     1      -7.720   9.708  65.058  1.00  0.00    -0.119 C  
ATOM      3  H2  GLY A   1     -10.670   6.329  70.457  1.00  0.00     0.000 HD 
ATOM      4  H1  GLY A   1     -12.190   6.912  70.006  1.00  0.00     0.000 HD 
ATOM      5  CA  GLY A   1     -11.008   6.381  68.408  1.00  0.00    -0.309 C  
HETATM    6  C   UNL     1      -8.675  10.887  65.157  1.00  0.00    -0.130 C  
ENDROOT
BRANCH   5   7
ATOM      7  C   GLY A   1      -9.892   5.378  68.103  1.00  0.00    -0.145 C  
ATOM      8  H   GLY A   1      -9.415   4.179  66.628  1.00  0.00     0.000 HD 
ATOM      9  O   GLY A   1     -10.107   4.802  66.817  1.00  0.00    -0.208 OA 
ENDBRANCH   5   7
BRANCH   6  10
HETATM   10  C   UNL     1      -9.967  10.700  64.363  1.00  0.00    -0.415 C  
BRANCH  10  11
HETATM   11  C   UNL     1     -10.385  11.917  63.535  1.00  0.00    -0.495 C  
BRANCH  11  12
HETATM   12  C   UNL     1     -11.912  12.015  63.493  1.00  0.00    -0.605 C  
BRANCH  12  13
HETATM   13  C   UNL     1     -12.400  13.461  63.421  1.00  0.00    -0.343 C  
BRANCH  13  14
HETATM   14  C   UNL     1     -11.831  14.340  64.544  1.00  0.00    -0.456 C  
BRANCH  14  15
HETATM   15  C   UNL     1     -12.534  14.214  65.900  1.00  0.00    -0.479 C  
BRANCH  15  16
HETATM   16  C   UNL     1     -12.076  13.044  66.728  1.00  0.00    -0.366 C  
HETATM   17  C   UNL     1     -10.885  12.966  67.341  1.00  0.00    -0.272 C  
BRANCH  17  18
HETATM   18  C   UNL     1      -9.801  14.002  67.275  1.00  0.00    -0.242 C  
BRANCH  18  19
HETATM   19  C   UNL     1      -9.604  14.703  68.617  1.00  0.00    -0.219 C  
BRANCH  19  20
HETATM   20  C   UNL     1     -10.826  15.559  68.949  1.00  0.00    -0.254 C  
BRANCH  20  21
HETATM   21  C   UNL     1     -10.756  16.099  70.373  1.00  0.00    -0.170 C  
BRANCH  21  22
HETATM   22  C   UNL     1     -11.681  15.322  71.305  1.00  0.00    -0.425 C  
BRANCH  22  23
HETATM   23  C   UNL     1     -12.654  14.458  70.505  1.00  0.00    -0.417 C  
BRANCH  23  24
HETATM   24  C   UNL     1     -12.512  12.980  70.853  1.00  0.00    -0.396 C  
HETATM   25  C   UNL     1     -13.396  12.595  72.017  1.00  0.00    -0.454 C  
HETATM   26  O   UNL     1     -13.291  11.280  72.321  1.00  0.00    -0.394 OA 
HETATM   27  O   UNL     1     -14.130  13.348  72.629  1.00  0.00    -0.767 OA 
ENDBRANCH  23  24
ENDBRANCH  22  23
ENDBRANCH  21  22
ENDBRANCH  20  21
ENDBRANCH  19  20
ENDBRANCH  18  19
ENDBRANCH  17  18
ENDBRANCH  15  16
ENDBRANCH  14  15
ENDBRANCH  13  14
ENDBRANCH  12  13
ENDBRANCH  11  12
ENDBRANCH  10  11
ENDBRANCH   6  10
TORSDOF 15
ENDMDL
MODEL       72
REMARK 921   NORMALIZED FREE ENERGY PREDICTED BY IDOCK:   -4.58 KCAL/MOL
REMARK 922        TOTAL FREE ENERGY PREDICTED BY IDOCK:  -10.53 KCAL/MOL
REMARK 923 INTER-LIGAND FREE ENERGY PREDICTED BY IDOCK:   -8.04 KCAL/MOL
REMARK 924 INTRA-LIGAND FREE ENERGY PREDICTED BY IDOCK:   -2.50 KCAL/MOL
REMARK 927      BINDING AFFINITY PREDICTED BY RF-SCORE:    0.00 PKD
ROOT
ATOM      1  N   GLY A   1     -12.451  14.281  63.206  1.00  0.00    -1.068 NA 
HETATM    2  C   UNL     1      -7.891  10.232  66.556  1.00  0.00    -0.116 C  
ATOM      3  H2  GLY A   1     -11.675  14.736  62.726  1.00  0.00     0.000 HD 
ATOM      4  H1  GLY A   1     -12.924  13.604  62.608  1.00  0.00     0.000 HD 
ATOM      5  CA  GLY A   1     -12.024  13.642  64.458  1.00  0.00    -0.418 C  
HETATM    6  C   UNL     1      -8.397   9.018  65.793  1.00  0.00    -0.133 C  
ENDROOT
BRANCH   5   7
ATOM      7  C   GLY A   1     -11.313  14.659  65.356  1.00  0.00    -0.344 C  
ATOM      8  H   GLY A   1     -10.777  16.540  65.234  1.00  0.00     0.000 HD 
ATOM      9  O   GLY A   1     -11.218  15.909  64.677  1.00  0.00    -0.456 OA 
ENDBRANCH   5   7
BRANCH   6  10
HETATM   10  C   UNL     1      -9.695   8.437  66.351  1.00  0.00    -0.312 C  
BRANCH  10  11
HETATM   11  C   UNL     1      -9.701   6.912  66.487  1.00  0.00    -0.185 C  
BRANCH  11  12
HETATM   12  C   UNL     1     -10.930   6.469  67.285  1.00  0.00    -0.475 C  
BRANCH  12  13
HETATM   13  C   UNL     1     -10.697   6.536  68.794  1.00  0.00    -0.320 C  
BRANCH  13  14
HETATM   14  C   UNL     1      -9.239   6.261  69.186  1.00  0.00    -0.128 C  
BRANCH  14  15
HETATM   15  C   UNL     1      -8.430   7.489  69.621  1.00  0.00    -0.135 C  
BRANCH  15  16
HETATM   16  C   UNL     1      -8.987   8.202  70.823  1.00  0.00    -0.156 C  
HETATM   17  C   UNL     1      -9.654   9.366  70.776  1.00  0.00    -0.322 C  
BRANCH  17  18
HETATM   18  C   UNL     1      -9.919  10.169  69.536  1.00  0.00    -0.257 C  
BRANCH  18  19
HETATM   19  C   UNL     1     -11.414  10.373  69.301  1.00  0.00    -0.281 C  
BRANCH  19  20
HETATM   20  C   UNL     1     -11.931  11.524  70.163  1.00  0.00    -0.452 C  
BRANCH  20  21
HETATM   21  C   UNL     1     -12.579  11.011  71.445  1.00  0.00    -0.498 C  
BRANCH  21  22
HETATM   22  C   UNL     1     -13.357   9.723  71.192  1.00  0.00    -0.360 C  
BRANCH  22  23
HETATM   23  C   UNL     1     -13.076   8.696  72.287  1.00  0.00    -0.415 C  
BRANCH  23  24
HETATM   24  C   UNL     1     -12.623   7.361  71.705  1.00  0.00    -0.391 C  
HETATM   25  C   UNL     1     -11.519   6.740  72.530  1.00  0.00    -0.231 C  
HETATM   26  O   UNL     1     -11.123   5.545  72.031  1.00  0.00    -0.239 OA 
HETATM   27  O   UNL     1     -11.024   7.224  73.530  1.00  0.00    -0.345 OA 
ENDBRANCH  23  24
ENDBRANCH  22  23
ENDBRANCH  21  22
ENDBRANCH  20  21
ENDBRANCH  19  20
ENDBRANCH  18  19
ENDBRANCH  17  18
ENDBRANCH  15  16
ENDBRANCH  14  15
ENDBRANCH  13  14
ENDBRANCH  12  13
ENDBRANCH  11  12
ENDBRANCH  10  11
ENDBRANCH   6  10
TORSDOF 15
ENDMDL
MODEL       73
REMARK 921   NORMALIZED FREE ENERGY PREDICTED BY IDOCK:   -4.57 KCAL/MOL
REMARK 922        TOTAL FREE ENERGY PREDICTED BY IDOCK:  -10.53 KCAL/MOL
REMARK 923 INTER-LIGAND FREE ENERGY PREDICTED BY IDOCK:   -8.01 KCAL/MOL
REMARK 924 INTRA-LIGAND FREE ENERGY PREDICTED BY IDOCK:   -2.52 KCAL/MOL
REMARK 927      BINDING AFFINITY PREDICTED BY RF-SCORE:    0.00 PKD
ROOT
ATOM      1  N   GLY A   1     -12.524  11.772  62.999  1.00  0.00    -0.908 NA 
HETATM    2  C   UNL     1      -7.006  11.727  67.238  1.00  0.00    -0.138 C  
ATOM      3  H2  GLY A   1     -11.935  12.151  62.258  1.00  0.00     0.000 HD 
ATOM      4  H1  GLY A   1     -12.695  10.775  62.877  1.00  0.00     0.000 HD 
ATOM      5  CA  GLY A   1     -11.963  12.032  64.332  1.00  0.00    -0.300 C  
HETATM    6  C   UNL     1      -7.010  10.206  67.238  1.00  0.00    -0.083 C  
ENDROOT
BRANCH   5   7
ATOM      7  C   GLY A   1     -11.705  13.530  64.515  1.00  0.00    -0.397 C  
ATOM      8  H   GLY A   1     -10.170  14.741  64.381  1.00  0.00     0.000 HD 
ATOM      9  O   GLY A   1     -10.330  13.811  64.267  1.00  0.00    -0.331 OA 
ENDBRANCH   5   7
BRANCH   6  10
HETATM   10  C   UNL     1      -8.046   9.594  68.180  1.00  0.00    -0.105 C  
BRANCH  10  11
HETATM   11  C   UNL     1      -9.182   8.849  67.475  1.00  0.00    -0.153 C  
BRANCH  11  12
HETATM   12  C   UNL     1     -10.185   8.336  68.512  1.00  0.00    -0.234 C  
BRANCH  12  13
HETATM   13  C   UNL     1      -9.545   8.124  69.883  1.00  0.00    -0.175 C  
BRANCH  13  14
HETATM   14  C   UNL     1     -10.326   8.799  71.019  1.00  0.00    -0.297 C  
BRANCH  14  15
HETATM   15  C   UNL     1     -11.686   9.387  70.624  1.00  0.00    -0.302 C  
BRANCH  15  16
HETATM   16  C   UNL     1     -11.865  10.834  70.996  1.00  0.00    -0.349 C  
HETATM   17  C   UNL     1     -11.981  11.838  70.113  1.00  0.00    -0.421 C  
BRANCH  17  18
HETATM   18  C   UNL     1     -11.912  11.698  68.620  1.00  0.00    -0.311 C  
BRANCH  18  19
HETATM   19  C   UNL     1     -10.607  12.255  68.058  1.00  0.00    -0.235 C  
BRANCH  19  20
HETATM   20  C   UNL     1     -10.339  13.647  68.630  1.00  0.00    -0.223 C  
BRANCH  20  21
HETATM   21  C   UNL     1     -11.385  14.652  68.160  1.00  0.00    -0.321 C  
BRANCH  21  22
HETATM   22  C   UNL     1     -11.510  15.817  69.138  1.00  0.00    -0.383 C  
BRANCH  22  23
HETATM   23  C   UNL     1     -12.469  15.469  70.274  1.00  0.00    -0.403 C  
BRANCH  23  24
HETATM   24  C   UNL     1     -11.750  15.398  71.617  1.00  0.00    -0.483 C  
HETATM   25  C   UNL     1     -12.726  15.284  72.766  1.00  0.00    -0.397 C  
HETATM   26  O   UNL     1     -12.096  15.201  73.961  1.00  0.00    -0.566 OA 
HETATM   27  O   UNL     1     -13.938  15.261  72.665  1.00  0.00    -0.495 OA 
ENDBRANCH  23  24
ENDBRANCH  22  23
ENDBRANCH  21  22
ENDBRANCH  20  21
ENDBRANCH  19  20
ENDBRANCH  18  19
ENDBRANCH  17  18
ENDBRANCH  15  16
ENDBRANCH  14  15
ENDBRANCH  13  14
ENDBRANCH  12  13
ENDBRANCH  11  12
ENDBRANCH  10  11
ENDBRANCH   6  10
TORSDOF 15
ENDMDL
MODEL       74
REMARK 921   NORMALIZED FREE ENERGY PREDICTED BY IDOCK:   -4.57 KCAL/MOL
REMARK 922        TOTAL FREE ENERGY PREDICTED BY IDOCK:  -10.53 KCAL/MOL
REMARK 923 INTER-LIGAND FREE ENERGY PREDICTED BY IDOCK:   -8.40 KCAL/MOL
REMARK 924 INTRA-LIGAND FREE ENERGY PREDICTED BY IDOCK:   -2.13 KCAL/MOL
REMARK 927      BINDING AFFINITY PREDICTED BY RF-SCORE:    0.00 PKD
ROOT
ATOM      1  N   GLY A   1      -8.398  15.005  69.641  1.00  0.00    -0.430 NA 
HETATM    2  C   UNL     1      -9.630  11.106  64.012  1.00  0.00    -0.288 C  
ATOM      3  H2  GLY A   1      -9.199  15.587  69.397  1.00  0.00     0.000 HD 
ATOM      4  H1  GLY A   1      -8.617  14.352  70.393  1.00  0.00     0.000 HD 
ATOM      5  CA  GLY A   1      -7.871  14.280  68.477  1.00  0.00    -0.143 C  
HETATM    6  C   UNL     1     -10.029   9.937  64.899  1.00  0.00    -0.190 C  
ENDROOT
BRANCH   5   7
ATOM      7  C   GLY A   1      -7.543  15.261  67.347  1.00  0.00    -0.200 C  
ATOM      8  H   GLY A   1      -5.928  16.065  66.581  1.00  0.00     0.000 HD 
ATOM      9  O   GLY A   1      -6.132  15.456  67.281  1.00  0.00    -0.324 OA 
ENDBRANCH   5   7
BRANCH   6  10
HETATM   10  C   UNL     1      -8.841   9.168  65.473  1.00  0.00    -0.229 C  
BRANCH  10  11
HETATM   11  C   UNL     1      -8.836   9.054  67.000  1.00  0.00    -0.131 C  
BRANCH  11  12
HETATM   12  C   UNL     1      -9.247   7.638  67.413  1.00  0.00    -0.150 C  
BRANCH  12  13
HETATM   13  C   UNL     1     -10.749   7.521  67.666  1.00  0.00    -0.266 C  
BRANCH  13  14
HETATM   14  C   UNL     1     -11.084   6.662  68.894  1.00  0.00    -0.312 C  
BRANCH  14  15
HETATM   15  C   UNL     1     -10.605   7.222  70.239  1.00  0.00    -0.243 C  
BRANCH  15  16
HETATM   16  C   UNL     1     -11.672   7.929  71.029  1.00  0.00    -0.293 C  
HETATM   17  C   UNL     1     -11.875   9.256  71.017  1.00  0.00    -0.376 C  
BRANCH  17  18
HETATM   18  C   UNL     1     -11.055  10.255  70.255  1.00  0.00    -0.388 C  
BRANCH  18  19
HETATM   19  C   UNL     1     -11.914  11.088  69.306  1.00  0.00    -0.410 C  
BRANCH  19  20
HETATM   20  C   UNL     1     -11.641  12.577  69.518  1.00  0.00    -0.348 C  
BRANCH  20  21
HETATM   21  C   UNL     1     -11.535  13.317  68.189  1.00  0.00    -0.347 C  
BRANCH  21  22
HETATM   22  C   UNL     1     -11.648  12.354  67.010  1.00  0.00    -0.434 C  
BRANCH  22  23
HETATM   23  C   UNL     1     -12.338  13.027  65.826  1.00  0.00    -0.477 C  
BRANCH  23  24
HETATM   24  C   UNL     1     -11.856  14.462  65.633  1.00  0.00    -0.355 C  
HETATM   25  C   UNL     1     -12.122  14.954  64.229  1.00  0.00    -0.353 C  
HETATM   26  O   UNL     1     -11.715  16.233  64.054  1.00  0.00    -0.930 OA 
HETATM   27  O   UNL     1     -12.642  14.308  63.339  1.00  0.00    -0.777 OA 
ENDBRANCH  23  24
ENDBRANCH  22  23
ENDBRANCH  21  22
ENDBRANCH  20  21
ENDBRANCH  19  20
ENDBRANCH  18  19
ENDBRANCH  17  18
ENDBRANCH  15  16
ENDBRANCH  14  15
ENDBRANCH  13  14
ENDBRANCH  12  13
ENDBRANCH  11  12
ENDBRANCH  10  11
ENDBRANCH   6  10
TORSDOF 15
ENDMDL
MODEL       75
REMARK 921   NORMALIZED FREE ENERGY PREDICTED BY IDOCK:   -4.56 KCAL/MOL
REMARK 922        TOTAL FREE ENERGY PREDICTED BY IDOCK:  -10.51 KCAL/MOL
REMARK 923 INTER-LIGAND FREE ENERGY PREDICTED BY IDOCK:   -8.34 KCAL/MOL
REMARK 924 INTRA-LIGAND FREE ENERGY PREDICTED BY IDOCK:   -2.17 KCAL/MOL
REMARK 927      BINDING AFFINITY PREDICTED BY RF-SCORE:    0.00 PKD
ROOT
ATOM      1  N   GLY A   1     -12.453   7.110  70.399  1.00  0.00    -0.596 NA 
HETATM    2  C   UNL     1      -8.189  12.199  68.318  1.00  0.00    -0.168 C  
ATOM      3  H2  GLY A   1     -13.154   7.812  70.637  1.00  0.00     0.000 HD 
ATOM      4  H1  GLY A   1     -12.663   6.646  69.516  1.00  0.00     0.000 HD 
ATOM      5  CA  GLY A   1     -11.098   7.677  70.366  1.00  0.00    -0.258 C  
HETATM    6  C   UNL     1      -8.321  11.732  66.878  1.00  0.00    -0.170 C  
ENDROOT
BRANCH   5   7
ATOM      7  C   GLY A   1     -10.783   8.374  71.693  1.00  0.00    -0.265 C  
ATOM      8  H   GLY A   1     -11.794   9.290  73.099  1.00  0.00     0.000 HD 
ATOM      9  O   GLY A   1     -11.990   8.858  72.276  1.00  0.00    -0.355 OA 
ENDBRANCH   5   7
BRANCH   6  10
HETATM   10  C   UNL     1      -7.445  10.526  66.540  1.00  0.00    -0.128 C  
BRANCH  10  11
HETATM   11  C   UNL     1      -8.213   9.313  66.009  1.00  0.00    -0.111 C  
BRANCH  11  12
HETATM   12  C   UNL     1      -9.421   9.781  65.193  1.00  0.00    -0.338 C  
BRANCH  12  13
HETATM   13  C   UNL     1      -9.133   9.807  63.693  1.00  0.00    -0.269 C  
BRANCH  13  14
HETATM   14  C   UNL     1      -9.851  10.952  62.966  1.00  0.00    -0.358 C  
BRANCH  14  15
HETATM   15  C   UNL     1     -10.171  12.181  63.826  1.00  0.00    -0.449 C  
BRANCH  15  16
HETATM   16  C   UNL     1     -11.637  12.505  63.918  1.00  0.00    -0.516 C  
HETATM   17  C   UNL     1     -12.320  12.619  65.068  1.00  0.00    -0.561 C  
BRANCH  17  18
HETATM   18  C   UNL     1     -11.756  12.404  66.442  1.00  0.00    -0.453 C  
BRANCH  18  19
HETATM   19  C   UNL     1     -11.837  13.669  67.293  1.00  0.00    -0.429 C  
BRANCH  19  20
HETATM   20  C   UNL     1     -11.234  14.853  66.536  1.00  0.00    -0.335 C  
BRANCH  20  21
HETATM   21  C   UNL     1      -9.756  15.032  66.871  1.00  0.00    -0.247 C  
BRANCH  21  22
HETATM   22  C   UNL     1      -9.550  16.167  67.869  1.00  0.00    -0.223 C  
BRANCH  22  23
HETATM   23  C   UNL     1     -10.675  17.194  67.762  1.00  0.00    -0.329 C  
BRANCH  23  24
HETATM   24  C   UNL     1     -10.136  18.621  67.737  1.00  0.00    -0.408 C  
HETATM   25  C   UNL     1     -10.312  19.258  66.378  1.00  0.00    -0.471 C  
HETATM   26  O   UNL     1      -9.854  20.532  66.351  1.00  0.00    -0.337 OA 
HETATM   27  O   UNL     1     -10.807  18.724  65.403  1.00  0.00    -0.563 OA 
ENDBRANCH  23  24
ENDBRANCH  22  23
ENDBRANCH  21  22
ENDBRANCH  20  21
ENDBRANCH  19  20
ENDBRANCH  18  19
ENDBRANCH  17  18
ENDBRANCH  15  16
ENDBRANCH  14  15
ENDBRANCH  13  14
ENDBRANCH  12  13
ENDBRANCH  11  12
ENDBRANCH  10  11
ENDBRANCH   6  10
TORSDOF 15
ENDMDL
MODEL       76
REMARK 921   NORMALIZED FREE ENERGY PREDICTED BY IDOCK:   -4.56 KCAL/MOL
REMARK 922        TOTAL FREE ENERGY PREDICTED BY IDOCK:  -10.51 KCAL/MOL
REMARK 923 INTER-LIGAND FREE ENERGY PREDICTED BY IDOCK:   -8.31 KCAL/MOL
REMARK 924 INTRA-LIGAND FREE ENERGY PREDICTED BY IDOCK:   -2.20 KCAL/MOL
REMARK 927      BINDING AFFINITY PREDICTED BY RF-SCORE:    0.00 PKD
ROOT
ATOM      1  N   GLY A   1     -10.021  12.624  63.523  1.00  0.00    -0.683 NA 
HETATM    2  C   UNL     1     -12.643  14.176  69.778  1.00  0.00    -0.151 C  
ATOM      3  H2  GLY A   1      -9.563  13.535  63.503  1.00  0.00     0.000 HD 
ATOM      4  H1  GLY A   1      -9.369  11.876  63.755  1.00  0.00     0.000 HD 
ATOM      5  CA  GLY A   1     -11.165  12.605  64.443  1.00  0.00    -0.346 C  
HETATM    6  C   UNL     1     -11.764  13.113  70.418  1.00  0.00    -0.141 C  
ENDROOT
BRANCH   5   7
ATOM      7  C   GLY A   1     -12.144  13.730  64.094  1.00  0.00    -0.433 C  
ATOM      8  H   GLY A   1     -13.684  14.595  64.943  1.00  0.00     0.000 HD 
ATOM      9  O   GLY A   1     -13.077  13.898  65.159  1.00  0.00    -0.773 OA 
ENDBRANCH   5   7
BRANCH   6  10
HETATM   10  C   UNL     1     -12.309  11.693  70.271  1.00  0.00    -0.339 C  
BRANCH  10  11
HETATM   11  C   UNL     1     -12.917  11.111  71.549  1.00  0.00    -0.542 C  
BRANCH  11  12
HETATM   12  C   UNL     1     -12.482   9.652  71.710  1.00  0.00    -0.487 C  
BRANCH  12  13
HETATM   13  C   UNL     1     -11.089   9.395  71.139  1.00  0.00    -0.432 C  
BRANCH  13  14
HETATM   14  C   UNL     1     -11.046   8.192  70.187  1.00  0.00    -0.187 C  
BRANCH  14  15
HETATM   15  C   UNL     1      -9.924   8.220  69.141  1.00  0.00    -0.196 C  
BRANCH  15  16
HETATM   16  C   UNL     1     -10.407   8.349  67.721  1.00  0.00    -0.297 C  
HETATM   17  C   UNL     1     -10.583   9.515  67.081  1.00  0.00    -0.295 C  
BRANCH  17  18
HETATM   18  C   UNL     1     -10.373  10.877  67.676  1.00  0.00    -0.232 C  
BRANCH  18  19
HETATM   19  C   UNL     1      -9.016  11.461  67.290  1.00  0.00    -0.159 C  
BRANCH  19  20
HETATM   20  C   UNL     1      -8.770  12.766  68.046  1.00  0.00    -0.194 C  
BRANCH  20  21
HETATM   21  C   UNL     1      -9.615  13.904  67.480  1.00  0.00    -0.229 C  
BRANCH  21  22
HETATM   22  C   UNL     1      -8.758  14.886  66.686  1.00  0.00    -0.262 C  
BRANCH  22  23
HETATM   23  C   UNL     1      -9.633  15.815  65.849  1.00  0.00    -0.382 C  
BRANCH  23  24
HETATM   24  C   UNL     1     -10.534  16.681  66.724  1.00  0.00    -0.261 C  
HETATM   25  C   UNL     1     -10.167  18.144  66.623  1.00  0.00    -0.381 C  
HETATM   26  O   UNL     1     -10.973  18.923  67.382  1.00  0.00    -0.437 OA 
HETATM   27  O   UNL     1      -9.266  18.603  65.948  1.00  0.00    -0.472 OA 
ENDBRANCH  23  24
ENDBRANCH  22  23
ENDBRANCH  21  22
ENDBRANCH  20  21
ENDBRANCH  19  20
ENDBRANCH  18  19
ENDBRANCH  17  18
ENDBRANCH  15  16
ENDBRANCH  14  15
ENDBRANCH  13  14
ENDBRANCH  12  13
ENDBRANCH  11  12
ENDBRANCH  10  11
ENDBRANCH   6  10
TORSDOF 15
ENDMDL
MODEL       77
REMARK 921   NORMALIZED FREE ENERGY PREDICTED BY IDOCK:   -4.56 KCAL/MOL
REMARK 922        TOTAL FREE ENERGY PREDICTED BY IDOCK:  -10.51 KCAL/MOL
REMARK 923 INTER-LIGAND FREE ENERGY PREDICTED BY IDOCK:   -8.93 KCAL/MOL
REMARK 924 INTRA-LIGAND FREE ENERGY PREDICTED BY IDOCK:   -1.57 KCAL/MOL
REMARK 927      BINDING AFFINITY PREDICTED BY RF-SCORE:    0.00 PKD
ROOT
ATOM      1  N   GLY A   1     -10.765  11.165  63.109  1.00  0.00    -0.804 NA 
HETATM    2  C   UNL     1     -11.625  15.539  68.452  1.00  0.00    -0.368 C  
ATOM      3  H2  GLY A   1     -10.014  11.760  62.760  1.00  0.00     0.000 HD 
ATOM      4  H1  GLY A   1     -10.406  10.335  63.581  1.00  0.00     0.000 HD 
ATOM      5  CA  GLY A   1     -11.678  11.898  63.997  1.00  0.00    -0.378 C  
HETATM    6  C   UNL     1     -11.108  14.479  69.412  1.00  0.00    -0.297 C  
ENDROOT
BRANCH   5   7
ATOM      7  C   GLY A   1     -12.218  13.144  63.288  1.00  0.00    -0.360 C  
ATOM      8  H   GLY A   1     -12.671  14.984  63.786  1.00  0.00     0.000 HD 
ATOM      9  O   GLY A   1     -12.336  14.211  64.225  1.00  0.00    -0.601 OA 
ENDBRANCH   5   7
BRANCH   6  10
HETATM   10  C   UNL     1     -12.152  13.428  69.787  1.00  0.00    -0.374 C  
BRANCH  10  11
HETATM   11  C   UNL     1     -12.677  13.538  71.221  1.00  0.00    -0.432 C  
BRANCH  11  12
HETATM   12  C   UNL     1     -13.042  12.147  71.746  1.00  0.00    -0.457 C  
BRANCH  12  13
HETATM   13  C   UNL     1     -12.780  11.050  70.715  1.00  0.00    -0.414 C  
BRANCH  13  14
HETATM   14  C   UNL     1     -11.868   9.936  71.246  1.00  0.00    -0.479 C  
BRANCH  14  15
HETATM   15  C   UNL     1     -12.466   9.073  72.364  1.00  0.00    -0.375 C  
BRANCH  15  16
HETATM   16  C   UNL     1     -13.197   7.851  71.878  1.00  0.00    -0.314 C  
HETATM   17  C   UNL     1     -12.640   6.637  71.737  1.00  0.00    -0.323 C  
BRANCH  17  18
HETATM   18  C   UNL     1     -11.200   6.304  71.997  1.00  0.00    -0.327 C  
BRANCH  18  19
HETATM   19  C   UNL     1     -10.493   5.817  70.734  1.00  0.00    -0.324 C  
BRANCH  19  20
HETATM   20  C   UNL     1     -11.289   6.226  69.494  1.00  0.00    -0.475 C  
BRANCH  20  21
HETATM   21  C   UNL     1     -10.694   5.620  68.227  1.00  0.00    -0.227 C  
BRANCH  21  22
HETATM   22  C   UNL     1     -10.959   6.508  67.014  1.00  0.00    -0.466 C  
BRANCH  22  23
HETATM   23  C   UNL     1      -9.696   7.265  66.611  1.00  0.00    -0.249 C  
BRANCH  23  24
HETATM   24  C   UNL     1      -9.762   8.732  67.024  1.00  0.00    -0.258 C  
HETATM   25  C   UNL     1      -9.464   9.652  65.862  1.00  0.00    -0.236 C  
HETATM   26  O   UNL     1      -9.539  10.956  66.215  1.00  0.00    -0.188 OA 
HETATM   27  O   UNL     1      -9.191   9.298  64.731  1.00  0.00    -0.209 OA 
ENDBRANCH  23  24
ENDBRANCH  22  23
ENDBRANCH  21  22
ENDBRANCH  20  21
ENDBRANCH  19  20
ENDBRANCH  18  19
ENDBRANCH  17  18
ENDBRANCH  15  16
ENDBRANCH  14  15
ENDBRANCH  13  14
ENDBRANCH  12  13
ENDBRANCH  11  12
ENDBRANCH  10  11
ENDBRANCH   6  10
TORSDOF 15
ENDMDL
MODEL       78
REMARK 921   NORMALIZED FREE ENERGY PREDICTED BY IDOCK:   -4.56 KCAL/MOL
REMARK 922        TOTAL FREE ENERGY PREDICTED BY IDOCK:  -10.50 KCAL/MOL
REMARK 923 INTER-LIGAND FREE ENERGY PREDICTED BY IDOCK:   -8.13 KCAL/MOL
REMARK 924 INTRA-LIGAND FREE ENERGY PREDICTED BY IDOCK:   -2.37 KCAL/MOL
REMARK 927      BINDING AFFINITY PREDICTED BY RF-SCORE:    0.00 PKD
ROOT
ATOM      1  N   GLY A   1     -14.212   8.793  72.967  1.00  0.00    -1.132 NA 
HETATM    2  C   UNL     1     -10.707   8.436  66.968  1.00  0.00    -0.204 C  
ATOM      3  H2  GLY A   1     -15.083   8.856  72.440  1.00  0.00     0.000 HD 
ATOM      4  H1  GLY A   1     -14.063   7.859  73.346  1.00  0.00     0.000 HD 
ATOM      5  CA  GLY A   1     -13.053   9.206  72.164  1.00  0.00    -0.446 C  
HETATM    6  C   UNL     1     -10.328   6.994  67.266  1.00  0.00    -0.331 C  
ENDROOT
BRANCH   5   7
ATOM      7  C   GLY A   1     -13.277  10.610  71.595  1.00  0.00    -0.392 C  
ATOM      8  H   GLY A   1     -12.275  11.875  70.483  1.00  0.00     0.000 HD 
ATOM      9  O   GLY A   1     -12.137  11.004  70.836  1.00  0.00    -0.342 OA 
ENDBRANCH   5   7
BRANCH   6  10
HETATM   10  C   UNL     1      -9.159   6.854  68.240  1.00  0.00    -0.125 C  
BRANCH  10  11
HETATM   11  C   UNL     1      -8.237   8.074  68.304  1.00  0.00    -0.123 C  
BRANCH  11  12
HETATM   12  C   UNL     1      -8.379   8.759  69.666  1.00  0.00    -0.126 C  
BRANCH  12  13
HETATM   13  C   UNL     1      -8.571  10.270  69.538  1.00  0.00    -0.153 C  
BRANCH  13  14
HETATM   14  C   UNL     1      -8.198  10.805  68.149  1.00  0.00    -0.119 C  
BRANCH  14  15
HETATM   15  C   UNL     1      -8.863  12.129  67.752  1.00  0.00    -0.172 C  
BRANCH  15  16
HETATM   16  C   UNL     1     -10.291  12.263  68.205  1.00  0.00    -0.227 C  
HETATM   17  C   UNL     1     -11.357  12.187  67.394  1.00  0.00    -0.393 C  
BRANCH  17  18
HETATM   18  C   UNL     1     -11.308  12.000  65.905  1.00  0.00    -0.391 C  
BRANCH  18  19
HETATM   19  C   UNL     1     -12.347  12.862  65.191  1.00  0.00    -0.547 C  
BRANCH  19  20
HETATM   20  C   UNL     1     -11.956  14.337  65.277  1.00  0.00    -0.389 C  
BRANCH  20  21
HETATM   21  C   UNL     1     -10.547  14.571  64.742  1.00  0.00    -0.401 C  
BRANCH  21  22
HETATM   22  C   UNL     1      -9.670  15.263  65.782  1.00  0.00    -0.385 C  
BRANCH  22  23
HETATM   23  C   UNL     1     -10.525  15.906  66.871  1.00  0.00    -0.309 C  
BRANCH  23  24
HETATM   24  C   UNL     1     -10.185  17.381  67.058  1.00  0.00    -0.323 C  
HETATM   25  C   UNL     1     -10.275  17.794  68.509  1.00  0.00    -0.382 C  
HETATM   26  O   UNL     1      -9.956  19.097  68.687  1.00  0.00    -0.380 OA 
HETATM   27  O   UNL     1     -10.588  17.067  69.434  1.00  0.00    -0.335 OA 
ENDBRANCH  23  24
ENDBRANCH  22  23
ENDBRANCH  21  22
ENDBRANCH  20  21
ENDBRANCH  19  20
ENDBRANCH  18  19
ENDBRANCH  17  18
ENDBRANCH  15  16
ENDBRANCH  14  15
ENDBRANCH  13  14
ENDBRANCH  12  13
ENDBRANCH  11  12
ENDBRANCH  10  11
ENDBRANCH   6  10
TORSDOF 15
ENDMDL
MODEL       79
REMARK 921   NORMALIZED FREE ENERGY PREDICTED BY IDOCK:   -4.55 KCAL/MOL
REMARK 922        TOTAL FREE ENERGY PREDICTED BY IDOCK:  -10.49 KCAL/MOL
REMARK 923 INTER-LIGAND FREE ENERGY PREDICTED BY IDOCK:   -8.20 KCAL/MOL
REMARK 924 INTRA-LIGAND FREE ENERGY PREDICTED BY IDOCK:   -2.29 KCAL/MOL
REMARK 927      BINDING AFFINITY PREDICTED BY RF-SCORE:    0.00 PKD
ROOT
ATOM      1  N   GLY A   1     -13.946  13.045  72.487  1.00  0.00    -0.684 NA 
HETATM    2  C   UNL     1     -12.612  13.969  65.721  1.00  0.00    -0.512 C  
ATOM      3  H2  GLY A   1     -14.944  13.111  72.286  1.00  0.00     0.000 HD 
ATOM      4  H1  GLY A   1     -13.649  12.079  72.623  1.00  0.00     0.000 HD 
ATOM      5  CA  GLY A   1     -13.133  13.685  71.444  1.00  0.00    -0.319 C  
HETATM    6  C   UNL     1     -12.107  12.539  65.617  1.00  0.00    -0.464 C  
ENDROOT
BRANCH   5   7
ATOM      7  C   GLY A   1     -13.580  15.135  71.239  1.00  0.00    -0.484 C  
ATOM      8  H   GLY A   1     -13.627  16.778  72.307  1.00  0.00     0.000 HD 
ATOM      9  O   GLY A   1     -13.350  15.878  72.433  1.00  0.00    -0.461 OA 
ENDBRANCH   5   7
BRANCH   6  10
HETATM   10  C   UNL     1     -10.678  12.353  66.124  1.00  0.00    -0.292 C  
BRANCH  10  11
HETATM   11  C   UNL     1     -10.181  10.906  66.105  1.00  0.00    -0.304 C  
BRANCH  11  12
HETATM   12  C   UNL     1     -10.449  10.249  67.462  1.00  0.00    -0.293 C  
BRANCH  12  13
HETATM   13  C   UNL     1     -10.240  11.216  68.626  1.00  0.00    -0.216 C  
BRANCH  13  14
HETATM   14  C   UNL     1     -11.400  11.202  69.632  1.00  0.00    -0.366 C  
BRANCH  14  15
HETATM   15  C   UNL     1     -11.293  10.154  70.746  1.00  0.00    -0.436 C  
BRANCH  15  16
HETATM   16  C   UNL     1     -12.617   9.637  71.237  1.00  0.00    -0.443 C  
HETATM   17  C   UNL     1     -12.767   8.577  72.047  1.00  0.00    -0.421 C  
BRANCH  17  18
HETATM   18  C   UNL     1     -11.656   7.710  72.562  1.00  0.00    -0.382 C  
BRANCH  18  19
HETATM   19  C   UNL     1     -11.643   6.341  71.885  1.00  0.00    -0.369 C  
BRANCH  19  20
HETATM   20  C   UNL     1     -11.526   6.505  70.370  1.00  0.00    -0.465 C  
BRANCH  20  21
HETATM   21  C   UNL     1     -10.121   6.168  69.881  1.00  0.00    -0.227 C  
BRANCH  21  22
HETATM   22  C   UNL     1      -9.418   7.404  69.327  1.00  0.00    -0.154 C  
BRANCH  22  23
HETATM   23  C   UNL     1      -8.095   7.644  70.051  1.00  0.00    -0.120 C  
BRANCH  23  24
HETATM   24  C   UNL     1      -8.276   8.534  71.276  1.00  0.00    -0.176 C  
HETATM   25  C   UNL     1      -7.912   7.808  72.550  1.00  0.00    -0.113 C  
HETATM   26  O   UNL     1      -8.051   8.596  73.642  1.00  0.00    -0.406 OA 
HETATM   27  O   UNL     1      -7.531   6.655  72.625  1.00  0.00    -0.091 OA 
ENDBRANCH  23  24
ENDBRANCH  22  23
ENDBRANCH  21  22
ENDBRANCH  20  21
ENDBRANCH  19  20
ENDBRANCH  18  19
ENDBRANCH  17  18
ENDBRANCH  15  16
ENDBRANCH  14  15
ENDBRANCH  13  14
ENDBRANCH  12  13
ENDBRANCH  11  12
ENDBRANCH  10  11
ENDBRANCH   6  10
TORSDOF 15
ENDMDL
MODEL       80
REMARK 921   NORMALIZED FREE ENERGY PREDICTED BY IDOCK:   -4.55 KCAL/MOL
REMARK 922        TOTAL FREE ENERGY PREDICTED BY IDOCK:  -10.48 KCAL/MOL
REMARK 923 INTER-LIGAND FREE ENERGY PREDICTED BY IDOCK:   -7.67 KCAL/MOL
REMARK 924 INTRA-LIGAND FREE ENERGY PREDICTED BY IDOCK:   -2.81 KCAL/MOL
REMARK 927      BINDING AFFINITY PREDICTED BY RF-SCORE:    0.00 PKD
ROOT
ATOM      1  N   GLY A   1     -14.085  15.549  71.278  1.00  0.00    -0.729 NA 
HETATM    2  C   UNL     1     -10.853  15.171  65.128  1.00  0.00    -0.437 C  
ATOM      3  H2  GLY A   1     -14.142  16.562  71.171  1.00  0.00     0.000 HD 
ATOM      4  H1  GLY A   1     -14.973  15.094  71.070  1.00  0.00     0.000 HD 
ATOM      5  CA  GLY A   1     -13.013  14.970  70.457  1.00  0.00    -0.299 C  
HETATM    6  C   UNL     1     -12.061  14.470  64.528  1.00  0.00    -0.501 C  
ENDROOT
BRANCH   5   7
ATOM      7  C   GLY A   1     -11.679  15.653  70.770  1.00  0.00    -0.375 C  
ATOM      8  H   GLY A   1     -10.400  16.791  69.815  1.00  0.00     0.000 HD 
ATOM      9  O   GLY A   1     -11.228  16.367  69.622  1.00  0.00    -0.323 OA 
ENDBRANCH   5   7
BRANCH   6  10
HETATM   10  C   UNL     1     -12.134  12.979  64.857  1.00  0.00    -0.459 C  
BRANCH  10  11
HETATM   11  C   UNL     1     -11.739  12.055  63.703  1.00  0.00    -0.587 C  
BRANCH  11  12
HETATM   12  C   UNL     1     -10.225  11.828  63.716  1.00  0.00    -0.434 C  
BRANCH  12  13
HETATM   13  C   UNL     1      -9.860  10.355  63.893  1.00  0.00    -0.332 C  
BRANCH  13  14
HETATM   14  C   UNL     1      -9.381  10.025  65.314  1.00  0.00    -0.294 C  
BRANCH  14  15
HETATM   15  C   UNL     1      -8.059  10.682  65.732  1.00  0.00    -0.158 C  
BRANCH  15  16
HETATM   16  C   UNL     1      -7.875  10.804  67.220  1.00  0.00    -0.113 C  
HETATM   17  C   UNL     1      -8.530  11.680  67.999  1.00  0.00    -0.151 C  
BRANCH  17  18
HETATM   18  C   UNL     1      -9.517  12.704  67.519  1.00  0.00    -0.186 C  
BRANCH  18  19
HETATM   19  C   UNL     1     -10.755  12.760  68.411  1.00  0.00    -0.269 C  
BRANCH  19  20
HETATM   20  C   UNL     1     -11.623  11.522  68.185  1.00  0.00    -0.378 C  
BRANCH  20  21
HETATM   21  C   UNL     1     -12.069  10.908  69.509  1.00  0.00    -0.380 C  
BRANCH  21  22
HETATM   22  C   UNL     1     -10.910  10.204  70.209  1.00  0.00    -0.370 C  
BRANCH  22  23
HETATM   23  C   UNL     1     -10.894   8.716  69.868  1.00  0.00    -0.210 C  
BRANCH  23  24
HETATM   24  C   UNL     1      -9.569   8.295  69.241  1.00  0.00    -0.164 C  
HETATM   25  C   UNL     1      -9.782   7.504  67.970  1.00  0.00    -0.146 C  
HETATM   26  O   UNL     1      -8.611   7.142  67.396  1.00  0.00    -0.121 OA 
HETATM   27  O   UNL     1     -10.861   7.215  67.488  1.00  0.00    -0.257 OA 
ENDBRANCH  23  24
ENDBRANCH  22  23
ENDBRANCH  21  22
ENDBRANCH  20  21
ENDBRANCH  19  20
ENDBRANCH  18  19
ENDBRANCH  17  18
ENDBRANCH  15  16
ENDBRANCH  14  15
ENDBRANCH  13  14
ENDBRANCH  12  13
ENDBRANCH  11  12
ENDBRANCH  10  11
ENDBRANCH   6  10
TORSDOF 15
ENDMDL
MODEL       81
REMARK 921   NORMALIZED FREE ENERGY PREDICTED BY IDOCK:   -4.54 KCAL/MOL
REMARK 922        TOTAL FREE ENERGY PREDICTED BY IDOCK:  -10.48 KCAL/MOL
REMARK 923 INTER-LIGAND FREE ENERGY PREDICTED BY IDOCK:   -8.84 KCAL/MOL
REMARK 924 INTRA-LIGAND FREE ENERGY PREDICTED BY IDOCK:   -1.63 KCAL/MOL
REMARK 927      BINDING AFFINITY PREDICTED BY RF-SCORE:    0.00 PKD
ROOT
ATOM      1  N   GLY A   1     -14.372  15.388  71.641  1.00  0.00    -0.520 NA 
HETATM    2  C   UNL     1      -9.716  17.717  67.025  1.00  0.00    -0.290 C  
ATOM      3  H2  GLY A   1     -14.604  16.353  71.875  1.00  0.00     0.000 HD 
ATOM      4  H1  GLY A   1     -15.071  14.966  71.031  1.00  0.00     0.000 HD 
ATOM      5  CA  GLY A   1     -13.037  15.275  71.039  1.00  0.00    -0.482 C  
HETATM    6  C   UNL     1     -10.572  17.190  65.885  1.00  0.00    -0.219 C  
ENDROOT
BRANCH   5   7
ATOM      7  C   GLY A   1     -11.987  15.908  71.957  1.00  0.00    -0.513 C  
ATOM      8  H   GLY A   1     -11.617  15.958  73.880  1.00  0.00     0.000 HD 
ATOM      9  O   GLY A   1     -12.268  15.565  73.311  1.00  0.00    -0.408 OA 
ENDBRANCH   5   7
BRANCH   6  10
HETATM   10  C   UNL     1     -10.421  15.688  65.646  1.00  0.00    -0.402 C  
BRANCH  10  11
HETATM   11  C   UNL     1     -11.231  14.810  66.603  1.00  0.00    -0.346 C  
BRANCH  11  12
HETATM   12  C   UNL     1     -12.345  14.096  65.832  1.00  0.00    -0.486 C  
BRANCH  12  13
HETATM   13  C   UNL     1     -12.263  14.350  64.327  1.00  0.00    -0.450 C  
BRANCH  13  14
HETATM   14  C   UNL     1     -12.141  13.058  63.508  1.00  0.00    -0.617 C  
BRANCH  14  15
HETATM   15  C   UNL     1     -12.025  11.767  64.327  1.00  0.00    -0.277 C  
BRANCH  15  16
HETATM   16  C   UNL     1     -10.664  11.128  64.285  1.00  0.00    -0.403 C  
HETATM   17  C   UNL     1      -9.931  10.826  65.368  1.00  0.00    -0.330 C  
BRANCH  17  18
HETATM   18  C   UNL     1     -10.320  11.107  66.790  1.00  0.00    -0.284 C  
BRANCH  18  19
HETATM   19  C   UNL     1     -11.010   9.908  67.437  1.00  0.00    -0.214 C  
BRANCH  19  20
HETATM   20  C   UNL     1     -10.351   8.609  66.975  1.00  0.00    -0.368 C  
BRANCH  20  21
HETATM   21  C   UNL     1      -9.992   7.716  68.159  1.00  0.00    -0.203 C  
BRANCH  21  22
HETATM   22  C   UNL     1     -10.933   6.518  68.252  1.00  0.00    -0.362 C  
BRANCH  22  23
HETATM   23  C   UNL     1     -11.129   6.096  69.706  1.00  0.00    -0.486 C  
BRANCH  23  24
HETATM   24  C   UNL     1     -11.526   7.276  70.587  1.00  0.00    -0.322 C  
HETATM   25  C   UNL     1     -11.196   7.021  72.040  1.00  0.00    -0.253 C  
HETATM   26  O   UNL     1     -11.528   8.071  72.828  1.00  0.00    -0.402 OA 
HETATM   27  O   UNL     1     -10.690   6.009  72.485  1.00  0.00    -0.206 OA 
ENDBRANCH  23  24
ENDBRANCH  22  23
ENDBRANCH  21  22
ENDBRANCH  20  21
ENDBRANCH  19  20
ENDBRANCH  18  19
ENDBRANCH  17  18
ENDBRANCH  15  16
ENDBRANCH  14  15
ENDBRANCH  13  14
ENDBRANCH  12  13
ENDBRANCH  11  12
ENDBRANCH  10  11
ENDBRANCH   6  10
TORSDOF 15
ENDMDL
MODEL       82
REMARK 921   NORMALIZED FREE ENERGY PREDICTED BY IDOCK:   -4.53 KCAL/MOL
REMARK 922        TOTAL FREE ENERGY PREDICTED BY IDOCK:  -10.44 KCAL/MOL
REMARK 923 INTER-LIGAND FREE ENERGY PREDICTED BY IDOCK:   -7.80 KCAL/MOL
REMARK 924 INTRA-LIGAND FREE ENERGY PREDICTED BY IDOCK:   -2.64 KCAL/MOL
REMARK 927      BINDING AFFINITY PREDICTED BY RF-SCORE:    0.00 PKD
ROOT
ATOM      1  N   GLY A   1     -11.964  10.622  68.562  1.00  0.00    -0.794 NA 
HETATM    2  C   UNL     1      -6.615  14.849  69.952  1.00  0.00    -0.175 C  
ATOM      3  H2  GLY A   1     -12.301  10.757  69.514  1.00  0.00     0.000 HD 
ATOM      4  H1  GLY A   1     -12.492  11.176  67.889  1.00  0.00     0.000 HD 
ATOM      5  CA  GLY A   1     -10.528  10.911  68.442  1.00  0.00    -0.183 C  
HETATM    6  C   UNL     1      -7.180  15.890  68.998  1.00  0.00    -0.177 C  
ENDROOT
BRANCH   5   7
ATOM      7  C   GLY A   1      -9.735  10.078  69.453  1.00  0.00    -0.225 C  
ATOM      8  H   GLY A   1      -7.855   9.618  69.759  1.00  0.00     0.000 HD 
ATOM      9  O   GLY A   1      -8.347  10.135  69.132  1.00  0.00    -0.130 OA 
ENDBRANCH   5   7
BRANCH   6  10
HETATM   10  C   UNL     1      -6.886  15.600  67.527  1.00  0.00    -0.221 C  
BRANCH  10  11
HETATM   11  C   UNL     1      -6.445  16.821  66.715  1.00  0.00    -0.226 C  
BRANCH  11  12
HETATM   12  C   UNL     1      -5.383  17.603  67.493  1.00  0.00    -0.141 C  
BRANCH  12  13
HETATM   13  C   UNL     1      -5.642  19.109  67.475  1.00  0.00    -0.177 C  
BRANCH  13  14
HETATM   14  C   UNL     1      -6.345  19.610  68.744  1.00  0.00    -0.307 C  
BRANCH  14  15
HETATM   15  C   UNL     1      -7.877  19.636  68.682  1.00  0.00    -0.349 C  
BRANCH  15  16
HETATM   16  C   UNL     1      -8.434  20.324  67.466  1.00  0.00    -0.376 C  
HETATM   17  C   UNL     1      -9.209  19.732  66.545  1.00  0.00    -0.466 C  
BRANCH  17  18
HETATM   18  C   UNL     1      -9.615  18.287  66.546  1.00  0.00    -0.320 C  
BRANCH  18  19
HETATM   19  C   UNL     1     -10.785  18.027  67.492  1.00  0.00    -0.352 C  
BRANCH  19  20
HETATM   20  C   UNL     1     -10.482  16.827  68.388  1.00  0.00    -0.339 C  
BRANCH  20  21
HETATM   21  C   UNL     1     -11.410  15.655  68.081  1.00  0.00    -0.340 C  
BRANCH  21  22
HETATM   22  C   UNL     1     -10.649  14.507  67.423  1.00  0.00    -0.271 C  
BRANCH  22  23
HETATM   23  C   UNL     1     -10.156  14.909  66.035  1.00  0.00    -0.331 C  
BRANCH  23  24
HETATM   24  C   UNL     1     -11.302  14.997  65.033  1.00  0.00    -0.395 C  
HETATM   25  C   UNL     1     -11.544  13.671  64.346  1.00  0.00    -0.393 C  
HETATM   26  O   UNL     1     -12.571  13.734  63.468  1.00  0.00    -0.814 OA 
HETATM   27  O   UNL     1     -10.913  12.649  64.539  1.00  0.00    -0.299 OA 
ENDBRANCH  23  24
ENDBRANCH  22  23
ENDBRANCH  21  22
ENDBRANCH  20  21
ENDBRANCH  19  20
ENDBRANCH  18  19
ENDBRANCH  17  18
ENDBRANCH  15  16
ENDBRANCH  14  15
ENDBRANCH  13  14
ENDBRANCH  12  13
ENDBRANCH  11  12
ENDBRANCH  10  11
ENDBRANCH   6  10
TORSDOF 15
ENDMDL
MODEL       83
REMARK 921   NORMALIZED FREE ENERGY PREDICTED BY IDOCK:   -4.52 KCAL/MOL
REMARK 922        TOTAL FREE ENERGY PREDICTED BY IDOCK:  -10.43 KCAL/MOL
REMARK 923 INTER-LIGAND FREE ENERGY PREDICTED BY IDOCK:   -9.01 KCAL/MOL
REMARK 924 INTRA-LIGAND FREE ENERGY PREDICTED BY IDOCK:   -1.41 KCAL/MOL
REMARK 927      BINDING AFFINITY PREDICTED BY RF-SCORE:    0.00 PKD
ROOT
ATOM      1  N   GLY A   1      -9.871  19.798  68.713  1.00  0.00    -0.395 NA 
HETATM    2  C   UNL     1     -12.146  14.610  64.673  1.00  0.00    -0.466 C  
ATOM      3  H2  GLY A   1     -10.603  20.397  68.333  1.00  0.00     0.000 HD 
ATOM      4  H1  GLY A   1     -10.107  19.451  69.643  1.00  0.00     0.000 HD 
ATOM      5  CA  GLY A   1      -9.560  18.677  67.817  1.00  0.00    -0.304 C  
HETATM    6  C   UNL     1     -12.619  13.850  65.903  1.00  0.00    -0.498 C  
ENDROOT
BRANCH   5   7
ATOM      7  C   GLY A   1      -9.206  19.197  66.421  1.00  0.00    -0.343 C  
ATOM      8  H   GLY A   1      -9.617  20.781  65.342  1.00  0.00     0.000 HD 
ATOM      9  O   GLY A   1      -9.837  20.458  66.208  1.00  0.00    -0.382 OA 
ENDBRANCH   5   7
BRANCH   6  10
HETATM   10  C   UNL     1     -11.499  13.113  66.637  1.00  0.00    -0.389 C  
BRANCH  10  11
HETATM   11  C   UNL     1     -11.354  11.638  66.258  1.00  0.00    -0.293 C  
BRANCH  11  12
HETATM   12  C   UNL     1     -10.125  11.452  65.365  1.00  0.00    -0.308 C  
BRANCH  12  13
HETATM   13  C   UNL     1      -9.878   9.985  65.015  1.00  0.00    -0.374 C  
BRANCH  13  14
HETATM   14  C   UNL     1      -9.383   9.160  66.211  1.00  0.00    -0.274 C  
BRANCH  14  15
HETATM   15  C   UNL     1     -10.442   8.282  66.890  1.00  0.00    -0.365 C  
BRANCH  15  16
HETATM   16  C   UNL     1      -9.998   7.676  68.193  1.00  0.00    -0.203 C  
HETATM   17  C   UNL     1      -9.900   8.348  69.350  1.00  0.00    -0.185 C  
BRANCH  17  18
HETATM   18  C   UNL     1     -10.171   9.813  69.533  1.00  0.00    -0.238 C  
BRANCH  18  19
HETATM   19  C   UNL     1     -11.459  10.058  70.315  1.00  0.00    -0.372 C  
BRANCH  19  20
HETATM   20  C   UNL     1     -12.191  11.278  69.756  1.00  0.00    -0.343 C  
BRANCH  20  21
HETATM   21  C   UNL     1     -12.265  12.402  70.786  1.00  0.00    -0.336 C  
BRANCH  21  22
HETATM   22  C   UNL     1     -13.282  12.082  71.878  1.00  0.00    -0.469 C  
BRANCH  22  23
HETATM   23  C   UNL     1     -13.698  13.351  72.618  1.00  0.00    -0.512 C  
BRANCH  23  24
HETATM   24  C   UNL     1     -13.070  14.596  71.999  1.00  0.00    -0.418 C  
HETATM   25  C   UNL     1     -12.485  15.507  73.055  1.00  0.00    -0.442 C  
HETATM   26  O   UNL     1     -11.909  16.606  72.515  1.00  0.00    -0.506 OA 
HETATM   27  O   UNL     1     -12.507  15.307  74.255  1.00  0.00    -0.595 OA 
ENDBRANCH  23  24
ENDBRANCH  22  23
ENDBRANCH  21  22
ENDBRANCH  20  21
ENDBRANCH  19  20
ENDBRANCH  18  19
ENDBRANCH  17  18
ENDBRANCH  15  16
ENDBRANCH  14  15
ENDBRANCH  13  14
ENDBRANCH  12  13
ENDBRANCH  11  12
ENDBRANCH  10  11
ENDBRANCH   6  10
TORSDOF 15
ENDMDL
MODEL       84
REMARK 921   NORMALIZED FREE ENERGY PREDICTED BY IDOCK:   -4.51 KCAL/MOL
REMARK 922        TOTAL FREE ENERGY PREDICTED BY IDOCK:  -10.41 KCAL/MOL
REMARK 923 INTER-LIGAND FREE ENERGY PREDICTED BY IDOCK:   -8.12 KCAL/MOL
REMARK 924 INTRA-LIGAND FREE ENERGY PREDICTED BY IDOCK:   -2.29 KCAL/MOL
REMARK 927      BINDING AFFINITY PREDICTED BY RF-SCORE:    0.00 PKD
ROOT
ATOM      1  N   GLY A   1     -14.387  15.505  71.282  1.00  0.00    -0.750 NA 
HETATM    2  C   UNL     1     -11.035  15.316  65.188  1.00  0.00    -0.428 C  
ATOM      3  H2  GLY A   1     -14.498  16.513  71.175  1.00  0.00     0.000 HD 
ATOM      4  H1  GLY A   1     -15.245  15.002  71.058  1.00  0.00     0.000 HD 
ATOM      5  CA  GLY A   1     -13.271  14.988  70.479  1.00  0.00    -0.215 C  
HETATM    6  C   UNL     1     -12.192  14.550  64.566  1.00  0.00    -0.483 C  
ENDROOT
BRANCH   5   7
ATOM      7  C   GLY A   1     -11.982  15.744  70.815  1.00  0.00    -0.407 C  
ATOM      8  H   GLY A   1     -10.396  15.437  71.924  1.00  0.00     0.000 HD 
ATOM      9  O   GLY A   1     -11.196  14.968  71.716  1.00  0.00    -0.340 OA 
ENDBRANCH   5   7
BRANCH   6  10
HETATM   10  C   UNL     1     -12.187  13.058  64.893  1.00  0.00    -0.490 C  
BRANCH  10  11
HETATM   11  C   UNL     1     -11.632  12.166  63.780  1.00  0.00    -0.557 C  
BRANCH  11  12
HETATM   12  C   UNL     1     -10.127  11.965  63.982  1.00  0.00    -0.361 C  
BRANCH  12  13
HETATM   13  C   UNL     1      -9.718  10.497  63.869  1.00  0.00    -0.384 C  
BRANCH  13  14
HETATM   14  C   UNL     1      -9.214   9.913  65.196  1.00  0.00    -0.288 C  
BRANCH  14  15
HETATM   15  C   UNL     1      -7.958  10.577  65.773  1.00  0.00    -0.158 C  
BRANCH  15  16
HETATM   16  C   UNL     1      -7.914  10.614  67.277  1.00  0.00    -0.116 C  
HETATM   17  C   UNL     1      -8.547  11.524  68.034  1.00  0.00    -0.150 C  
BRANCH  17  18
HETATM   18  C   UNL     1      -9.362  12.673  67.517  1.00  0.00    -0.188 C  
BRANCH  18  19
HETATM   19  C   UNL     1     -10.575  12.952  68.402  1.00  0.00    -0.267 C  
BRANCH  19  20
HETATM   20  C   UNL     1     -11.498  11.734  68.428  1.00  0.00    -0.354 C  
BRANCH  20  21
HETATM   21  C   UNL     1     -11.869  11.349  69.857  1.00  0.00    -0.435 C  
BRANCH  21  22
HETATM   22  C   UNL     1     -10.892  10.321  70.422  1.00  0.00    -0.320 C  
BRANCH  22  23
HETATM   23  C   UNL     1     -11.573   8.966  70.597  1.00  0.00    -0.251 C  
BRANCH  23  24
HETATM   24  C   UNL     1     -12.099   8.778  72.017  1.00  0.00    -0.447 C  
HETATM   25  C   UNL     1     -13.605   8.896  72.072  1.00  0.00    -0.441 C  
HETATM   26  O   UNL     1     -14.083   8.712  73.325  1.00  0.00    -0.150 OA 
HETATM   27  O   UNL     1     -14.333   9.123  71.125  1.00  0.00    -0.141 OA 
ENDBRANCH  23  24
ENDBRANCH  22  23
ENDBRANCH  21  22
ENDBRANCH  20  21
ENDBRANCH  19  20
ENDBRANCH  18  19
ENDBRANCH  17  18
ENDBRANCH  15  16
ENDBRANCH  14  15
ENDBRANCH  13  14
ENDBRANCH  12  13
ENDBRANCH  11  12
ENDBRANCH  10  11
ENDBRANCH   6  10
TORSDOF 15
ENDMDL
MODEL       85
REMARK 921   NORMALIZED FREE ENERGY PREDICTED BY IDOCK:   -4.51 KCAL/MOL
REMARK 922        TOTAL FREE ENERGY PREDICTED BY IDOCK:  -10.41 KCAL/MOL
REMARK 923 INTER-LIGAND FREE ENERGY PREDICTED BY IDOCK:   -7.85 KCAL/MOL
REMARK 924 INTRA-LIGAND FREE ENERGY PREDICTED BY IDOCK:   -2.55 KCAL/MOL
REMARK 927      BINDING AFFINITY PREDICTED BY RF-SCORE:    0.00 PKD
ROOT
ATOM      1  N   GLY A   1     -13.177  11.521  72.107  1.00  0.00    -0.559 NA 
HETATM    2  C   UNL     1      -9.267   6.782  68.840  1.00  0.00    -0.131 C  
ATOM      3  H2  GLY A   1     -12.540  11.479  72.902  1.00  0.00     0.000 HD 
ATOM      4  H1  GLY A   1     -13.016  12.348  71.533  1.00  0.00     0.000 HD 
ATOM      5  CA  GLY A   1     -13.103  10.308  71.281  1.00  0.00    -0.398 C  
HETATM    6  C   UNL     1      -8.836   7.827  67.824  1.00  0.00    -0.126 C  
ENDROOT
BRANCH   5   7
ATOM      7  C   GLY A   1     -13.345   9.065  72.142  1.00  0.00    -0.455 C  
ATOM      8  H   GLY A   1     -12.262   7.610  72.883  1.00  0.00     0.000 HD 
ATOM      9  O   GLY A   1     -12.112   8.381  72.349  1.00  0.00    -0.371 OA 
ENDBRANCH   5   7
BRANCH   6  10
HETATM   10  C   UNL     1      -9.872   8.085  66.730  1.00  0.00    -0.327 C  
BRANCH  10  11
HETATM   11  C   UNL     1     -10.416   9.515  66.695  1.00  0.00    -0.241 C  
BRANCH  11  12
HETATM   12  C   UNL     1      -9.833  10.261  65.492  1.00  0.00    -0.347 C  
BRANCH  12  13
HETATM   13  C   UNL     1      -9.123  11.552  65.897  1.00  0.00    -0.186 C  
BRANCH  13  14
HETATM   14  C   UNL     1      -8.479  11.469  67.288  1.00  0.00    -0.152 C  
BRANCH  14  15
HETATM   15  C   UNL     1      -8.428  12.787  68.070  1.00  0.00    -0.177 C  
BRANCH  15  16
HETATM   16  C   UNL     1      -8.260  14.009  67.209  1.00  0.00    -0.187 C  
HETATM   17  C   UNL     1      -8.417  15.271  67.641  1.00  0.00    -0.172 C  
BRANCH  17  18
HETATM   18  C   UNL     1      -8.823  15.673  69.028  1.00  0.00    -0.243 C  
BRANCH  18  19
HETATM   19  C   UNL     1      -9.953  16.700  69.014  1.00  0.00    -0.280 C  
BRANCH  19  20
HETATM   20  C   UNL     1     -11.242  16.072  69.544  1.00  0.00    -0.348 C  
BRANCH  20  21
HETATM   21  C   UNL     1     -11.104  14.560  69.690  1.00  0.00    -0.264 C  
BRANCH  21  22
HETATM   22  C   UNL     1     -12.278  13.833  69.039  1.00  0.00    -0.259 C  
BRANCH  22  23
HETATM   23  C   UNL     1     -11.872  13.251  67.688  1.00  0.00    -0.400 C  
BRANCH  23  24
HETATM   24  C   UNL     1     -12.020  14.273  66.565  1.00  0.00    -0.448 C  
HETATM   25  C   UNL     1     -12.449  13.620  65.271  1.00  0.00    -0.479 C  
HETATM   26  O   UNL     1     -12.601  14.523  64.273  1.00  0.00    -0.681 OA 
HETATM   27  O   UNL     1     -12.647  12.431  65.109  1.00  0.00    -0.622 OA 
ENDBRANCH  23  24
ENDBRANCH  22  23
ENDBRANCH  21  22
ENDBRANCH  20  21
ENDBRANCH  19  20
ENDBRANCH  18  19
ENDBRANCH  17  18
ENDBRANCH  15  16
ENDBRANCH  14  15
ENDBRANCH  13  14
ENDBRANCH  12  13
ENDBRANCH  11  12
ENDBRANCH  10  11
ENDBRANCH   6  10
TORSDOF 15
ENDMDL
MODEL       86
REMARK 921   NORMALIZED FREE ENERGY PREDICTED BY IDOCK:   -4.51 KCAL/MOL
REMARK 922        TOTAL FREE ENERGY PREDICTED BY IDOCK:  -10.40 KCAL/MOL
REMARK 923 INTER-LIGAND FREE ENERGY PREDICTED BY IDOCK:   -8.34 KCAL/MOL
REMARK 924 INTRA-LIGAND FREE ENERGY PREDICTED BY IDOCK:   -2.07 KCAL/MOL
REMARK 927      BINDING AFFINITY PREDICTED BY RF-SCORE:    0.00 PKD
ROOT
ATOM      1  N   GLY A   1      -8.667  20.082  66.079  1.00  0.00    -0.529 NA 
HETATM    2  C   UNL     1      -6.516  14.189  69.089  1.00  0.00    -0.111 C  
ATOM      3  H2  GLY A   1      -7.717  20.446  66.142  1.00  0.00     0.000 HD 
ATOM      4  H1  GLY A   1      -8.890  19.761  65.138  1.00  0.00     0.000 HD 
ATOM      5  CA  GLY A   1      -8.910  19.009  67.053  1.00  0.00    -0.294 C  
HETATM    6  C   UNL     1      -6.748  13.432  67.790  1.00  0.00    -0.163 C  
ENDROOT
BRANCH   5   7
ATOM      7  C   GLY A   1      -8.575  19.492  68.467  1.00  0.00    -0.339 C  
ATOM      8  H   GLY A   1      -7.007  19.489  69.642  1.00  0.00     0.000 HD 
ATOM      9  O   GLY A   1      -7.214  19.190  68.765  1.00  0.00    -0.306 OA 
ENDBRANCH   5   7
BRANCH   6  10
HETATM   10  C   UNL     1      -8.210  13.062  67.547  1.00  0.00    -0.181 C  
BRANCH  10  11
HETATM   11  C   UNL     1      -8.444  11.587  67.214  1.00  0.00    -0.152 C  
BRANCH  11  12
HETATM   12  C   UNL     1      -9.079  10.880  68.414  1.00  0.00    -0.164 C  
BRANCH  12  13
HETATM   13  C   UNL     1      -8.038  10.415  69.431  1.00  0.00    -0.161 C  
BRANCH  13  14
HETATM   14  C   UNL     1      -8.591   9.383  70.424  1.00  0.00    -0.266 C  
BRANCH  14  15
HETATM   15  C   UNL     1     -10.037   8.937  70.174  1.00  0.00    -0.212 C  
BRANCH  15  16
HETATM   16  C   UNL     1     -10.915   8.978  71.395  1.00  0.00    -0.394 C  
HETATM   17  C   UNL     1     -11.940   9.827  71.567  1.00  0.00    -0.488 C  
BRANCH  17  18
HETATM   18  C   UNL     1     -12.356  10.898  70.601  1.00  0.00    -0.470 C  
BRANCH  18  19
HETATM   19  C   UNL     1     -12.816  12.163  71.321  1.00  0.00    -0.349 C  
BRANCH  19  20
HETATM   20  C   UNL     1     -12.230  13.400  70.640  1.00  0.00    -0.427 C  
BRANCH  20  21
HETATM   21  C   UNL     1     -11.897  13.123  69.177  1.00  0.00    -0.364 C  
BRANCH  21  22
HETATM   22  C   UNL     1     -11.912  14.408  68.355  1.00  0.00    -0.328 C  
BRANCH  22  23
HETATM   23  C   UNL     1     -11.359  14.160  66.953  1.00  0.00    -0.343 C  
BRANCH  23  24
HETATM   24  C   UNL     1     -11.964  12.911  66.321  1.00  0.00    -0.472 C  
HETATM   25  C   UNL     1     -12.633  13.224  65.001  1.00  0.00    -0.423 C  
HETATM   26  O   UNL     1     -13.157  12.118  64.423  1.00  0.00    -0.740 OA 
HETATM   27  O   UNL     1     -12.706  14.324  64.488  1.00  0.00    -0.662 OA 
ENDBRANCH  23  24
ENDBRANCH  22  23
ENDBRANCH  21  22
ENDBRANCH  20  21
ENDBRANCH  19  20
ENDBRANCH  18  19
ENDBRANCH  17  18
ENDBRANCH  15  16
ENDBRANCH  14  15
ENDBRANCH  13  14
ENDBRANCH  12  13
ENDBRANCH  11  12
ENDBRANCH  10  11
ENDBRANCH   6  10
TORSDOF 15
ENDMDL
MODEL       87
REMARK 921   NORMALIZED FREE ENERGY PREDICTED BY IDOCK:   -4.49 KCAL/MOL
REMARK 922        TOTAL FREE ENERGY PREDICTED BY IDOCK:  -10.38 KCAL/MOL
REMARK 923 INTER-LIGAND FREE ENERGY PREDICTED BY IDOCK:   -7.77 KCAL/MOL
REMARK 924 INTRA-LIGAND FREE ENERGY PREDICTED BY IDOCK:   -2.60 KCAL/MOL
REMARK 927      BINDING AFFINITY PREDICTED BY RF-SCORE:    0.00 PKD
ROOT
ATOM      1  N   GLY A   1     -13.168   8.736  73.065  1.00  0.00    -0.854 NA 
HETATM    2  C   UNL     1     -10.357   7.483  66.825  1.00  0.00    -0.332 C  
ATOM      3  H2  GLY A   1     -13.949   8.126  72.821  1.00  0.00     0.000 HD 
ATOM      4  H1  GLY A   1     -12.503   8.273  73.685  1.00  0.00     0.000 HD 
ATOM      5  CA  GLY A   1     -12.479   9.248  71.873  1.00  0.00    -0.382 C  
HETATM    6  C   UNL     1      -9.222   6.713  67.483  1.00  0.00    -0.114 C  
ENDROOT
BRANCH   5   7
ATOM      7  C   GLY A   1     -13.478   9.943  70.943  1.00  0.00    -0.122 C  
ATOM      8  H   GLY A   1     -13.389  11.134  69.389  1.00  0.00     0.000 HD 
ATOM      9  O   GLY A   1     -12.770  10.703  69.966  1.00  0.00    -0.278 OA 
ENDBRANCH   5   7
BRANCH   6  10
HETATM   10  C   UNL     1      -8.130   7.608  68.067  1.00  0.00    -0.123 C  
BRANCH  10  11
HETATM   11  C   UNL     1      -7.730   8.786  67.175  1.00  0.00    -0.096 C  
BRANCH  11  12
HETATM   12  C   UNL     1      -8.040  10.105  67.890  1.00  0.00    -0.109 C  
BRANCH  12  13
HETATM   13  C   UNL     1      -9.015  10.977  67.101  1.00  0.00    -0.145 C  
BRANCH  13  14
HETATM   14  C   UNL     1      -8.796  10.898  65.584  1.00  0.00    -0.201 C  
BRANCH  14  15
HETATM   15  C   UNL     1     -10.045  10.578  64.754  1.00  0.00    -0.406 C  
BRANCH  15  16
HETATM   16  C   UNL     1     -10.259  11.494  63.580  1.00  0.00    -0.450 C  
HETATM   17  C   UNL     1     -11.356  12.243  63.389  1.00  0.00    -0.508 C  
BRANCH  17  18
HETATM   18  C   UNL     1     -12.563  12.264  64.282  1.00  0.00    -0.470 C  
BRANCH  18  19
HETATM   19  C   UNL     1     -12.525  13.435  65.260  1.00  0.00    -0.532 C  
BRANCH  19  20
HETATM   20  C   UNL     1     -11.926  14.668  64.583  1.00  0.00    -0.472 C  
BRANCH  20  21
HETATM   21  C   UNL     1     -10.966  15.402  65.514  1.00  0.00    -0.350 C  
BRANCH  21  22
HETATM   22  C   UNL     1      -9.885  14.464  66.044  1.00  0.00    -0.342 C  
BRANCH  22  23
HETATM   23  C   UNL     1      -9.655  14.690  67.536  1.00  0.00    -0.206 C  
BRANCH  23  24
HETATM   24  C   UNL     1     -10.665  13.925  68.385  1.00  0.00    -0.267 C  
HETATM   25  C   UNL     1     -11.600  14.861  69.116  1.00  0.00    -0.307 C  
HETATM   26  O   UNL     1     -12.513  14.191  69.857  1.00  0.00    -0.341 OA 
HETATM   27  O   UNL     1     -11.570  16.076  69.064  1.00  0.00    -0.367 OA 
ENDBRANCH  23  24
ENDBRANCH  22  23
ENDBRANCH  21  22
ENDBRANCH  20  21
ENDBRANCH  19  20
ENDBRANCH  18  19
ENDBRANCH  17  18
ENDBRANCH  15  16
ENDBRANCH  14  15
ENDBRANCH  13  14
ENDBRANCH  12  13
ENDBRANCH  11  12
ENDBRANCH  10  11
ENDBRANCH   6  10
TORSDOF 15
ENDMDL
MODEL       88
REMARK 921   NORMALIZED FREE ENERGY PREDICTED BY IDOCK:   -4.49 KCAL/MOL
REMARK 922        TOTAL FREE ENERGY PREDICTED BY IDOCK:  -10.37 KCAL/MOL
REMARK 923 INTER-LIGAND FREE ENERGY PREDICTED BY IDOCK:   -8.37 KCAL/MOL
REMARK 924 INTRA-LIGAND FREE ENERGY PREDICTED BY IDOCK:   -2.00 KCAL/MOL
REMARK 927      BINDING AFFINITY PREDICTED BY RF-SCORE:    0.00 PKD
ROOT
ATOM      1  N   GLY A   1     -10.558  11.332  62.707  1.00  0.00    -0.702 NA 
HETATM    2  C   UNL     1     -11.960  13.906  69.017  1.00  0.00    -0.402 C  
ATOM      3  H2  GLY A   1      -9.836  12.043  62.591  1.00  0.00     0.000 HD 
ATOM      4  H1  GLY A   1     -10.161  10.422  62.941  1.00  0.00     0.000 HD 
ATOM      5  CA  GLY A   1     -11.558  11.723  63.708  1.00  0.00    -0.413 C  
HETATM    6  C   UNL     1     -11.411  12.643  69.662  1.00  0.00    -0.252 C  
ENDROOT
BRANCH   5   7
ATOM      7  C   GLY A   1     -12.154  13.089  63.356  1.00  0.00    -0.515 C  
ATOM      8  H   GLY A   1     -13.165  14.487  64.286  1.00  0.00     0.000 HD 
ATOM      9  O   GLY A   1     -12.795  13.640  64.504  1.00  0.00    -0.645 OA 
ENDBRANCH   5   7
BRANCH   6  10
HETATM   10  C   UNL     1     -12.393  11.471  69.653  1.00  0.00    -0.207 C  
BRANCH  10  11
HETATM   11  C   UNL     1     -12.058  10.355  70.645  1.00  0.00    -0.443 C  
BRANCH  11  12
HETATM   12  C   UNL     1     -13.303   9.998  71.461  1.00  0.00    -0.451 C  
BRANCH  12  13
HETATM   13  C   UNL     1     -13.093   8.757  72.328  1.00  0.00    -0.458 C  
BRANCH  13  14
HETATM   14  C   UNL     1     -13.208   7.448  71.535  1.00  0.00    -0.426 C  
BRANCH  14  15
HETATM   15  C   UNL     1     -12.010   6.498  71.654  1.00  0.00    -0.387 C  
BRANCH  15  16
HETATM   16  C   UNL     1     -10.746   7.016  71.023  1.00  0.00    -0.256 C  
HETATM   17  C   UNL     1     -10.380   6.785  69.753  1.00  0.00    -0.226 C  
BRANCH  17  18
HETATM   18  C   UNL     1     -11.138   5.946  68.766  1.00  0.00    -0.218 C  
BRANCH  18  19
HETATM   19  C   UNL     1     -10.926   6.426  67.332  1.00  0.00    -0.463 C  
BRANCH  19  20
HETATM   20  C   UNL     1      -9.474   6.861  67.132  1.00  0.00    -0.168 C  
BRANCH  20  21
HETATM   21  C   UNL     1      -9.389   8.168  66.349  1.00  0.00    -0.269 C  
BRANCH  21  22
HETATM   22  C   UNL     1     -10.382   9.197  66.882  1.00  0.00    -0.321 C  
BRANCH  22  23
HETATM   23  C   UNL     1      -9.664  10.483  67.285  1.00  0.00    -0.197 C  
BRANCH  23  24
HETATM   24  C   UNL     1     -10.204  11.691  66.526  1.00  0.00    -0.249 C  
HETATM   25  C   UNL     1      -9.305  12.896  66.687  1.00  0.00    -0.240 C  
HETATM   26  O   UNL     1      -9.767  13.968  66.001  1.00  0.00    -0.294 OA 
HETATM   27  O   UNL     1      -8.280  12.933  67.341  1.00  0.00    -0.169 OA 
ENDBRANCH  23  24
ENDBRANCH  22  23
ENDBRANCH  21  22
ENDBRANCH  20  21
ENDBRANCH  19  20
ENDBRANCH  18  19
ENDBRANCH  17  18
ENDBRANCH  15  16
ENDBRANCH  14  15
ENDBRANCH  13  14
ENDBRANCH  12  13
ENDBRANCH  11  12
ENDBRANCH  10  11
ENDBRANCH   6  10
TORSDOF 15
ENDMDL
MODEL       89
REMARK 921   NORMALIZED FREE ENERGY PREDICTED BY IDOCK:   -4.48 KCAL/MOL
REMARK 922        TOTAL FREE ENERGY PREDICTED BY IDOCK:  -10.36 KCAL/MOL
REMARK 923 INTER-LIGAND FREE ENERGY PREDICTED BY IDOCK:   -8.76 KCAL/MOL
REMARK 924 INTRA-LIGAND FREE ENERGY PREDICTED BY IDOCK:   -1.60 KCAL/MOL
REMARK 927      BINDING AFFINITY PREDICTED BY RF-SCORE:    0.00 PKD
ROOT
ATOM      1  N   GLY A   1      -6.423  13.636  70.082  1.00  0.00    -0.366 NA 
HETATM    2  C   UNL     1      -9.925   9.026  66.222  1.00  0.00    -0.352 C  
ATOM      3  H2  GLY A   1      -6.889  14.392  69.579  1.00  0.00     0.000 HD 
ATOM      4  H1  GLY A   1      -6.833  13.484  71.003  1.00  0.00     0.000 HD 
ATOM      5  CA  GLY A   1      -6.421  12.385  69.313  1.00  0.00    -0.107 C  
HETATM    6  C   UNL     1     -10.714   8.590  67.446  1.00  0.00    -0.215 C  
ENDROOT
BRANCH   5   7
ATOM      7  C   GLY A   1      -5.806  12.614  67.930  1.00  0.00    -0.111 C  
ATOM      8  H   GLY A   1      -5.830  14.030  66.575  1.00  0.00     0.000 HD 
ATOM      9  O   GLY A   1      -6.212  13.887  67.433  1.00  0.00    -0.335 OA 
ENDBRANCH   5   7
BRANCH   6  10
HETATM   10  C   UNL     1      -9.956   7.622  68.354  1.00  0.00    -0.192 C  
BRANCH  10  11
HETATM   11  C   UNL     1     -10.699   6.317  68.652  1.00  0.00    -0.357 C  
BRANCH  11  12
HETATM   12  C   UNL     1     -11.612   6.508  69.866  1.00  0.00    -0.433 C  
BRANCH  12  13
HETATM   13  C   UNL     1     -11.090   5.782  71.105  1.00  0.00    -0.257 C  
BRANCH  13  14
HETATM   14  C   UNL     1     -11.430   6.511  72.412  1.00  0.00    -0.306 C  
BRANCH  14  15
HETATM   15  C   UNL     1     -11.185   8.025  72.406  1.00  0.00    -0.432 C  
BRANCH  15  16
HETATM   16  C   UNL     1     -12.440   8.853  72.448  1.00  0.00    -0.405 C  
HETATM   17  C   UNL     1     -12.701   9.881  71.624  1.00  0.00    -0.527 C  
BRANCH  17  18
HETATM   18  C   UNL     1     -11.780  10.400  70.560  1.00  0.00    -0.434 C  
BRANCH  18  19
HETATM   19  C   UNL     1     -12.106  11.843  70.182  1.00  0.00    -0.382 C  
BRANCH  19  20
HETATM   20  C   UNL     1     -11.616  12.140  68.765  1.00  0.00    -0.380 C  
BRANCH  20  21
HETATM   21  C   UNL     1     -11.269  13.616  68.595  1.00  0.00    -0.308 C  
BRANCH  21  22
HETATM   22  C   UNL     1     -12.036  14.232  67.428  1.00  0.00    -0.426 C  
BRANCH  22  23
HETATM   23  C   UNL     1     -11.472  13.750  66.094  1.00  0.00    -0.350 C  
BRANCH  23  24
HETATM   24  C   UNL     1     -12.563  13.180  65.193  1.00  0.00    -0.525 C  
HETATM   25  C   UNL     1     -11.983  12.541  63.952  1.00  0.00    -0.480 C  
HETATM   26  O   UNL     1     -12.942  12.016  63.155  1.00  0.00    -0.662 OA 
HETATM   27  O   UNL     1     -10.800  12.483  63.672  1.00  0.00    -0.423 OA 
ENDBRANCH  23  24
ENDBRANCH  22  23
ENDBRANCH  21  22
ENDBRANCH  20  21
ENDBRANCH  19  20
ENDBRANCH  18  19
ENDBRANCH  17  18
ENDBRANCH  15  16
ENDBRANCH  14  15
ENDBRANCH  13  14
ENDBRANCH  12  13
ENDBRANCH  11  12
ENDBRANCH  10  11
ENDBRANCH   6  10
TORSDOF 15
ENDMDL
MODEL       90
REMARK 921   NORMALIZED FREE ENERGY PREDICTED BY IDOCK:   -4.48 KCAL/MOL
REMARK 922        TOTAL FREE ENERGY PREDICTED BY IDOCK:  -10.36 KCAL/MOL
REMARK 923 INTER-LIGAND FREE ENERGY PREDICTED BY IDOCK:   -7.82 KCAL/MOL
REMARK 924 INTRA-LIGAND FREE ENERGY PREDICTED BY IDOCK:   -2.54 KCAL/MOL
REMARK 927      BINDING AFFINITY PREDICTED BY RF-SCORE:    0.00 PKD
ROOT
ATOM      1  N   GLY A   1     -11.753   6.383  69.610  1.00  0.00    -0.587 NA 
HETATM    2  C   UNL     1      -7.148  10.007  65.859  1.00  0.00    -0.114 C  
ATOM      3  H2  GLY A   1     -11.471   6.906  70.439  1.00  0.00     0.000 HD 
ATOM      4  H1  GLY A   1     -12.637   6.721  69.230  1.00  0.00     0.000 HD 
ATOM      5  CA  GLY A   1     -10.715   6.397  68.571  1.00  0.00    -0.288 C  
HETATM    6  C   UNL     1      -8.282  10.694  65.116  1.00  0.00    -0.092 C  
ENDROOT
BRANCH   5   7
ATOM      7  C   GLY A   1      -9.388   5.890  69.143  1.00  0.00    -0.120 C  
ATOM      8  H   GLY A   1      -7.482   6.142  68.764  1.00  0.00     0.000 HD 
ATOM      9  O   GLY A   1      -8.305   6.457  68.410  1.00  0.00    -0.115 OA 
ENDBRANCH   5   7
BRANCH   6  10
HETATM   10  C   UNL     1      -8.890   9.844  64.001  1.00  0.00    -0.253 C  
BRANCH  10  11
HETATM   11  C   UNL     1      -9.583  10.646  62.897  1.00  0.00    -0.358 C  
BRANCH  11  12
HETATM   12  C   UNL     1     -10.108  11.966  63.469  1.00  0.00    -0.464 C  
BRANCH  12  13
HETATM   13  C   UNL     1     -11.631  11.979  63.594  1.00  0.00    -0.578 C  
BRANCH  13  14
HETATM   14  C   UNL     1     -12.199  13.383  63.841  1.00  0.00    -0.478 C  
BRANCH  14  15
HETATM   15  C   UNL     1     -12.582  13.693  65.293  1.00  0.00    -0.512 C  
BRANCH  15  16
HETATM   16  C   UNL     1     -11.418  14.044  66.178  1.00  0.00    -0.350 C  
HETATM   17  C   UNL     1     -11.071  13.367  67.284  1.00  0.00    -0.300 C  
BRANCH  17  18
HETATM   18  C   UNL     1     -11.802  12.182  67.845  1.00  0.00    -0.338 C  
BRANCH  18  19
HETATM   19  C   UNL     1     -11.197  10.864  67.366  1.00  0.00    -0.345 C  
BRANCH  19  20
HETATM   20  C   UNL     1     -10.767  10.016  68.563  1.00  0.00    -0.264 C  
BRANCH  20  21
HETATM   21  C   UNL     1      -9.251  10.026  68.734  1.00  0.00    -0.159 C  
BRANCH  21  22
HETATM   22  C   UNL     1      -8.848   9.506  70.111  1.00  0.00    -0.266 C  
BRANCH  22  23
HETATM   23  C   UNL     1     -10.081   9.226  70.966  1.00  0.00    -0.373 C  
BRANCH  23  24
HETATM   24  C   UNL     1      -9.723   8.466  72.239  1.00  0.00    -0.386 C  
HETATM   25  C   UNL     1     -10.929   7.774  72.832  1.00  0.00    -0.407 C  
HETATM   26  O   UNL     1     -10.617   7.081  73.952  1.00  0.00    -0.371 OA 
HETATM   27  O   UNL     1     -12.058   7.809  72.381  1.00  0.00    -0.304 OA 
ENDBRANCH  23  24
ENDBRANCH  22  23
ENDBRANCH  21  22
ENDBRANCH  20  21
ENDBRANCH  19  20
ENDBRANCH  18  19
ENDBRANCH  17  18
ENDBRANCH  15  16
ENDBRANCH  14  15
ENDBRANCH  13  14
ENDBRANCH  12  13
ENDBRANCH  11  12
ENDBRANCH  10  11
ENDBRANCH   6  10
TORSDOF 15
ENDMDL
MODEL       91
REMARK 921   NORMALIZED FREE ENERGY PREDICTED BY IDOCK:   -4.48 KCAL/MOL
REMARK 922        TOTAL FREE ENERGY PREDICTED BY IDOCK:  -10.35 KCAL/MOL
REMARK 923 INTER-LIGAND FREE ENERGY PREDICTED BY IDOCK:   -7.86 KCAL/MOL
REMARK 924 INTRA-LIGAND FREE ENERGY PREDICTED BY IDOCK:   -2.50 KCAL/MOL
REMARK 927      BINDING AFFINITY PREDICTED BY RF-SCORE:    0.00 PKD
ROOT
ATOM      1  N   GLY A   1     -10.410  11.192  62.811  1.00  0.00    -0.741 NA 
HETATM    2  C   UNL     1     -12.015  13.617  69.132  1.00  0.00    -0.394 C  
ATOM      3  H2  GLY A   1      -9.711  11.929  62.720  1.00  0.00     0.000 HD 
ATOM      4  H1  GLY A   1      -9.987  10.293  63.039  1.00  0.00     0.000 HD 
ATOM      5  CA  GLY A   1     -11.442  11.533  63.800  1.00  0.00    -0.286 C  
HETATM    6  C   UNL     1     -11.435  12.363  69.769  1.00  0.00    -0.220 C  
ENDROOT
BRANCH   5   7
ATOM      7  C   GLY A   1     -12.077  12.884  63.457  1.00  0.00    -0.555 C  
ATOM      8  H   GLY A   1     -12.319  14.613  64.347  1.00  0.00     0.000 HD 
ATOM      9  O   GLY A   1     -11.925  13.775  64.559  1.00  0.00    -0.389 OA 
ENDBRANCH   5   7
BRANCH   6  10
HETATM   10  C   UNL     1     -12.376  11.160  69.723  1.00  0.00    -0.315 C  
BRANCH  10  11
HETATM   11  C   UNL     1     -12.178  10.156  70.862  1.00  0.00    -0.455 C  
BRANCH  11  12
HETATM   12  C   UNL     1     -13.409  10.157  71.772  1.00  0.00    -0.485 C  
BRANCH  12  13
HETATM   13  C   UNL     1     -13.768   8.756  72.264  1.00  0.00    -0.494 C  
BRANCH  13  14
HETATM   14  C   UNL     1     -13.209   7.645  71.365  1.00  0.00    -0.337 C  
BRANCH  14  15
HETATM   15  C   UNL     1     -12.280   6.641  72.059  1.00  0.00    -0.337 C  
BRANCH  15  16
HETATM   16  C   UNL     1     -10.815   6.929  71.881  1.00  0.00    -0.258 C  
HETATM   17  C   UNL     1     -10.037   6.363  70.945  1.00  0.00    -0.218 C  
BRANCH  17  18
HETATM   18  C   UNL     1     -10.479   5.328  69.953  1.00  0.00    -0.351 C  
BRANCH  18  19
HETATM   19  C   UNL     1     -10.082   5.702  68.527  1.00  0.00    -0.236 C  
BRANCH  19  20
HETATM   20  C   UNL     1     -11.168   6.566  67.887  1.00  0.00    -0.257 C  
BRANCH  20  21
HETATM   21  C   UNL     1     -10.567   7.624  66.967  1.00  0.00    -0.406 C  
BRANCH  21  22
HETATM   22  C   UNL     1     -10.432   8.965  67.683  1.00  0.00    -0.320 C  
BRANCH  22  23
HETATM   23  C   UNL     1      -8.977   9.233  68.061  1.00  0.00    -0.128 C  
BRANCH  23  24
HETATM   24  C   UNL     1      -8.843   9.662  69.519  1.00  0.00    -0.197 C  
HETATM   25  C   UNL     1      -7.701   8.949  70.206  1.00  0.00    -0.090 C  
HETATM   26  O   UNL     1      -7.562   9.336  71.495  1.00  0.00    -0.340 OA 
HETATM   27  O   UNL     1      -6.970   8.123  69.692  1.00  0.00    -0.047 OA 
ENDBRANCH  23  24
ENDBRANCH  22  23
ENDBRANCH  21  22
ENDBRANCH  20  21
ENDBRANCH  19  20
ENDBRANCH  18  19
ENDBRANCH  17  18
ENDBRANCH  15  16
ENDBRANCH  14  15
ENDBRANCH  13  14
ENDBRANCH  12  13
ENDBRANCH  11  12
ENDBRANCH  10  11
ENDBRANCH   6  10
TORSDOF 15
ENDMDL
MODEL       92
REMARK 921   NORMALIZED FREE ENERGY PREDICTED BY IDOCK:   -4.48 KCAL/MOL
REMARK 922        TOTAL FREE ENERGY PREDICTED BY IDOCK:  -10.35 KCAL/MOL
REMARK 923 INTER-LIGAND FREE ENERGY PREDICTED BY IDOCK:   -8.73 KCAL/MOL
REMARK 924 INTRA-LIGAND FREE ENERGY PREDICTED BY IDOCK:   -1.63 KCAL/MOL
REMARK 927      BINDING AFFINITY PREDICTED BY RF-SCORE:    0.00 PKD
ROOT
ATOM      1  N   GLY A   1     -13.855  16.240  73.462  1.00  0.00    -0.751 NA 
HETATM    2  C   UNL     1      -9.459  14.186  68.476  1.00  0.00    -0.202 C  
ATOM      3  H2  GLY A   1     -13.094  16.186  74.138  1.00  0.00     0.000 HD 
ATOM      4  H1  GLY A   1     -14.047  17.201  73.181  1.00  0.00     0.000 HD 
ATOM      5  CA  GLY A   1     -13.600  15.407  72.279  1.00  0.00    -0.503 C  
HETATM    6  C   UNL     1      -9.542  15.559  67.826  1.00  0.00    -0.209 C  
ENDROOT
BRANCH   5   7
ATOM      7  C   GLY A   1     -13.312  13.963  72.701  1.00  0.00    -0.538 C  
ATOM      8  H   GLY A   1     -12.693  12.320  71.832  1.00  0.00     0.000 HD 
ATOM      9  O   GLY A   1     -12.871  13.215  71.570  1.00  0.00    -0.358 OA 
ENDBRANCH   5   7
BRANCH   6  10
HETATM   10  C   UNL     1     -10.797  15.761  66.977  1.00  0.00    -0.273 C  
BRANCH  10  11
HETATM   11  C   UNL     1     -10.527  15.954  65.483  1.00  0.00    -0.425 C  
BRANCH  11  12
HETATM   12  C   UNL     1     -11.263  14.877  64.681  1.00  0.00    -0.349 C  
BRANCH  12  13
HETATM   13  C   UNL     1     -12.219  14.060  65.550  1.00  0.00    -0.455 C  
BRANCH  13  14
HETATM   14  C   UNL     1     -12.015  12.546  65.402  1.00  0.00    -0.492 C  
BRANCH  14  15
HETATM   15  C   UNL     1     -11.300  11.860  66.573  1.00  0.00    -0.403 C  
BRANCH  15  16
HETATM   16  C   UNL     1     -11.984  12.035  67.901  1.00  0.00    -0.204 C  
HETATM   17  C   UNL     1     -11.800  11.234  68.963  1.00  0.00    -0.421 C  
BRANCH  17  18
HETATM   18  C   UNL     1     -10.924  10.015  68.994  1.00  0.00    -0.249 C  
BRANCH  18  19
HETATM   19  C   UNL     1     -10.360   9.758  70.389  1.00  0.00    -0.354 C  
BRANCH  19  20
HETATM   20  C   UNL     1     -11.460   9.238  71.314  1.00  0.00    -0.418 C  
BRANCH  20  21
HETATM   21  C   UNL     1     -10.882   8.383  72.438  1.00  0.00    -0.416 C  
BRANCH  21  22
HETATM   22  C   UNL     1     -11.255   6.914  72.262  1.00  0.00    -0.299 C  
BRANCH  22  23
HETATM   23  C   UNL     1     -11.668   6.629  70.820  1.00  0.00    -0.445 C  
BRANCH  23  24
HETATM   24  C   UNL     1     -10.773   5.577  70.174  1.00  0.00    -0.348 C  
HETATM   25  C   UNL     1     -10.738   5.723  68.670  1.00  0.00    -0.233 C  
HETATM   26  O   UNL     1      -9.931   4.805  68.089  1.00  0.00    -0.145 OA 
HETATM   27  O   UNL     1     -11.345   6.557  68.025  1.00  0.00    -0.234 OA 
ENDBRANCH  23  24
ENDBRANCH  22  23
ENDBRANCH  21  22
ENDBRANCH  20  21
ENDBRANCH  19  20
ENDBRANCH  18  19
ENDBRANCH  17  18
ENDBRANCH  15  16
ENDBRANCH  14  15
ENDBRANCH  13  14
ENDBRANCH  12  13
ENDBRANCH  11  12
ENDBRANCH  10  11
ENDBRANCH   6  10
TORSDOF 15
ENDMDL
MODEL       93
REMARK 921   NORMALIZED FREE ENERGY PREDICTED BY IDOCK:   -4.48 KCAL/MOL
REMARK 922        TOTAL FREE ENERGY PREDICTED BY IDOCK:  -10.35 KCAL/MOL
REMARK 923 INTER-LIGAND FREE ENERGY PREDICTED BY IDOCK:   -8.94 KCAL/MOL
REMARK 924 INTRA-LIGAND FREE ENERGY PREDICTED BY IDOCK:   -1.42 KCAL/MOL
REMARK 927      BINDING AFFINITY PREDICTED BY RF-SCORE:    0.00 PKD
ROOT
ATOM      1  N   GLY A   1      -9.092  20.331  65.895  1.00  0.00    -0.565 NA 
HETATM    2  C   UNL     1     -10.750  14.159  68.647  1.00  0.00    -0.263 C  
ATOM      3  H2  GLY A   1      -9.069  19.898  64.972  1.00  0.00     0.000 HD 
ATOM      4  H1  GLY A   1      -9.952  20.858  66.046  1.00  0.00     0.000 HD 
ATOM      5  CA  GLY A   1      -8.907  19.344  66.968  1.00  0.00    -0.300 C  
HETATM    6  C   UNL     1     -12.136  14.677  68.994  1.00  0.00    -0.270 C  
ENDROOT
BRANCH   5   7
ATOM      7  C   GLY A   1      -7.616  18.552  66.740  1.00  0.00    -0.229 C  
ATOM      8  H   GLY A   1      -7.076  16.967  65.723  1.00  0.00     0.000 HD 
ATOM      9  O   GLY A   1      -7.877  17.458  65.863  1.00  0.00    -0.514 OA 
ENDBRANCH   5   7
BRANCH   6  10
HETATM   10  C   UNL     1     -12.174  15.528  70.263  1.00  0.00    -0.432 C  
BRANCH  10  11
HETATM   11  C   UNL     1     -13.346  15.221  71.198  1.00  0.00    -0.568 C  
BRANCH  11  12
HETATM   12  C   UNL     1     -12.865  14.350  72.362  1.00  0.00    -0.436 C  
BRANCH  12  13
HETATM   13  C   UNL     1     -13.553  12.987  72.391  1.00  0.00    -0.628 C  
BRANCH  13  14
HETATM   14  C   UNL     1     -13.153  12.090  71.211  1.00  0.00    -0.209 C  
BRANCH  14  15
HETATM   15  C   UNL     1     -12.832  10.634  71.570  1.00  0.00    -0.567 C  
BRANCH  15  16
HETATM   16  C   UNL     1     -11.577  10.103  70.932  1.00  0.00    -0.459 C  
HETATM   17  C   UNL     1     -10.998   8.934  71.249  1.00  0.00    -0.363 C  
BRANCH  17  18
HETATM   18  C   UNL     1     -11.474   7.986  72.311  1.00  0.00    -0.419 C  
BRANCH  18  19
HETATM   19  C   UNL     1     -11.463   6.538  71.825  1.00  0.00    -0.346 C  
BRANCH  19  20
HETATM   20  C   UNL     1     -11.929   6.468  70.371  1.00  0.00    -0.295 C  
BRANCH  20  21
HETATM   21  C   UNL     1     -10.862   5.844  69.475  1.00  0.00    -0.442 C  
BRANCH  21  22
HETATM   22  C   UNL     1     -11.078   6.224  68.013  1.00  0.00    -0.365 C  
BRANCH  22  23
HETATM   23  C   UNL     1     -10.022   7.225  67.552  1.00  0.00    -0.218 C  
BRANCH  23  24
HETATM   24  C   UNL     1     -10.486   8.665  67.749  1.00  0.00    -0.287 C  
HETATM   25  C   UNL     1     -10.139   9.529  66.558  1.00  0.00    -0.256 C  
HETATM   26  O   UNL     1     -10.563  10.805  66.716  1.00  0.00    -0.246 OA 
HETATM   27  O   UNL     1      -9.554   9.157  65.559  1.00  0.00    -0.257 OA 
ENDBRANCH  23  24
ENDBRANCH  22  23
ENDBRANCH  21  22
ENDBRANCH  20  21
ENDBRANCH  19  20
ENDBRANCH  18  19
ENDBRANCH  17  18
ENDBRANCH  15  16
ENDBRANCH  14  15
ENDBRANCH  13  14
ENDBRANCH  12  13
ENDBRANCH  11  12
ENDBRANCH  10  11
ENDBRANCH   6  10
TORSDOF 15
ENDMDL
MODEL       94
REMARK 921   NORMALIZED FREE ENERGY PREDICTED BY IDOCK:   -4.48 KCAL/MOL
REMARK 922        TOTAL FREE ENERGY PREDICTED BY IDOCK:  -10.35 KCAL/MOL
REMARK 923 INTER-LIGAND FREE ENERGY PREDICTED BY IDOCK:   -7.70 KCAL/MOL
REMARK 924 INTRA-LIGAND FREE ENERGY PREDICTED BY IDOCK:   -2.65 KCAL/MOL
REMARK 927      BINDING AFFINITY PREDICTED BY RF-SCORE:    0.00 PKD
ROOT
ATOM      1  N   GLY A   1     -10.653   7.496  73.286  1.00  0.00    -0.382 NA 
HETATM    2  C   UNL     1     -11.206  11.173  67.405  1.00  0.00    -0.363 C  
ATOM      3  H2  GLY A   1      -9.944   6.914  72.840  1.00  0.00     0.000 HD 
ATOM      4  H1  GLY A   1     -10.240   8.182  73.917  1.00  0.00     0.000 HD 
ATOM      5  CA  GLY A   1     -11.513   8.165  72.301  1.00  0.00    -0.371 C  
HETATM    6  C   UNL     1     -10.594  12.382  68.095  1.00  0.00    -0.232 C  
ENDROOT
BRANCH   5   7
ATOM      7  C   GLY A   1     -12.133   7.134  71.352  1.00  0.00    -0.344 C  
ATOM      8  H   GLY A   1     -13.904   6.349  71.060  1.00  0.00     0.000 HD 
ATOM      9  O   GLY A   1     -13.520   6.988  71.648  1.00  0.00    -0.365 OA 
ENDBRANCH   5   7
BRANCH   6  10
HETATM   10  C   UNL     1     -11.582  13.160  68.962  1.00  0.00    -0.360 C  
BRANCH  10  11
HETATM   11  C   UNL     1     -12.009  14.511  68.383  1.00  0.00    -0.309 C  
BRANCH  11  12
HETATM   12  C   UNL     1     -11.453  15.644  69.250  1.00  0.00    -0.368 C  
BRANCH  12  13
HETATM   13  C   UNL     1     -10.555  16.593  68.458  1.00  0.00    -0.338 C  
BRANCH  13  14
HETATM   14  C   UNL     1      -9.182  15.987  68.136  1.00  0.00    -0.195 C  
BRANCH  14  15
HETATM   15  C   UNL     1      -8.906  15.734  66.648  1.00  0.00    -0.324 C  
BRANCH  15  16
HETATM   16  C   UNL     1      -9.969  16.263  65.724  1.00  0.00    -0.353 C  
HETATM   17  C   UNL     1     -10.800  15.495  65.003  1.00  0.00    -0.468 C  
BRANCH  17  18
HETATM   18  C   UNL     1     -10.786  13.995  64.961  1.00  0.00    -0.409 C  
BRANCH  18  19
HETATM   19  C   UNL     1     -11.964  13.439  64.165  1.00  0.00    -0.505 C  
BRANCH  19  20
HETATM   20  C   UNL     1     -11.662  12.013  63.704  1.00  0.00    -0.587 C  
BRANCH  20  21
HETATM   21  C   UNL     1     -10.172  11.821  63.435  1.00  0.00    -0.482 C  
BRANCH  21  22
HETATM   22  C   UNL     1      -9.740  10.387  63.727  1.00  0.00    -0.351 C  
BRANCH  22  23
HETATM   23  C   UNL     1      -8.278  10.340  64.163  1.00  0.00    -0.152 C  
BRANCH  23  24
HETATM   24  C   UNL     1      -8.126  10.619  65.655  1.00  0.00    -0.146 C  
HETATM   25  C   UNL     1      -8.061   9.339  66.457  1.00  0.00    -0.104 C  
HETATM   26  O   UNL     1      -7.908   9.575  67.781  1.00  0.00    -0.094 OA 
HETATM   27  O   UNL     1      -8.130   8.213  66.000  1.00  0.00    -0.101 OA 
ENDBRANCH  23  24
ENDBRANCH  22  23
ENDBRANCH  21  22
ENDBRANCH  20  21
ENDBRANCH  19  20
ENDBRANCH  18  19
ENDBRANCH  17  18
ENDBRANCH  15  16
ENDBRANCH  14  15
ENDBRANCH  13  14
ENDBRANCH  12  13
ENDBRANCH  11  12
ENDBRANCH  10  11
ENDBRANCH   6  10
TORSDOF 15
ENDMDL
MODEL       95
REMARK 921   NORMALIZED FREE ENERGY PREDICTED BY IDOCK:   -4.47 KCAL/MOL
REMARK 922        TOTAL FREE ENERGY PREDICTED BY IDOCK:  -10.34 KCAL/MOL
REMARK 923 INTER-LIGAND FREE ENERGY PREDICTED BY IDOCK:   -8.46 KCAL/MOL
REMARK 924 INTRA-LIGAND FREE ENERGY PREDICTED BY IDOCK:   -1.88 KCAL/MOL
REMARK 927      BINDING AFFINITY PREDICTED BY RF-SCORE:    0.00 PKD
ROOT
ATOM      1  N   GLY A   1     -12.085  11.557  62.899  1.00  0.00    -0.819 NA 
HETATM    2  C   UNL     1      -7.728  12.730  68.194  1.00  0.00    -0.137 C  
ATOM      3  H2  GLY A   1     -11.429  12.023  62.272  1.00  0.00     0.000 HD 
ATOM      4  H1  GLY A   1     -12.036  10.542  62.815  1.00  0.00     0.000 HD 
ATOM      5  CA  GLY A   1     -11.891  11.962  64.297  1.00  0.00    -0.279 C  
HETATM    6  C   UNL     1      -7.446  11.240  68.303  1.00  0.00    -0.099 C  
ENDROOT
BRANCH   5   7
ATOM      7  C   GLY A   1     -11.965  13.486  64.423  1.00  0.00    -0.422 C  
ATOM      8  H   GLY A   1     -13.268  14.803  65.062  1.00  0.00     0.000 HD 
ATOM      9  O   GLY A   1     -13.221  13.857  64.984  1.00  0.00    -0.729 OA 
ENDBRANCH   5   7
BRANCH   6  10
HETATM   10  C   UNL     1      -8.530  10.462  69.047  1.00  0.00    -0.155 C  
BRANCH  10  11
HETATM   11  C   UNL     1      -8.017   9.621  70.219  1.00  0.00    -0.198 C  
BRANCH  11  12
HETATM   12  C   UNL     1      -9.200   8.993  70.961  1.00  0.00    -0.331 C  
BRANCH  12  13
HETATM   13  C   UNL     1     -10.525   9.214  70.234  1.00  0.00    -0.257 C  
BRANCH  13  14
HETATM   14  C   UNL     1     -11.600   9.845  71.128  1.00  0.00    -0.468 C  
BRANCH  14  15
HETATM   15  C   UNL     1     -12.232  11.135  70.589  1.00  0.00    -0.492 C  
BRANCH  15  16
HETATM   16  C   UNL     1     -11.992  11.374  69.124  1.00  0.00    -0.395 C  
HETATM   17  C   UNL     1     -11.740  12.575  68.580  1.00  0.00    -0.368 C  
BRANCH  17  18
HETATM   18  C   UNL     1     -11.695  13.877  69.326  1.00  0.00    -0.381 C  
BRANCH  18  19
HETATM   19  C   UNL     1     -11.717  15.074  68.379  1.00  0.00    -0.341 C  
BRANCH  19  20
HETATM   20  C   UNL     1     -10.586  14.959  67.357  1.00  0.00    -0.263 C  
BRANCH  20  21
HETATM   21  C   UNL     1      -9.948  16.316  67.079  1.00  0.00    -0.255 C  
BRANCH  21  22
HETATM   22  C   UNL     1     -10.783  17.450  67.668  1.00  0.00    -0.310 C  
BRANCH  22  23
HETATM   23  C   UNL     1      -9.891  18.468  68.374  1.00  0.00    -0.404 C  
BRANCH  23  24
HETATM   24  C   UNL     1      -8.598  18.716  67.603  1.00  0.00    -0.288 C  
HETATM   25  C   UNL     1      -8.780  19.770  66.536  1.00  0.00    -0.360 C  
HETATM   26  O   UNL     1      -7.633  20.011  65.859  1.00  0.00    -0.326 OA 
HETATM   27  O   UNL     1      -9.816  20.358  66.290  1.00  0.00    -0.382 OA 
ENDBRANCH  23  24
ENDBRANCH  22  23
ENDBRANCH  21  22
ENDBRANCH  20  21
ENDBRANCH  19  20
ENDBRANCH  18  19
ENDBRANCH  17  18
ENDBRANCH  15  16
ENDBRANCH  14  15
ENDBRANCH  13  14
ENDBRANCH  12  13
ENDBRANCH  11  12
ENDBRANCH  10  11
ENDBRANCH   6  10
TORSDOF 15
ENDMDL
MODEL       96
REMARK 921   NORMALIZED FREE ENERGY PREDICTED BY IDOCK:   -4.47 KCAL/MOL
REMARK 922        TOTAL FREE ENERGY PREDICTED BY IDOCK:  -10.34 KCAL/MOL
REMARK 923 INTER-LIGAND FREE ENERGY PREDICTED BY IDOCK:   -8.04 KCAL/MOL
REMARK 924 INTRA-LIGAND FREE ENERGY PREDICTED BY IDOCK:   -2.30 KCAL/MOL
REMARK 927      BINDING AFFINITY PREDICTED BY RF-SCORE:    0.00 PKD
ROOT
ATOM      1  N   GLY A   1      -9.678  13.476  65.956  1.00  0.00    -0.419 NA 
HETATM    2  C   UNL     1     -13.948  15.023  71.228  1.00  0.00    -0.525 C  
ATOM      3  H2  GLY A   1      -9.327  14.433  65.977  1.00  0.00     0.000 HD 
ATOM      4  H1  GLY A   1      -9.033  12.824  66.401  1.00  0.00     0.000 HD 
ATOM      5  CA  GLY A   1     -11.011  13.367  66.566  1.00  0.00    -0.290 C  
HETATM    6  C   UNL     1     -13.154  14.109  72.149  1.00  0.00    -0.489 C  
ENDROOT
BRANCH   5   7
ATOM      7  C   GLY A   1     -11.980  14.346  65.897  1.00  0.00    -0.359 C  
ATOM      8  H   GLY A   1     -13.660  14.230  64.895  1.00  0.00     0.000 HD 
ATOM      9  O   GLY A   1     -13.059  13.623  65.310  1.00  0.00    -0.735 OA 
ENDBRANCH   5   7
BRANCH   6  10
HETATM   10  C   UNL     1     -13.494  12.628  71.986  1.00  0.00    -0.516 C  
BRANCH  10  11
HETATM   11  C   UNL     1     -12.465  11.825  71.187  1.00  0.00    -0.390 C  
BRANCH  11  12
HETATM   12  C   UNL     1     -13.030  10.439  70.864  1.00  0.00    -0.475 C  
BRANCH  12  13
HETATM   13  C   UNL     1     -12.316   9.328  71.633  1.00  0.00    -0.450 C  
BRANCH  13  14
HETATM   14  C   UNL     1     -10.787   9.411  71.522  1.00  0.00    -0.398 C  
BRANCH  14  15
HETATM   15  C   UNL     1     -10.008   8.471  72.450  1.00  0.00    -0.365 C  
BRANCH  15  16
HETATM   16  C   UNL     1     -10.827   7.344  73.018  1.00  0.00    -0.423 C  
HETATM   17  C   UNL     1     -10.341   6.132  73.328  1.00  0.00    -0.242 C  
BRANCH  17  18
HETATM   18  C   UNL     1      -8.924   5.683  73.125  1.00  0.00    -0.121 C  
BRANCH  18  19
HETATM   19  C   UNL     1      -8.662   5.264  71.680  1.00  0.00    -0.140 C  
BRANCH  19  20
HETATM   20  C   UNL     1      -9.861   4.491  71.131  1.00  0.00    -0.263 C  
BRANCH  20  21
HETATM   21  C   UNL     1     -10.405   5.138  69.860  1.00  0.00    -0.347 C  
BRANCH  21  22
HETATM   22  C   UNL     1      -9.526   6.303  69.415  1.00  0.00    -0.148 C  
BRANCH  22  23
HETATM   23  C   UNL     1     -10.311   7.265  68.526  1.00  0.00    -0.210 C  
BRANCH  23  24
HETATM   24  C   UNL     1      -9.386   8.166  67.715  1.00  0.00    -0.149 C  
HETATM   25  C   UNL     1      -9.957   9.558  67.564  1.00  0.00    -0.186 C  
HETATM   26  O   UNL     1      -9.134  10.370  66.861  1.00  0.00    -0.142 OA 
HETATM   27  O   UNL     1     -11.022   9.939  68.011  1.00  0.00    -0.257 OA 
ENDBRANCH  23  24
ENDBRANCH  22  23
ENDBRANCH  21  22
ENDBRANCH  20  21
ENDBRANCH  19  20
ENDBRANCH  18  19
ENDBRANCH  17  18
ENDBRANCH  15  16
ENDBRANCH  14  15
ENDBRANCH  13  14
ENDBRANCH  12  13
ENDBRANCH  11  12
ENDBRANCH  10  11
ENDBRANCH   6  10
TORSDOF 15
ENDMDL
MODEL       97
REMARK 921   NORMALIZED FREE ENERGY PREDICTED BY IDOCK:   -4.46 KCAL/MOL
REMARK 922        TOTAL FREE ENERGY PREDICTED BY IDOCK:  -10.32 KCAL/MOL
REMARK 923 INTER-LIGAND FREE ENERGY PREDICTED BY IDOCK:   -7.89 KCAL/MOL
REMARK 924 INTRA-LIGAND FREE ENERGY PREDICTED BY IDOCK:   -2.44 KCAL/MOL
REMARK 927      BINDING AFFINITY PREDICTED BY RF-SCORE:    0.00 PKD
ROOT
ATOM      1  N   GLY A   1     -12.225  11.551  62.873  1.00  0.00    -0.855 NA 
HETATM    2  C   UNL     1      -7.405  13.305  67.574  1.00  0.00    -0.159 C  
ATOM      3  H2  GLY A   1     -11.626  11.924  62.137  1.00  0.00     0.000 HD 
ATOM      4  H1  GLY A   1     -12.189  10.532  62.913  1.00  0.00     0.000 HD 
ATOM      5  CA  GLY A   1     -11.904  12.123  64.187  1.00  0.00    -0.404 C  
HETATM    6  C   UNL     1      -7.123  11.835  67.844  1.00  0.00    -0.087 C  
ENDROOT
BRANCH   5   7
ATOM      7  C   GLY A   1     -11.959  13.652  64.126  1.00  0.00    -0.443 C  
ATOM      8  H   GLY A   1     -13.026  15.075  64.949  1.00  0.00     0.000 HD 
ATOM      9  O   GLY A   1     -12.992  14.127  64.986  1.00  0.00    -0.721 OA 
ENDBRANCH   5   7
BRANCH   6  10
HETATM   10  C   UNL     1      -8.140  11.174  68.772  1.00  0.00    -0.140 C  
BRANCH  10  11
HETATM   11  C   UNL     1      -7.523  10.335  69.895  1.00  0.00    -0.165 C  
BRANCH  11  12
HETATM   12  C   UNL     1      -8.338   9.055  70.091  1.00  0.00    -0.156 C  
BRANCH  12  13
HETATM   13  C   UNL     1      -8.556   8.726  71.567  1.00  0.00    -0.253 C  
BRANCH  13  14
HETATM   14  C   UNL     1     -10.040   8.663  71.954  1.00  0.00    -0.398 C  
BRANCH  14  15
HETATM   15  C   UNL     1     -11.017   8.477  70.786  1.00  0.00    -0.282 C  
BRANCH  15  16
HETATM   16  C   UNL     1     -11.737   7.156  70.787  1.00  0.00    -0.363 C  
HETATM   17  C   UNL     1     -11.356   6.082  70.077  1.00  0.00    -0.354 C  
BRANCH  17  18
HETATM   18  C   UNL     1     -10.186   6.028  69.140  1.00  0.00    -0.258 C  
BRANCH  18  19
HETATM   19  C   UNL     1     -10.630   5.906  67.684  1.00  0.00    -0.335 C  
BRANCH  19  20
HETATM   20  C   UNL     1     -11.020   7.278  67.136  1.00  0.00    -0.285 C  
BRANCH  20  21
HETATM   21  C   UNL     1      -9.794   8.158  66.916  1.00  0.00    -0.316 C  
BRANCH  21  22
HETATM   22  C   UNL     1     -10.195   9.585  66.553  1.00  0.00    -0.307 C  
BRANCH  22  23
HETATM   23  C   UNL     1     -11.142  10.164  67.602  1.00  0.00    -0.275 C  
BRANCH  23  24
HETATM   24  C   UNL     1     -11.353  11.662  67.404  1.00  0.00    -0.367 C  
HETATM   25  C   UNL     1     -11.634  12.362  68.714  1.00  0.00    -0.326 C  
HETATM   26  O   UNL     1     -11.805  13.695  68.552  1.00  0.00    -0.336 OA 
HETATM   27  O   UNL     1     -11.701  11.825  69.804  1.00  0.00    -0.301 OA 
ENDBRANCH  23  24
ENDBRANCH  22  23
ENDBRANCH  21  22
ENDBRANCH  20  21
ENDBRANCH  19  20
ENDBRANCH  18  19
ENDBRANCH  17  18
ENDBRANCH  15  16
ENDBRANCH  14  15
ENDBRANCH  13  14
ENDBRANCH  12  13
ENDBRANCH  11  12
ENDBRANCH  10  11
ENDBRANCH   6  10
TORSDOF 15
ENDMDL
MODEL       98
REMARK 921   NORMALIZED FREE ENERGY PREDICTED BY IDOCK:   -4.46 KCAL/MOL
REMARK 922        TOTAL FREE ENERGY PREDICTED BY IDOCK:  -10.32 KCAL/MOL
REMARK 923 INTER-LIGAND FREE ENERGY PREDICTED BY IDOCK:   -8.28 KCAL/MOL
REMARK 924 INTRA-LIGAND FREE ENERGY PREDICTED BY IDOCK:   -2.05 KCAL/MOL
REMARK 927      BINDING AFFINITY PREDICTED BY RF-SCORE:    0.00 PKD
ROOT
ATOM      1  N   GLY A   1      -5.292  12.729  71.487  1.00  0.00    -0.360 NA 
HETATM    2  C   UNL     1     -11.361  15.767  69.957  1.00  0.00    -0.354 C  
ATOM      3  H2  GLY A   1      -5.366  13.089  72.438  1.00  0.00     0.000 HD 
ATOM      4  H1  GLY A   1      -5.539  11.742  71.433  1.00  0.00     0.000 HD 
ATOM      5  CA  GLY A   1      -6.102  13.508  70.541  1.00  0.00    -0.077 C  
HETATM    6  C   UNL     1     -12.017  14.403  69.814  1.00  0.00    -0.385 C  
ENDROOT
BRANCH   5   7
ATOM      7  C   GLY A   1      -5.731  14.992  70.622  1.00  0.00    -0.123 C  
ATOM      8  H   GLY A   1      -6.281  16.651  69.736  1.00  0.00     0.000 HD 
ATOM      9  O   GLY A   1      -6.511  15.730  69.686  1.00  0.00    -0.166 OA 
ENDBRANCH   5   7
BRANCH   6  10
HETATM   10  C   UNL     1     -11.739  13.724  68.474  1.00  0.00    -0.391 C  
BRANCH  10  11
HETATM   11  C   UNL     1     -11.709  14.676  67.275  1.00  0.00    -0.406 C  
BRANCH  11  12
HETATM   12  C   UNL     1     -10.428  14.452  66.468  1.00  0.00    -0.289 C  
BRANCH  12  13
HETATM   13  C   UNL     1     -10.663  14.562  64.963  1.00  0.00    -0.444 C  
BRANCH  13  14
HETATM   14  C   UNL     1     -12.092  14.180  64.551  1.00  0.00    -0.489 C  
BRANCH  14  15
HETATM   15  C   UNL     1     -12.329  12.686  64.302  1.00  0.00    -0.517 C  
BRANCH  15  16
HETATM   16  C   UNL     1     -11.296  12.035  63.423  1.00  0.00    -0.484 C  
HETATM   17  C   UNL     1     -10.467  11.057  63.820  1.00  0.00    -0.408 C  
BRANCH  17  18
HETATM   18  C   UNL     1     -10.398  10.480  65.204  1.00  0.00    -0.310 C  
BRANCH  18  19
HETATM   19  C   UNL     1      -9.119  10.893  65.928  1.00  0.00    -0.212 C  
BRANCH  19  20
HETATM   20  C   UNL     1      -9.366  10.964  67.435  1.00  0.00    -0.166 C  
BRANCH  20  21
HETATM   21  C   UNL     1     -10.451   9.982  67.866  1.00  0.00    -0.276 C  
BRANCH  21  22
HETATM   22  C   UNL     1     -11.424  10.631  68.846  1.00  0.00    -0.334 C  
BRANCH  22  23
HETATM   23  C   UNL     1     -10.994  10.373  70.288  1.00  0.00    -0.353 C  
BRANCH  23  24
HETATM   24  C   UNL     1     -11.890   9.343  70.968  1.00  0.00    -0.396 C  
HETATM   25  C   UNL     1     -13.046  10.000  71.688  1.00  0.00    -0.445 C  
HETATM   26  O   UNL     1     -13.857   9.092  72.279  1.00  0.00    -0.450 OA 
HETATM   27  O   UNL     1     -13.256  11.196  71.745  1.00  0.00    -0.442 OA 
ENDBRANCH  23  24
ENDBRANCH  22  23
ENDBRANCH  21  22
ENDBRANCH  20  21
ENDBRANCH  19  20
ENDBRANCH  18  19
ENDBRANCH  17  18
ENDBRANCH  15  16
ENDBRANCH  14  15
ENDBRANCH  13  14
ENDBRANCH  12  13
ENDBRANCH  11  12
ENDBRANCH  10  11
ENDBRANCH   6  10
TORSDOF 15
ENDMDL
MODEL       99
REMARK 921   NORMALIZED FREE ENERGY PREDICTED BY IDOCK:   -4.45 KCAL/MOL
REMARK 922        TOTAL FREE ENERGY PREDICTED BY IDOCK:  -10.30 KCAL/MOL
REMARK 923 INTER-LIGAND FREE ENERGY PREDICTED BY IDOCK:   -8.85 KCAL/MOL
REMARK 924 INTRA-LIGAND FREE ENERGY PREDICTED BY IDOCK:   -1.45 KCAL/MOL
REMARK 927      BINDING AFFINITY PREDICTED BY RF-SCORE:    0.00 PKD
ROOT
ATOM      1  N   GLY A   1     -14.406   9.008  73.203  1.00  0.00    -1.133 NA 
HETATM    2  C   UNL     1     -10.538   6.306  68.089  1.00  0.00    -0.318 C  
ATOM      3  H2  GLY A   1     -15.231   8.915  72.610  1.00  0.00     0.000 HD 
ATOM      4  H1  GLY A   1     -14.358   8.271  73.906  1.00  0.00     0.000 HD 
ATOM      5  CA  GLY A   1     -13.166   9.041  72.416  1.00  0.00    -0.447 C  
HETATM    6  C   UNL     1     -10.296   5.057  68.922  1.00  0.00    -0.134 C  
ENDROOT
BRANCH   5   7
ATOM      7  C   GLY A   1     -13.238  10.148  71.360  1.00  0.00    -0.380 C  
ATOM      8  H   GLY A   1     -12.025  10.946  70.045  1.00  0.00     0.000 HD 
ATOM      9  O   GLY A   1     -11.980  10.260  70.700  1.00  0.00    -0.291 OA 
ENDBRANCH   5   7
BRANCH   6  10
HETATM   10  C   UNL     1      -9.211   5.228  69.984  1.00  0.00    -0.180 C  
BRANCH  10  11
HETATM   11  C   UNL     1      -9.591   6.162  71.135  1.00  0.00    -0.193 C  
BRANCH  11  12
HETATM   12  C   UNL     1      -8.570   7.299  71.237  1.00  0.00    -0.119 C  
BRANCH  12  13
HETATM   13  C   UNL     1      -9.190   8.663  70.940  1.00  0.00    -0.234 C  
BRANCH  13  14
HETATM   14  C   UNL     1      -8.192   9.651  70.319  1.00  0.00    -0.217 C  
BRANCH  14  15
HETATM   15  C   UNL     1      -8.115   9.635  68.788  1.00  0.00    -0.097 C  
BRANCH  15  16
HETATM   16  C   UNL     1      -9.447   9.772  68.101  1.00  0.00    -0.146 C  
HETATM   17  C   UNL     1      -9.619   9.780  66.770  1.00  0.00    -0.228 C  
BRANCH  17  18
HETATM   18  C   UNL     1      -8.523   9.697  65.749  1.00  0.00    -0.142 C  
BRANCH  18  19
HETATM   19  C   UNL     1      -8.917  10.370  64.436  1.00  0.00    -0.247 C  
BRANCH  19  20
HETATM   20  C   UNL     1     -10.405  10.721  64.451  1.00  0.00    -0.405 C  
BRANCH  20  21
HETATM   21  C   UNL     1     -10.706  11.901  63.532  1.00  0.00    -0.504 C  
BRANCH  21  22
HETATM   22  C   UNL     1     -12.186  12.270  63.575  1.00  0.00    -0.669 C  
BRANCH  22  23
HETATM   23  C   UNL     1     -12.366  13.749  63.908  1.00  0.00    -0.346 C  
BRANCH  23  24
HETATM   24  C   UNL     1     -11.208  14.283  64.746  1.00  0.00    -0.387 C  
HETATM   25  C   UNL     1     -11.049  15.778  64.587  1.00  0.00    -0.361 C  
HETATM   26  O   UNL     1     -10.036  16.264  65.341  1.00  0.00    -0.519 OA 
HETATM   27  O   UNL     1     -11.735  16.492  63.880  1.00  0.00    -1.148 OA 
ENDBRANCH  23  24
ENDBRANCH  22  23
ENDBRANCH  21  22
ENDBRANCH  20  21
ENDBRANCH  19  20
ENDBRANCH  18  19
ENDBRANCH  17  18
ENDBRANCH  15  16
ENDBRANCH  14  15
ENDBRANCH  13  14
ENDBRANCH  12  13
ENDBRANCH  11  12
ENDBRANCH  10  11
ENDBRANCH   6  10
TORSDOF 15
ENDMDL
MODEL      100
REMARK 921   NORMALIZED FREE ENERGY PREDICTED BY IDOCK:   -4.45 KCAL/MOL
REMARK 922        TOTAL FREE ENERGY PREDICTED BY IDOCK:  -10.30 KCAL/MOL
REMARK 923 INTER-LIGAND FREE ENERGY PREDICTED BY IDOCK:   -8.53 KCAL/MOL
REMARK 924 INTRA-LIGAND FREE ENERGY PREDICTED BY IDOCK:   -1.76 KCAL/MOL
REMARK 927      BINDING AFFINITY PREDICTED BY RF-SCORE:    0.00 PKD
ROOT
ATOM      1  N   GLY A   1      -8.099   2.665  63.347  1.00  0.00    -0.073 NA 
HETATM    2  C   UNL     1     -10.660   7.839  67.230  1.00  0.00    -0.376 C  
ATOM      3  H2  GLY A   1      -7.811   3.349  62.648  1.00  0.00     0.000 HD 
ATOM      4  H1  GLY A   1      -7.315   2.350  63.917  1.00  0.00     0.000 HD 
ATOM      5  CA  GLY A   1      -9.178   3.176  64.203  1.00  0.00    -0.120 C  
HETATM    6  C   UNL     1      -9.577   7.603  68.272  1.00  0.00    -0.160 C  
ENDROOT
BRANCH   5   7
ATOM      7  C   GLY A   1     -10.356   3.648  63.346  1.00  0.00    -0.224 C  
ATOM      8  H   GLY A   1     -12.074   2.914  62.753  1.00  0.00     0.000 HD 
ATOM      9  O   GLY A   1     -11.343   2.622  63.285  1.00  0.00    -0.302 OA 
ENDBRANCH   5   7
BRANCH   6  10
HETATM   10  C   UNL     1      -9.868   6.430  69.206  1.00  0.00    -0.167 C  
BRANCH  10  11
HETATM   11  C   UNL     1     -11.350   6.234  69.536  1.00  0.00    -0.475 C  
BRANCH  11  12
HETATM   12  C   UNL     1     -11.552   6.273  71.053  1.00  0.00    -0.337 C  
BRANCH  12  13
HETATM   13  C   UNL     1     -12.747   7.133  71.458  1.00  0.00    -0.433 C  
BRANCH  13  14
HETATM   14  C   UNL     1     -12.345   8.369  72.275  1.00  0.00    -0.436 C  
BRANCH  14  15
HETATM   15  C   UNL     1     -12.558   9.718  71.577  1.00  0.00    -0.493 C  
BRANCH  15  16
HETATM   16  C   UNL     1     -11.671   9.943  70.383  1.00  0.00    -0.333 C  
HETATM   17  C   UNL     1     -11.463  11.136  69.804  1.00  0.00    -0.388 C  
BRANCH  17  18
HETATM   18  C   UNL     1     -12.104  12.429  70.217  1.00  0.00    -0.377 C  
BRANCH  18  19
HETATM   19  C   UNL     1     -11.555  13.613  69.424  1.00  0.00    -0.368 C  
BRANCH  19  20
HETATM   20  C   UNL     1     -10.383  13.164  68.552  1.00  0.00    -0.245 C  
BRANCH  20  21
HETATM   21  C   UNL     1     -10.541  13.652  67.115  1.00  0.00    -0.272 C  
BRANCH  21  22
HETATM   22  C   UNL     1     -11.860  14.396  66.927  1.00  0.00    -0.433 C  
BRANCH  22  23
HETATM   23  C   UNL     1     -12.752  13.670  65.923  1.00  0.00    -0.428 C  
BRANCH  23  24
HETATM   24  C   UNL     1     -12.043  12.471  65.302  1.00  0.00    -0.500 C  
HETATM   25  C   UNL     1     -11.991  12.574  63.795  1.00  0.00    -0.517 C  
HETATM   26  O   UNL     1     -11.347  11.524  63.235  1.00  0.00    -0.317 OA 
HETATM   27  O   UNL     1     -12.457  13.481  63.131  1.00  0.00    -0.759 OA 
ENDBRANCH  23  24
ENDBRANCH  22  23
ENDBRANCH  21  22
ENDBRANCH  20  21
ENDBRANCH  19  20
ENDBRANCH  18  19
ENDBRANCH  17  18
ENDBRANCH  15  16
ENDBRANCH  14  15
ENDBRANCH  13  14
ENDBRANCH  12  13
ENDBRANCH  11  12
ENDBRANCH  10  11
ENDBRANCH   6  10
TORSDOF 15
ENDMDL
MODEL      101
REMARK 921   NORMALIZED FREE ENERGY PREDICTED BY IDOCK:   -4.45 KCAL/MOL
REMARK 922        TOTAL FREE ENERGY PREDICTED BY IDOCK:  -10.29 KCAL/MOL
REMARK 923 INTER-LIGAND FREE ENERGY PREDICTED BY IDOCK:   -8.52 KCAL/MOL
REMARK 924 INTRA-LIGAND FREE ENERGY PREDICTED BY IDOCK:   -1.77 KCAL/MOL
REMARK 927      BINDING AFFINITY PREDICTED BY RF-SCORE:    0.00 PKD
ROOT
ATOM      1  N   GLY A   1     -13.017  11.748  62.918  1.00  0.00    -0.784 NA 
HETATM    2  C   UNL     1      -8.591   7.659  66.398  1.00  0.00    -0.149 C  
ATOM      3  H2  GLY A   1     -12.780  11.252  62.059  1.00  0.00     0.000 HD 
ATOM      4  H1  GLY A   1     -13.914  11.445  63.296  1.00  0.00     0.000 HD 
ATOM      5  CA  GLY A   1     -11.966  11.616  63.936  1.00  0.00    -0.218 C  
HETATM    6  C   UNL     1      -9.755   7.006  67.126  1.00  0.00    -0.206 C  
ENDROOT
BRANCH   5   7
ATOM      7  C   GLY A   1     -10.619  12.070  63.368  1.00  0.00    -0.428 C  
ATOM      8  H   GLY A   1      -9.279  13.436  63.791  1.00  0.00     0.000 HD 
ATOM      9  O   GLY A   1     -10.115  13.154  64.144  1.00  0.00    -0.335 OA 
ENDBRANCH   5   7
BRANCH   6  10
HETATM   10  C   UNL     1     -10.292   7.833  68.293  1.00  0.00    -0.239 C  
BRANCH  10  11
HETATM   11  C   UNL     1      -9.271   8.787  68.918  1.00  0.00    -0.141 C  
BRANCH  11  12
HETATM   12  C   UNL     1      -9.956  10.104  69.292  1.00  0.00    -0.234 C  
BRANCH  12  13
HETATM   13  C   UNL     1     -10.896  10.601  68.195  1.00  0.00    -0.291 C  
BRANCH  13  14
HETATM   14  C   UNL     1     -11.954  11.585  68.715  1.00  0.00    -0.335 C  
BRANCH  14  15
HETATM   15  C   UNL     1     -11.806  11.995  70.185  1.00  0.00    -0.383 C  
BRANCH  15  16
HETATM   16  C   UNL     1     -12.859  11.423  71.095  1.00  0.00    -0.440 C  
HETATM   17  C   UNL     1     -13.478  12.110  72.068  1.00  0.00    -0.388 C  
BRANCH  17  18
HETATM   18  C   UNL     1     -13.201  13.537  72.440  1.00  0.00    -0.577 C  
BRANCH  18  19
HETATM   19  C   UNL     1     -14.353  14.459  72.050  1.00  0.00    -0.636 C  
BRANCH  19  20
HETATM   20  C   UNL     1     -13.908  15.424  70.951  1.00  0.00    -0.245 C  
BRANCH  20  21
HETATM   21  C   UNL     1     -12.387  15.506  70.868  1.00  0.00    -0.474 C  
BRANCH  21  22
HETATM   22  C   UNL     1     -11.919  15.622  69.420  1.00  0.00    -0.349 C  
BRANCH  22  23
HETATM   23  C   UNL     1     -10.666  16.488  69.323  1.00  0.00    -0.331 C  
BRANCH  23  24
HETATM   24  C   UNL     1     -10.576  17.202  67.978  1.00  0.00    -0.374 C  
HETATM   25  C   UNL     1      -9.693  16.451  67.007  1.00  0.00    -0.248 C  
HETATM   26  O   UNL     1      -9.622  17.067  65.804  1.00  0.00    -0.525 OA 
HETATM   27  O   UNL     1      -9.106  15.411  67.242  1.00  0.00    -0.194 OA 
ENDBRANCH  23  24
ENDBRANCH  22  23
ENDBRANCH  21  22
ENDBRANCH  20  21
ENDBRANCH  19  20
ENDBRANCH  18  19
ENDBRANCH  17  18
ENDBRANCH  15  16
ENDBRANCH  14  15
ENDBRANCH  13  14
ENDBRANCH  12  13
ENDBRANCH  11  12
ENDBRANCH  10  11
ENDBRANCH   6  10
TORSDOF 15
ENDMDL
MODEL      102
REMARK 921   NORMALIZED FREE ENERGY PREDICTED BY IDOCK:   -4.43 KCAL/MOL
REMARK 922        TOTAL FREE ENERGY PREDICTED BY IDOCK:  -10.27 KCAL/MOL
REMARK 923 INTER-LIGAND FREE ENERGY PREDICTED BY IDOCK:   -8.96 KCAL/MOL
REMARK 924 INTRA-LIGAND FREE ENERGY PREDICTED BY IDOCK:   -1.31 KCAL/MOL
REMARK 927      BINDING AFFINITY PREDICTED BY RF-SCORE:    0.00 PKD
ROOT
ATOM      1  N   GLY A   1      -8.723  14.673  67.054  1.00  0.00    -0.227 NA 
HETATM    2  C   UNL     1     -14.152  14.903  71.399  1.00  0.00    -0.552 C  
ATOM      3  H2  GLY A   1      -8.598  15.678  67.176  1.00  0.00     0.000 HD 
ATOM      4  H1  GLY A   1      -8.048  14.137  67.598  1.00  0.00     0.000 HD 
ATOM      5  CA  GLY A   1     -10.091  14.246  67.376  1.00  0.00    -0.247 C  
HETATM    6  C   UNL     1     -13.369  14.105  72.431  1.00  0.00    -0.591 C  
ENDROOT
BRANCH   5   7
ATOM      7  C   GLY A   1     -11.104  15.052  66.558  1.00  0.00    -0.329 C  
ATOM      8  H   GLY A   1     -12.915  14.778  65.861  1.00  0.00     0.000 HD 
ATOM      9  O   GLY A   1     -12.286  14.278  66.368  1.00  0.00    -0.448 OA 
ENDBRANCH   5   7
BRANCH   6  10
HETATM   10  C   UNL     1     -13.342  12.602  72.154  1.00  0.00    -0.570 C  
BRANCH  10  11
HETATM   11  C   UNL     1     -12.598  12.206  70.876  1.00  0.00    -0.340 C  
BRANCH  11  12
HETATM   12  C   UNL     1     -12.536  10.680  70.767  1.00  0.00    -0.480 C  
BRANCH  12  13
HETATM   13  C   UNL     1     -13.218   9.985  71.944  1.00  0.00    -0.557 C  
BRANCH  13  14
HETATM   14  C   UNL     1     -12.720   8.550  72.161  1.00  0.00    -0.423 C  
BRANCH  14  15
HETATM   15  C   UNL     1     -11.319   8.249  71.617  1.00  0.00    -0.329 C  
BRANCH  15  16
HETATM   16  C   UNL     1     -10.962   6.787  71.602  1.00  0.00    -0.267 C  
HETATM   17  C   UNL     1     -10.882   6.035  70.493  1.00  0.00    -0.382 C  
BRANCH  17  18
HETATM   18  C   UNL     1     -11.172   6.506  69.098  1.00  0.00    -0.367 C  
BRANCH  18  19
HETATM   19  C   UNL     1     -10.022   7.334  68.528  1.00  0.00    -0.168 C  
BRANCH  19  20
HETATM   20  C   UNL     1      -9.696   6.875  67.107  1.00  0.00    -0.197 C  
BRANCH  20  21
HETATM   21  C   UNL     1      -9.208   8.036  66.247  1.00  0.00    -0.237 C  
BRANCH  21  22
HETATM   22  C   UNL     1     -10.130   9.246  66.378  1.00  0.00    -0.337 C  
BRANCH  22  23
HETATM   23  C   UNL     1      -9.637  10.399  65.507  1.00  0.00    -0.290 C  
BRANCH  23  24
HETATM   24  C   UNL     1     -10.774  11.341  65.123  1.00  0.00    -0.312 C  
HETATM   25  C   UNL     1     -10.571  11.924  63.743  1.00  0.00    -0.422 C  
HETATM   26  O   UNL     1     -11.585  12.747  63.386  1.00  0.00    -0.499 OA 
HETATM   27  O   UNL     1      -9.626  11.699  63.011  1.00  0.00    -0.392 OA 
ENDBRANCH  23  24
ENDBRANCH  22  23
ENDBRANCH  21  22
ENDBRANCH  20  21
ENDBRANCH  19  20
ENDBRANCH  18  19
ENDBRANCH  17  18
ENDBRANCH  15  16
ENDBRANCH  14  15
ENDBRANCH  13  14
ENDBRANCH  12  13
ENDBRANCH  11  12
ENDBRANCH  10  11
ENDBRANCH   6  10
TORSDOF 15
ENDMDL
MODEL      103
REMARK 921   NORMALIZED FREE ENERGY PREDICTED BY IDOCK:   -4.43 KCAL/MOL
REMARK 922        TOTAL FREE ENERGY PREDICTED BY IDOCK:  -10.27 KCAL/MOL
REMARK 923 INTER-LIGAND FREE ENERGY PREDICTED BY IDOCK:   -8.25 KCAL/MOL
REMARK 924 INTRA-LIGAND FREE ENERGY PREDICTED BY IDOCK:   -2.02 KCAL/MOL
REMARK 927      BINDING AFFINITY PREDICTED BY RF-SCORE:    0.00 PKD
ROOT
ATOM      1  N   GLY A   1      -7.504   3.348  67.310  1.00  0.00    -0.066 NA 
HETATM    2  C   UNL     1     -10.008   9.735  66.151  1.00  0.00    -0.338 C  
ATOM      3  H2  GLY A   1      -7.210   3.301  66.334  1.00  0.00     0.000 HD 
ATOM      4  H1  GLY A   1      -6.721   3.546  67.933  1.00  0.00     0.000 HD 
ATOM      5  CA  GLY A   1      -8.576   4.332  67.512  1.00  0.00    -0.104 C  
HETATM    6  C   UNL     1      -8.926  10.329  67.039  1.00  0.00    -0.147 C  
ENDROOT
BRANCH   5   7
ATOM      7  C   GLY A   1      -9.750   4.035  66.575  1.00  0.00    -0.191 C  
ATOM      8  H   GLY A   1     -11.364   4.968  65.970  1.00  0.00     0.000 HD 
ATOM      9  O   GLY A   1     -10.635   5.152  66.551  1.00  0.00    -0.288 OA 
ENDBRANCH   5   7
BRANCH   6  10
HETATM   10  C   UNL     1      -9.228  10.216  68.533  1.00  0.00    -0.144 C  
BRANCH  10  11
HETATM   11  C   UNL     1      -8.704   8.938  69.192  1.00  0.00    -0.132 C  
BRANCH  11  12
HETATM   12  C   UNL     1      -9.775   8.357  70.119  1.00  0.00    -0.175 C  
BRANCH  12  13
HETATM   13  C   UNL     1     -10.706   7.387  69.394  1.00  0.00    -0.220 C  
BRANCH  13  14
HETATM   14  C   UNL     1     -11.678   6.670  70.342  1.00  0.00    -0.446 C  
BRANCH  14  15
HETATM   15  C   UNL     1     -11.916   7.363  71.689  1.00  0.00    -0.339 C  
BRANCH  15  16
HETATM   16  C   UNL     1     -13.288   7.961  71.843  1.00  0.00    -0.318 C  
HETATM   17  C   UNL     1     -13.579   9.257  71.652  1.00  0.00    -0.448 C  
BRANCH  17  18
HETATM   18  C   UNL     1     -12.590  10.329  71.299  1.00  0.00    -0.522 C  
BRANCH  18  19
HETATM   19  C   UNL     1     -13.030  11.698  71.813  1.00  0.00    -0.483 C  
BRANCH  19  20
HETATM   20  C   UNL     1     -12.464  12.802  70.921  1.00  0.00    -0.373 C  
BRANCH  20  21
HETATM   21  C   UNL     1     -11.949  12.240  69.599  1.00  0.00    -0.347 C  
BRANCH  21  22
HETATM   22  C   UNL     1     -11.773  13.344  68.561  1.00  0.00    -0.392 C  
BRANCH  22  23
HETATM   23  C   UNL     1     -11.941  12.790  67.148  1.00  0.00    -0.351 C  
BRANCH  23  24
HETATM   24  C   UNL     1     -11.815  13.886  66.094  1.00  0.00    -0.422 C  
HETATM   25  C   UNL     1     -12.571  13.535  64.833  1.00  0.00    -0.342 C  
HETATM   26  O   UNL     1     -12.480  14.510  63.899  1.00  0.00    -0.814 OA 
HETATM   27  O   UNL     1     -13.201  12.511  64.647  1.00  0.00    -0.848 OA 
ENDBRANCH  23  24
ENDBRANCH  22  23
ENDBRANCH  21  22
ENDBRANCH  20  21
ENDBRANCH  19  20
ENDBRANCH  18  19
ENDBRANCH  17  18
ENDBRANCH  15  16
ENDBRANCH  14  15
ENDBRANCH  13  14
ENDBRANCH  12  13
ENDBRANCH  11  12
ENDBRANCH  10  11
ENDBRANCH   6  10
TORSDOF 15
ENDMDL
MODEL      104
REMARK 921   NORMALIZED FREE ENERGY PREDICTED BY IDOCK:   -4.43 KCAL/MOL
REMARK 922        TOTAL FREE ENERGY PREDICTED BY IDOCK:  -10.26 KCAL/MOL
REMARK 923 INTER-LIGAND FREE ENERGY PREDICTED BY IDOCK:   -8.74 KCAL/MOL
REMARK 924 INTRA-LIGAND FREE ENERGY PREDICTED BY IDOCK:   -1.53 KCAL/MOL
REMARK 927      BINDING AFFINITY PREDICTED BY RF-SCORE:    0.00 PKD
ROOT
ATOM      1  N   GLY A   1     -12.870  12.356  63.588  1.00  0.00    -0.780 NA 
HETATM    2  C   UNL     1      -9.139   7.159  66.322  1.00  0.00    -0.182 C  
ATOM      3  H2  GLY A   1     -12.764  11.931  62.667  1.00  0.00     0.000 HD 
ATOM      4  H1  GLY A   1     -13.792  12.177  63.985  1.00  0.00     0.000 HD 
ATOM      5  CA  GLY A   1     -11.822  11.919  64.519  1.00  0.00    -0.224 C  
HETATM    6  C   UNL     1     -10.374   6.643  67.044  1.00  0.00    -0.330 C  
ENDROOT
BRANCH   5   7
ATOM      7  C   GLY A   1     -10.438  12.189  63.922  1.00  0.00    -0.409 C  
ATOM      8  H   GLY A   1      -9.242  11.314  62.639  1.00  0.00     0.000 HD 
ATOM      9  O   GLY A   1     -10.100  11.147  63.010  1.00  0.00    -0.318 OA 
ENDBRANCH   5   7
BRANCH   6  10
HETATM   10  C   UNL     1     -10.701   7.408  68.326  1.00  0.00    -0.151 C  
BRANCH  10  11
HETATM   11  C   UNL     1     -10.958   6.521  69.547  1.00  0.00    -0.398 C  
BRANCH  11  12
HETATM   12  C   UNL     1     -10.240   7.102  70.768  1.00  0.00    -0.208 C  
BRANCH  12  13
HETATM   13  C   UNL     1     -11.042   6.918  72.055  1.00  0.00    -0.279 C  
BRANCH  13  14
HETATM   14  C   UNL     1     -11.658   8.227  72.568  1.00  0.00    -0.454 C  
BRANCH  14  15
HETATM   15  C   UNL     1     -12.886   8.725  71.795  1.00  0.00    -0.406 C  
BRANCH  15  16
HETATM   16  C   UNL     1     -13.136  10.203  71.918  1.00  0.00    -0.571 C  
HETATM   17  C   UNL     1     -12.510  11.143  71.192  1.00  0.00    -0.498 C  
BRANCH  17  18
HETATM   18  C   UNL     1     -11.437  10.888  70.175  1.00  0.00    -0.405 C  
BRANCH  18  19
HETATM   19  C   UNL     1     -11.908  11.212  68.760  1.00  0.00    -0.388 C  
BRANCH  19  20
HETATM   20  C   UNL     1     -11.609  12.673  68.426  1.00  0.00    -0.370 C  
BRANCH  20  21
HETATM   21  C   UNL     1     -10.162  12.856  67.978  1.00  0.00    -0.229 C  
BRANCH  21  22
HETATM   22  C   UNL     1     -10.028  14.031  67.013  1.00  0.00    -0.257 C  
BRANCH  22  23
HETATM   23  C   UNL     1      -9.689  15.315  67.767  1.00  0.00    -0.215 C  
BRANCH  23  24
HETATM   24  C   UNL     1     -10.465  16.510  67.223  1.00  0.00    -0.304 C  
HETATM   25  C   UNL     1      -9.653  17.287  66.211  1.00  0.00    -0.248 C  
HETATM   26  O   UNL     1     -10.341  18.339  65.709  1.00  0.00    -0.594 OA 
HETATM   27  O   UNL     1      -8.518  17.024  65.862  1.00  0.00    -0.519 OA 
ENDBRANCH  23  24
ENDBRANCH  22  23
ENDBRANCH  21  22
ENDBRANCH  20  21
ENDBRANCH  19  20
ENDBRANCH  18  19
ENDBRANCH  17  18
ENDBRANCH  15  16
ENDBRANCH  14  15
ENDBRANCH  13  14
ENDBRANCH  12  13
ENDBRANCH  11  12
ENDBRANCH  10  11
ENDBRANCH   6  10
TORSDOF 15
ENDMDL
MODEL      105
REMARK 921   NORMALIZED FREE ENERGY PREDICTED BY IDOCK:   -4.43 KCAL/MOL
REMARK 922        TOTAL FREE ENERGY PREDICTED BY IDOCK:  -10.26 KCAL/MOL
REMARK 923 INTER-LIGAND FREE ENERGY PREDICTED BY IDOCK:   -8.35 KCAL/MOL
REMARK 924 INTRA-LIGAND FREE ENERGY PREDICTED BY IDOCK:   -1.91 KCAL/MOL
REMARK 927      BINDING AFFINITY PREDICTED BY RF-SCORE:    0.00 PKD
ROOT
ATOM      1  N   GLY A   1     -12.248  14.026  63.254  1.00  0.00    -1.099 NA 
HETATM    2  C   UNL     1      -7.162  13.126  67.916  1.00  0.00    -0.133 C  
ATOM      3  H2  GLY A   1     -11.568  14.428  62.609  1.00  0.00     0.000 HD 
ATOM      4  H1  GLY A   1     -12.477  13.061  63.013  1.00  0.00     0.000 HD 
ATOM      5  CA  GLY A   1     -11.796  14.107  64.650  1.00  0.00    -0.431 C  
HETATM    6  C   UNL     1      -7.270  11.618  67.755  1.00  0.00    -0.101 C  
ENDROOT
BRANCH   5   7
ATOM      7  C   GLY A   1     -11.453  15.555  65.011  1.00  0.00    -0.218 C  
ATOM      8  H   GLY A   1     -11.209  17.246  64.051  1.00  0.00     0.000 HD 
ATOM      9  O   GLY A   1     -11.422  16.348  63.827  1.00  0.00    -1.002 OA 
ENDBRANCH   5   7
BRANCH   6  10
HETATM   10  C   UNL     1      -8.429  10.999  68.536  1.00  0.00    -0.153 C  
BRANCH  10  11
HETATM   11  C   UNL     1      -8.256   9.512  68.854  1.00  0.00    -0.116 C  
BRANCH  11  12
HETATM   12  C   UNL     1      -7.332   8.865  67.818  1.00  0.00    -0.085 C  
BRANCH  12  13
HETATM   13  C   UNL     1      -7.986   7.672  67.122  1.00  0.00    -0.117 C  
BRANCH  13  14
HETATM   14  C   UNL     1      -9.335   8.022  66.478  1.00  0.00    -0.261 C  
BRANCH  14  15
HETATM   15  C   UNL     1     -10.550   7.945  67.410  1.00  0.00    -0.342 C  
BRANCH  15  16
HETATM   16  C   UNL     1     -10.930   6.547  67.816  1.00  0.00    -0.407 C  
HETATM   17  C   UNL     1     -10.924   6.093  69.079  1.00  0.00    -0.436 C  
BRANCH  17  18
HETATM   18  C   UNL     1     -10.502   6.879  70.285  1.00  0.00    -0.227 C  
BRANCH  18  19
HETATM   19  C   UNL     1     -11.679   7.609  70.927  1.00  0.00    -0.291 C  
BRANCH  19  20
HETATM   20  C   UNL     1     -11.276   9.037  71.296  1.00  0.00    -0.385 C  
BRANCH  20  21
HETATM   21  C   UNL     1     -12.357  10.039  70.902  1.00  0.00    -0.438 C  
BRANCH  21  22
HETATM   22  C   UNL     1     -11.888  10.936  69.761  1.00  0.00    -0.419 C  
BRANCH  22  23
HETATM   23  C   UNL     1     -11.857  12.398  70.199  1.00  0.00    -0.341 C  
BRANCH  23  24
HETATM   24  C   UNL     1     -11.609  13.335  69.021  1.00  0.00    -0.359 C  
HETATM   25  C   UNL     1     -11.932  14.769  69.372  1.00  0.00    -0.303 C  
HETATM   26  O   UNL     1     -11.697  15.610  68.338  1.00  0.00    -0.367 OA 
HETATM   27  O   UNL     1     -12.350  15.158  70.446  1.00  0.00    -0.319 OA 
ENDBRANCH  23  24
ENDBRANCH  22  23
ENDBRANCH  21  22
ENDBRANCH  20  21
ENDBRANCH  19  20
ENDBRANCH  18  19
ENDBRANCH  17  18
ENDBRANCH  15  16
ENDBRANCH  14  15
ENDBRANCH  13  14
ENDBRANCH  12  13
ENDBRANCH  11  12
ENDBRANCH  10  11
ENDBRANCH   6  10
TORSDOF 15
ENDMDL
MODEL      106
REMARK 921   NORMALIZED FREE ENERGY PREDICTED BY IDOCK:   -4.43 KCAL/MOL
REMARK 922        TOTAL FREE ENERGY PREDICTED BY IDOCK:  -10.26 KCAL/MOL
REMARK 923 INTER-LIGAND FREE ENERGY PREDICTED BY IDOCK:   -8.08 KCAL/MOL
REMARK 924 INTRA-LIGAND FREE ENERGY PREDICTED BY IDOCK:   -2.17 KCAL/MOL
REMARK 927      BINDING AFFINITY PREDICTED BY RF-SCORE:    0.00 PKD
ROOT
ATOM      1  N   GLY A   1     -14.408  15.339  71.086  1.00  0.00    -0.788 NA 
HETATM    2  C   UNL     1     -10.349   9.689  71.003  1.00  0.00    -0.292 C  
ATOM      3  H2  GLY A   1     -13.850  15.735  70.330  1.00  0.00     0.000 HD 
ATOM      4  H1  GLY A   1     -15.292  14.960  70.748  1.00  0.00     0.000 HD 
ATOM      5  CA  GLY A   1     -13.669  14.314  71.835  1.00  0.00    -0.436 C  
HETATM    6  C   UNL     1     -11.506   8.855  70.476  1.00  0.00    -0.231 C  
ENDROOT
BRANCH   5   7
ATOM      7  C   GLY A   1     -12.341  14.883  72.342  1.00  0.00    -0.336 C  
ATOM      8  H   GLY A   1     -11.241  16.467  71.993  1.00  0.00     0.000 HD 
ATOM      9  O   GLY A   1     -12.065  16.114  71.678  1.00  0.00    -0.461 OA 
ENDBRANCH   5   7
BRANCH   6  10
HETATM   10  C   UNL     1     -12.498   8.427  71.557  1.00  0.00    -0.342 C  
BRANCH  10  11
HETATM   11  C   UNL     1     -12.532   6.921  71.826  1.00  0.00    -0.397 C  
BRANCH  11  12
HETATM   12  C   UNL     1     -11.181   6.465  72.384  1.00  0.00    -0.313 C  
BRANCH  12  13
HETATM   13  C   UNL     1     -10.734   5.126  71.799  1.00  0.00    -0.203 C  
BRANCH  13  14
HETATM   14  C   UNL     1      -9.446   5.235  70.972  1.00  0.00    -0.211 C  
BRANCH  14  15
HETATM   15  C   UNL     1      -9.544   6.099  69.709  1.00  0.00    -0.174 C  
BRANCH  15  16
HETATM   16  C   UNL     1     -10.574   5.628  68.718  1.00  0.00    -0.286 C  
HETATM   17  C   UNL     1     -11.006   6.348  67.670  1.00  0.00    -0.441 C  
BRANCH  17  18
HETATM   18  C   UNL     1     -10.573   7.746  67.335  1.00  0.00    -0.345 C  
BRANCH  18  19
HETATM   19  C   UNL     1      -9.360   7.757  66.408  1.00  0.00    -0.237 C  
BRANCH  19  20
HETATM   20  C   UNL     1      -8.808   9.177  66.281  1.00  0.00    -0.176 C  
BRANCH  20  21
HETATM   21  C   UNL     1      -9.687  10.036  65.378  1.00  0.00    -0.368 C  
BRANCH  21  22
HETATM   22  C   UNL     1      -9.925  11.414  65.989  1.00  0.00    -0.269 C  
BRANCH  22  23
HETATM   23  C   UNL     1     -11.405  11.617  66.307  1.00  0.00    -0.293 C  
BRANCH  23  24
HETATM   24  C   UNL     1     -11.605  12.250  67.680  1.00  0.00    -0.421 C  
HETATM   25  C   UNL     1     -12.081  13.681  67.569  1.00  0.00    -0.316 C  
HETATM   26  O   UNL     1     -12.279  14.245  68.784  1.00  0.00    -0.301 OA 
HETATM   27  O   UNL     1     -12.277  14.283  66.531  1.00  0.00    -0.441 OA 
ENDBRANCH  23  24
ENDBRANCH  22  23
ENDBRANCH  21  22
ENDBRANCH  20  21
ENDBRANCH  19  20
ENDBRANCH  18  19
ENDBRANCH  17  18
ENDBRANCH  15  16
ENDBRANCH  14  15
ENDBRANCH  13  14
ENDBRANCH  12  13
ENDBRANCH  11  12
ENDBRANCH  10  11
ENDBRANCH   6  10
TORSDOF 15
ENDMDL
MODEL      107
REMARK 921   NORMALIZED FREE ENERGY PREDICTED BY IDOCK:   -4.42 KCAL/MOL
REMARK 922        TOTAL FREE ENERGY PREDICTED BY IDOCK:  -10.24 KCAL/MOL
REMARK 923 INTER-LIGAND FREE ENERGY PREDICTED BY IDOCK:   -9.03 KCAL/MOL
REMARK 924 INTRA-LIGAND FREE ENERGY PREDICTED BY IDOCK:   -1.21 KCAL/MOL
REMARK 927      BINDING AFFINITY PREDICTED BY RF-SCORE:    0.00 PKD
ROOT
ATOM      1  N   GLY A   1     -10.285  13.221  63.863  1.00  0.00    -0.735 NA 
HETATM    2  C   UNL     1     -10.512  19.612  66.604  1.00  0.00    -0.610 C  
ATOM      3  H2  GLY A   1     -10.152  13.635  62.941  1.00  0.00     0.000 HD 
ATOM      4  H1  GLY A   1      -9.412  12.864  64.250  1.00  0.00     0.000 HD 
ATOM      5  CA  GLY A   1     -10.910  14.162  64.802  1.00  0.00    -0.413 C  
HETATM    6  C   UNL     1      -9.188  19.364  67.310  1.00  0.00    -0.378 C  
ENDROOT
BRANCH   5   7
ATOM      7  C   GLY A   1     -12.221  14.698  64.221  1.00  0.00    -0.408 C  
ATOM      8  H   GLY A   1     -12.862  16.390  63.468  1.00  0.00     0.000 HD 
ATOM      9  O   GLY A   1     -12.048  16.057  63.828  1.00  0.00    -0.882 OA 
ENDBRANCH   5   7
BRANCH   6  10
HETATM   10  C   UNL     1      -9.320  18.544  68.593  1.00  0.00    -0.352 C  
BRANCH  10  11
HETATM   11  C   UNL     1      -9.109  17.040  68.408  1.00  0.00    -0.256 C  
BRANCH  11  12
HETATM   12  C   UNL     1      -9.948  16.270  69.433  1.00  0.00    -0.232 C  
BRANCH  12  13
HETATM   13  C   UNL     1     -11.197  15.650  68.810  1.00  0.00    -0.332 C  
BRANCH  13  14
HETATM   14  C   UNL     1     -12.269  15.293  69.849  1.00  0.00    -0.357 C  
BRANCH  14  15
HETATM   15  C   UNL     1     -12.131  13.905  70.488  1.00  0.00    -0.426 C  
BRANCH  15  16
HETATM   16  C   UNL     1     -11.782  12.810  69.517  1.00  0.00    -0.383 C  
HETATM   17  C   UNL     1     -12.015  11.505  69.727  1.00  0.00    -0.415 C  
BRANCH  17  18
HETATM   18  C   UNL     1     -12.617  10.915  70.968  1.00  0.00    -0.517 C  
BRANCH  18  19
HETATM   19  C   UNL     1     -11.826   9.708  71.465  1.00  0.00    -0.483 C  
BRANCH  19  20
HETATM   20  C   UNL     1     -10.460   9.655  70.780  1.00  0.00    -0.375 C  
BRANCH  20  21
HETATM   21  C   UNL     1     -10.124   8.240  70.320  1.00  0.00    -0.195 C  
BRANCH  21  22
HETATM   22  C   UNL     1     -11.387   7.403  70.141  1.00  0.00    -0.200 C  
BRANCH  22  23
HETATM   23  C   UNL     1     -11.372   6.195  71.074  1.00  0.00    -0.348 C  
BRANCH  23  24
HETATM   24  C   UNL     1     -10.014   6.017  71.746  1.00  0.00    -0.199 C  
HETATM   25  C   UNL     1     -10.096   5.075  72.925  1.00  0.00    -0.168 C  
HETATM   26  O   UNL     1      -8.892   4.897  73.516  1.00  0.00    -0.107 OA 
HETATM   27  O   UNL     1     -11.104   4.521  73.320  1.00  0.00    -0.263 OA 
ENDBRANCH  23  24
ENDBRANCH  22  23
ENDBRANCH  21  22
ENDBRANCH  20  21
ENDBRANCH  19  20
ENDBRANCH  18  19
ENDBRANCH  17  18
ENDBRANCH  15  16
ENDBRANCH  14  15
ENDBRANCH  13  14
ENDBRANCH  12  13
ENDBRANCH  11  12
ENDBRANCH  10  11
ENDBRANCH   6  10
TORSDOF 15
ENDMDL
MODEL      108
REMARK 921   NORMALIZED FREE ENERGY PREDICTED BY IDOCK:   -4.42 KCAL/MOL
REMARK 922        TOTAL FREE ENERGY PREDICTED BY IDOCK:  -10.24 KCAL/MOL
REMARK 923 INTER-LIGAND FREE ENERGY PREDICTED BY IDOCK:   -8.29 KCAL/MOL
REMARK 924 INTRA-LIGAND FREE ENERGY PREDICTED BY IDOCK:   -1.95 KCAL/MOL
REMARK 927      BINDING AFFINITY PREDICTED BY RF-SCORE:    0.00 PKD
ROOT
ATOM      1  N   GLY A   1     -13.445  12.308  72.410  1.00  0.00    -0.557 NA 
HETATM    2  C   UNL     1      -8.009  11.982  68.080  1.00  0.00    -0.149 C  
ATOM      3  H2  GLY A   1     -12.826  12.069  73.184  1.00  0.00     0.000 HD 
ATOM      4  H1  GLY A   1     -13.662  13.304  72.390  1.00  0.00     0.000 HD 
ATOM      5  CA  GLY A   1     -12.895  11.882  71.116  1.00  0.00    -0.249 C  
HETATM    6  C   UNL     1      -8.084  13.485  67.859  1.00  0.00    -0.165 C  
ENDROOT
BRANCH   5   7
ATOM      7  C   GLY A   1     -12.569  10.386  71.146  1.00  0.00    -0.410 C  
ATOM      8  H   GLY A   1     -13.361   8.769  71.918  1.00  0.00     0.000 HD 
ATOM      9  O   GLY A   1     -13.563   9.697  71.900  1.00  0.00    -0.391 OA 
ENDBRANCH   5   7
BRANCH   6  10
HETATM   10  C   UNL     1      -9.164  13.906  66.863  1.00  0.00    -0.269 C  
BRANCH  10  11
HETATM   11  C   UNL     1     -10.563  14.053  67.468  1.00  0.00    -0.260 C  
BRANCH  11  12
HETATM   12  C   UNL     1     -11.479  14.781  66.481  1.00  0.00    -0.328 C  
BRANCH  12  13
HETATM   13  C   UNL     1     -12.421  13.825  65.751  1.00  0.00    -0.527 C  
BRANCH  13  14
HETATM   14  C   UNL     1     -12.061  13.645  64.270  1.00  0.00    -0.480 C  
BRANCH  14  15
HETATM   15  C   UNL     1     -12.023  12.195  63.773  1.00  0.00    -0.607 C  
BRANCH  15  16
HETATM   16  C   UNL     1     -10.649  11.704  63.407  1.00  0.00    -0.472 C  
HETATM   17  C   UNL     1      -9.872  10.954  64.204  1.00  0.00    -0.369 C  
BRANCH  17  18
HETATM   18  C   UNL     1     -10.218  10.516  65.597  1.00  0.00    -0.315 C  
BRANCH  18  19
HETATM   19  C   UNL     1      -9.676   9.121  65.905  1.00  0.00    -0.336 C  
BRANCH  19  20
HETATM   20  C   UNL     1     -10.437   8.509  67.080  1.00  0.00    -0.370 C  
BRANCH  20  21
HETATM   21  C   UNL     1     -10.658   7.013  66.880  1.00  0.00    -0.372 C  
BRANCH  21  22
HETATM   22  C   UNL     1     -10.977   6.320  68.201  1.00  0.00    -0.412 C  
BRANCH  22  23
HETATM   23  C   UNL     1     -11.033   7.332  69.343  1.00  0.00    -0.157 C  
BRANCH  23  24
HETATM   24  C   UNL     1     -11.749   6.764  70.565  1.00  0.00    -0.430 C  
HETATM   25  C   UNL     1     -10.795   6.544  71.717  1.00  0.00    -0.238 C  
HETATM   26  O   UNL     1     -11.425   6.059  72.812  1.00  0.00    -0.267 OA 
HETATM   27  O   UNL     1      -9.600   6.770  71.700  1.00  0.00    -0.163 OA 
ENDBRANCH  23  24
ENDBRANCH  22  23
ENDBRANCH  21  22
ENDBRANCH  20  21
ENDBRANCH  19  20
ENDBRANCH  18  19
ENDBRANCH  17  18
ENDBRANCH  15  16
ENDBRANCH  14  15
ENDBRANCH  13  14
ENDBRANCH  12  13
ENDBRANCH  11  12
ENDBRANCH  10  11
ENDBRANCH   6  10
TORSDOF 15
ENDMDL
MODEL      109
REMARK 921   NORMALIZED FREE ENERGY PREDICTED BY IDOCK:   -4.42 KCAL/MOL
REMARK 922        TOTAL FREE ENERGY PREDICTED BY IDOCK:  -10.24 KCAL/MOL
REMARK 923 INTER-LIGAND FREE ENERGY PREDICTED BY IDOCK:   -8.28 KCAL/MOL
REMARK 924 INTRA-LIGAND FREE ENERGY PREDICTED BY IDOCK:   -1.96 KCAL/MOL
REMARK 927      BINDING AFFINITY PREDICTED BY RF-SCORE:    0.00 PKD
ROOT
ATOM      1  N   GLY A   1     -10.648  11.079  62.755  1.00  0.00    -0.778 NA 
HETATM    2  C   UNL     1      -9.108  16.885  66.265  1.00  0.00    -0.302 C  
ATOM      3  H2  GLY A   1     -10.600  11.608  61.884  1.00  0.00     0.000 HD 
ATOM      4  H1  GLY A   1      -9.809  10.520  62.907  1.00  0.00     0.000 HD 
ATOM      5  CA  GLY A   1     -10.896  11.948  63.913  1.00  0.00    -0.395 C  
HETATM    6  C   UNL     1      -7.756  16.303  66.650  1.00  0.00    -0.286 C  
ENDROOT
BRANCH   5   7
ATOM      7  C   GLY A   1     -12.156  12.788  63.683  1.00  0.00    -0.543 C  
ATOM      8  H   GLY A   1     -13.891  13.026  64.562  1.00  0.00     0.000 HD 
ATOM      9  O   GLY A   1     -13.110  12.506  64.704  1.00  0.00    -0.845 OA 
ENDBRANCH   5   7
BRANCH   6  10
HETATM   10  C   UNL     1      -7.820  15.321  67.819  1.00  0.00    -0.161 C  
BRANCH  10  11
HETATM   11  C   UNL     1      -8.370  13.939  67.458  1.00  0.00    -0.202 C  
BRANCH  11  12
HETATM   12  C   UNL     1      -7.891  12.908  68.483  1.00  0.00    -0.099 C  
BRANCH  12  13
HETATM   13  C   UNL     1      -8.180  11.474  68.042  1.00  0.00    -0.143 C  
BRANCH  13  14
HETATM   14  C   UNL     1      -8.221  10.484  69.214  1.00  0.00    -0.151 C  
BRANCH  14  15
HETATM   15  C   UNL     1      -9.295   9.394  69.119  1.00  0.00    -0.159 C  
BRANCH  15  16
HETATM   16  C   UNL     1      -8.973   8.141  69.888  1.00  0.00    -0.143 C  
HETATM   17  C   UNL     1      -9.519   7.813  71.070  1.00  0.00    -0.165 C  
BRANCH  17  18
HETATM   18  C   UNL     1     -10.501   8.647  71.838  1.00  0.00    -0.410 C  
BRANCH  18  19
HETATM   19  C   UNL     1     -11.938   8.393  71.387  1.00  0.00    -0.337 C  
BRANCH  19  20
HETATM   20  C   UNL     1     -12.908   9.222  72.228  1.00  0.00    -0.459 C  
BRANCH  20  21
HETATM   21  C   UNL     1     -12.980  10.664  71.733  1.00  0.00    -0.577 C  
BRANCH  21  22
HETATM   22  C   UNL     1     -12.556  10.767  70.271  1.00  0.00    -0.350 C  
BRANCH  22  23
HETATM   23  C   UNL     1     -11.688  12.003  70.045  1.00  0.00    -0.346 C  
BRANCH  23  24
HETATM   24  C   UNL     1     -11.707  12.446  68.585  1.00  0.00    -0.372 C  
HETATM   25  C   UNL     1     -11.838  13.947  68.461  1.00  0.00    -0.366 C  
HETATM   26  O   UNL     1     -11.837  14.351  67.170  1.00  0.00    -0.388 OA 
HETATM   27  O   UNL     1     -11.929  14.729  69.389  1.00  0.00    -0.299 OA 
ENDBRANCH  23  24
ENDBRANCH  22  23
ENDBRANCH  21  22
ENDBRANCH  20  21
ENDBRANCH  19  20
ENDBRANCH  18  19
ENDBRANCH  17  18
ENDBRANCH  15  16
ENDBRANCH  14  15
ENDBRANCH  13  14
ENDBRANCH  12  13
ENDBRANCH  11  12
ENDBRANCH  10  11
ENDBRANCH   6  10
TORSDOF 15
ENDMDL
MODEL      110
REMARK 921   NORMALIZED FREE ENERGY PREDICTED BY IDOCK:   -4.42 KCAL/MOL
REMARK 922        TOTAL FREE ENERGY PREDICTED BY IDOCK:  -10.24 KCAL/MOL
REMARK 923 INTER-LIGAND FREE ENERGY PREDICTED BY IDOCK:   -7.62 KCAL/MOL
REMARK 924 INTRA-LIGAND FREE ENERGY PREDICTED BY IDOCK:   -2.61 KCAL/MOL
REMARK 927      BINDING AFFINITY PREDICTED BY RF-SCORE:    0.00 PKD
ROOT
ATOM      1  N   GLY A   1      -6.967  20.549  64.935  1.00  0.00    -0.455 NA 
HETATM    2  C   UNL     1      -5.723  16.166  70.194  1.00  0.00    -0.176 C  
ATOM      3  H2  GLY A   1      -5.966  20.727  64.864  1.00  0.00     0.000 HD 
ATOM      4  H1  GLY A   1      -7.293  19.910  64.210  1.00  0.00     0.000 HD 
ATOM      5  CA  GLY A   1      -7.341  20.043  66.263  1.00  0.00    -0.289 C  
HETATM    6  C   UNL     1      -6.153  14.993  69.328  1.00  0.00    -0.107 C  
ENDROOT
BRANCH   5   7
ATOM      7  C   GLY A   1      -6.852  21.003  67.352  1.00  0.00    -0.371 C  
ATOM      8  H   GLY A   1      -5.414  21.037  68.682  1.00  0.00     0.000 HD 
ATOM      9  O   GLY A   1      -5.717  20.442  68.007  1.00  0.00    -0.212 OA 
ENDBRANCH   5   7
BRANCH   6  10
HETATM   10  C   UNL     1      -7.669  14.827  69.226  1.00  0.00    -0.129 C  
BRANCH  10  11
HETATM   11  C   UNL     1      -8.183  14.558  67.809  1.00  0.00    -0.171 C  
BRANCH  11  12
HETATM   12  C   UNL     1      -7.588  15.583  66.840  1.00  0.00    -0.162 C  
BRANCH  12  13
HETATM   13  C   UNL     1      -8.658  16.472  66.206  1.00  0.00    -0.367 C  
BRANCH  13  14
HETATM   14  C   UNL     1     -10.080  16.105  66.651  1.00  0.00    -0.283 C  
BRANCH  14  15
HETATM   15  C   UNL     1     -10.817  17.182  67.456  1.00  0.00    -0.203 C  
BRANCH  15  16
HETATM   16  C   UNL     1     -10.461  17.212  68.918  1.00  0.00    -0.346 C  
HETATM   17  C   UNL     1     -11.006  16.415  69.850  1.00  0.00    -0.339 C  
BRANCH  17  18
HETATM   18  C   UNL     1     -12.082  15.397  69.606  1.00  0.00    -0.354 C  
BRANCH  18  19
HETATM   19  C   UNL     1     -11.540  13.971  69.679  1.00  0.00    -0.348 C  
BRANCH  19  20
HETATM   20  C   UNL     1     -11.898  13.207  68.405  1.00  0.00    -0.386 C  
BRANCH  20  21
HETATM   21  C   UNL     1     -11.240  11.830  68.380  1.00  0.00    -0.307 C  
BRANCH  21  22
HETATM   22  C   UNL     1     -10.202  11.734  67.266  1.00  0.00    -0.226 C  
BRANCH  22  23
HETATM   23  C   UNL     1     -10.574  12.645  66.099  1.00  0.00    -0.280 C  
BRANCH  23  24
HETATM   24  C   UNL     1     -11.415  11.913  65.058  1.00  0.00    -0.306 C  
HETATM   25  C   UNL     1     -12.541  12.780  64.543  1.00  0.00    -0.389 C  
HETATM   26  O   UNL     1     -13.282  12.145  63.605  1.00  0.00    -0.770 OA 
HETATM   27  O   UNL     1     -12.780  13.917  64.901  1.00  0.00    -0.648 OA 
ENDBRANCH  23  24
ENDBRANCH  22  23
ENDBRANCH  21  22
ENDBRANCH  20  21
ENDBRANCH  19  20
ENDBRANCH  18  19
ENDBRANCH  17  18
ENDBRANCH  15  16
ENDBRANCH  14  15
ENDBRANCH  13  14
ENDBRANCH  12  13
ENDBRANCH  11  12
ENDBRANCH  10  11
ENDBRANCH   6  10
TORSDOF 15
ENDMDL
MODEL      111
REMARK 921   NORMALIZED FREE ENERGY PREDICTED BY IDOCK:   -4.42 KCAL/MOL
REMARK 922        TOTAL FREE ENERGY PREDICTED BY IDOCK:  -10.24 KCAL/MOL
REMARK 923 INTER-LIGAND FREE ENERGY PREDICTED BY IDOCK:   -8.31 KCAL/MOL
REMARK 924 INTRA-LIGAND FREE ENERGY PREDICTED BY IDOCK:   -1.93 KCAL/MOL
REMARK 927      BINDING AFFINITY PREDICTED BY RF-SCORE:    0.00 PKD
ROOT
ATOM      1  N   GLY A   1      -7.623  10.672  67.899  1.00  0.00    -0.091 NA 
HETATM    2  C   UNL     1     -12.028   6.691  71.526  1.00  0.00    -0.402 C  
ATOM      3  H2  GLY A   1      -7.683  10.011  67.125  1.00  0.00     0.000 HD 
ATOM      4  H1  GLY A   1      -8.189  11.504  67.734  1.00  0.00     0.000 HD 
ATOM      5  CA  GLY A   1      -7.992  10.053  69.179  1.00  0.00    -0.116 C  
HETATM    6  C   UNL     1     -13.094   7.771  71.432  1.00  0.00    -0.310 C  
ENDROOT
BRANCH   5   7
ATOM      7  C   GLY A   1      -7.142   8.804  69.428  1.00  0.00    -0.057 C  
ATOM      8  H   GLY A   1      -5.293   8.417  69.949  1.00  0.00     0.000 HD 
ATOM      9  O   GLY A   1      -5.820   9.192  69.795  1.00  0.00    -0.032 OA 
ENDBRANCH   5   7
BRANCH   6  10
HETATM   10  C   UNL     1     -12.909   8.907  72.437  1.00  0.00    -0.446 C  
BRANCH  10  11
HETATM   11  C   UNL     1     -13.441  10.263  71.967  1.00  0.00    -0.385 C  
BRANCH  11  12
HETATM   12  C   UNL     1     -12.499  10.851  70.913  1.00  0.00    -0.507 C  
BRANCH  12  13
HETATM   13  C   UNL     1     -12.510  12.379  70.914  1.00  0.00    -0.367 C  
BRANCH  13  14
HETATM   14  C   UNL     1     -13.445  12.970  71.977  1.00  0.00    -0.584 C  
BRANCH  14  15
HETATM   15  C   UNL     1     -14.130  14.288  71.594  1.00  0.00    -0.471 C  
BRANCH  15  16
HETATM   16  C   UNL     1     -13.887  15.415  72.560  1.00  0.00    -0.651 C  
HETATM   17  C   UNL     1     -12.702  16.018  72.743  1.00  0.00    -0.547 C  
BRANCH  17  18
HETATM   18  C   UNL     1     -11.421  15.650  72.054  1.00  0.00    -0.495 C  
BRANCH  18  19
HETATM   19  C   UNL     1     -11.407  16.111  70.599  1.00  0.00    -0.394 C  
BRANCH  19  20
HETATM   20  C   UNL     1     -10.230  15.477  69.857  1.00  0.00    -0.305 C  
BRANCH  20  21
HETATM   21  C   UNL     1     -10.562  15.242  68.387  1.00  0.00    -0.246 C  
BRANCH  21  22
HETATM   22  C   UNL     1     -11.986  14.718  68.219  1.00  0.00    -0.258 C  
BRANCH  22  23
HETATM   23  C   UNL     1     -12.107  13.875  66.952  1.00  0.00    -0.467 C  
BRANCH  23  24
HETATM   24  C   UNL     1     -11.130  12.703  66.958  1.00  0.00    -0.322 C  
HETATM   25  C   UNL     1     -10.434  12.552  65.625  1.00  0.00    -0.273 C  
HETATM   26  O   UNL     1      -9.551  11.526  65.627  1.00  0.00    -0.223 OA 
HETATM   27  O   UNL     1     -10.615  13.253  64.648  1.00  0.00    -0.359 OA 
ENDBRANCH  23  24
ENDBRANCH  22  23
ENDBRANCH  21  22
ENDBRANCH  20  21
ENDBRANCH  19  20
ENDBRANCH  18  19
ENDBRANCH  17  18
ENDBRANCH  15  16
ENDBRANCH  14  15
ENDBRANCH  13  14
ENDBRANCH  12  13
ENDBRANCH  11  12
ENDBRANCH  10  11
ENDBRANCH   6  10
TORSDOF 15
ENDMDL
MODEL      112
REMARK 921   NORMALIZED FREE ENERGY PREDICTED BY IDOCK:   -4.41 KCAL/MOL
REMARK 922        TOTAL FREE ENERGY PREDICTED BY IDOCK:  -10.22 KCAL/MOL
REMARK 923 INTER-LIGAND FREE ENERGY PREDICTED BY IDOCK:   -7.69 KCAL/MOL
REMARK 924 INTRA-LIGAND FREE ENERGY PREDICTED BY IDOCK:   -2.53 KCAL/MOL
REMARK 927      BINDING AFFINITY PREDICTED BY RF-SCORE:    0.00 PKD
ROOT
ATOM      1  N   GLY A   1      -6.448  14.356  69.460  1.00  0.00    -0.125 NA 
HETATM    2  C   UNL     1     -12.199  16.319  72.848  1.00  0.00    -0.610 C  
ATOM      3  H2  GLY A   1      -5.890  14.896  70.121  1.00  0.00     0.000 HD 
ATOM      4  H1  GLY A   1      -6.421  13.358  69.665  1.00  0.00     0.000 HD 
ATOM      5  CA  GLY A   1      -7.839  14.826  69.404  1.00  0.00    -0.083 C  
HETATM    6  C   UNL     1     -12.415  14.891  73.324  1.00  0.00    -0.540 C  
ENDROOT
BRANCH   5   7
ATOM      7  C   GLY A   1      -7.879  16.325  69.095  1.00  0.00    -0.231 C  
ATOM      8  H   GLY A   1      -8.292  17.452  67.545  1.00  0.00     0.000 HD 
ATOM      9  O   GLY A   1      -8.266  16.522  67.737  1.00  0.00    -0.162 OA 
ENDBRANCH   5   7
BRANCH   6  10
HETATM   10  C   UNL     1     -13.050  13.982  72.272  1.00  0.00    -0.516 C  
BRANCH  10  11
HETATM   11  C   UNL     1     -12.962  14.512  70.839  1.00  0.00    -0.424 C  
BRANCH  11  12
HETATM   12  C   UNL     1     -12.042  13.612  70.010  1.00  0.00    -0.417 C  
BRANCH  12  13
HETATM   13  C   UNL     1     -11.165  14.410  69.046  1.00  0.00    -0.288 C  
BRANCH  13  14
HETATM   14  C   UNL     1     -11.865  14.714  67.714  1.00  0.00    -0.359 C  
BRANCH  14  15
HETATM   15  C   UNL     1     -12.235  13.488  66.869  1.00  0.00    -0.377 C  
BRANCH  15  16
HETATM   16  C   UNL     1     -12.603  13.807  65.446  1.00  0.00    -0.534 C  
HETATM   17  C   UNL     1     -11.811  13.580  64.387  1.00  0.00    -0.455 C  
BRANCH  17  18
HETATM   18  C   UNL     1     -10.422  13.015  64.442  1.00  0.00    -0.426 C  
BRANCH  18  19
HETATM   19  C   UNL     1     -10.308  11.711  63.656  1.00  0.00    -0.466 C  
BRANCH  19  20
HETATM   20  C   UNL     1     -10.015  10.549  64.604  1.00  0.00    -0.415 C  
BRANCH  20  21
HETATM   21  C   UNL     1      -9.814  11.036  66.036  1.00  0.00    -0.273 C  
BRANCH  21  22
HETATM   22  C   UNL     1     -10.479  10.096  67.037  1.00  0.00    -0.302 C  
BRANCH  22  23
HETATM   23  C   UNL     1     -10.298  10.609  68.464  1.00  0.00    -0.202 C  
BRANCH  23  24
HETATM   24  C   UNL     1      -9.026  11.438  68.608  1.00  0.00    -0.133 C  
HETATM   25  C   UNL     1      -7.941  10.672  69.330  1.00  0.00    -0.135 C  
HETATM   26  O   UNL     1      -6.802  11.393  69.446  1.00  0.00    -0.109 OA 
HETATM   27  O   UNL     1      -8.042   9.540  69.763  1.00  0.00    -0.107 OA 
ENDBRANCH  23  24
ENDBRANCH  22  23
ENDBRANCH  21  22
ENDBRANCH  20  21
ENDBRANCH  19  20
ENDBRANCH  18  19
ENDBRANCH  17  18
ENDBRANCH  15  16
ENDBRANCH  14  15
ENDBRANCH  13  14
ENDBRANCH  12  13
ENDBRANCH  11  12
ENDBRANCH  10  11
ENDBRANCH   6  10
TORSDOF 15
ENDMDL
MODEL      113
REMARK 921   NORMALIZED FREE ENERGY PREDICTED BY IDOCK:   -4.41 KCAL/MOL
REMARK 922        TOTAL FREE ENERGY PREDICTED BY IDOCK:  -10.22 KCAL/MOL
REMARK 923 INTER-LIGAND FREE ENERGY PREDICTED BY IDOCK:   -8.52 KCAL/MOL
REMARK 924 INTRA-LIGAND FREE ENERGY PREDICTED BY IDOCK:   -1.69 KCAL/MOL
REMARK 927      BINDING AFFINITY PREDICTED BY RF-SCORE:    0.00 PKD
ROOT
ATOM      1  N   GLY A   1     -11.499   4.495  65.087  1.00  0.00    -1.109 NA 
HETATM    2  C   UNL     1      -9.079   4.069  71.597  1.00  0.00    -0.174 C  
ATOM      3  H2  GLY A   1     -11.403   3.483  64.999  1.00  0.00     0.000 HD 
ATOM      4  H1  GLY A   1     -12.467   4.772  65.247  1.00  0.00     0.000 HD 
ATOM      5  CA  GLY A   1     -10.633   5.038  66.142  1.00  0.00    -0.265 C  
HETATM    6  C   UNL     1     -10.444   4.463  72.138  1.00  0.00    -0.161 C  
ENDROOT
BRANCH   5   7
ATOM      7  C   GLY A   1      -9.180   4.621  65.902  1.00  0.00    -0.144 C  
ATOM      8  H   GLY A   1      -7.532   4.516  66.958  1.00  0.00     0.000 HD 
ATOM      9  O   GLY A   1      -8.434   4.774  67.107  1.00  0.00    -0.106 OA 
ENDBRANCH   5   7
BRANCH   6  10
HETATM   10  C   UNL     1     -10.719   5.965  72.078  1.00  0.00    -0.282 C  
BRANCH  10  11
HETATM   11  C   UNL     1     -11.899   6.359  71.186  1.00  0.00    -0.325 C  
BRANCH  11  12
HETATM   12  C   UNL     1     -11.411   6.587  69.753  1.00  0.00    -0.456 C  
BRANCH  12  13
HETATM   13  C   UNL     1      -9.963   7.072  69.704  1.00  0.00    -0.177 C  
BRANCH  13  14
HETATM   14  C   UNL     1      -9.835   8.523  69.219  1.00  0.00    -0.185 C  
BRANCH  14  15
HETATM   15  C   UNL     1      -9.954   9.595  70.310  1.00  0.00    -0.326 C  
BRANCH  15  16
HETATM   16  C   UNL     1     -11.344  10.142  70.490  1.00  0.00    -0.416 C  
HETATM   17  C   UNL     1     -12.020  10.824  69.552  1.00  0.00    -0.364 C  
BRANCH  17  18
HETATM   18  C   UNL     1     -11.497  11.189  68.193  1.00  0.00    -0.373 C  
BRANCH  18  19
HETATM   19  C   UNL     1     -11.758  12.656  67.860  1.00  0.00    -0.412 C  
BRANCH  19  20
HETATM   20  C   UNL     1     -11.055  13.559  68.873  1.00  0.00    -0.305 C  
BRANCH  20  21
HETATM   21  C   UNL     1     -11.867  14.820  69.151  1.00  0.00    -0.340 C  
BRANCH  21  22
HETATM   22  C   UNL     1     -12.913  14.576  70.235  1.00  0.00    -0.148 C  
BRANCH  22  23
HETATM   23  C   UNL     1     -12.263  14.015  71.497  1.00  0.00    -0.285 C  
BRANCH  23  24
HETATM   24  C   UNL     1     -12.973  14.496  72.759  1.00  0.00    -0.563 C  
HETATM   25  C   UNL     1     -12.505  15.874  73.168  1.00  0.00    -0.497 C  
HETATM   26  O   UNL     1     -13.143  16.318  74.276  1.00  0.00    -0.612 OA 
HETATM   27  O   UNL     1     -11.663  16.537  72.592  1.00  0.00    -0.500 OA 
ENDBRANCH  23  24
ENDBRANCH  22  23
ENDBRANCH  21  22
ENDBRANCH  20  21
ENDBRANCH  19  20
ENDBRANCH  18  19
ENDBRANCH  17  18
ENDBRANCH  15  16
ENDBRANCH  14  15
ENDBRANCH  13  14
ENDBRANCH  12  13
ENDBRANCH  11  12
ENDBRANCH  10  11
ENDBRANCH   6  10
TORSDOF 15
ENDMDL
MODEL      114
REMARK 921   NORMALIZED FREE ENERGY PREDICTED BY IDOCK:   -4.41 KCAL/MOL
REMARK 922        TOTAL FREE ENERGY PREDICTED BY IDOCK:  -10.22 KCAL/MOL
REMARK 923 INTER-LIGAND FREE ENERGY PREDICTED BY IDOCK:   -8.26 KCAL/MOL
REMARK 924 INTRA-LIGAND FREE ENERGY PREDICTED BY IDOCK:   -1.96 KCAL/MOL
REMARK 927      BINDING AFFINITY PREDICTED BY RF-SCORE:    0.00 PKD
ROOT
ATOM      1  N   GLY A   1      -6.604  14.056  70.210  1.00  0.00    -0.396 NA 
HETATM    2  C   UNL     1      -9.174  10.601  64.745  1.00  0.00    -0.255 C  
ATOM      3  H2  GLY A   1      -6.977  14.922  69.822  1.00  0.00     0.000 HD 
ATOM      4  H1  GLY A   1      -7.184  13.699  70.969  1.00  0.00     0.000 HD 
ATOM      5  CA  GLY A   1      -6.423  13.026  69.179  1.00  0.00    -0.108 C  
HETATM    6  C   UNL     1     -10.180   9.905  65.649  1.00  0.00    -0.229 C  
ENDROOT
BRANCH   5   7
ATOM      7  C   GLY A   1      -5.552  13.564  68.040  1.00  0.00    -0.121 C  
ATOM      8  H   GLY A   1      -4.819  12.876  66.358  1.00  0.00     0.000 HD 
ATOM      9  O   GLY A   1      -5.359  12.542  67.065  1.00  0.00    -0.327 OA 
ENDBRANCH   5   7
BRANCH   6  10
HETATM   10  C   UNL     1      -9.595   8.728  66.429  1.00  0.00    -0.316 C  
BRANCH  10  11
HETATM   11  C   UNL     1     -10.639   7.794  67.046  1.00  0.00    -0.396 C  
BRANCH  11  12
HETATM   12  C   UNL     1     -10.069   7.144  68.309  1.00  0.00    -0.187 C  
BRANCH  12  13
HETATM   13  C   UNL     1     -11.013   6.099  68.900  1.00  0.00    -0.424 C  
BRANCH  13  14
HETATM   14  C   UNL     1     -11.059   6.134  70.434  1.00  0.00    -0.420 C  
BRANCH  14  15
HETATM   15  C   UNL     1     -12.069   7.116  71.041  1.00  0.00    -0.391 C  
BRANCH  15  16
HETATM   16  C   UNL     1     -11.446   8.222  71.849  1.00  0.00    -0.372 C  
HETATM   17  C   UNL     1     -11.254   9.473  71.404  1.00  0.00    -0.452 C  
BRANCH  17  18
HETATM   18  C   UNL     1     -11.583   9.969  70.027  1.00  0.00    -0.279 C  
BRANCH  18  19
HETATM   19  C   UNL     1     -10.452  10.811  69.440  1.00  0.00    -0.229 C  
BRANCH  19  20
HETATM   20  C   UNL     1     -11.024  12.014  68.692  1.00  0.00    -0.281 C  
BRANCH  20  21
HETATM   21  C   UNL     1     -11.934  12.846  69.592  1.00  0.00    -0.358 C  
BRANCH  21  22
HETATM   22  C   UNL     1     -11.350  14.235  69.834  1.00  0.00    -0.254 C  
BRANCH  22  23
HETATM   23  C   UNL     1     -12.395  15.162  70.450  1.00  0.00    -0.411 C  
BRANCH  23  24
HETATM   24  C   UNL     1     -11.908  15.767  71.763  1.00  0.00    -0.549 C  
HETATM   25  C   UNL     1     -12.536  15.084  72.957  1.00  0.00    -0.409 C  
HETATM   26  O   UNL     1     -12.096  15.602  74.127  1.00  0.00    -0.524 OA 
HETATM   27  O   UNL     1     -13.339  14.172  72.909  1.00  0.00    -0.573 OA 
ENDBRANCH  23  24
ENDBRANCH  22  23
ENDBRANCH  21  22
ENDBRANCH  20  21
ENDBRANCH  19  20
ENDBRANCH  18  19
ENDBRANCH  17  18
ENDBRANCH  15  16
ENDBRANCH  14  15
ENDBRANCH  13  14
ENDBRANCH  12  13
ENDBRANCH  11  12
ENDBRANCH  10  11
ENDBRANCH   6  10
TORSDOF 15
ENDMDL
MODEL      115
REMARK 921   NORMALIZED FREE ENERGY PREDICTED BY IDOCK:   -4.40 KCAL/MOL
REMARK 922        TOTAL FREE ENERGY PREDICTED BY IDOCK:  -10.21 KCAL/MOL
REMARK 923 INTER-LIGAND FREE ENERGY PREDICTED BY IDOCK:   -7.85 KCAL/MOL
REMARK 924 INTRA-LIGAND FREE ENERGY PREDICTED BY IDOCK:   -2.36 KCAL/MOL
REMARK 927      BINDING AFFINITY PREDICTED BY RF-SCORE:    0.00 PKD
ROOT
ATOM      1  N   GLY A   1      -9.691   7.200  68.723  1.00  0.00    -0.144 NA 
HETATM    2  C   UNL     1      -9.659  10.576  62.640  1.00  0.00    -0.285 C  
ATOM      3  H2  GLY A   1      -8.681   7.080  68.647  1.00  0.00     0.000 HD 
ATOM      4  H1  GLY A   1      -9.939   7.948  69.370  1.00  0.00     0.000 HD 
ATOM      5  CA  GLY A   1     -10.316   7.433  67.414  1.00  0.00    -0.270 C  
HETATM    6  C   UNL     1     -10.025  11.871  63.348  1.00  0.00    -0.435 C  
ENDROOT
BRANCH   5   7
ATOM      7  C   GLY A   1      -9.944   6.309  66.442  1.00  0.00    -0.054 C  
ATOM      8  H   GLY A   1      -8.408   5.128  66.147  1.00  0.00     0.000 HD 
ATOM      9  O   GLY A   1      -8.639   5.825  66.750  1.00  0.00    -0.112 OA 
ENDBRANCH   5   7
BRANCH   6  10
HETATM   10  C   UNL     1     -11.511  11.989  63.684  1.00  0.00    -0.556 C  
BRANCH  10  11
HETATM   11  C   UNL     1     -11.970  13.404  64.045  1.00  0.00    -0.520 C  
BRANCH  11  12
HETATM   12  C   UNL     1     -12.701  13.384  65.390  1.00  0.00    -0.484 C  
BRANCH  12  13
HETATM   13  C   UNL     1     -11.784  13.760  66.553  1.00  0.00    -0.412 C  
BRANCH  13  14
HETATM   14  C   UNL     1     -11.756  12.697  67.660  1.00  0.00    -0.420 C  
BRANCH  14  15
HETATM   15  C   UNL     1     -10.397  12.489  68.339  1.00  0.00    -0.237 C  
BRANCH  15  16
HETATM   16  C   UNL     1      -9.230  12.463  67.390  1.00  0.00    -0.184 C  
HETATM   17  C   UNL     1      -8.224  13.352  67.396  1.00  0.00    -0.188 C  
BRANCH  17  18
HETATM   18  C   UNL     1      -8.113  14.535  68.312  1.00  0.00    -0.140 C  
BRANCH  18  19
HETATM   19  C   UNL     1      -8.733  15.788  67.699  1.00  0.00    -0.178 C  
BRANCH  19  20
HETATM   20  C   UNL     1      -9.207  16.735  68.802  1.00  0.00    -0.260 C  
BRANCH  20  21
HETATM   21  C   UNL     1     -10.721  16.669  68.978  1.00  0.00    -0.343 C  
BRANCH  21  22
HETATM   22  C   UNL     1     -11.099  15.822  70.190  1.00  0.00    -0.360 C  
BRANCH  22  23
HETATM   23  C   UNL     1     -12.605  15.572  70.227  1.00  0.00    -0.362 C  
BRANCH  23  24
HETATM   24  C   UNL     1     -12.933  14.187  70.777  1.00  0.00    -0.337 C  
HETATM   25  C   UNL     1     -13.474  14.262  72.186  1.00  0.00    -0.433 C  
HETATM   26  O   UNL     1     -13.786  13.040  72.676  1.00  0.00    -0.653 OA 
HETATM   27  O   UNL     1     -13.630  15.281  72.832  1.00  0.00    -0.483 OA 
ENDBRANCH  23  24
ENDBRANCH  22  23
ENDBRANCH  21  22
ENDBRANCH  20  21
ENDBRANCH  19  20
ENDBRANCH  18  19
ENDBRANCH  17  18
ENDBRANCH  15  16
ENDBRANCH  14  15
ENDBRANCH  13  14
ENDBRANCH  12  13
ENDBRANCH  11  12
ENDBRANCH  10  11
ENDBRANCH   6  10
TORSDOF 15
ENDMDL
MODEL      116
REMARK 921   NORMALIZED FREE ENERGY PREDICTED BY IDOCK:   -4.40 KCAL/MOL
REMARK 922        TOTAL FREE ENERGY PREDICTED BY IDOCK:  -10.20 KCAL/MOL
REMARK 923 INTER-LIGAND FREE ENERGY PREDICTED BY IDOCK:   -7.90 KCAL/MOL
REMARK 924 INTRA-LIGAND FREE ENERGY PREDICTED BY IDOCK:   -2.31 KCAL/MOL
REMARK 927      BINDING AFFINITY PREDICTED BY RF-SCORE:    0.00 PKD
ROOT
ATOM      1  N   GLY A   1     -10.775  12.638  64.836  1.00  0.00    -0.288 NA 
HETATM    2  C   UNL     1     -13.132  15.371  70.784  1.00  0.00    -0.479 C  
ATOM      3  H2  GLY A   1     -10.242  13.492  64.670  1.00  0.00     0.000 HD 
ATOM      4  H1  GLY A   1     -10.184  11.882  65.179  1.00  0.00     0.000 HD 
ATOM      5  CA  GLY A   1     -11.898  12.863  65.755  1.00  0.00    -0.419 C  
HETATM    6  C   UNL     1     -12.333  14.351  71.579  1.00  0.00    -0.427 C  
ENDROOT
BRANCH   5   7
ATOM      7  C   GLY A   1     -12.786  13.999  65.239  1.00  0.00    -0.439 C  
ATOM      8  H   GLY A   1     -13.067  14.930  63.538  1.00  0.00     0.000 HD 
ATOM      9  O   GLY A   1     -12.516  14.225  63.858  1.00  0.00    -0.773 OA 
ENDBRANCH   5   7
BRANCH   6  10
HETATM   10  C   UNL     1     -12.999  12.977  71.661  1.00  0.00    -0.417 C  
BRANCH  10  11
HETATM   11  C   UNL     1     -12.599  12.011  70.543  1.00  0.00    -0.192 C  
BRANCH  11  12
HETATM   12  C   UNL     1     -12.056  10.715  71.150  1.00  0.00    -0.445 C  
BRANCH  12  13
HETATM   13  C   UNL     1     -11.189   9.931  70.165  1.00  0.00    -0.347 C  
BRANCH  13  14
HETATM   14  C   UNL     1     -11.262  10.483  68.735  1.00  0.00    -0.317 C  
BRANCH  14  15
HETATM   15  C   UNL     1     -10.086  10.110  67.824  1.00  0.00    -0.216 C  
BRANCH  15  16
HETATM   16  C   UNL     1      -8.733  10.301  68.453  1.00  0.00    -0.129 C  
HETATM   17  C   UNL     1      -7.943  11.367  68.247  1.00  0.00    -0.136 C  
BRANCH  17  18
HETATM   18  C   UNL     1      -8.250  12.517  67.333  1.00  0.00    -0.183 C  
BRANCH  18  19
HETATM   19  C   UNL     1      -8.429  13.822  68.104  1.00  0.00    -0.173 C  
BRANCH  19  20
HETATM   20  C   UNL     1      -9.910  14.064  68.394  1.00  0.00    -0.232 C  
BRANCH  20  21
HETATM   21  C   UNL     1     -10.351  15.444  67.917  1.00  0.00    -0.247 C  
BRANCH  21  22
HETATM   22  C   UNL     1      -9.692  15.806  66.589  1.00  0.00    -0.266 C  
BRANCH  22  23
HETATM   23  C   UNL     1      -9.304  17.283  66.562  1.00  0.00    -0.283 C  
BRANCH  23  24
HETATM   24  C   UNL     1     -10.194  18.117  67.479  1.00  0.00    -0.382 C  
HETATM   25  C   UNL     1      -9.376  18.948  68.441  1.00  0.00    -0.350 C  
HETATM   26  O   UNL     1     -10.156  19.705  69.247  1.00  0.00    -0.423 OA 
HETATM   27  O   UNL     1      -8.162  18.964  68.509  1.00  0.00    -0.331 OA 
ENDBRANCH  23  24
ENDBRANCH  22  23
ENDBRANCH  21  22
ENDBRANCH  20  21
ENDBRANCH  19  20
ENDBRANCH  18  19
ENDBRANCH  17  18
ENDBRANCH  15  16
ENDBRANCH  14  15
ENDBRANCH  13  14
ENDBRANCH  12  13
ENDBRANCH  11  12
ENDBRANCH  10  11
ENDBRANCH   6  10
TORSDOF 15
ENDMDL
MODEL      117
REMARK 921   NORMALIZED FREE ENERGY PREDICTED BY IDOCK:   -4.40 KCAL/MOL
REMARK 922        TOTAL FREE ENERGY PREDICTED BY IDOCK:  -10.20 KCAL/MOL
REMARK 923 INTER-LIGAND FREE ENERGY PREDICTED BY IDOCK:   -8.62 KCAL/MOL
REMARK 924 INTRA-LIGAND FREE ENERGY PREDICTED BY IDOCK:   -1.58 KCAL/MOL
REMARK 927      BINDING AFFINITY PREDICTED BY RF-SCORE:    0.00 PKD
ROOT
ATOM      1  N   GLY A   1     -10.182  13.097  63.849  1.00  0.00    -0.744 NA 
HETATM    2  C   UNL     1     -10.656  19.760  65.797  1.00  0.00    -0.522 C  
ATOM      3  H2  GLY A   1     -10.259  13.390  62.875  1.00  0.00     0.000 HD 
ATOM      4  H1  GLY A   1      -9.219  12.878  64.105  1.00  0.00     0.000 HD 
ATOM      5  CA  GLY A   1     -10.736  14.099  64.769  1.00  0.00    -0.419 C  
HETATM    6  C   UNL     1      -9.210  19.734  66.266  1.00  0.00    -0.461 C  
ENDROOT
BRANCH   5   7
ATOM      7  C   GLY A   1     -12.182  14.429  64.384  1.00  0.00    -0.458 C  
ATOM      8  H   GLY A   1     -13.971  13.843  64.927  1.00  0.00     0.000 HD 
ATOM      9  O   GLY A   1     -13.075  13.639  65.166  1.00  0.00    -0.750 OA 
ENDBRANCH   5   7
BRANCH   6  10
HETATM   10  C   UNL     1      -9.022  19.091  67.640  1.00  0.00    -0.322 C  
BRANCH  10  11
HETATM   11  C   UNL     1      -7.841  18.120  67.730  1.00  0.00    -0.236 C  
BRANCH  11  12
HETATM   12  C   UNL     1      -8.277  16.842  68.450  1.00  0.00    -0.224 C  
BRANCH  12  13
HETATM   13  C   UNL     1      -9.211  15.985  67.598  1.00  0.00    -0.205 C  
BRANCH  13  14
HETATM   14  C   UNL     1     -10.576  15.749  68.259  1.00  0.00    -0.271 C  
BRANCH  14  15
HETATM   15  C   UNL     1     -10.835  14.316  68.742  1.00  0.00    -0.265 C  
BRANCH  15  16
HETATM   16  C   UNL     1      -9.791  13.321  68.313  1.00  0.00    -0.231 C  
HETATM   17  C   UNL     1     -10.025  12.016  68.103  1.00  0.00    -0.203 C  
BRANCH  17  18
HETATM   18  C   UNL     1     -11.343  11.325  68.298  1.00  0.00    -0.359 C  
BRANCH  18  19
HETATM   19  C   UNL     1     -11.257  10.228  69.357  1.00  0.00    -0.292 C  
BRANCH  19  20
HETATM   20  C   UNL     1      -9.796   9.950  69.710  1.00  0.00    -0.268 C  
BRANCH  20  21
HETATM   21  C   UNL     1      -9.654   8.660  70.511  1.00  0.00    -0.210 C  
BRANCH  21  22
HETATM   22  C   UNL     1      -9.736   8.931  72.011  1.00  0.00    -0.304 C  
BRANCH  22  23
HETATM   23  C   UNL     1     -10.814   8.066  72.660  1.00  0.00    -0.436 C  
BRANCH  23  24
HETATM   24  C   UNL     1     -12.195   8.703  72.541  1.00  0.00    -0.374 C  
HETATM   25  C   UNL     1     -13.074   7.949  71.569  1.00  0.00    -0.311 C  
HETATM   26  O   UNL     1     -14.308   8.496  71.471  1.00  0.00    -0.424 OA 
HETATM   27  O   UNL     1     -12.747   6.962  70.937  1.00  0.00    -0.328 OA 
ENDBRANCH  23  24
ENDBRANCH  22  23
ENDBRANCH  21  22
ENDBRANCH  20  21
ENDBRANCH  19  20
ENDBRANCH  18  19
ENDBRANCH  17  18
ENDBRANCH  15  16
ENDBRANCH  14  15
ENDBRANCH  13  14
ENDBRANCH  12  13
ENDBRANCH  11  12
ENDBRANCH  10  11
ENDBRANCH   6  10
TORSDOF 15
ENDMDL
MODEL      118
REMARK 921   NORMALIZED FREE ENERGY PREDICTED BY IDOCK:   -4.39 KCAL/MOL
REMARK 922        TOTAL FREE ENERGY PREDICTED BY IDOCK:  -10.18 KCAL/MOL
REMARK 923 INTER-LIGAND FREE ENERGY PREDICTED BY IDOCK:   -8.10 KCAL/MOL
REMARK 924 INTRA-LIGAND FREE ENERGY PREDICTED BY IDOCK:   -2.09 KCAL/MOL
REMARK 927      BINDING AFFINITY PREDICTED BY RF-SCORE:    0.00 PKD
ROOT
ATOM      1  N   GLY A   1     -12.572  15.777  73.757  1.00  0.00    -0.550 NA 
HETATM    2  C   UNL     1     -11.579  11.982  68.010  1.00  0.00    -0.407 C  
ATOM      3  H2  GLY A   1     -12.803  14.923  74.265  1.00  0.00     0.000 HD 
ATOM      4  H1  GLY A   1     -11.625  16.095  73.957  1.00  0.00     0.000 HD 
ATOM      5  CA  GLY A   1     -12.760  15.621  72.308  1.00  0.00    -0.430 C  
HETATM    6  C   UNL     1     -10.090  12.285  68.058  1.00  0.00    -0.206 C  
ENDROOT
BRANCH   5   7
ATOM      7  C   GLY A   1     -14.183  15.143  72.007  1.00  0.00    -0.577 C  
ATOM      8  H   GLY A   1     -15.226  13.507  72.279  1.00  0.00     0.000 HD 
ATOM      9  O   GLY A   1     -14.344  13.803  72.466  1.00  0.00    -0.696 OA 
ENDBRANCH   5   7
BRANCH   6  10
HETATM   10  C   UNL     1      -9.725  13.663  67.507  1.00  0.00    -0.227 C  
BRANCH  10  11
HETATM   11  C   UNL     1     -10.685  14.784  67.913  1.00  0.00    -0.259 C  
BRANCH  11  12
HETATM   12  C   UNL     1     -10.885  15.744  66.737  1.00  0.00    -0.254 C  
BRANCH  12  13
HETATM   13  C   UNL     1     -10.343  15.177  65.426  1.00  0.00    -0.415 C  
BRANCH  13  14
HETATM   14  C   UNL     1     -11.438  14.949  64.375  1.00  0.00    -0.255 C  
BRANCH  14  15
HETATM   15  C   UNL     1     -12.399  13.790  64.666  1.00  0.00    -0.410 C  
BRANCH  15  16
HETATM   16  C   UNL     1     -12.340  12.671  63.661  1.00  0.00    -0.584 C  
HETATM   17  C   UNL     1     -11.428  11.686  63.672  1.00  0.00    -0.458 C  
BRANCH  17  18
HETATM   18  C   UNL     1     -10.299  11.555  64.652  1.00  0.00    -0.349 C  
BRANCH  18  19
HETATM   19  C   UNL     1      -9.478  10.291  64.406  1.00  0.00    -0.360 C  
BRANCH  19  20
HETATM   20  C   UNL     1      -8.225  10.299  65.281  1.00  0.00    -0.161 C  
BRANCH  20  21
HETATM   21  C   UNL     1      -8.324   9.269  66.402  1.00  0.00    -0.120 C  
BRANCH  21  22
HETATM   22  C   UNL     1      -9.212   8.096  65.998  1.00  0.00    -0.207 C  
BRANCH  22  23
HETATM   23  C   UNL     1     -10.308   7.863  67.035  1.00  0.00    -0.411 C  
BRANCH  23  24
HETATM   24  C   UNL     1     -10.697   6.391  67.124  1.00  0.00    -0.433 C  
HETATM   25  C   UNL     1      -9.678   5.593  67.906  1.00  0.00    -0.125 C  
HETATM   26  O   UNL     1     -10.024   4.288  68.006  1.00  0.00    -0.091 OA 
HETATM   27  O   UNL     1      -8.661   6.037  68.404  1.00  0.00    -0.114 OA 
ENDBRANCH  23  24
ENDBRANCH  22  23
ENDBRANCH  21  22
ENDBRANCH  20  21
ENDBRANCH  19  20
ENDBRANCH  18  19
ENDBRANCH  17  18
ENDBRANCH  15  16
ENDBRANCH  14  15
ENDBRANCH  13  14
ENDBRANCH  12  13
ENDBRANCH  11  12
ENDBRANCH  10  11
ENDBRANCH   6  10
TORSDOF 15
ENDMDL
MODEL      119
REMARK 921   NORMALIZED FREE ENERGY PREDICTED BY IDOCK:   -4.39 KCAL/MOL
REMARK 922        TOTAL FREE ENERGY PREDICTED BY IDOCK:  -10.18 KCAL/MOL
REMARK 923 INTER-LIGAND FREE ENERGY PREDICTED BY IDOCK:   -8.21 KCAL/MOL
REMARK 924 INTRA-LIGAND FREE ENERGY PREDICTED BY IDOCK:   -1.97 KCAL/MOL
REMARK 927      BINDING AFFINITY PREDICTED BY RF-SCORE:    0.00 PKD
ROOT
ATOM      1  N   GLY A   1     -11.456  16.496  63.851  1.00  0.00    -1.599 NA 
HETATM    2  C   UNL     1      -6.784  13.308  67.902  1.00  0.00    -0.143 C  
ATOM      3  H2  GLY A   1     -10.700  16.791  63.233  1.00  0.00     0.000 HD 
ATOM      4  H1  GLY A   1     -11.971  15.703  63.470  1.00  0.00     0.000 HD 
ATOM      5  CA  GLY A   1     -10.971  16.186  65.202  1.00  0.00    -0.316 C  
HETATM    6  C   UNL     1      -7.348  11.954  67.501  1.00  0.00    -0.132 C  
ENDROOT
BRANCH   5   7
ATOM      7  C   GLY A   1     -10.198  17.378  65.774  1.00  0.00    -0.191 C  
ATOM      8  H   GLY A   1      -8.318  17.874  66.017  1.00  0.00     0.000 HD 
ATOM      9  O   GLY A   1      -8.797  17.135  65.662  1.00  0.00    -0.482 OA 
ENDBRANCH   5   7
BRANCH   6  10
HETATM   10  C   UNL     1      -8.623  11.572  68.252  1.00  0.00    -0.161 C  
BRANCH  10  11
HETATM   11  C   UNL     1      -8.858  10.065  68.377  1.00  0.00    -0.117 C  
BRANCH  11  12
HETATM   12  C   UNL     1     -10.361   9.774  68.376  1.00  0.00    -0.230 C  
BRANCH  12  13
HETATM   13  C   UNL     1     -10.796   8.967  69.598  1.00  0.00    -0.186 C  
BRANCH  13  14
HETATM   14  C   UNL     1     -11.070   9.844  70.828  1.00  0.00    -0.417 C  
BRANCH  14  15
HETATM   15  C   UNL     1     -12.381  10.639  70.792  1.00  0.00    -0.472 C  
BRANCH  15  16
HETATM   16  C   UNL     1     -12.197  12.132  70.783  1.00  0.00    -0.367 C  
HETATM   17  C   UNL     1     -12.059  12.875  69.673  1.00  0.00    -0.290 C  
BRANCH  17  18
HETATM   18  C   UNL     1     -12.022  12.346  68.269  1.00  0.00    -0.270 C  
BRANCH  18  19
HETATM   19  C   UNL     1     -11.711  13.446  67.257  1.00  0.00    -0.424 C  
BRANCH  19  20
HETATM   20  C   UNL     1     -12.121  13.001  65.853  1.00  0.00    -0.503 C  
BRANCH  20  21
HETATM   21  C   UNL     1     -11.280  11.822  65.376  1.00  0.00    -0.310 C  
BRANCH  21  22
HETATM   22  C   UNL     1     -11.264  11.736  63.852  1.00  0.00    -0.493 C  
BRANCH  22  23
HETATM   23  C   UNL     1     -10.009  11.017  63.363  1.00  0.00    -0.428 C  
BRANCH  23  24
HETATM   24  C   UNL     1      -9.065  10.685  64.514  1.00  0.00    -0.243 C  
HETATM   25  C   UNL     1      -8.309   9.400  64.262  1.00  0.00    -0.173 C  
HETATM   26  O   UNL     1      -7.455   9.107  65.270  1.00  0.00    -0.094 OA 
HETATM   27  O   UNL     1      -8.426   8.692  63.280  1.00  0.00    -0.170 OA 
ENDBRANCH  23  24
ENDBRANCH  22  23
ENDBRANCH  21  22
ENDBRANCH  20  21
ENDBRANCH  19  20
ENDBRANCH  18  19
ENDBRANCH  17  18
ENDBRANCH  15  16
ENDBRANCH  14  15
ENDBRANCH  13  14
ENDBRANCH  12  13
ENDBRANCH  11  12
ENDBRANCH  10  11
ENDBRANCH   6  10
TORSDOF 15
ENDMDL
MODEL      120
REMARK 921   NORMALIZED FREE ENERGY PREDICTED BY IDOCK:   -4.39 KCAL/MOL
REMARK 922        TOTAL FREE ENERGY PREDICTED BY IDOCK:  -10.18 KCAL/MOL
REMARK 923 INTER-LIGAND FREE ENERGY PREDICTED BY IDOCK:   -7.74 KCAL/MOL
REMARK 924 INTRA-LIGAND FREE ENERGY PREDICTED BY IDOCK:   -2.44 KCAL/MOL
REMARK 927      BINDING AFFINITY PREDICTED BY RF-SCORE:    0.00 PKD
ROOT
ATOM      1  N   GLY A   1      -6.737  15.406  69.519  1.00  0.00    -0.161 NA 
HETATM    2  C   UNL     1     -11.292  13.668  64.555  1.00  0.00    -0.393 C  
ATOM      3  H2  GLY A   1      -7.389  16.117  69.850  1.00  0.00     0.000 HD 
ATOM      4  H1  GLY A   1      -6.751  14.574  70.109  1.00  0.00     0.000 HD 
ATOM      5  CA  GLY A   1      -6.988  15.040  68.119  1.00  0.00    -0.124 C  
HETATM    6  C   UNL     1     -11.528  12.326  65.230  1.00  0.00    -0.399 C  
ENDROOT
BRANCH   5   7
ATOM      7  C   GLY A   1      -6.968  16.290  67.234  1.00  0.00    -0.192 C  
ATOM      8  H   GLY A   1      -7.987  16.972  65.705  1.00  0.00     0.000 HD 
ATOM      9  O   GLY A   1      -8.000  16.198  66.254  1.00  0.00    -0.271 OA 
ENDBRANCH   5   7
BRANCH   6  10
HETATM   10  C   UNL     1     -10.442  11.292  64.937  1.00  0.00    -0.375 C  
BRANCH  10  11
HETATM   11  C   UNL     1     -10.150  10.333  66.094  1.00  0.00    -0.307 C  
BRANCH  11  12
HETATM   12  C   UNL     1      -8.882  10.777  66.827  1.00  0.00    -0.147 C  
BRANCH  12  13
HETATM   13  C   UNL     1      -8.400   9.735  67.836  1.00  0.00    -0.114 C  
BRANCH  13  14
HETATM   14  C   UNL     1      -8.922   9.993  69.256  1.00  0.00    -0.186 C  
BRANCH  14  15
HETATM   15  C   UNL     1     -10.282   9.364  69.582  1.00  0.00    -0.225 C  
BRANCH  15  16
HETATM   16  C   UNL     1     -11.084  10.122  70.605  1.00  0.00    -0.397 C  
HETATM   17  C   UNL     1     -11.878  11.167  70.326  1.00  0.00    -0.455 C  
BRANCH  17  18
HETATM   18  C   UNL     1     -12.069  11.779  68.969  1.00  0.00    -0.276 C  
BRANCH  18  19
HETATM   19  C   UNL     1     -11.142  12.972  68.749  1.00  0.00    -0.311 C  
BRANCH  19  20
HETATM   20  C   UNL     1     -11.946  14.184  68.278  1.00  0.00    -0.367 C  
BRANCH  20  21
HETATM   21  C   UNL     1     -11.291  15.490  68.718  1.00  0.00    -0.339 C  
BRANCH  21  22
HETATM   22  C   UNL     1     -11.173  15.563  70.238  1.00  0.00    -0.342 C  
BRANCH  22  23
HETATM   23  C   UNL     1     -12.547  15.451  70.894  1.00  0.00    -0.496 C  
BRANCH  23  24
HETATM   24  C   UNL     1     -12.494  14.626  72.176  1.00  0.00    -0.394 C  
HETATM   25  C   UNL     1     -12.232  15.495  73.386  1.00  0.00    -0.522 C  
HETATM   26  O   UNL     1     -12.201  14.774  74.531  1.00  0.00    -0.477 OA 
HETATM   27  O   UNL     1     -12.069  16.700  73.370  1.00  0.00    -0.473 OA 
ENDBRANCH  23  24
ENDBRANCH  22  23
ENDBRANCH  21  22
ENDBRANCH  20  21
ENDBRANCH  19  20
ENDBRANCH  18  19
ENDBRANCH  17  18
ENDBRANCH  15  16
ENDBRANCH  14  15
ENDBRANCH  13  14
ENDBRANCH  12  13
ENDBRANCH  11  12
ENDBRANCH  10  11
ENDBRANCH   6  10
TORSDOF 15
ENDMDL
MODEL      121
REMARK 921   NORMALIZED FREE ENERGY PREDICTED BY IDOCK:   -4.38 KCAL/MOL
REMARK 922        TOTAL FREE ENERGY PREDICTED BY IDOCK:  -10.17 KCAL/MOL
REMARK 923 INTER-LIGAND FREE ENERGY PREDICTED BY IDOCK:   -7.93 KCAL/MOL
REMARK 924 INTRA-LIGAND FREE ENERGY PREDICTED BY IDOCK:   -2.24 KCAL/MOL
REMARK 927      BINDING AFFINITY PREDICTED BY RF-SCORE:    0.00 PKD
ROOT
ATOM      1  N   GLY A   1      -5.751  12.876  66.959  1.00  0.00    -0.431 NA 
HETATM    2  C   UNL     1      -9.912   9.262  71.206  1.00  0.00    -0.341 C  
ATOM      3  H2  GLY A   1      -5.181  12.041  66.827  1.00  0.00     0.000 HD 
ATOM      4  H1  GLY A   1      -6.368  13.046  66.165  1.00  0.00     0.000 HD 
ATOM      5  CA  GLY A   1      -6.529  12.819  68.204  1.00  0.00    -0.085 C  
HETATM    6  C   UNL     1     -11.038   9.347  70.187  1.00  0.00    -0.277 C  
ENDROOT
BRANCH   5   7
ATOM      7  C   GLY A   1      -5.602  12.564  69.396  1.00  0.00    -0.080 C  
ATOM      8  H   GLY A   1      -5.471  13.168  71.256  1.00  0.00     0.000 HD 
ATOM      9  O   GLY A   1      -6.046  13.326  70.516  1.00  0.00    -0.143 OA 
ENDBRANCH   5   7
BRANCH   6  10
HETATM   10  C   UNL     1     -11.778  10.684  70.200  1.00  0.00    -0.417 C  
BRANCH  10  11
HETATM   11  C   UNL     1     -11.542  11.552  68.962  1.00  0.00    -0.383 C  
BRANCH  11  12
HETATM   12  C   UNL     1     -11.087  10.673  67.794  1.00  0.00    -0.385 C  
BRANCH  12  13
HETATM   13  C   UNL     1      -9.643  10.957  67.382  1.00  0.00    -0.181 C  
BRANCH  13  14
HETATM   14  C   UNL     1      -9.528  11.552  65.972  1.00  0.00    -0.249 C  
BRANCH  14  15
HETATM   15  C   UNL     1     -10.167  10.721  64.853  1.00  0.00    -0.388 C  
BRANCH  15  16
HETATM   16  C   UNL     1     -10.338  11.461  63.554  1.00  0.00    -0.476 C  
HETATM   17  C   UNL     1     -11.435  12.156  63.213  1.00  0.00    -0.410 C  
BRANCH  17  18
HETATM   18  C   UNL     1     -12.681  12.278  64.040  1.00  0.00    -0.457 C  
BRANCH  18  19
HETATM   19  C   UNL     1     -12.507  13.272  65.186  1.00  0.00    -0.525 C  
BRANCH  19  20
HETATM   20  C   UNL     1     -12.133  14.649  64.636  1.00  0.00    -0.466 C  
BRANCH  20  21
HETATM   21  C   UNL     1     -10.935  15.235  65.376  1.00  0.00    -0.380 C  
BRANCH  21  22
HETATM   22  C   UNL     1     -11.035  14.982  66.877  1.00  0.00    -0.324 C  
BRANCH  22  23
HETATM   23  C   UNL     1     -10.005  15.815  67.637  1.00  0.00    -0.239 C  
BRANCH  23  24
HETATM   24  C   UNL     1      -9.526  17.006  66.813  1.00  0.00    -0.270 C  
HETATM   25  C   UNL     1      -8.097  16.825  66.352  1.00  0.00    -0.320 C  
HETATM   26  O   UNL     1      -7.669  17.868  65.604  1.00  0.00    -0.541 OA 
HETATM   27  O   UNL     1      -7.390  15.867  66.599  1.00  0.00    -0.166 OA 
ENDBRANCH  23  24
ENDBRANCH  22  23
ENDBRANCH  21  22
ENDBRANCH  20  21
ENDBRANCH  19  20
ENDBRANCH  18  19
ENDBRANCH  17  18
ENDBRANCH  15  16
ENDBRANCH  14  15
ENDBRANCH  13  14
ENDBRANCH  12  13
ENDBRANCH  11  12
ENDBRANCH  10  11
ENDBRANCH   6  10
TORSDOF 15
ENDMDL
MODEL      122
REMARK 921   NORMALIZED FREE ENERGY PREDICTED BY IDOCK:   -4.37 KCAL/MOL
REMARK 922        TOTAL FREE ENERGY PREDICTED BY IDOCK:  -10.16 KCAL/MOL
REMARK 923 INTER-LIGAND FREE ENERGY PREDICTED BY IDOCK:   -8.06 KCAL/MOL
REMARK 924 INTRA-LIGAND FREE ENERGY PREDICTED BY IDOCK:   -2.10 KCAL/MOL
REMARK 927      BINDING AFFINITY PREDICTED BY RF-SCORE:    0.00 PKD
ROOT
ATOM      1  N   GLY A   1     -10.383  19.748  69.017  1.00  0.00    -0.605 NA 
HETATM    2  C   UNL     1     -12.013  14.659  64.560  1.00  0.00    -0.473 C  
ATOM      3  H2  GLY A   1     -11.008  20.374  68.510  1.00  0.00     0.000 HD 
ATOM      4  H1  GLY A   1     -10.806  19.406  69.880  1.00  0.00     0.000 HD 
ATOM      5  CA  GLY A   1      -9.944  18.619  68.185  1.00  0.00    -0.358 C  
HETATM    6  C   UNL     1     -12.738  13.911  65.668  1.00  0.00    -0.534 C  
ENDROOT
BRANCH   5   7
ATOM      7  C   GLY A   1      -9.309  19.133  66.889  1.00  0.00    -0.319 C  
ATOM      8  H   GLY A   1      -9.641  18.945  64.967  1.00  0.00     0.000 HD 
ATOM      9  O   GLY A   1     -10.034  18.627  65.771  1.00  0.00    -0.504 OA 
ENDBRANCH   5   7
BRANCH   6  10
HETATM   10  C   UNL     1     -11.807  13.133  66.596  1.00  0.00    -0.449 C  
BRANCH  10  11
HETATM   11  C   UNL     1     -10.323  13.227  66.231  1.00  0.00    -0.290 C  
BRANCH  11  12
HETATM   12  C   UNL     1      -9.738  11.820  66.081  1.00  0.00    -0.250 C  
BRANCH  12  13
HETATM   13  C   UNL     1     -10.398  11.034  64.949  1.00  0.00    -0.378 C  
BRANCH  13  14
HETATM   14  C   UNL     1      -9.404  10.167  64.164  1.00  0.00    -0.340 C  
BRANCH  14  15
HETATM   15  C   UNL     1      -8.026   9.993  64.814  1.00  0.00    -0.144 C  
BRANCH  15  16
HETATM   16  C   UNL     1      -7.750   8.601  65.313  1.00  0.00    -0.092 C  
HETATM   17  C   UNL     1      -7.845   8.221  66.597  1.00  0.00    -0.094 C  
BRANCH  17  18
HETATM   18  C   UNL     1      -8.199   9.117  67.748  1.00  0.00    -0.109 C  
BRANCH  18  19
HETATM   19  C   UNL     1      -9.241   8.480  68.664  1.00  0.00    -0.142 C  
BRANCH  19  20
HETATM   20  C   UNL     1     -10.564   9.239  68.566  1.00  0.00    -0.222 C  
BRANCH  20  21
HETATM   21  C   UNL     1     -10.538  10.510  69.409  1.00  0.00    -0.269 C  
BRANCH  21  22
HETATM   22  C   UNL     1     -11.951  10.961  69.771  1.00  0.00    -0.423 C  
BRANCH  22  23
HETATM   23  C   UNL     1     -11.947  12.404  70.271  1.00  0.00    -0.371 C  
BRANCH  23  24
HETATM   24  C   UNL     1     -12.760  12.558  71.552  1.00  0.00    -0.325 C  
HETATM   25  C   UNL     1     -13.373  13.936  71.660  1.00  0.00    -0.362 C  
HETATM   26  O   UNL     1     -14.112  14.077  72.785  1.00  0.00    -0.636 OA 
HETATM   27  O   UNL     1     -13.243  14.834  70.849  1.00  0.00    -0.371 OA 
ENDBRANCH  23  24
ENDBRANCH  22  23
ENDBRANCH  21  22
ENDBRANCH  20  21
ENDBRANCH  19  20
ENDBRANCH  18  19
ENDBRANCH  17  18
ENDBRANCH  15  16
ENDBRANCH  14  15
ENDBRANCH  13  14
ENDBRANCH  12  13
ENDBRANCH  11  12
ENDBRANCH  10  11
ENDBRANCH   6  10
TORSDOF 15
ENDMDL
MODEL      123
REMARK 921   NORMALIZED FREE ENERGY PREDICTED BY IDOCK:   -4.37 KCAL/MOL
REMARK 922        TOTAL FREE ENERGY PREDICTED BY IDOCK:  -10.15 KCAL/MOL
REMARK 923 INTER-LIGAND FREE ENERGY PREDICTED BY IDOCK:   -8.07 KCAL/MOL
REMARK 924 INTRA-LIGAND FREE ENERGY PREDICTED BY IDOCK:   -2.07 KCAL/MOL
REMARK 927      BINDING AFFINITY PREDICTED BY RF-SCORE:    0.00 PKD
ROOT
ATOM      1  N   GLY A   1     -10.456  19.972  68.805  1.00  0.00    -0.507 NA 
HETATM    2  C   UNL     1     -11.910  14.576  64.660  1.00  0.00    -0.462 C  
ATOM      3  H2  GLY A   1     -11.100  20.547  68.261  1.00  0.00     0.000 HD 
ATOM      4  H1  GLY A   1     -10.869  19.669  69.687  1.00  0.00     0.000 HD 
ATOM      5  CA  GLY A   1      -9.978  18.811  68.042  1.00  0.00    -0.356 C  
HETATM    6  C   UNL     1     -12.613  13.873  65.810  1.00  0.00    -0.533 C  
ENDROOT
BRANCH   5   7
ATOM      7  C   GLY A   1      -9.358  19.267  66.718  1.00  0.00    -0.329 C  
ATOM      8  H   GLY A   1      -9.918  19.374  64.843  1.00  0.00     0.000 HD 
ATOM      9  O   GLY A   1     -10.302  19.092  65.664  1.00  0.00    -0.531 OA 
ENDBRANCH   5   7
BRANCH   6  10
HETATM   10  C   UNL     1     -11.659  13.182  66.783  1.00  0.00    -0.414 C  
BRANCH  10  11
HETATM   11  C   UNL     1     -11.535  11.669  66.585  1.00  0.00    -0.280 C  
BRANCH  11  12
HETATM   12  C   UNL     1     -10.251  11.352  65.814  1.00  0.00    -0.295 C  
BRANCH  12  13
HETATM   13  C   UNL     1      -9.781   9.916  66.037  1.00  0.00    -0.310 C  
BRANCH  13  14
HETATM   14  C   UNL     1      -8.562   9.823  66.965  1.00  0.00    -0.127 C  
BRANCH  14  15
HETATM   15  C   UNL     1      -8.660   8.773  68.078  1.00  0.00    -0.134 C  
BRANCH  15  16
HETATM   16  C   UNL     1      -8.510   9.330  69.468  1.00  0.00    -0.144 C  
HETATM   17  C   UNL     1      -9.512   9.853  70.190  1.00  0.00    -0.214 C  
BRANCH  17  18
HETATM   18  C   UNL     1     -10.931  10.010  69.727  1.00  0.00    -0.317 C  
BRANCH  18  19
HETATM   19  C   UNL     1     -11.912  10.022  70.896  1.00  0.00    -0.453 C  
BRANCH  19  20
HETATM   20  C   UNL     1     -11.533   8.945  71.913  1.00  0.00    -0.442 C  
BRANCH  20  21
HETATM   21  C   UNL     1     -12.042   7.572  71.484  1.00  0.00    -0.345 C  
BRANCH  21  22
HETATM   22  C   UNL     1     -10.996   6.491  71.739  1.00  0.00    -0.287 C  
BRANCH  22  23
HETATM   23  C   UNL     1     -10.636   5.769  70.443  1.00  0.00    -0.365 C  
BRANCH  23  24
HETATM   24  C   UNL     1     -11.257   6.451  69.227  1.00  0.00    -0.440 C  
HETATM   25  C   UNL     1     -10.688   5.909  67.935  1.00  0.00    -0.255 C  
HETATM   26  O   UNL     1     -11.246   6.495  66.850  1.00  0.00    -0.387 OA 
HETATM   27  O   UNL     1      -9.835   5.047  67.843  1.00  0.00    -0.147 OA 
ENDBRANCH  23  24
ENDBRANCH  22  23
ENDBRANCH  21  22
ENDBRANCH  20  21
ENDBRANCH  19  20
ENDBRANCH  18  19
ENDBRANCH  17  18
ENDBRANCH  15  16
ENDBRANCH  14  15
ENDBRANCH  13  14
ENDBRANCH  12  13
ENDBRANCH  11  12
ENDBRANCH  10  11
ENDBRANCH   6  10
TORSDOF 15
ENDMDL
MODEL      124
REMARK 921   NORMALIZED FREE ENERGY PREDICTED BY IDOCK:   -4.37 KCAL/MOL
REMARK 922        TOTAL FREE ENERGY PREDICTED BY IDOCK:  -10.14 KCAL/MOL
REMARK 923 INTER-LIGAND FREE ENERGY PREDICTED BY IDOCK:   -7.79 KCAL/MOL
REMARK 924 INTRA-LIGAND FREE ENERGY PREDICTED BY IDOCK:   -2.35 KCAL/MOL
REMARK 927      BINDING AFFINITY PREDICTED BY RF-SCORE:    0.00 PKD
ROOT
ATOM      1  N   GLY A   1     -13.217  11.073  72.050  1.00  0.00    -0.553 NA 
HETATM    2  C   UNL     1     -10.310   5.275  69.529  1.00  0.00    -0.333 C  
ATOM      3  H2  GLY A   1     -12.661  10.967  72.898  1.00  0.00     0.000 HD 
ATOM      4  H1  GLY A   1     -12.830  11.782  71.427  1.00  0.00     0.000 HD 
ATOM      5  CA  GLY A   1     -13.373   9.799  71.334  1.00  0.00    -0.371 C  
HETATM    6  C   UNL     1      -9.581   6.091  68.473  1.00  0.00    -0.134 C  
ENDROOT
BRANCH   5   7
ATOM      7  C   GLY A   1     -13.954   8.734  72.268  1.00  0.00    -0.447 C  
ATOM      8  H   GLY A   1     -14.621   6.900  72.101  1.00  0.00     0.000 HD 
ATOM      9  O   GLY A   1     -14.261   7.560  71.521  1.00  0.00    -0.434 OA 
ENDBRANCH   5   7
BRANCH   6  10
HETATM   10  C   UNL     1     -10.454   6.467  67.276  1.00  0.00    -0.326 C  
BRANCH  10  11
HETATM   11  C   UNL     1     -10.607   7.973  67.050  1.00  0.00    -0.364 C  
BRANCH  11  12
HETATM   12  C   UNL     1      -9.375   8.704  67.590  1.00  0.00    -0.157 C  
BRANCH  12  13
HETATM   13  C   UNL     1      -9.724  10.068  68.183  1.00  0.00    -0.156 C  
BRANCH  13  14
HETATM   14  C   UNL     1     -11.237  10.304  68.292  1.00  0.00    -0.295 C  
BRANCH  14  15
HETATM   15  C   UNL     1     -11.709  11.723  67.953  1.00  0.00    -0.347 C  
BRANCH  15  16
HETATM   16  C   UNL     1     -11.034  12.806  68.750  1.00  0.00    -0.289 C  
HETATM   17  C   UNL     1     -11.090  14.114  68.457  1.00  0.00    -0.276 C  
BRANCH  17  18
HETATM   18  C   UNL     1     -11.791  14.712  67.272  1.00  0.00    -0.375 C  
BRANCH  18  19
HETATM   19  C   UNL     1     -10.824  15.000  66.126  1.00  0.00    -0.329 C  
BRANCH  19  20
HETATM   20  C   UNL     1     -11.536  14.842  64.783  1.00  0.00    -0.418 C  
BRANCH  20  21
HETATM   21  C   UNL     1     -12.168  13.459  64.649  1.00  0.00    -0.456 C  
BRANCH  21  22
HETATM   22  C   UNL     1     -11.393  12.592  63.662  1.00  0.00    -0.555 C  
BRANCH  22  23
HETATM   23  C   UNL     1     -11.077  11.228  64.271  1.00  0.00    -0.293 C  
BRANCH  23  24
HETATM   24  C   UNL     1      -9.713  11.218  64.955  1.00  0.00    -0.293 C  
HETATM   25  C   UNL     1      -8.728  10.339  64.219  1.00  0.00    -0.206 C  
HETATM   26  O   UNL     1      -7.509  10.339  64.809  1.00  0.00    -0.143 OA 
HETATM   27  O   UNL     1      -8.964   9.699  63.212  1.00  0.00    -0.239 OA 
ENDBRANCH  23  24
ENDBRANCH  22  23
ENDBRANCH  21  22
ENDBRANCH  20  21
ENDBRANCH  19  20
ENDBRANCH  18  19
ENDBRANCH  17  18
ENDBRANCH  15  16
ENDBRANCH  14  15
ENDBRANCH  13  14
ENDBRANCH  12  13
ENDBRANCH  11  12
ENDBRANCH  10  11
ENDBRANCH   6  10
TORSDOF 15
ENDMDL
MODEL      125
REMARK 921   NORMALIZED FREE ENERGY PREDICTED BY IDOCK:   -4.37 KCAL/MOL
REMARK 922        TOTAL FREE ENERGY PREDICTED BY IDOCK:  -10.14 KCAL/MOL
REMARK 923 INTER-LIGAND FREE ENERGY PREDICTED BY IDOCK:   -7.82 KCAL/MOL
REMARK 924 INTRA-LIGAND FREE ENERGY PREDICTED BY IDOCK:   -2.33 KCAL/MOL
REMARK 927      BINDING AFFINITY PREDICTED BY RF-SCORE:    0.00 PKD
ROOT
ATOM      1  N   GLY A   1     -13.301  11.000  72.148  1.00  0.00    -0.585 NA 
HETATM    2  C   UNL     1     -10.095   5.729  68.932  1.00  0.00    -0.242 C  
ATOM      3  H2  GLY A   1     -12.720  10.835  72.970  1.00  0.00     0.000 HD 
ATOM      4  H1  GLY A   1     -12.975  11.799  71.605  1.00  0.00     0.000 HD 
ATOM      5  CA  GLY A   1     -13.394   9.809  71.294  1.00  0.00    -0.339 C  
HETATM    6  C   UNL     1      -9.445   6.705  67.964  1.00  0.00    -0.118 C  
ENDROOT
BRANCH   5   7
ATOM      7  C   GLY A   1     -13.884   8.609  72.109  1.00  0.00    -0.429 C  
ATOM      8  H   GLY A   1     -14.008   6.669  71.860  1.00  0.00     0.000 HD 
ATOM      9  O   GLY A   1     -13.704   7.414  71.354  1.00  0.00    -0.383 OA 
ENDBRANCH   5   7
BRANCH   6  10
HETATM   10  C   UNL     1     -10.367   7.156  66.833  1.00  0.00    -0.349 C  
BRANCH  10  11
HETATM   11  C   UNL     1     -10.280   8.647  66.499  1.00  0.00    -0.295 C  
BRANCH  11  12
HETATM   12  C   UNL     1      -9.031   8.916  65.656  1.00  0.00    -0.249 C  
BRANCH  12  13
HETATM   13  C   UNL     1      -9.301   9.897  64.516  1.00  0.00    -0.336 C  
BRANCH  13  14
HETATM   14  C   UNL     1      -9.947  11.205  64.993  1.00  0.00    -0.325 C  
BRANCH  14  15
HETATM   15  C   UNL     1     -10.878  11.887  63.982  1.00  0.00    -0.438 C  
BRANCH  15  16
HETATM   16  C   UNL     1     -12.186  12.352  64.563  1.00  0.00    -0.509 C  
HETATM   17  C   UNL     1     -12.467  13.625  64.883  1.00  0.00    -0.423 C  
BRANCH  17  18
HETATM   18  C   UNL     1     -11.522  14.784  64.756  1.00  0.00    -0.410 C  
BRANCH  18  19
HETATM   19  C   UNL     1     -10.510  14.819  65.899  1.00  0.00    -0.324 C  
BRANCH  19  20
HETATM   20  C   UNL     1     -11.226  14.668  67.241  1.00  0.00    -0.344 C  
BRANCH  20  21
HETATM   21  C   UNL     1     -10.690  13.475  68.026  1.00  0.00    -0.263 C  
BRANCH  21  22
HETATM   22  C   UNL     1     -11.766  12.409  68.213  1.00  0.00    -0.398 C  
BRANCH  22  23
HETATM   23  C   UNL     1     -11.170  11.136  68.809  1.00  0.00    -0.314 C  
BRANCH  23  24
HETATM   24  C   UNL     1      -9.648  11.123  68.702  1.00  0.00    -0.200 C  
HETATM   25  C   UNL     1      -9.035  10.091  69.621  1.00  0.00    -0.202 C  
HETATM   26  O   UNL     1      -7.686  10.059  69.520  1.00  0.00    -0.113 OA 
HETATM   27  O   UNL     1      -9.649   9.357  70.371  1.00  0.00    -0.230 OA 
ENDBRANCH  23  24
ENDBRANCH  22  23
ENDBRANCH  21  22
ENDBRANCH  20  21
ENDBRANCH  19  20
ENDBRANCH  18  19
ENDBRANCH  17  18
ENDBRANCH  15  16
ENDBRANCH  14  15
ENDBRANCH  13  14
ENDBRANCH  12  13
ENDBRANCH  11  12
ENDBRANCH  10  11
ENDBRANCH   6  10
TORSDOF 15
ENDMDL
MODEL      126
REMARK 921   NORMALIZED FREE ENERGY PREDICTED BY IDOCK:   -4.37 KCAL/MOL
REMARK 922        TOTAL FREE ENERGY PREDICTED BY IDOCK:  -10.14 KCAL/MOL
REMARK 923 INTER-LIGAND FREE ENERGY PREDICTED BY IDOCK:   -7.61 KCAL/MOL
REMARK 924 INTRA-LIGAND FREE ENERGY PREDICTED BY IDOCK:   -2.53 KCAL/MOL
REMARK 927      BINDING AFFINITY PREDICTED BY RF-SCORE:    0.00 PKD
ROOT
ATOM      1  N   GLY A   1     -12.467  14.098  63.195  1.00  0.00    -1.037 NA 
HETATM    2  C   UNL     1      -8.428  11.938  68.433  1.00  0.00    -0.155 C  
ATOM      3  H2  GLY A   1     -11.662  14.045  62.571  1.00  0.00     0.000 HD 
ATOM      4  H1  GLY A   1     -13.092  13.302  63.079  1.00  0.00     0.000 HD 
ATOM      5  CA  GLY A   1     -12.061  14.224  64.602  1.00  0.00    -0.463 C  
HETATM    6  C   UNL     1      -9.190  10.623  68.488  1.00  0.00    -0.170 C  
ENDROOT
BRANCH   5   7
ATOM      7  C   GLY A   1     -11.122  15.420  64.777  1.00  0.00    -0.403 C  
ATOM      8  H   GLY A   1     -10.957  17.226  64.035  1.00  0.00     0.000 HD 
ATOM      9  O   GLY A   1     -11.540  16.484  63.926  1.00  0.00    -1.175 OA 
ENDBRANCH   5   7
BRANCH   6  10
HETATM   10  C   UNL     1     -10.523  10.716  69.230  1.00  0.00    -0.252 C  
BRANCH  10  11
HETATM   11  C   UNL     1     -11.010   9.393  69.827  1.00  0.00    -0.234 C  
BRANCH  11  12
HETATM   12  C   UNL     1     -11.917   9.671  71.028  1.00  0.00    -0.427 C  
BRANCH  12  13
HETATM   13  C   UNL     1     -11.573   8.794  72.231  1.00  0.00    -0.391 C  
BRANCH  13  14
HETATM   14  C   UNL     1     -10.073   8.487  72.337  1.00  0.00    -0.365 C  
BRANCH  14  15
HETATM   15  C   UNL     1      -9.720   7.143  72.986  1.00  0.00    -0.216 C  
BRANCH  15  16
HETATM   16  C   UNL     1     -10.770   6.079  72.814  1.00  0.00    -0.269 C  
HETATM   17  C   UNL     1     -11.026   5.443  71.660  1.00  0.00    -0.184 C  
BRANCH  17  18
HETATM   18  C   UNL     1     -10.346   5.708  70.349  1.00  0.00    -0.330 C  
BRANCH  18  19
HETATM   19  C   UNL     1      -9.095   4.850  70.175  1.00  0.00    -0.157 C  
BRANCH  19  20
HETATM   20  C   UNL     1      -7.855   5.740  70.091  1.00  0.00    -0.099 C  
BRANCH  20  21
HETATM   21  C   UNL     1      -8.169   7.068  69.410  1.00  0.00    -0.132 C  
BRANCH  21  22
HETATM   22  C   UNL     1      -7.264   7.296  68.202  1.00  0.00    -0.091 C  
BRANCH  22  23
HETATM   23  C   UNL     1      -8.092   7.476  66.932  1.00  0.00    -0.116 C  
BRANCH  23  24
HETATM   24  C   UNL     1      -8.761   6.173  66.506  1.00  0.00    -0.133 C  
HETATM   25  C   UNL     1     -10.267   6.264  66.599  1.00  0.00    -0.164 C  
HETATM   26  O   UNL     1     -10.870   5.119  66.205  1.00  0.00    -0.296 OA 
HETATM   27  O   UNL     1     -10.896   7.236  66.973  1.00  0.00    -0.357 OA 
ENDBRANCH  23  24
ENDBRANCH  22  23
ENDBRANCH  21  22
ENDBRANCH  20  21
ENDBRANCH  19  20
ENDBRANCH  18  19
ENDBRANCH  17  18
ENDBRANCH  15  16
ENDBRANCH  14  15
ENDBRANCH  13  14
ENDBRANCH  12  13
ENDBRANCH  11  12
ENDBRANCH  10  11
ENDBRANCH   6  10
TORSDOF 15
ENDMDL
MODEL      127
REMARK 921   NORMALIZED FREE ENERGY PREDICTED BY IDOCK:   -4.36 KCAL/MOL
REMARK 922        TOTAL FREE ENERGY PREDICTED BY IDOCK:  -10.12 KCAL/MOL
REMARK 923 INTER-LIGAND FREE ENERGY PREDICTED BY IDOCK:   -8.05 KCAL/MOL
REMARK 924 INTRA-LIGAND FREE ENERGY PREDICTED BY IDOCK:   -2.07 KCAL/MOL
REMARK 927      BINDING AFFINITY PREDICTED BY RF-SCORE:    0.00 PKD
ROOT
ATOM      1  N   GLY A   1      -8.532   8.757  74.091  1.00  0.00    -0.245 NA 
HETATM    2  C   UNL     1      -9.292   9.690  67.238  1.00  0.00    -0.163 C  
ATOM      3  H2  GLY A   1      -7.532   8.933  73.991  1.00  0.00     0.000 HD 
ATOM      4  H1  GLY A   1      -9.026   9.568  74.463  1.00  0.00     0.000 HD 
ATOM      5  CA  GLY A   1      -9.143   8.327  72.826  1.00  0.00    -0.262 C  
HETATM    6  C   UNL     1     -10.070  10.972  67.491  1.00  0.00    -0.208 C  
ENDROOT
BRANCH   5   7
ATOM      7  C   GLY A   1      -8.401   7.109  72.267  1.00  0.00    -0.109 C  
ATOM      8  H   GLY A   1      -6.596   6.714  71.616  1.00  0.00     0.000 HD 
ATOM      9  O   GLY A   1      -7.056   7.469  71.962  1.00  0.00    -0.061 OA 
ENDBRANCH   5   7
BRANCH   6  10
HETATM   10  C   UNL     1     -11.532  10.739  67.869  1.00  0.00    -0.306 C  
BRANCH  10  11
HETATM   11  C   UNL     1     -11.948  11.356  69.207  1.00  0.00    -0.400 C  
BRANCH  11  12
HETATM   12  C   UNL     1     -11.425  10.494  70.359  1.00  0.00    -0.427 C  
BRANCH  12  13
HETATM   13  C   UNL     1     -12.347  10.531  71.577  1.00  0.00    -0.443 C  
BRANCH  13  14
HETATM   14  C   UNL     1     -13.400  11.645  71.496  1.00  0.00    -0.148 C  
BRANCH  14  15
HETATM   15  C   UNL     1     -13.061  12.929  72.264  1.00  0.00    -0.421 C  
BRANCH  15  16
HETATM   16  C   UNL     1     -13.906  14.115  71.889  1.00  0.00    -0.539 C  
HETATM   17  C   UNL     1     -13.426  15.259  71.375  1.00  0.00    -0.588 C  
BRANCH  17  18
HETATM   18  C   UNL     1     -11.977  15.564  71.129  1.00  0.00    -0.432 C  
BRANCH  18  19
HETATM   19  C   UNL     1     -11.685  15.769  69.644  1.00  0.00    -0.363 C  
BRANCH  19  20
HETATM   20  C   UNL     1     -10.917  14.571  69.088  1.00  0.00    -0.286 C  
BRANCH  20  21
HETATM   21  C   UNL     1     -10.333  14.875  67.712  1.00  0.00    -0.244 C  
BRANCH  21  22
HETATM   22  C   UNL     1     -11.419  15.322  66.738  1.00  0.00    -0.123 C  
BRANCH  22  23
HETATM   23  C   UNL     1     -12.002  14.125  65.990  1.00  0.00    -0.427 C  
BRANCH  23  24
HETATM   24  C   UNL     1     -10.955  13.444  65.115  1.00  0.00    -0.315 C  
HETATM   25  C   UNL     1     -11.595  12.570  64.060  1.00  0.00    -0.413 C  
HETATM   26  O   UNL     1     -10.674  11.975  63.267  1.00  0.00    -0.408 OA 
HETATM   27  O   UNL     1     -12.790  12.402  63.910  1.00  0.00    -0.718 OA 
ENDBRANCH  23  24
ENDBRANCH  22  23
ENDBRANCH  21  22
ENDBRANCH  20  21
ENDBRANCH  19  20
ENDBRANCH  18  19
ENDBRANCH  17  18
ENDBRANCH  15  16
ENDBRANCH  14  15
ENDBRANCH  13  14
ENDBRANCH  12  13
ENDBRANCH  11  12
ENDBRANCH  10  11
ENDBRANCH   6  10
TORSDOF 15
ENDMDL
MODEL      128
REMARK 921   NORMALIZED FREE ENERGY PREDICTED BY IDOCK:   -4.35 KCAL/MOL
REMARK 922        TOTAL FREE ENERGY PREDICTED BY IDOCK:  -10.12 KCAL/MOL
REMARK 923 INTER-LIGAND FREE ENERGY PREDICTED BY IDOCK:   -8.56 KCAL/MOL
REMARK 924 INTRA-LIGAND FREE ENERGY PREDICTED BY IDOCK:   -1.55 KCAL/MOL
REMARK 927      BINDING AFFINITY PREDICTED BY RF-SCORE:    0.00 PKD
ROOT
ATOM      1  N   GLY A   1     -12.290  12.221  65.288  1.00  0.00    -0.553 NA 
HETATM    2  C   UNL     1     -11.199  16.458  70.699  1.00  0.00    -0.211 C  
ATOM      3  H2  GLY A   1     -11.281  12.118  65.182  1.00  0.00     0.000 HD 
ATOM      4  H1  GLY A   1     -12.708  11.411  65.745  1.00  0.00     0.000 HD 
ATOM      5  CA  GLY A   1     -12.643  13.450  66.011  1.00  0.00    -0.296 C  
HETATM    6  C   UNL     1     -11.778  15.415  71.642  1.00  0.00    -0.483 C  
ENDROOT
BRANCH   5   7
ATOM      7  C   GLY A   1     -12.014  14.667  65.325  1.00  0.00    -0.302 C  
ATOM      8  H   GLY A   1     -12.083  15.499  63.553  1.00  0.00     0.000 HD 
ATOM      9  O   GLY A   1     -12.473  14.745  63.978  1.00  0.00    -0.803 OA 
ENDBRANCH   5   7
BRANCH   6  10
HETATM   10  C   UNL     1     -13.306  15.383  71.661  1.00  0.00    -0.578 C  
BRANCH  10  11
HETATM   11  C   UNL     1     -13.909  13.997  71.903  1.00  0.00    -0.533 C  
BRANCH  11  12
HETATM   12  C   UNL     1     -12.959  12.920  71.373  1.00  0.00    -0.362 C  
BRANCH  12  13
HETATM   13  C   UNL     1     -13.289  11.534  71.923  1.00  0.00    -0.408 C  
BRANCH  13  14
HETATM   14  C   UNL     1     -12.967  10.405  70.933  1.00  0.00    -0.475 C  
BRANCH  14  15
HETATM   15  C   UNL     1     -12.341   9.148  71.549  1.00  0.00    -0.421 C  
BRANCH  15  16
HETATM   16  C   UNL     1     -10.878   8.974  71.243  1.00  0.00    -0.385 C  
HETATM   17  C   UNL     1     -10.275   7.788  71.063  1.00  0.00    -0.210 C  
BRANCH  17  18
HETATM   18  C   UNL     1     -10.938   6.447  71.175  1.00  0.00    -0.327 C  
BRANCH  18  19
HETATM   19  C   UNL     1     -10.412   5.465  70.131  1.00  0.00    -0.361 C  
BRANCH  19  20
HETATM   20  C   UNL     1     -10.713   5.980  68.724  1.00  0.00    -0.375 C  
BRANCH  20  21
HETATM   21  C   UNL     1      -9.451   6.036  67.870  1.00  0.00    -0.112 C  
BRANCH  21  22
HETATM   22  C   UNL     1      -9.604   7.029  66.722  1.00  0.00    -0.221 C  
BRANCH  22  23
HETATM   23  C   UNL     1     -10.530   8.177  67.119  1.00  0.00    -0.396 C  
BRANCH  23  24
HETATM   24  C   UNL     1     -10.221   9.448  66.334  1.00  0.00    -0.300 C  
HETATM   25  C   UNL     1      -9.230  10.326  67.064  1.00  0.00    -0.150 C  
HETATM   26  O   UNL     1      -8.935  11.448  66.367  1.00  0.00    -0.182 OA 
HETATM   27  O   UNL     1      -8.732  10.083  68.147  1.00  0.00    -0.120 OA 
ENDBRANCH  23  24
ENDBRANCH  22  23
ENDBRANCH  21  22
ENDBRANCH  20  21
ENDBRANCH  19  20
ENDBRANCH  18  19
ENDBRANCH  17  18
ENDBRANCH  15  16
ENDBRANCH  14  15
ENDBRANCH  13  14
ENDBRANCH  12  13
ENDBRANCH  11  12
ENDBRANCH  10  11
ENDBRANCH   6  10
TORSDOF 15
ENDMDL
MODEL      129
REMARK 921   NORMALIZED FREE ENERGY PREDICTED BY IDOCK:   -4.35 KCAL/MOL
REMARK 922        TOTAL FREE ENERGY PREDICTED BY IDOCK:  -10.11 KCAL/MOL
REMARK 923 INTER-LIGAND FREE ENERGY PREDICTED BY IDOCK:   -7.81 KCAL/MOL
REMARK 924 INTRA-LIGAND FREE ENERGY PREDICTED BY IDOCK:   -2.31 KCAL/MOL
REMARK 927      BINDING AFFINITY PREDICTED BY RF-SCORE:    0.00 PKD
ROOT
ATOM      1  N   GLY A   1      -8.347  20.002  65.943  1.00  0.00    -0.504 NA 
HETATM    2  C   UNL     1     -11.887  15.115  69.406  1.00  0.00    -0.357 C  
ATOM      3  H2  GLY A   1      -7.753  20.133  66.761  1.00  0.00     0.000 HD 
ATOM      4  H1  GLY A   1      -7.885  19.447  65.222  1.00  0.00     0.000 HD 
ATOM      5  CA  GLY A   1      -9.641  19.402  66.295  1.00  0.00    -0.375 C  
HETATM    6  C   UNL     1     -11.338  14.046  68.474  1.00  0.00    -0.308 C  
ENDROOT
BRANCH   5   7
ATOM      7  C   GLY A   1     -10.334  20.235  67.377  1.00  0.00    -0.283 C  
ATOM      8  H   GLY A   1     -10.489  20.192  69.330  1.00  0.00     0.000 HD 
ATOM      9  O   GLY A   1     -10.059  19.676  68.658  1.00  0.00    -0.428 OA 
ENDBRANCH   5   7
BRANCH   6  10
HETATM   10  C   UNL     1     -12.066  13.969  67.132  1.00  0.00    -0.436 C  
BRANCH  10  11
HETATM   11  C   UNL     1     -11.951  12.616  66.425  1.00  0.00    -0.425 C  
BRANCH  11  12
HETATM   12  C   UNL     1     -10.733  11.856  66.957  1.00  0.00    -0.280 C  
BRANCH  12  13
HETATM   13  C   UNL     1     -11.111  10.503  67.557  1.00  0.00    -0.358 C  
BRANCH  13  14
HETATM   14  C   UNL     1     -11.009  10.479  69.089  1.00  0.00    -0.286 C  
BRANCH  14  15
HETATM   15  C   UNL     1     -12.332  10.669  69.840  1.00  0.00    -0.304 C  
BRANCH  15  16
HETATM   16  C   UNL     1     -12.220  10.527  71.334  1.00  0.00    -0.429 C  
HETATM   17  C   UNL     1     -12.930   9.657  72.070  1.00  0.00    -0.518 C  
BRANCH  17  18
HETATM   18  C   UNL     1     -13.975   8.718  71.543  1.00  0.00    -0.391 C  
BRANCH  18  19
HETATM   19  C   UNL     1     -13.401   7.331  71.261  1.00  0.00    -0.338 C  
BRANCH  19  20
HETATM   20  C   UNL     1     -12.228   7.046  72.199  1.00  0.00    -0.255 C  
BRANCH  20  21
HETATM   21  C   UNL     1     -11.088   6.345  71.466  1.00  0.00    -0.322 C  
BRANCH  21  22
HETATM   22  C   UNL     1      -9.913   7.292  71.240  1.00  0.00    -0.191 C  
BRANCH  22  23
HETATM   23  C   UNL     1      -9.486   7.284  69.774  1.00  0.00    -0.149 C  
BRANCH  23  24
HETATM   24  C   UNL     1     -10.512   6.580  68.892  1.00  0.00    -0.249 C  
HETATM   25  C   UNL     1     -10.244   6.823  67.424  1.00  0.00    -0.197 C  
HETATM   26  O   UNL     1     -11.138   6.186  66.632  1.00  0.00    -0.284 OA 
HETATM   27  O   UNL     1      -9.338   7.498  66.972  1.00  0.00    -0.136 OA 
ENDBRANCH  23  24
ENDBRANCH  22  23
ENDBRANCH  21  22
ENDBRANCH  20  21
ENDBRANCH  19  20
ENDBRANCH  18  19
ENDBRANCH  17  18
ENDBRANCH  15  16
ENDBRANCH  14  15
ENDBRANCH  13  14
ENDBRANCH  12  13
ENDBRANCH  11  12
ENDBRANCH  10  11
ENDBRANCH   6  10
TORSDOF 15
ENDMDL
MODEL      130
REMARK 921   NORMALIZED FREE ENERGY PREDICTED BY IDOCK:   -4.35 KCAL/MOL
REMARK 922        TOTAL FREE ENERGY PREDICTED BY IDOCK:  -10.11 KCAL/MOL
REMARK 923 INTER-LIGAND FREE ENERGY PREDICTED BY IDOCK:   -8.18 KCAL/MOL
REMARK 924 INTRA-LIGAND FREE ENERGY PREDICTED BY IDOCK:   -1.93 KCAL/MOL
REMARK 927      BINDING AFFINITY PREDICTED BY RF-SCORE:    0.00 PKD
ROOT
ATOM      1  N   GLY A   1      -9.879  20.577  65.806  1.00  0.00    -0.550 NA 
HETATM    2  C   UNL     1     -10.061  14.273  68.744  1.00  0.00    -0.217 C  
ATOM      3  H2  GLY A   1      -9.535  20.152  64.946  1.00  0.00     0.000 HD 
ATOM      4  H1  GLY A   1     -10.872  20.803  65.748  1.00  0.00     0.000 HD 
ATOM      5  CA  GLY A   1      -9.619  19.731  66.979  1.00  0.00    -0.369 C  
HETATM    6  C   UNL     1     -11.580  14.325  68.781  1.00  0.00    -0.357 C  
ENDROOT
BRANCH   5   7
ATOM      7  C   GLY A   1      -8.129  19.391  67.066  1.00  0.00    -0.266 C  
ATOM      8  H   GLY A   1      -6.753  18.688  65.861  1.00  0.00     0.000 HD 
ATOM      9  O   GLY A   1      -7.677  18.899  65.807  1.00  0.00    -0.465 OA 
ENDBRANCH   5   7
BRANCH   6  10
HETATM   10  C   UNL     1     -12.139  15.150  69.940  1.00  0.00    -0.373 C  
BRANCH  10  11
HETATM   11  C   UNL     1     -12.686  14.321  71.104  1.00  0.00    -0.430 C  
BRANCH  11  12
HETATM   12  C   UNL     1     -12.532  12.829  70.793  1.00  0.00    -0.357 C  
BRANCH  12  13
HETATM   13  C   UNL     1     -13.214  11.946  71.837  1.00  0.00    -0.467 C  
BRANCH  13  14
HETATM   14  C   UNL     1     -13.031  10.447  71.563  1.00  0.00    -0.562 C  
BRANCH  14  15
HETATM   15  C   UNL     1     -11.779  10.072  70.760  1.00  0.00    -0.437 C  
BRANCH  15  16
HETATM   16  C   UNL     1     -10.829   9.159  71.487  1.00  0.00    -0.436 C  
HETATM   17  C   UNL     1     -10.415   7.969  71.025  1.00  0.00    -0.229 C  
BRANCH  17  18
HETATM   18  C   UNL     1     -10.853   7.333  69.738  1.00  0.00    -0.251 C  
BRANCH  18  19
HETATM   19  C   UNL     1      -9.671   7.049  68.814  1.00  0.00    -0.143 C  
BRANCH  19  20
HETATM   20  C   UNL     1      -9.119   8.357  68.248  1.00  0.00    -0.139 C  
BRANCH  20  21
HETATM   21  C   UNL     1     -10.163   9.081  67.404  1.00  0.00    -0.308 C  
BRANCH  21  22
HETATM   22  C   UNL     1     -10.051  10.594  67.565  1.00  0.00    -0.217 C  
BRANCH  22  23
HETATM   23  C   UNL     1     -11.091  11.309  66.706  1.00  0.00    -0.314 C  
BRANCH  23  24
HETATM   24  C   UNL     1     -10.781  11.175  65.218  1.00  0.00    -0.271 C  
HETATM   25  C   UNL     1     -10.459  12.514  64.594  1.00  0.00    -0.319 C  
HETATM   26  O   UNL     1     -10.165  12.402  63.277  1.00  0.00    -0.373 OA 
HETATM   27  O   UNL     1     -10.450  13.582  65.175  1.00  0.00    -0.327 OA 
ENDBRANCH  23  24
ENDBRANCH  22  23
ENDBRANCH  21  22
ENDBRANCH  20  21
ENDBRANCH  19  20
ENDBRANCH  18  19
ENDBRANCH  17  18
ENDBRANCH  15  16
ENDBRANCH  14  15
ENDBRANCH  13  14
ENDBRANCH  12  13
ENDBRANCH  11  12
ENDBRANCH  10  11
ENDBRANCH   6  10
TORSDOF 15
ENDMDL
MODEL      131
REMARK 921   NORMALIZED FREE ENERGY PREDICTED BY IDOCK:   -4.35 KCAL/MOL
REMARK 922        TOTAL FREE ENERGY PREDICTED BY IDOCK:  -10.11 KCAL/MOL
REMARK 923 INTER-LIGAND FREE ENERGY PREDICTED BY IDOCK:   -7.08 KCAL/MOL
REMARK 924 INTRA-LIGAND FREE ENERGY PREDICTED BY IDOCK:   -3.03 KCAL/MOL
REMARK 927      BINDING AFFINITY PREDICTED BY RF-SCORE:    0.00 PKD
ROOT
ATOM      1  N   GLY A   1      -5.812  11.604  66.288  1.00  0.00    -0.481 NA 
HETATM    2  C   UNL     1     -12.120  11.895  63.367  1.00  0.00    -0.539 C  
ATOM      3  H2  GLY A   1      -5.398  11.539  65.358  1.00  0.00     0.000 HD 
ATOM      4  H1  GLY A   1      -5.724  12.542  66.678  1.00  0.00     0.000 HD 
ATOM      5  CA  GLY A   1      -7.218  11.180  66.295  1.00  0.00    -0.048 C  
HETATM    6  C   UNL     1     -12.271  13.339  63.819  1.00  0.00    -0.508 C  
ENDROOT
BRANCH   5   7
ATOM      7  C   GLY A   1      -7.349   9.772  65.709  1.00  0.00    -0.105 C  
ATOM      8  H   GLY A   1      -6.837   8.863  64.050  1.00  0.00     0.000 HD 
ATOM      9  O   GLY A   1      -6.755   9.737  64.413  1.00  0.00    -0.106 OA 
ENDBRANCH   5   7
BRANCH   6  10
HETATM   10  C   UNL     1     -12.674  13.484  65.286  1.00  0.00    -0.481 C  
BRANCH  10  11
HETATM   11  C   UNL     1     -11.884  12.599  66.252  1.00  0.00    -0.471 C  
BRANCH  11  12
HETATM   12  C   UNL     1     -10.979  13.469  67.129  1.00  0.00    -0.302 C  
BRANCH  12  13
HETATM   13  C   UNL     1      -9.746  13.964  66.376  1.00  0.00    -0.309 C  
BRANCH  13  14
HETATM   14  C   UNL     1      -9.610  15.493  66.391  1.00  0.00    -0.317 C  
BRANCH  14  15
HETATM   15  C   UNL     1     -10.712  16.245  67.148  1.00  0.00    -0.247 C  
BRANCH  15  16
HETATM   16  C   UNL     1     -10.298  16.744  68.506  1.00  0.00    -0.316 C  
HETATM   17  C   UNL     1     -10.144  18.039  68.826  1.00  0.00    -0.388 C  
BRANCH  17  18
HETATM   18  C   UNL     1     -10.315  19.195  67.885  1.00  0.00    -0.505 C  
BRANCH  18  19
HETATM   19  C   UNL     1      -8.972  19.773  67.445  1.00  0.00    -0.402 C  
BRANCH  19  20
HETATM   20  C   UNL     1      -8.495  19.083  66.168  1.00  0.00    -0.216 C  
BRANCH  20  21
HETATM   21  C   UNL     1      -7.237  18.257  66.420  1.00  0.00    -0.279 C  
BRANCH  21  22
HETATM   22  C   UNL     1      -6.721  18.456  67.842  1.00  0.00    -0.216 C  
BRANCH  22  23
HETATM   23  C   UNL     1      -5.889  17.257  68.290  1.00  0.00    -0.140 C  
BRANCH  23  24
HETATM   24  C   UNL     1      -6.740  16.223  69.021  1.00  0.00    -0.182 C  
HETATM   25  C   UNL     1      -6.698  14.879  68.330  1.00  0.00    -0.112 C  
HETATM   26  O   UNL     1      -7.435  13.949  68.982  1.00  0.00    -0.108 OA 
HETATM   27  O   UNL     1      -6.083  14.625  67.311  1.00  0.00    -0.302 OA 
ENDBRANCH  23  24
ENDBRANCH  22  23
ENDBRANCH  21  22
ENDBRANCH  20  21
ENDBRANCH  19  20
ENDBRANCH  18  19
ENDBRANCH  17  18
ENDBRANCH  15  16
ENDBRANCH  14  15
ENDBRANCH  13  14
ENDBRANCH  12  13
ENDBRANCH  11  12
ENDBRANCH  10  11
ENDBRANCH   6  10
TORSDOF 15
ENDMDL
MODEL      132
REMARK 921   NORMALIZED FREE ENERGY PREDICTED BY IDOCK:   -4.35 KCAL/MOL
REMARK 922        TOTAL FREE ENERGY PREDICTED BY IDOCK:  -10.10 KCAL/MOL
REMARK 923 INTER-LIGAND FREE ENERGY PREDICTED BY IDOCK:   -8.08 KCAL/MOL
REMARK 924 INTRA-LIGAND FREE ENERGY PREDICTED BY IDOCK:   -2.03 KCAL/MOL
REMARK 927      BINDING AFFINITY PREDICTED BY RF-SCORE:    0.00 PKD
ROOT
ATOM      1  N   GLY A   1     -12.959  12.755  64.764  1.00  0.00    -0.844 NA 
HETATM    2  C   UNL     1     -11.547  10.093  71.036  1.00  0.00    -0.462 C  
ATOM      3  H2  GLY A   1     -12.952  11.811  64.377  1.00  0.00     0.000 HD 
ATOM      4  H1  GLY A   1     -13.907  13.104  64.899  1.00  0.00     0.000 HD 
ATOM      5  CA  GLY A   1     -12.203  12.837  66.021  1.00  0.00    -0.314 C  
HETATM    6  C   UNL     1     -12.930  10.494  71.526  1.00  0.00    -0.565 C  
ENDROOT
BRANCH   5   7
ATOM      7  C   GLY A   1     -10.779  12.312  65.817  1.00  0.00    -0.263 C  
ATOM      8  H   GLY A   1      -8.960  13.029  65.959  1.00  0.00     0.000 HD 
ATOM      9  O   GLY A   1      -9.844  13.354  66.086  1.00  0.00    -0.284 OA 
ENDBRANCH   5   7
BRANCH   6  10
HETATM   10  C   UNL     1     -13.042  11.970  71.907  1.00  0.00    -0.475 C  
BRANCH  10  11
HETATM   11  C   UNL     1     -12.540  12.942  70.836  1.00  0.00    -0.355 C  
BRANCH  11  12
HETATM   12  C   UNL     1     -12.654  14.380  71.349  1.00  0.00    -0.426 C  
BRANCH  12  13
HETATM   13  C   UNL     1     -12.464  15.410  70.236  1.00  0.00    -0.413 C  
BRANCH  13  14
HETATM   14  C   UNL     1     -11.360  16.430  70.548  1.00  0.00    -0.211 C  
BRANCH  14  15
HETATM   15  C   UNL     1     -10.310  16.621  69.447  1.00  0.00    -0.294 C  
BRANCH  15  16
HETATM   16  C   UNL     1     -10.886  16.887  68.083  1.00  0.00    -0.351 C  
HETATM   17  C   UNL     1     -10.880  18.082  67.474  1.00  0.00    -0.252 C  
BRANCH  17  18
HETATM   18  C   UNL     1     -10.341  19.355  68.058  1.00  0.00    -0.536 C  
BRANCH  18  19
HETATM   19  C   UNL     1      -9.311  20.009  67.140  1.00  0.00    -0.502 C  
BRANCH  19  20
HETATM   20  C   UNL     1      -7.952  20.077  67.837  1.00  0.00    -0.306 C  
BRANCH  20  21
HETATM   21  C   UNL     1      -7.391  18.683  68.097  1.00  0.00    -0.274 C  
BRANCH  21  22
HETATM   22  C   UNL     1      -7.292  17.877  66.805  1.00  0.00    -0.234 C  
BRANCH  22  23
HETATM   23  C   UNL     1      -7.180  16.384  67.105  1.00  0.00    -0.233 C  
BRANCH  23  24
HETATM   24  C   UNL     1      -6.744  16.129  68.544  1.00  0.00    -0.126 C  
HETATM   25  C   UNL     1      -6.857  14.667  68.909  1.00  0.00    -0.104 C  
HETATM   26  O   UNL     1      -6.454  14.428  70.179  1.00  0.00    -0.159 OA 
HETATM   27  O   UNL     1      -7.252  13.782  68.174  1.00  0.00    -0.094 OA 
ENDBRANCH  23  24
ENDBRANCH  22  23
ENDBRANCH  21  22
ENDBRANCH  20  21
ENDBRANCH  19  20
ENDBRANCH  18  19
ENDBRANCH  17  18
ENDBRANCH  15  16
ENDBRANCH  14  15
ENDBRANCH  13  14
ENDBRANCH  12  13
ENDBRANCH  11  12
ENDBRANCH  10  11
ENDBRANCH   6  10
TORSDOF 15
ENDMDL
MODEL      133
REMARK 921   NORMALIZED FREE ENERGY PREDICTED BY IDOCK:   -4.34 KCAL/MOL
REMARK 922        TOTAL FREE ENERGY PREDICTED BY IDOCK:  -10.09 KCAL/MOL
REMARK 923 INTER-LIGAND FREE ENERGY PREDICTED BY IDOCK:   -7.98 KCAL/MOL
REMARK 924 INTRA-LIGAND FREE ENERGY PREDICTED BY IDOCK:   -2.12 KCAL/MOL
REMARK 927      BINDING AFFINITY PREDICTED BY RF-SCORE:    0.00 PKD
ROOT
ATOM      1  N   GLY A   1      -5.810  10.521  64.403  1.00  0.00    -0.300 NA 
HETATM    2  C   UNL     1     -12.509  11.980  63.217  1.00  0.00    -0.544 C  
ATOM      3  H2  GLY A   1      -5.671  10.402  63.400  1.00  0.00     0.000 HD 
ATOM      4  H1  GLY A   1      -5.460  11.421  64.731  1.00  0.00     0.000 HD 
ATOM      5  CA  GLY A   1      -7.218  10.352  64.787  1.00  0.00    -0.034 C  
HETATM    6  C   UNL     1     -12.281  13.418  63.654  1.00  0.00    -0.480 C  
ENDROOT
BRANCH   5   7
ATOM      7  C   GLY A   1      -7.742   9.001  64.293  1.00  0.00    -0.123 C  
ATOM      8  H   GLY A   1      -9.130   8.373  63.060  1.00  0.00     0.000 HD 
ATOM      9  O   GLY A   1      -8.804   9.212  63.366  1.00  0.00    -0.186 OA 
ENDBRANCH   5   7
BRANCH   6  10
HETATM   10  C   UNL     1     -12.256  13.603  65.171  1.00  0.00    -0.461 C  
BRANCH  10  11
HETATM   11  C   UNL     1     -11.862  12.350  65.957  1.00  0.00    -0.459 C  
BRANCH  11  12
HETATM   12  C   UNL     1     -11.969  12.627  67.459  1.00  0.00    -0.314 C  
BRANCH  12  13
HETATM   13  C   UNL     1     -11.691  11.382  68.299  1.00  0.00    -0.359 C  
BRANCH  13  14
HETATM   14  C   UNL     1     -10.229  11.284  68.758  1.00  0.00    -0.215 C  
BRANCH  14  15
HETATM   15  C   UNL     1      -9.181  11.647  67.699  1.00  0.00    -0.178 C  
BRANCH  15  16
HETATM   16  C   UNL     1      -8.041  12.480  68.218  1.00  0.00    -0.165 C  
HETATM   17  C   UNL     1      -7.847  13.774  67.920  1.00  0.00    -0.159 C  
BRANCH  17  18
HETATM   18  C   UNL     1      -8.700  14.592  66.995  1.00  0.00    -0.258 C  
BRANCH  18  19
HETATM   19  C   UNL     1      -9.063  15.944  67.605  1.00  0.00    -0.200 C  
BRANCH  19  20
HETATM   20  C   UNL     1     -10.508  15.926  68.102  1.00  0.00    -0.270 C  
BRANCH  20  21
HETATM   21  C   UNL     1     -10.598  15.400  69.531  1.00  0.00    -0.270 C  
BRANCH  21  22
HETATM   22  C   UNL     1     -12.050  15.191  69.951  1.00  0.00    -0.373 C  
BRANCH  22  23
HETATM   23  C   UNL     1     -12.126  14.468  71.294  1.00  0.00    -0.419 C  
BRANCH  23  24
HETATM   24  C   UNL     1     -11.574  15.326  72.428  1.00  0.00    -0.515 C  
HETATM   25  C   UNL     1     -12.683  15.980  73.221  1.00  0.00    -0.537 C  
HETATM   26  O   UNL     1     -12.203  16.729  74.242  1.00  0.00    -0.565 OA 
HETATM   27  O   UNL     1     -13.873  15.866  73.001  1.00  0.00    -0.592 OA 
ENDBRANCH  23  24
ENDBRANCH  22  23
ENDBRANCH  21  22
ENDBRANCH  20  21
ENDBRANCH  19  20
ENDBRANCH  18  19
ENDBRANCH  17  18
ENDBRANCH  15  16
ENDBRANCH  14  15
ENDBRANCH  13  14
ENDBRANCH  12  13
ENDBRANCH  11  12
ENDBRANCH  10  11
ENDBRANCH   6  10
TORSDOF 15
ENDMDL
MODEL      134
REMARK 921   NORMALIZED FREE ENERGY PREDICTED BY IDOCK:   -4.34 KCAL/MOL
REMARK 922        TOTAL FREE ENERGY PREDICTED BY IDOCK:  -10.09 KCAL/MOL
REMARK 923 INTER-LIGAND FREE ENERGY PREDICTED BY IDOCK:   -7.97 KCAL/MOL
REMARK 924 INTRA-LIGAND FREE ENERGY PREDICTED BY IDOCK:   -2.12 KCAL/MOL
REMARK 927      BINDING AFFINITY PREDICTED BY RF-SCORE:    0.00 PKD
ROOT
ATOM      1  N   GLY A   1      -9.704  17.015  68.679  1.00  0.00    -0.271 NA 
HETATM    2  C   UNL     1     -12.243  13.326  63.353  1.00  0.00    -0.476 C  
ATOM      3  H2  GLY A   1     -10.657  17.249  68.954  1.00  0.00     0.000 HD 
ATOM      4  H1  GLY A   1      -9.308  16.281  69.265  1.00  0.00     0.000 HD 
ATOM      5  CA  GLY A   1      -9.619  16.635  67.262  1.00  0.00    -0.243 C  
HETATM    6  C   UNL     1     -11.765  12.039  64.007  1.00  0.00    -0.498 C  
ENDROOT
BRANCH   5   7
ATOM      7  C   GLY A   1     -10.214  17.738  66.382  1.00  0.00    -0.365 C  
ATOM      8  H   GLY A   1      -9.534  19.242  65.326  1.00  0.00     0.000 HD 
ATOM      9  O   GLY A   1      -9.166  18.558  65.872  1.00  0.00    -0.486 OA 
ENDBRANCH   5   7
BRANCH   6  10
HETATM   10  C   UNL     1     -10.275  11.764  63.806  1.00  0.00    -0.434 C  
BRANCH  10  11
HETATM   11  C   UNL     1      -9.899  10.281  63.801  1.00  0.00    -0.219 C  
BRANCH  11  12
HETATM   12  C   UNL     1      -8.486  10.104  64.363  1.00  0.00    -0.179 C  
BRANCH  12  13
HETATM   13  C   UNL     1      -8.173   8.646  64.698  1.00  0.00    -0.167 C  
BRANCH  13  14
HETATM   14  C   UNL     1      -8.315   8.333  66.194  1.00  0.00    -0.125 C  
BRANCH  14  15
HETATM   15  C   UNL     1      -9.699   7.840  66.634  1.00  0.00    -0.292 C  
BRANCH  15  16
HETATM   16  C   UNL     1     -10.102   8.283  68.014  1.00  0.00    -0.243 C  
HETATM   17  C   UNL     1     -10.634   9.481  68.303  1.00  0.00    -0.260 C  
BRANCH  17  18
HETATM   18  C   UNL     1     -10.877  10.587  67.319  1.00  0.00    -0.338 C  
BRANCH  18  19
HETATM   19  C   UNL     1      -9.796  11.663  67.396  1.00  0.00    -0.197 C  
BRANCH  19  20
HETATM   20  C   UNL     1     -10.431  13.029  67.654  1.00  0.00    -0.228 C  
BRANCH  20  21
HETATM   21  C   UNL     1     -11.860  12.890  68.169  1.00  0.00    -0.380 C  
BRANCH  21  22
HETATM   22  C   UNL     1     -11.914  13.019  69.689  1.00  0.00    -0.367 C  
BRANCH  22  23
HETATM   23  C   UNL     1     -12.060  14.482  70.102  1.00  0.00    -0.394 C  
BRANCH  23  24
HETATM   24  C   UNL     1     -13.315  14.709  70.939  1.00  0.00    -0.350 C  
HETATM   25  C   UNL     1     -13.080  15.729  72.029  1.00  0.00    -0.428 C  
HETATM   26  O   UNL     1     -14.195  15.951  72.765  1.00  0.00    -0.523 OA 
HETATM   27  O   UNL     1     -12.031  16.305  72.246  1.00  0.00    -0.511 OA 
ENDBRANCH  23  24
ENDBRANCH  22  23
ENDBRANCH  21  22
ENDBRANCH  20  21
ENDBRANCH  19  20
ENDBRANCH  18  19
ENDBRANCH  17  18
ENDBRANCH  15  16
ENDBRANCH  14  15
ENDBRANCH  13  14
ENDBRANCH  12  13
ENDBRANCH  11  12
ENDBRANCH  10  11
ENDBRANCH   6  10
TORSDOF 15
ENDMDL
MODEL      135
REMARK 921   NORMALIZED FREE ENERGY PREDICTED BY IDOCK:   -4.33 KCAL/MOL
REMARK 922        TOTAL FREE ENERGY PREDICTED BY IDOCK:  -10.07 KCAL/MOL
REMARK 923 INTER-LIGAND FREE ENERGY PREDICTED BY IDOCK:   -7.79 KCAL/MOL
REMARK 924 INTRA-LIGAND FREE ENERGY PREDICTED BY IDOCK:   -2.28 KCAL/MOL
REMARK 927      BINDING AFFINITY PREDICTED BY RF-SCORE:    0.00 PKD
ROOT
ATOM      1  N   GLY A   1     -13.804  13.260  72.413  1.00  0.00    -0.663 NA 
HETATM    2  C   UNL     1     -12.646  14.162  65.612  1.00  0.00    -0.495 C  
ATOM      3  H2  GLY A   1     -14.801  13.399  72.249  1.00  0.00     0.000 HD 
ATOM      4  H1  GLY A   1     -13.571  12.274  72.531  1.00  0.00     0.000 HD 
ATOM      5  CA  GLY A   1     -12.985  13.852  71.348  1.00  0.00    -0.355 C  
HETATM    6  C   UNL     1     -12.248  12.701  65.479  1.00  0.00    -0.501 C  
ENDROOT
BRANCH   5   7
ATOM      7  C   GLY A   1     -13.335  15.333  71.171  1.00  0.00    -0.498 C  
ATOM      8  H   GLY A   1     -12.611  17.051  71.774  1.00  0.00     0.000 HD 
ATOM      9  O   GLY A   1     -12.394  16.133  71.884  1.00  0.00    -0.465 OA 
ENDBRANCH   5   7
BRANCH   6  10
HETATM   10  C   UNL     1     -10.818  12.409  65.933  1.00  0.00    -0.305 C  
BRANCH  10  11
HETATM   11  C   UNL     1     -10.613  12.450  67.449  1.00  0.00    -0.237 C  
BRANCH  11  12
HETATM   12  C   UNL     1     -11.236  11.207  68.089  1.00  0.00    -0.356 C  
BRANCH  12  13
HETATM   13  C   UNL     1     -11.680  11.456  69.529  1.00  0.00    -0.417 C  
BRANCH  13  14
HETATM   14  C   UNL     1     -11.381  10.273  70.461  1.00  0.00    -0.422 C  
BRANCH  14  15
HETATM   15  C   UNL     1     -10.386   9.241  69.916  1.00  0.00    -0.241 C  
BRANCH  15  16
HETATM   16  C   UNL     1      -9.064   9.219  70.635  1.00  0.00    -0.309 C  
HETATM   17  C   UNL     1      -7.925   9.736  70.149  1.00  0.00    -0.201 C  
BRANCH  17  18
HETATM   18  C   UNL     1      -7.765  10.381  68.804  1.00  0.00    -0.104 C  
BRANCH  18  19
HETATM   19  C   UNL     1      -7.091  11.747  68.906  1.00  0.00    -0.114 C  
BRANCH  19  20
HETATM   20  C   UNL     1      -7.024  12.406  67.528  1.00  0.00    -0.142 C  
BRANCH  20  21
HETATM   21  C   UNL     1      -6.848  13.917  67.643  1.00  0.00    -0.193 C  
BRANCH  21  22
HETATM   22  C   UNL     1      -7.872  14.521  68.599  1.00  0.00    -0.140 C  
BRANCH  22  23
HETATM   23  C   UNL     1      -8.128  15.988  68.263  1.00  0.00    -0.150 C  
BRANCH  23  24
HETATM   24  C   UNL     1      -8.509  16.173  66.798  1.00  0.00    -0.289 C  
HETATM   25  C   UNL     1      -9.963  16.557  66.645  1.00  0.00    -0.276 C  
HETATM   26  O   UNL     1     -10.307  16.741  65.349  1.00  0.00    -0.597 OA 
HETATM   27  O   UNL     1     -10.758  16.698  67.556  1.00  0.00    -0.325 OA 
ENDBRANCH  23  24
ENDBRANCH  22  23
ENDBRANCH  21  22
ENDBRANCH  20  21
ENDBRANCH  19  20
ENDBRANCH  18  19
ENDBRANCH  17  18
ENDBRANCH  15  16
ENDBRANCH  14  15
ENDBRANCH  13  14
ENDBRANCH  12  13
ENDBRANCH  11  12
ENDBRANCH  10  11
ENDBRANCH   6  10
TORSDOF 15
ENDMDL
MODEL      136
REMARK 921   NORMALIZED FREE ENERGY PREDICTED BY IDOCK:   -4.33 KCAL/MOL
REMARK 922        TOTAL FREE ENERGY PREDICTED BY IDOCK:  -10.07 KCAL/MOL
REMARK 923 INTER-LIGAND FREE ENERGY PREDICTED BY IDOCK:   -8.42 KCAL/MOL
REMARK 924 INTRA-LIGAND FREE ENERGY PREDICTED BY IDOCK:   -1.64 KCAL/MOL
REMARK 927      BINDING AFFINITY PREDICTED BY RF-SCORE:    0.00 PKD
ROOT
ATOM      1  N   GLY A   1     -10.451  10.968  62.834  1.00  0.00    -0.797 NA 
HETATM    2  C   UNL     1      -9.723   5.316  66.827  1.00  0.00    -0.174 C  
ATOM      3  H2  GLY A   1     -10.844  10.382  62.098  1.00  0.00     0.000 HD 
ATOM      4  H1  GLY A   1     -11.174  11.481  63.338  1.00  0.00     0.000 HD 
ATOM      5  CA  GLY A   1      -9.631  10.193  63.774  1.00  0.00    -0.223 C  
HETATM    6  C   UNL     1     -10.797   5.835  67.770  1.00  0.00    -0.259 C  
ENDROOT
BRANCH   5   7
ATOM      7  C   GLY A   1      -8.545   9.422  63.018  1.00  0.00    -0.221 C  
ATOM      8  H   GLY A   1      -6.716   9.766  62.405  1.00  0.00     0.000 HD 
ATOM      9  O   GLY A   1      -7.389  10.244  62.874  1.00  0.00    -0.140 OA 
ENDBRANCH   5   7
BRANCH   6  10
HETATM   10  C   UNL     1     -10.294   6.893  68.751  1.00  0.00    -0.200 C  
BRANCH  10  11
HETATM   11  C   UNL     1      -9.870   6.343  70.115  1.00  0.00    -0.191 C  
BRANCH  11  12
HETATM   12  C   UNL     1      -9.645   7.500  71.092  1.00  0.00    -0.164 C  
BRANCH  12  13
HETATM   13  C   UNL     1     -10.388   7.297  72.412  1.00  0.00    -0.241 C  
BRANCH  13  14
HETATM   14  C   UNL     1     -11.829   6.806  72.217  1.00  0.00    -0.277 C  
BRANCH  14  15
HETATM   15  C   UNL     1     -12.715   7.695  71.336  1.00  0.00    -0.357 C  
BRANCH  15  16
HETATM   16  C   UNL     1     -13.211   8.941  72.017  1.00  0.00    -0.459 C  
HETATM   17  C   UNL     1     -12.725  10.173  71.797  1.00  0.00    -0.534 C  
BRANCH  17  18
HETATM   18  C   UNL     1     -11.588  10.510  70.876  1.00  0.00    -0.385 C  
BRANCH  18  19
HETATM   19  C   UNL     1     -12.071  10.774  69.452  1.00  0.00    -0.315 C  
BRANCH  19  20
HETATM   20  C   UNL     1     -11.962  12.263  69.126  1.00  0.00    -0.303 C  
BRANCH  20  21
HETATM   21  C   UNL     1     -10.949  12.516  68.014  1.00  0.00    -0.266 C  
BRANCH  21  22
HETATM   22  C   UNL     1     -10.838  14.005  67.696  1.00  0.00    -0.270 C  
BRANCH  22  23
HETATM   23  C   UNL     1     -11.883  14.416  66.662  1.00  0.00    -0.417 C  
BRANCH  23  24
HETATM   24  C   UNL     1     -12.350  13.227  65.828  1.00  0.00    -0.505 C  
HETATM   25  C   UNL     1     -12.511  13.598  64.372  1.00  0.00    -0.264 C  
HETATM   26  O   UNL     1     -12.908  12.544  63.621  1.00  0.00    -0.731 OA 
HETATM   27  O   UNL     1     -12.312  14.699  63.895  1.00  0.00    -0.730 OA 
ENDBRANCH  23  24
ENDBRANCH  22  23
ENDBRANCH  21  22
ENDBRANCH  20  21
ENDBRANCH  19  20
ENDBRANCH  18  19
ENDBRANCH  17  18
ENDBRANCH  15  16
ENDBRANCH  14  15
ENDBRANCH  13  14
ENDBRANCH  12  13
ENDBRANCH  11  12
ENDBRANCH  10  11
ENDBRANCH   6  10
TORSDOF 15
ENDMDL
MODEL      137
REMARK 921   NORMALIZED FREE ENERGY PREDICTED BY IDOCK:   -4.31 KCAL/MOL
REMARK 922        TOTAL FREE ENERGY PREDICTED BY IDOCK:  -10.04 KCAL/MOL
REMARK 923 INTER-LIGAND FREE ENERGY PREDICTED BY IDOCK:   -8.23 KCAL/MOL
REMARK 924 INTRA-LIGAND FREE ENERGY PREDICTED BY IDOCK:   -1.81 KCAL/MOL
REMARK 927      BINDING AFFINITY PREDICTED BY RF-SCORE:    0.00 PKD
ROOT
ATOM      1  N   GLY A   1     -10.244  19.416  69.010  1.00  0.00    -0.593 NA 
HETATM    2  C   UNL     1     -12.044  14.565  64.359  1.00  0.00    -0.492 C  
ATOM      3  H2  GLY A   1     -10.775  20.105  68.477  1.00  0.00     0.000 HD 
ATOM      4  H1  GLY A   1     -10.750  19.103  69.838  1.00  0.00     0.000 HD 
ATOM      5  CA  GLY A   1      -9.857  18.264  68.185  1.00  0.00    -0.341 C  
HETATM    6  C   UNL     1     -12.904  13.871  65.403  1.00  0.00    -0.466 C  
ENDROOT
BRANCH   5   7
ATOM      7  C   GLY A   1      -9.097  18.735  66.941  1.00  0.00    -0.300 C  
ATOM      8  H   GLY A   1      -9.097  18.319  65.027  1.00  0.00     0.000 HD 
ATOM      9  O   GLY A   1      -9.568  18.027  65.798  1.00  0.00    -0.505 OA 
ENDBRANCH   5   7
BRANCH   6  10
HETATM   10  C   UNL     1     -12.109  12.997  66.373  1.00  0.00    -0.428 C  
BRANCH  10  11
HETATM   11  C   UNL     1     -10.914  13.698  67.025  1.00  0.00    -0.298 C  
BRANCH  11  12
HETATM   12  C   UNL     1     -10.954  13.484  68.541  1.00  0.00    -0.291 C  
BRANCH  12  13
HETATM   13  C   UNL     1     -12.073  12.533  68.963  1.00  0.00    -0.181 C  
BRANCH  13  14
HETATM   14  C   UNL     1     -11.600  11.080  69.108  1.00  0.00    -0.389 C  
BRANCH  14  15
HETATM   15  C   UNL     1     -11.230  10.647  70.533  1.00  0.00    -0.270 C  
BRANCH  15  16
HETATM   16  C   UNL     1     -12.410  10.287  71.394  1.00  0.00    -0.502 C  
HETATM   17  C   UNL     1     -12.482   9.191  72.166  1.00  0.00    -0.436 C  
BRANCH  17  18
HETATM   18  C   UNL     1     -11.428   8.126  72.269  1.00  0.00    -0.435 C  
BRANCH  18  19
HETATM   19  C   UNL     1     -11.984   6.744  71.935  1.00  0.00    -0.374 C  
BRANCH  19  20
HETATM   20  C   UNL     1     -11.047   6.019  70.969  1.00  0.00    -0.348 C  
BRANCH  20  21
HETATM   21  C   UNL     1     -10.141   7.000  70.232  1.00  0.00    -0.198 C  
BRANCH  21  22
HETATM   22  C   UNL     1     -10.682   7.311  68.839  1.00  0.00    -0.173 C  
BRANCH  22  23
HETATM   23  C   UNL     1      -9.688   8.159  68.049  1.00  0.00    -0.186 C  
BRANCH  23  24
HETATM   24  C   UNL     1     -10.280   8.633  66.725  1.00  0.00    -0.361 C  
HETATM   25  C   UNL     1      -9.622   9.907  66.246  1.00  0.00    -0.209 C  
HETATM   26  O   UNL     1     -10.127  10.325  65.062  1.00  0.00    -0.323 OA 
HETATM   27  O   UNL     1      -8.738  10.509  66.826  1.00  0.00    -0.130 OA 
ENDBRANCH  23  24
ENDBRANCH  22  23
ENDBRANCH  21  22
ENDBRANCH  20  21
ENDBRANCH  19  20
ENDBRANCH  18  19
ENDBRANCH  17  18
ENDBRANCH  15  16
ENDBRANCH  14  15
ENDBRANCH  13  14
ENDBRANCH  12  13
ENDBRANCH  11  12
ENDBRANCH  10  11
ENDBRANCH   6  10
TORSDOF 15
ENDMDL
MODEL      138
REMARK 921   NORMALIZED FREE ENERGY PREDICTED BY IDOCK:   -4.29 KCAL/MOL
REMARK 922        TOTAL FREE ENERGY PREDICTED BY IDOCK:  -10.00 KCAL/MOL
REMARK 923 INTER-LIGAND FREE ENERGY PREDICTED BY IDOCK:   -7.99 KCAL/MOL
REMARK 924 INTRA-LIGAND FREE ENERGY PREDICTED BY IDOCK:   -2.01 KCAL/MOL
REMARK 927      BINDING AFFINITY PREDICTED BY RF-SCORE:    0.00 PKD
ROOT
ATOM      1  N   GLY A   1     -10.762  19.727  66.387  1.00  0.00    -0.448 NA 
HETATM    2  C   UNL     1      -8.111  13.675  68.568  1.00  0.00    -0.118 C  
ATOM      3  H2  GLY A   1      -9.929  19.872  65.818  1.00  0.00     0.000 HD 
ATOM      4  H1  GLY A   1     -11.555  19.412  65.827  1.00  0.00     0.000 HD 
ATOM      5  CA  GLY A   1     -10.516  18.790  67.491  1.00  0.00    -0.435 C  
HETATM    6  C   UNL     1      -9.190  12.920  67.808  1.00  0.00    -0.200 C  
ENDROOT
BRANCH   5   7
ATOM      7  C   GLY A   1      -9.326  19.262  68.331  1.00  0.00    -0.366 C  
ATOM      8  H   GLY A   1      -7.898  20.592  68.159  1.00  0.00     0.000 HD 
ATOM      9  O   GLY A   1      -8.636  20.299  67.639  1.00  0.00    -0.319 OA 
ENDBRANCH   5   7
BRANCH   6  10
HETATM   10  C   UNL     1     -10.534  12.873  68.534  1.00  0.00    -0.260 C  
BRANCH  10  11
HETATM   11  C   UNL     1     -11.747  12.712  67.614  1.00  0.00    -0.420 C  
BRANCH  11  12
HETATM   12  C   UNL     1     -12.141  14.074  67.036  1.00  0.00    -0.455 C  
BRANCH  12  13
HETATM   13  C   UNL     1     -12.647  13.969  65.598  1.00  0.00    -0.542 C  
BRANCH  13  14
HETATM   14  C   UNL     1     -12.135  12.716  64.874  1.00  0.00    -0.494 C  
BRANCH  14  15
HETATM   15  C   UNL     1     -10.694  12.798  64.354  1.00  0.00    -0.398 C  
BRANCH  15  16
HETATM   16  C   UNL     1     -10.284  11.640  63.487  1.00  0.00    -0.474 C  
HETATM   17  C   UNL     1      -9.906  10.438  63.950  1.00  0.00    -0.332 C  
BRANCH  17  18
HETATM   18  C   UNL     1      -9.788  10.060  65.398  1.00  0.00    -0.384 C  
BRANCH  18  19
HETATM   19  C   UNL     1      -8.608   9.125  65.646  1.00  0.00    -0.178 C  
BRANCH  19  20
HETATM   20  C   UNL     1      -8.458   8.851  67.142  1.00  0.00    -0.106 C  
BRANCH  20  21
HETATM   21  C   UNL     1      -9.620   9.443  67.934  1.00  0.00    -0.155 C  
BRANCH  21  22
HETATM   22  C   UNL     1      -9.918   8.614  69.180  1.00  0.00    -0.193 C  
BRANCH  22  23
HETATM   23  C   UNL     1     -10.360   9.511  70.334  1.00  0.00    -0.334 C  
BRANCH  23  24
HETATM   24  C   UNL     1     -11.655   9.015  70.970  1.00  0.00    -0.360 C  
HETATM   25  C   UNL     1     -12.682  10.119  71.074  1.00  0.00    -0.386 C  
HETATM   26  O   UNL     1     -13.842   9.683  71.620  1.00  0.00    -0.280 OA 
HETATM   27  O   UNL     1     -12.523  11.270  70.716  1.00  0.00    -0.353 OA 
ENDBRANCH  23  24
ENDBRANCH  22  23
ENDBRANCH  21  22
ENDBRANCH  20  21
ENDBRANCH  19  20
ENDBRANCH  18  19
ENDBRANCH  17  18
ENDBRANCH  15  16
ENDBRANCH  14  15
ENDBRANCH  13  14
ENDBRANCH  12  13
ENDBRANCH  11  12
ENDBRANCH  10  11
ENDBRANCH   6  10
TORSDOF 15
ENDMDL
MODEL      139
REMARK 921   NORMALIZED FREE ENERGY PREDICTED BY IDOCK:   -4.29 KCAL/MOL
REMARK 922        TOTAL FREE ENERGY PREDICTED BY IDOCK:  -10.00 KCAL/MOL
REMARK 923 INTER-LIGAND FREE ENERGY PREDICTED BY IDOCK:   -8.13 KCAL/MOL
REMARK 924 INTRA-LIGAND FREE ENERGY PREDICTED BY IDOCK:   -1.88 KCAL/MOL
REMARK 927      BINDING AFFINITY PREDICTED BY RF-SCORE:    0.00 PKD
ROOT
ATOM      1  N   GLY A   1     -10.560  20.006  68.464  1.00  0.00    -0.401 NA 
HETATM    2  C   UNL     1     -12.136  14.621  64.351  1.00  0.00    -0.481 C  
ATOM      3  H2  GLY A   1     -11.198  20.590  67.923  1.00  0.00     0.000 HD 
ATOM      4  H1  GLY A   1     -10.971  19.714  69.350  1.00  0.00     0.000 HD 
ATOM      5  CA  GLY A   1     -10.108  18.835  67.702  1.00  0.00    -0.367 C  
HETATM    6  C   UNL     1     -12.842  13.933  65.509  1.00  0.00    -0.471 C  
ENDROOT
BRANCH   5   7
ATOM      7  C   GLY A   1      -9.491  19.275  66.371  1.00  0.00    -0.365 C  
ATOM      8  H   GLY A   1      -8.378  18.464  64.977  1.00  0.00     0.000 HD 
ATOM      9  O   GLY A   1      -8.761  18.191  65.802  1.00  0.00    -0.466 OA 
ENDBRANCH   5   7
BRANCH   6  10
HETATM   10  C   UNL     1     -11.892  13.230  66.478  1.00  0.00    -0.450 C  
BRANCH  10  11
HETATM   11  C   UNL     1     -11.649  11.751  66.167  1.00  0.00    -0.215 C  
BRANCH  11  12
HETATM   12  C   UNL     1     -10.171  11.528  65.835  1.00  0.00    -0.286 C  
BRANCH  12  13
HETATM   13  C   UNL     1      -9.800  10.046  65.802  1.00  0.00    -0.345 C  
BRANCH  13  14
HETATM   14  C   UNL     1      -8.654   9.695  66.761  1.00  0.00    -0.140 C  
BRANCH  14  15
HETATM   15  C   UNL     1      -8.716  10.369  68.137  1.00  0.00    -0.125 C  
BRANCH  15  16
HETATM   16  C   UNL     1      -7.563  11.290  68.426  1.00  0.00    -0.120 C  
HETATM   17  C   UNL     1      -7.664  12.624  68.536  1.00  0.00    -0.114 C  
BRANCH  17  18
HETATM   18  C   UNL     1      -8.922  13.421  68.350  1.00  0.00    -0.136 C  
BRANCH  18  19
HETATM   19  C   UNL     1      -8.628  14.903  68.131  1.00  0.00    -0.159 C  
BRANCH  19  20
HETATM   20  C   UNL     1      -9.302  15.740  69.218  1.00  0.00    -0.261 C  
BRANCH  20  21
HETATM   21  C   UNL     1     -10.813  15.526  69.226  1.00  0.00    -0.252 C  
BRANCH  21  22
HETATM   22  C   UNL     1     -11.420  15.932  70.566  1.00  0.00    -0.412 C  
BRANCH  22  23
HETATM   23  C   UNL     1     -12.717  15.170  70.826  1.00  0.00    -0.463 C  
BRANCH  23  24
HETATM   24  C   UNL     1     -12.501  13.661  70.792  1.00  0.00    -0.432 C  
HETATM   25  C   UNL     1     -13.292  12.961  71.874  1.00  0.00    -0.435 C  
HETATM   26  O   UNL     1     -13.121  11.618  71.839  1.00  0.00    -0.478 OA 
HETATM   27  O   UNL     1     -14.010  13.505  72.691  1.00  0.00    -0.752 OA 
ENDBRANCH  23  24
ENDBRANCH  22  23
ENDBRANCH  21  22
ENDBRANCH  20  21
ENDBRANCH  19  20
ENDBRANCH  18  19
ENDBRANCH  17  18
ENDBRANCH  15  16
ENDBRANCH  14  15
ENDBRANCH  13  14
ENDBRANCH  12  13
ENDBRANCH  11  12
ENDBRANCH  10  11
ENDBRANCH   6  10
TORSDOF 15
ENDMDL
MODEL      140
REMARK 921   NORMALIZED FREE ENERGY PREDICTED BY IDOCK:   -4.28 KCAL/MOL
REMARK 922        TOTAL FREE ENERGY PREDICTED BY IDOCK:   -9.98 KCAL/MOL
REMARK 923 INTER-LIGAND FREE ENERGY PREDICTED BY IDOCK:   -8.72 KCAL/MOL
REMARK 924 INTRA-LIGAND FREE ENERGY PREDICTED BY IDOCK:   -1.26 KCAL/MOL
REMARK 927      BINDING AFFINITY PREDICTED BY RF-SCORE:    0.00 PKD
ROOT
ATOM      1  N   GLY A   1      -7.673  17.441  65.881  1.00  0.00    -0.511 NA 
HETATM    2  C   UNL     1     -10.171  11.010  64.983  1.00  0.00    -0.360 C  
ATOM      3  H2  GLY A   1      -6.727  17.061  65.873  1.00  0.00     0.000 HD 
ATOM      4  H1  GLY A   1      -7.914  17.879  64.993  1.00  0.00     0.000 HD 
ATOM      5  CA  GLY A   1      -8.671  16.422  66.232  1.00  0.00    -0.334 C  
HETATM    6  C   UNL     1     -10.644  11.380  63.586  1.00  0.00    -0.476 C  
ENDROOT
BRANCH   5   7
ATOM      7  C   GLY A   1      -8.308  15.764  67.567  1.00  0.00    -0.166 C  
ATOM      8  H   GLY A   1      -7.618  16.349  69.305  1.00  0.00     0.000 HD 
ATOM      9  O   GLY A   1      -7.843  16.757  68.477  1.00  0.00    -0.206 OA 
ENDBRANCH   5   7
BRANCH   6  10
HETATM   10  C   UNL     1     -11.960  12.158  63.569  1.00  0.00    -0.619 C  
BRANCH  10  11
HETATM   11  C   UNL     1     -12.496  12.528  64.954  1.00  0.00    -0.524 C  
BRANCH  11  12
HETATM   12  C   UNL     1     -12.272  14.020  65.213  1.00  0.00    -0.451 C  
BRANCH  12  13
HETATM   13  C   UNL     1     -11.685  14.286  66.599  1.00  0.00    -0.417 C  
BRANCH  13  14
HETATM   14  C   UNL     1     -12.023  13.185  67.613  1.00  0.00    -0.363 C  
BRANCH  14  15
HETATM   15  C   UNL     1     -11.234  13.234  68.927  1.00  0.00    -0.322 C  
BRANCH  15  16
HETATM   16  C   UNL     1     -12.031  12.844  70.141  1.00  0.00    -0.373 C  
HETATM   17  C   UNL     1     -12.058  11.611  70.670  1.00  0.00    -0.432 C  
BRANCH  17  18
HETATM   18  C   UNL     1     -11.339  10.412  70.124  1.00  0.00    -0.397 C  
BRANCH  18  19
HETATM   19  C   UNL     1     -11.020   9.395  71.217  1.00  0.00    -0.440 C  
BRANCH  19  20
HETATM   20  C   UNL     1     -12.311   8.893  71.863  1.00  0.00    -0.445 C  
BRANCH  20  21
HETATM   21  C   UNL     1     -12.386   7.370  71.845  1.00  0.00    -0.343 C  
BRANCH  21  22
HETATM   22  C   UNL     1     -11.815   6.805  70.547  1.00  0.00    -0.418 C  
BRANCH  22  23
HETATM   23  C   UNL     1     -10.617   5.902  70.831  1.00  0.00    -0.319 C  
BRANCH  23  24
HETATM   24  C   UNL     1     -10.059   5.286  69.551  1.00  0.00    -0.322 C  
HETATM   25  C   UNL     1      -9.542   3.886  69.787  1.00  0.00    -0.201 C  
HETATM   26  O   UNL     1      -9.062   3.324  68.653  1.00  0.00    -0.120 OA 
HETATM   27  O   UNL     1      -9.544   3.300  70.853  1.00  0.00    -0.159 OA 
ENDBRANCH  23  24
ENDBRANCH  22  23
ENDBRANCH  21  22
ENDBRANCH  20  21
ENDBRANCH  19  20
ENDBRANCH  18  19
ENDBRANCH  17  18
ENDBRANCH  15  16
ENDBRANCH  14  15
ENDBRANCH  13  14
ENDBRANCH  12  13
ENDBRANCH  11  12
ENDBRANCH  10  11
ENDBRANCH   6  10
TORSDOF 15
ENDMDL
MODEL      141
REMARK 921   NORMALIZED FREE ENERGY PREDICTED BY IDOCK:   -4.28 KCAL/MOL
REMARK 922        TOTAL FREE ENERGY PREDICTED BY IDOCK:   -9.98 KCAL/MOL
REMARK 923 INTER-LIGAND FREE ENERGY PREDICTED BY IDOCK:   -7.93 KCAL/MOL
REMARK 924 INTRA-LIGAND FREE ENERGY PREDICTED BY IDOCK:   -2.04 KCAL/MOL
REMARK 927      BINDING AFFINITY PREDICTED BY RF-SCORE:    0.00 PKD
ROOT
ATOM      1  N   GLY A   1     -13.292   8.752  73.200  1.00  0.00    -0.887 NA 
HETATM    2  C   UNL     1     -10.645   8.306  66.780  1.00  0.00    -0.226 C  
ATOM      3  H2  GLY A   1     -14.106   8.223  72.887  1.00  0.00     0.000 HD 
ATOM      4  H1  GLY A   1     -12.642   8.171  73.729  1.00  0.00     0.000 HD 
ATOM      5  CA  GLY A   1     -12.597   9.402  72.081  1.00  0.00    -0.348 C  
HETATM    6  C   UNL     1      -9.540   7.395  67.291  1.00  0.00    -0.191 C  
ENDROOT
BRANCH   5   7
ATOM      7  C   GLY A   1     -13.574  10.273  71.286  1.00  0.00    -0.054 C  
ATOM      8  H   GLY A   1     -13.613  12.106  70.594  1.00  0.00     0.000 HD 
ATOM      9  O   GLY A   1     -13.007  11.566  71.087  1.00  0.00    -0.340 OA 
ENDBRANCH   5   7
BRANCH   6  10
HETATM   10  C   UNL     1      -8.396   8.141  67.975  1.00  0.00    -0.129 C  
BRANCH  10  11
HETATM   11  C   UNL     1      -7.457   8.879  67.017  1.00  0.00    -0.087 C  
BRANCH  11  12
HETATM   12  C   UNL     1      -7.450  10.374  67.351  1.00  0.00    -0.094 C  
BRANCH  12  13
HETATM   13  C   UNL     1      -8.534  11.142  66.596  1.00  0.00    -0.164 C  
BRANCH  13  14
HETATM   14  C   UNL     1      -8.579  10.800  65.101  1.00  0.00    -0.133 C  
BRANCH  14  15
HETATM   15  C   UNL     1      -9.982  10.635  64.504  1.00  0.00    -0.410 C  
BRANCH  15  16
HETATM   16  C   UNL     1     -10.381  11.730  63.553  1.00  0.00    -0.490 C  
HETATM   17  C   UNL     1     -11.432  12.546  63.730  1.00  0.00    -0.542 C  
BRANCH  17  18
HETATM   18  C   UNL     1     -12.403  12.481  64.873  1.00  0.00    -0.539 C  
BRANCH  18  19
HETATM   19  C   UNL     1     -11.936  13.317  66.062  1.00  0.00    -0.473 C  
BRANCH  19  20
HETATM   20  C   UNL     1     -11.841  12.445  67.314  1.00  0.00    -0.357 C  
BRANCH  20  21
HETATM   21  C   UNL     1     -11.069  13.149  68.425  1.00  0.00    -0.298 C  
BRANCH  21  22
HETATM   22  C   UNL     1     -11.548  14.587  68.604  1.00  0.00    -0.346 C  
BRANCH  22  23
HETATM   23  C   UNL     1     -10.374  15.561  68.536  1.00  0.00    -0.225 C  
BRANCH  23  24
HETATM   24  C   UNL     1     -10.706  16.786  67.690  1.00  0.00    -0.305 C  
HETATM   25  C   UNL     1     -10.182  16.647  66.279  1.00  0.00    -0.334 C  
HETATM   26  O   UNL     1     -10.488  17.722  65.516  1.00  0.00    -0.646 OA 
HETATM   27  O   UNL     1      -9.560  15.696  65.846  1.00  0.00    -0.318 OA 
ENDBRANCH  23  24
ENDBRANCH  22  23
ENDBRANCH  21  22
ENDBRANCH  20  21
ENDBRANCH  19  20
ENDBRANCH  18  19
ENDBRANCH  17  18
ENDBRANCH  15  16
ENDBRANCH  14  15
ENDBRANCH  13  14
ENDBRANCH  12  13
ENDBRANCH  11  12
ENDBRANCH  10  11
ENDBRANCH   6  10
TORSDOF 15
ENDMDL
MODEL      142
REMARK 921   NORMALIZED FREE ENERGY PREDICTED BY IDOCK:   -4.28 KCAL/MOL
REMARK 922        TOTAL FREE ENERGY PREDICTED BY IDOCK:   -9.97 KCAL/MOL
REMARK 923 INTER-LIGAND FREE ENERGY PREDICTED BY IDOCK:   -7.76 KCAL/MOL
REMARK 924 INTRA-LIGAND FREE ENERGY PREDICTED BY IDOCK:   -2.21 KCAL/MOL
REMARK 927      BINDING AFFINITY PREDICTED BY RF-SCORE:    0.00 PKD
ROOT
ATOM      1  N   GLY A   1     -12.484  11.662  62.960  1.00  0.00    -0.937 NA 
HETATM    2  C   UNL     1      -7.583  13.072  67.694  1.00  0.00    -0.160 C  
ATOM      3  H2  GLY A   1     -11.866  12.024  62.233  1.00  0.00     0.000 HD 
ATOM      4  H1  GLY A   1     -12.496  10.643  62.977  1.00  0.00     0.000 HD 
ATOM      5  CA  GLY A   1     -12.135  12.188  64.287  1.00  0.00    -0.375 C  
HETATM    6  C   UNL     1      -7.372  11.584  67.929  1.00  0.00    -0.094 C  
ENDROOT
BRANCH   5   7
ATOM      7  C   GLY A   1     -12.116  13.719  64.261  1.00  0.00    -0.440 C  
ATOM      8  H   GLY A   1     -13.028  15.173  65.207  1.00  0.00     0.000 HD 
ATOM      9  O   GLY A   1     -13.040  14.223  65.222  1.00  0.00    -0.707 OA 
ENDBRANCH   5   7
BRANCH   6  10
HETATM   10  C   UNL     1      -8.419  10.951  68.844  1.00  0.00    -0.142 C  
BRANCH  10  11
HETATM   11  C   UNL     1      -9.188   9.786  68.216  1.00  0.00    -0.130 C  
BRANCH  11  12
HETATM   12  C   UNL     1     -10.690  10.083  68.244  1.00  0.00    -0.280 C  
BRANCH  12  13
HETATM   13  C   UNL     1     -11.087  11.162  67.238  1.00  0.00    -0.366 C  
BRANCH  13  14
HETATM   14  C   UNL     1     -11.806  12.352  67.890  1.00  0.00    -0.370 C  
BRANCH  14  15
HETATM   15  C   UNL     1     -11.597  12.500  69.402  1.00  0.00    -0.368 C  
BRANCH  15  16
HETATM   16  C   UNL     1     -12.398  13.607  70.030  1.00  0.00    -0.342 C  
HETATM   17  C   UNL     1     -11.993  14.884  70.117  1.00  0.00    -0.368 C  
BRANCH  17  18
HETATM   18  C   UNL     1     -10.670  15.413  69.645  1.00  0.00    -0.281 C  
BRANCH  18  19
HETATM   19  C   UNL     1     -10.819  16.281  68.398  1.00  0.00    -0.334 C  
BRANCH  19  20
HETATM   20  C   UNL     1     -10.486  15.468  67.148  1.00  0.00    -0.286 C  
BRANCH  20  21
HETATM   21  C   UNL     1      -9.656  16.281  66.160  1.00  0.00    -0.362 C  
BRANCH  21  22
HETATM   22  C   UNL     1      -9.625  17.757  66.549  1.00  0.00    -0.315 C  
BRANCH  22  23
HETATM   23  C   UNL     1      -8.195  18.291  66.534  1.00  0.00    -0.290 C  
BRANCH  23  24
HETATM   24  C   UNL     1      -7.174  17.164  66.412  1.00  0.00    -0.325 C  
HETATM   25  C   UNL     1      -6.275  17.093  67.625  1.00  0.00    -0.144 C  
HETATM   26  O   UNL     1      -5.377  16.085  67.534  1.00  0.00    -0.160 OA 
HETATM   27  O   UNL     1      -6.327  17.834  68.589  1.00  0.00    -0.184 OA 
ENDBRANCH  23  24
ENDBRANCH  22  23
ENDBRANCH  21  22
ENDBRANCH  20  21
ENDBRANCH  19  20
ENDBRANCH  18  19
ENDBRANCH  17  18
ENDBRANCH  15  16
ENDBRANCH  14  15
ENDBRANCH  13  14
ENDBRANCH  12  13
ENDBRANCH  11  12
ENDBRANCH  10  11
ENDBRANCH   6  10
TORSDOF 15
ENDMDL
MODEL      143
REMARK 921   NORMALIZED FREE ENERGY PREDICTED BY IDOCK:   -4.28 KCAL/MOL
REMARK 922        TOTAL FREE ENERGY PREDICTED BY IDOCK:   -9.97 KCAL/MOL
REMARK 923 INTER-LIGAND FREE ENERGY PREDICTED BY IDOCK:   -8.29 KCAL/MOL
REMARK 924 INTRA-LIGAND FREE ENERGY PREDICTED BY IDOCK:   -1.69 KCAL/MOL
REMARK 927      BINDING AFFINITY PREDICTED BY RF-SCORE:    0.00 PKD
ROOT
ATOM      1  N   GLY A   1     -13.903  15.513  71.300  1.00  0.00    -0.676 NA 
HETATM    2  C   UNL     1     -10.959  15.699  64.998  1.00  0.00    -0.445 C  
ATOM      3  H2  GLY A   1     -14.051  16.521  71.246  1.00  0.00     0.000 HD 
ATOM      4  H1  GLY A   1     -14.758  14.992  71.110  1.00  0.00     0.000 HD 
ATOM      5  CA  GLY A   1     -12.827  15.068  70.403  1.00  0.00    -0.288 C  
HETATM    6  C   UNL     1     -12.132  14.923  64.419  1.00  0.00    -0.417 C  
ENDROOT
BRANCH   5   7
ATOM      7  C   GLY A   1     -11.542  15.851  70.689  1.00  0.00    -0.400 C  
ATOM      8  H   GLY A   1     -10.088  16.638  69.637  1.00  0.00     0.000 HD 
ATOM      9  O   GLY A   1     -10.885  16.152  69.460  1.00  0.00    -0.280 OA 
ENDBRANCH   5   7
BRANCH   6  10
HETATM   10  C   UNL     1     -12.060  13.418  64.677  1.00  0.00    -0.456 C  
BRANCH  10  11
HETATM   11  C   UNL     1     -10.853  12.974  65.507  1.00  0.00    -0.298 C  
BRANCH  11  12
HETATM   12  C   UNL     1     -11.242  11.785  66.390  1.00  0.00    -0.382 C  
BRANCH  12  13
HETATM   13  C   UNL     1     -11.467  12.193  67.845  1.00  0.00    -0.392 C  
BRANCH  13  14
HETATM   14  C   UNL     1     -12.001  11.045  68.713  1.00  0.00    -0.295 C  
BRANCH  14  15
HETATM   15  C   UNL     1     -11.412  10.958  70.126  1.00  0.00    -0.405 C  
BRANCH  15  16
HETATM   16  C   UNL     1     -12.294  11.534  71.200  1.00  0.00    -0.382 C  
HETATM   17  C   UNL     1     -13.272  10.860  71.825  1.00  0.00    -0.513 C  
BRANCH  17  18
HETATM   18  C   UNL     1     -13.677   9.444  71.535  1.00  0.00    -0.363 C  
BRANCH  18  19
HETATM   19  C   UNL     1     -12.717   8.439  72.167  1.00  0.00    -0.399 C  
BRANCH  19  20
HETATM   20  C   UNL     1     -13.033   7.027  71.673  1.00  0.00    -0.400 C  
BRANCH  20  21
HETATM   21  C   UNL     1     -11.797   6.356  71.081  1.00  0.00    -0.325 C  
BRANCH  21  22
HETATM   22  C   UNL     1     -11.625   6.717  69.609  1.00  0.00    -0.305 C  
BRANCH  22  23
HETATM   23  C   UNL     1     -10.169   6.554  69.178  1.00  0.00    -0.208 C  
BRANCH  23  24
HETATM   24  C   UNL     1      -9.416   7.880  69.222  1.00  0.00    -0.152 C  
HETATM   25  C   UNL     1      -9.528   8.627  67.912  1.00  0.00    -0.139 C  
HETATM   26  O   UNL     1      -8.878   9.814  67.948  1.00  0.00    -0.122 OA 
HETATM   27  O   UNL     1     -10.126   8.241  66.926  1.00  0.00    -0.241 OA 
ENDBRANCH  23  24
ENDBRANCH  22  23
ENDBRANCH  21  22
ENDBRANCH  20  21
ENDBRANCH  19  20
ENDBRANCH  18  19
ENDBRANCH  17  18
ENDBRANCH  15  16
ENDBRANCH  14  15
ENDBRANCH  13  14
ENDBRANCH  12  13
ENDBRANCH  11  12
ENDBRANCH  10  11
ENDBRANCH   6  10
TORSDOF 15
ENDMDL
MODEL      144
REMARK 921   NORMALIZED FREE ENERGY PREDICTED BY IDOCK:   -4.27 KCAL/MOL
REMARK 922        TOTAL FREE ENERGY PREDICTED BY IDOCK:   -9.96 KCAL/MOL
REMARK 923 INTER-LIGAND FREE ENERGY PREDICTED BY IDOCK:   -7.35 KCAL/MOL
REMARK 924 INTRA-LIGAND FREE ENERGY PREDICTED BY IDOCK:   -2.61 KCAL/MOL
REMARK 927      BINDING AFFINITY PREDICTED BY RF-SCORE:    0.00 PKD
ROOT
ATOM      1  N   GLY A   1      -5.349  14.475  67.736  1.00  0.00    -0.300 NA 
HETATM    2  C   UNL     1      -9.988  10.003  65.112  1.00  0.00    -0.350 C  
ATOM      3  H2  GLY A   1      -4.758  13.687  68.001  1.00  0.00     0.000 HD 
ATOM      4  H1  GLY A   1      -5.011  14.937  66.892  1.00  0.00     0.000 HD 
ATOM      5  CA  GLY A   1      -6.753  14.077  67.570  1.00  0.00    -0.108 C  
HETATM    6  C   UNL     1      -9.679  10.494  63.707  1.00  0.00    -0.385 C  
ENDROOT
BRANCH   5   7
ATOM      7  C   GLY A   1      -7.260  13.383  68.837  1.00  0.00    -0.062 C  
ATOM      8  H   GLY A   1      -6.625  13.124  70.673  1.00  0.00     0.000 HD 
ATOM      9  O   GLY A   1      -6.311  13.554  69.887  1.00  0.00    -0.126 OA 
ENDBRANCH   5   7
BRANCH   6  10
HETATM   10  C   UNL     1     -10.375  11.807  63.348  1.00  0.00    -0.481 C  
BRANCH  10  11
HETATM   11  C   UNL     1     -11.635  12.101  64.166  1.00  0.00    -0.467 C  
BRANCH  11  12
HETATM   12  C   UNL     1     -11.592  13.542  64.681  1.00  0.00    -0.395 C  
BRANCH  12  13
HETATM   13  C   UNL     1     -11.987  13.645  66.153  1.00  0.00    -0.453 C  
BRANCH  13  14
HETATM   14  C   UNL     1     -11.189  12.693  67.054  1.00  0.00    -0.348 C  
BRANCH  14  15
HETATM   15  C   UNL     1     -12.008  11.592  67.739  1.00  0.00    -0.100 C  
BRANCH  15  16
HETATM   16  C   UNL     1     -11.285  10.886  68.853  1.00  0.00    -0.327 C  
HETATM   17  C   UNL     1     -11.532  11.074  70.159  1.00  0.00    -0.383 C  
BRANCH  17  18
HETATM   18  C   UNL     1     -12.530  12.040  70.727  1.00  0.00    -0.372 C  
BRANCH  18  19
HETATM   19  C   UNL     1     -11.928  13.429  70.923  1.00  0.00    -0.129 C  
BRANCH  19  20
HETATM   20  C   UNL     1     -12.902  14.500  70.433  1.00  0.00    -0.315 C  
BRANCH  20  21
HETATM   21  C   UNL     1     -12.162  15.721  69.896  1.00  0.00    -0.271 C  
BRANCH  21  22
HETATM   22  C   UNL     1     -10.801  15.334  69.323  1.00  0.00    -0.257 C  
BRANCH  22  23
HETATM   23  C   UNL     1     -10.154  16.522  68.615  1.00  0.00    -0.255 C  
BRANCH  23  24
HETATM   24  C   UNL     1     -10.866  16.855  67.308  1.00  0.00    -0.131 C  
HETATM   25  C   UNL     1      -9.926  16.776  66.126  1.00  0.00    -0.327 C  
HETATM   26  O   UNL     1     -10.553  17.052  64.959  1.00  0.00    -0.703 OA 
HETATM   27  O   UNL     1      -8.744  16.495  66.180  1.00  0.00    -0.307 OA 
ENDBRANCH  23  24
ENDBRANCH  22  23
ENDBRANCH  21  22
ENDBRANCH  20  21
ENDBRANCH  19  20
ENDBRANCH  18  19
ENDBRANCH  17  18
ENDBRANCH  15  16
ENDBRANCH  14  15
ENDBRANCH  13  14
ENDBRANCH  12  13
ENDBRANCH  11  12
ENDBRANCH  10  11
ENDBRANCH   6  10
TORSDOF 15
ENDMDL
MODEL      145
REMARK 921   NORMALIZED FREE ENERGY PREDICTED BY IDOCK:   -4.26 KCAL/MOL
REMARK 922        TOTAL FREE ENERGY PREDICTED BY IDOCK:   -9.94 KCAL/MOL
REMARK 923 INTER-LIGAND FREE ENERGY PREDICTED BY IDOCK:   -8.15 KCAL/MOL
REMARK 924 INTRA-LIGAND FREE ENERGY PREDICTED BY IDOCK:   -1.79 KCAL/MOL
REMARK 927      BINDING AFFINITY PREDICTED BY RF-SCORE:    0.00 PKD
ROOT
ATOM      1  N   GLY A   1     -12.756  11.939  63.075  1.00  0.00    -0.857 NA 
HETATM    2  C   UNL     1      -7.465  12.570  67.549  1.00  0.00    -0.151 C  
ATOM      3  H2  GLY A   1     -12.148  12.275  62.328  1.00  0.00     0.000 HD 
ATOM      4  H1  GLY A   1     -12.876  10.927  63.042  1.00  0.00     0.000 HD 
ATOM      5  CA  GLY A   1     -12.276  12.352  64.400  1.00  0.00    -0.437 C  
HETATM    6  C   UNL     1      -7.399  11.058  67.696  1.00  0.00    -0.094 C  
ENDROOT
BRANCH   5   7
ATOM      7  C   GLY A   1     -12.096  13.872  64.449  1.00  0.00    -0.443 C  
ATOM      8  H   GLY A   1     -12.614  15.332  65.648  1.00  0.00     0.000 HD 
ATOM      9  O   GLY A   1     -12.726  14.390  65.618  1.00  0.00    -0.407 OA 
ENDBRANCH   5   7
BRANCH   6  10
HETATM   10  C   UNL     1      -8.453  10.487  68.644  1.00  0.00    -0.138 C  
BRANCH  10  11
HETATM   11  C   UNL     1      -8.672   8.978  68.514  1.00  0.00    -0.133 C  
BRANCH  11  12
HETATM   12  C   UNL     1      -7.855   8.243  69.580  1.00  0.00    -0.102 C  
BRANCH  12  13
HETATM   13  C   UNL     1      -8.606   7.049  70.166  1.00  0.00    -0.140 C  
BRANCH  13  14
HETATM   14  C   UNL     1      -8.541   6.995  71.699  1.00  0.00    -0.116 C  
BRANCH  14  15
HETATM   15  C   UNL     1      -9.186   8.182  72.427  1.00  0.00    -0.292 C  
BRANCH  15  16
HETATM   16  C   UNL     1     -10.572   7.910  72.945  1.00  0.00    -0.434 C  
HETATM   17  C   UNL     1     -11.702   8.204  72.284  1.00  0.00    -0.439 C  
BRANCH  17  18
HETATM   18  C   UNL     1     -11.779   8.885  70.948  1.00  0.00    -0.312 C  
BRANCH  18  19
HETATM   19  C   UNL     1     -11.662  10.402  71.077  1.00  0.00    -0.430 C  
BRANCH  19  20
HETATM   20  C   UNL     1     -12.204  11.080  69.819  1.00  0.00    -0.388 C  
BRANCH  20  21
HETATM   21  C   UNL     1     -11.447  12.369  69.514  1.00  0.00    -0.309 C  
BRANCH  21  22
HETATM   22  C   UNL     1     -12.367  13.583  69.602  1.00  0.00    -0.220 C  
BRANCH  22  23
HETATM   23  C   UNL     1     -12.863  13.785  71.032  1.00  0.00    -0.376 C  
BRANCH  23  24
HETATM   24  C   UNL     1     -12.006  14.795  71.788  1.00  0.00    -0.409 C  
HETATM   25  C   UNL     1     -12.853  15.739  72.610  1.00  0.00    -0.461 C  
HETATM   26  O   UNL     1     -12.101  16.627  73.300  1.00  0.00    -0.480 OA 
HETATM   27  O   UNL     1     -14.068  15.727  72.674  1.00  0.00    -0.578 OA 
ENDBRANCH  23  24
ENDBRANCH  22  23
ENDBRANCH  21  22
ENDBRANCH  20  21
ENDBRANCH  19  20
ENDBRANCH  18  19
ENDBRANCH  17  18
ENDBRANCH  15  16
ENDBRANCH  14  15
ENDBRANCH  13  14
ENDBRANCH  12  13
ENDBRANCH  11  12
ENDBRANCH  10  11
ENDBRANCH   6  10
TORSDOF 15
ENDMDL
MODEL      146
REMARK 921   NORMALIZED FREE ENERGY PREDICTED BY IDOCK:   -4.26 KCAL/MOL
REMARK 922        TOTAL FREE ENERGY PREDICTED BY IDOCK:   -9.94 KCAL/MOL
REMARK 923 INTER-LIGAND FREE ENERGY PREDICTED BY IDOCK:   -8.07 KCAL/MOL
REMARK 924 INTRA-LIGAND FREE ENERGY PREDICTED BY IDOCK:   -1.87 KCAL/MOL
REMARK 927      BINDING AFFINITY PREDICTED BY RF-SCORE:    0.00 PKD
ROOT
ATOM      1  N   GLY A   1      -9.668  11.968  63.853  1.00  0.00    -0.535 NA 
HETATM    2  C   UNL     1     -10.614   5.794  66.918  1.00  0.00    -0.377 C  
ATOM      3  H2  GLY A   1     -10.496  11.797  63.282  1.00  0.00     0.000 HD 
ATOM      4  H1  GLY A   1      -9.861  12.609  64.622  1.00  0.00     0.000 HD 
ATOM      5  CA  GLY A   1      -9.088  10.720  64.366  1.00  0.00    -0.196 C  
HETATM    6  C   UNL     1     -10.961   6.488  68.226  1.00  0.00    -0.362 C  
ENDROOT
BRANCH   5   7
ATOM      7  C   GLY A   1      -8.798   9.757  63.211  1.00  0.00    -0.245 C  
ATOM      8  H   GLY A   1      -7.693   8.164  62.925  1.00  0.00     0.000 HD 
ATOM      9  O   GLY A   1      -7.873   8.761  63.641  1.00  0.00    -0.130 OA 
ENDBRANCH   5   7
BRANCH   6  10
HETATM   10  C   UNL     1      -9.739   6.966  69.011  1.00  0.00    -0.150 C  
BRANCH  10  11
HETATM   11  C   UNL     1      -9.930   6.988  70.530  1.00  0.00    -0.191 C  
BRANCH  11  12
HETATM   12  C   UNL     1      -9.772   8.420  71.049  1.00  0.00    -0.218 C  
BRANCH  12  13
HETATM   13  C   UNL     1     -10.615   8.681  72.296  1.00  0.00    -0.375 C  
BRANCH  13  14
HETATM   14  C   UNL     1     -12.030   8.096  72.194  1.00  0.00    -0.413 C  
BRANCH  14  15
HETATM   15  C   UNL     1     -13.056   8.973  71.466  1.00  0.00    -0.389 C  
BRANCH  15  16
HETATM   16  C   UNL     1     -12.853  10.451  71.661  1.00  0.00    -0.579 C  
HETATM   17  C   UNL     1     -12.380  11.285  70.720  1.00  0.00    -0.495 C  
BRANCH  17  18
HETATM   18  C   UNL     1     -11.939  10.884  69.343  1.00  0.00    -0.393 C  
BRANCH  18  19
HETATM   19  C   UNL     1     -10.909  11.856  68.772  1.00  0.00    -0.270 C  
BRANCH  19  20
HETATM   20  C   UNL     1     -11.345  12.333  67.387  1.00  0.00    -0.389 C  
BRANCH  20  21
HETATM   21  C   UNL     1     -11.246  13.850  67.266  1.00  0.00    -0.329 C  
BRANCH  21  22
HETATM   22  C   UNL     1     -10.083  14.395  68.091  1.00  0.00    -0.226 C  
BRANCH  22  23
HETATM   23  C   UNL     1     -10.483  15.685  68.803  1.00  0.00    -0.225 C  
BRANCH  23  24
HETATM   24  C   UNL     1     -11.983  15.737  69.076  1.00  0.00    -0.294 C  
HETATM   25  C   UNL     1     -12.288  15.536  70.543  1.00  0.00    -0.418 C  
HETATM   26  O   UNL     1     -13.616  15.599  70.798  1.00  0.00    -0.524 OA 
HETATM   27  O   UNL     1     -11.465  15.343  71.418  1.00  0.00    -0.346 OA 
ENDBRANCH  23  24
ENDBRANCH  22  23
ENDBRANCH  21  22
ENDBRANCH  20  21
ENDBRANCH  19  20
ENDBRANCH  18  19
ENDBRANCH  17  18
ENDBRANCH  15  16
ENDBRANCH  14  15
ENDBRANCH  13  14
ENDBRANCH  12  13
ENDBRANCH  11  12
ENDBRANCH  10  11
ENDBRANCH   6  10
TORSDOF 15
ENDMDL
MODEL      147
REMARK 921   NORMALIZED FREE ENERGY PREDICTED BY IDOCK:   -4.24 KCAL/MOL
REMARK 922        TOTAL FREE ENERGY PREDICTED BY IDOCK:   -9.91 KCAL/MOL
REMARK 923 INTER-LIGAND FREE ENERGY PREDICTED BY IDOCK:   -7.73 KCAL/MOL
REMARK 924 INTRA-LIGAND FREE ENERGY PREDICTED BY IDOCK:   -2.18 KCAL/MOL
REMARK 927      BINDING AFFINITY PREDICTED BY RF-SCORE:    0.00 PKD
ROOT
ATOM      1  N   GLY A   1     -12.589  16.112  74.083  1.00  0.00    -0.736 NA 
HETATM    2  C   UNL     1     -11.810  11.950  68.562  1.00  0.00    -0.357 C  
ATOM      3  H2  GLY A   1     -12.823  15.297  74.648  1.00  0.00     0.000 HD 
ATOM      4  H1  GLY A   1     -11.631  16.423  74.240  1.00  0.00     0.000 HD 
ATOM      5  CA  GLY A   1     -12.816  15.870  72.652  1.00  0.00    -0.459 C  
HETATM    6  C   UNL     1     -10.315  12.225  68.556  1.00  0.00    -0.234 C  
ENDROOT
BRANCH   5   7
ATOM      7  C   GLY A   1     -14.255  15.403  72.415  1.00  0.00    -0.492 C  
ATOM      8  H   GLY A   1     -15.250  13.721  72.555  1.00  0.00     0.000 HD 
ATOM      9  O   GLY A   1     -14.358  14.011  72.702  1.00  0.00    -0.596 OA 
ENDBRANCH   5   7
BRANCH   6  10
HETATM   10  C   UNL     1      -9.938  13.559  67.911  1.00  0.00    -0.245 C  
BRANCH  10  11
HETATM   11  C   UNL     1     -10.849  14.728  68.293  1.00  0.00    -0.251 C  
BRANCH  11  12
HETATM   12  C   UNL     1     -10.738  15.835  67.241  1.00  0.00    -0.313 C  
BRANCH  12  13
HETATM   13  C   UNL     1     -10.036  15.360  65.971  1.00  0.00    -0.350 C  
BRANCH  13  14
HETATM   14  C   UNL     1     -10.963  15.337  64.747  1.00  0.00    -0.403 C  
BRANCH  14  15
HETATM   15  C   UNL     1     -12.190  14.426  64.868  1.00  0.00    -0.440 C  
BRANCH  15  16
HETATM   16  C   UNL     1     -12.263  13.347  63.821  1.00  0.00    -0.482 C  
HETATM   17  C   UNL     1     -11.575  12.196  63.867  1.00  0.00    -0.532 C  
BRANCH  17  18
HETATM   18  C   UNL     1     -10.593  11.808  64.934  1.00  0.00    -0.344 C  
BRANCH  18  19
HETATM   19  C   UNL     1     -10.073  10.387  64.737  1.00  0.00    -0.387 C  
BRANCH  19  20
HETATM   20  C   UNL     1      -8.742  10.207  65.467  1.00  0.00    -0.173 C  
BRANCH  20  21
HETATM   21  C   UNL     1      -8.720   8.910  66.270  1.00  0.00    -0.162 C  
BRANCH  21  22
HETATM   22  C   UNL     1      -8.360   9.171  67.730  1.00  0.00    -0.117 C  
BRANCH  22  23
HETATM   23  C   UNL     1      -6.904   9.611  67.859  1.00  0.00    -0.074 C  
BRANCH  23  24
HETATM   24  C   UNL     1      -6.788  11.115  68.087  1.00  0.00    -0.067 C  
HETATM   25  C   UNL     1      -6.618  11.444  69.553  1.00  0.00    -0.129 C  
HETATM   26  O   UNL     1      -6.495  12.775  69.764  1.00  0.00    -0.098 OA 
HETATM   27  O   UNL     1      -6.585  10.635  70.461  1.00  0.00    -0.293 OA 
ENDBRANCH  23  24
ENDBRANCH  22  23
ENDBRANCH  21  22
ENDBRANCH  20  21
ENDBRANCH  19  20
ENDBRANCH  18  19
ENDBRANCH  17  18
ENDBRANCH  15  16
ENDBRANCH  14  15
ENDBRANCH  13  14
ENDBRANCH  12  13
ENDBRANCH  11  12
ENDBRANCH  10  11
ENDBRANCH   6  10
TORSDOF 15
ENDMDL
MODEL      148
REMARK 921   NORMALIZED FREE ENERGY PREDICTED BY IDOCK:   -4.24 KCAL/MOL
REMARK 922        TOTAL FREE ENERGY PREDICTED BY IDOCK:   -9.90 KCAL/MOL
REMARK 923 INTER-LIGAND FREE ENERGY PREDICTED BY IDOCK:   -7.91 KCAL/MOL
REMARK 924 INTRA-LIGAND FREE ENERGY PREDICTED BY IDOCK:   -1.99 KCAL/MOL
REMARK 927      BINDING AFFINITY PREDICTED BY RF-SCORE:    0.00 PKD
ROOT
ATOM      1  N   GLY A   1     -11.367  14.334  70.255  1.00  0.00    -0.473 NA 
HETATM    2  C   UNL     1     -12.375  13.365  63.439  1.00  0.00    -0.343 C  
ATOM      3  H2  GLY A   1     -12.364  14.516  70.364  1.00  0.00     0.000 HD 
ATOM      4  H1  GLY A   1     -11.116  13.394  70.560  1.00  0.00     0.000 HD 
ATOM      5  CA  GLY A   1     -10.915  14.559  68.876  1.00  0.00    -0.256 C  
HETATM    6  C   UNL     1     -12.048  11.888  63.593  1.00  0.00    -0.580 C  
ENDROOT
BRANCH   5   7
ATOM      7  C   GLY A   1     -11.292  15.971  68.418  1.00  0.00    -0.355 C  
ATOM      8  H   GLY A   1     -10.729  17.212  67.010  1.00  0.00     0.000 HD 
ATOM      9  O   GLY A   1     -10.495  16.336  67.294  1.00  0.00    -0.294 OA 
ENDBRANCH   5   7
BRANCH   6  10
HETATM   10  C   UNL     1     -10.550  11.594  63.663  1.00  0.00    -0.493 C  
BRANCH  10  11
HETATM   11  C   UNL     1      -9.870  12.067  64.949  1.00  0.00    -0.198 C  
BRANCH  11  12
HETATM   12  C   UNL     1      -9.579  10.865  65.852  1.00  0.00    -0.257 C  
BRANCH  12  13
HETATM   13  C   UNL     1     -10.677  10.640  66.891  1.00  0.00    -0.297 C  
BRANCH  13  14
HETATM   14  C   UNL     1     -10.655   9.226  67.488  1.00  0.00    -0.329 C  
BRANCH  14  15
HETATM   15  C   UNL     1     -10.345   9.150  68.988  1.00  0.00    -0.229 C  
BRANCH  15  16
HETATM   16  C   UNL     1     -10.497  10.457  69.718  1.00  0.00    -0.284 C  
HETATM   17  C   UNL     1     -11.608  10.842  70.365  1.00  0.00    -0.418 C  
BRANCH  17  18
HETATM   18  C   UNL     1     -12.889  10.064  70.438  1.00  0.00    -0.087 C  
BRANCH  18  19
HETATM   19  C   UNL     1     -13.373   9.899  71.876  1.00  0.00    -0.524 C  
BRANCH  19  20
HETATM   20  C   UNL     1     -13.622   8.423  72.183  1.00  0.00    -0.361 C  
BRANCH  20  21
HETATM   21  C   UNL     1     -12.895   7.519  71.192  1.00  0.00    -0.264 C  
BRANCH  21  22
HETATM   22  C   UNL     1     -11.815   6.694  71.886  1.00  0.00    -0.375 C  
BRANCH  22  23
HETATM   23  C   UNL     1     -11.158   7.495  73.007  1.00  0.00    -0.413 C  
BRANCH  23  24
HETATM   24  C   UNL     1      -9.965   8.299  72.500  1.00  0.00    -0.373 C  
HETATM   25  C   UNL     1      -8.688   7.905  73.206  1.00  0.00    -0.236 C  
HETATM   26  O   UNL     1      -7.620   8.600  72.749  1.00  0.00    -0.338 OA 
HETATM   27  O   UNL     1      -8.592   7.064  74.079  1.00  0.00    -0.138 OA 
ENDBRANCH  23  24
ENDBRANCH  22  23
ENDBRANCH  21  22
ENDBRANCH  20  21
ENDBRANCH  19  20
ENDBRANCH  18  19
ENDBRANCH  17  18
ENDBRANCH  15  16
ENDBRANCH  14  15
ENDBRANCH  13  14
ENDBRANCH  12  13
ENDBRANCH  11  12
ENDBRANCH  10  11
ENDBRANCH   6  10
TORSDOF 15
ENDMDL
MODEL      149
REMARK 921   NORMALIZED FREE ENERGY PREDICTED BY IDOCK:   -4.24 KCAL/MOL
REMARK 922        TOTAL FREE ENERGY PREDICTED BY IDOCK:   -9.90 KCAL/MOL
REMARK 923 INTER-LIGAND FREE ENERGY PREDICTED BY IDOCK:   -7.69 KCAL/MOL
REMARK 924 INTRA-LIGAND FREE ENERGY PREDICTED BY IDOCK:   -2.21 KCAL/MOL
REMARK 927      BINDING AFFINITY PREDICTED BY RF-SCORE:    0.00 PKD
ROOT
ATOM      1  N   GLY A   1      -5.969  18.531  65.124  1.00  0.00    -0.245 NA 
HETATM    2  C   UNL     1      -8.650  12.797  68.012  1.00  0.00    -0.186 C  
ATOM      3  H2  GLY A   1      -5.034  18.187  65.340  1.00  0.00     0.000 HD 
ATOM      4  H1  GLY A   1      -6.207  18.395  64.142  1.00  0.00     0.000 HD 
ATOM      5  CA  GLY A   1      -6.991  17.919  65.983  1.00  0.00    -0.311 C  
HETATM    6  C   UNL     1      -9.126  12.323  66.648  1.00  0.00    -0.203 C  
ENDROOT
BRANCH   5   7
ATOM      7  C   GLY A   1      -6.634  18.124  67.458  1.00  0.00    -0.189 C  
ATOM      8  H   GLY A   1      -6.154  16.987  68.981  1.00  0.00     0.000 HD 
ATOM      9  O   GLY A   1      -6.376  16.861  68.066  1.00  0.00    -0.137 OA 
ENDBRANCH   5   7
BRANCH   6  10
HETATM   10  C   UNL     1     -10.420  12.990  66.183  1.00  0.00    -0.289 C  
BRANCH  10  11
HETATM   11  C   UNL     1     -10.222  14.131  65.183  1.00  0.00    -0.411 C  
BRANCH  11  12
HETATM   12  C   UNL     1     -11.020  15.358  65.633  1.00  0.00    -0.330 C  
BRANCH  12  13
HETATM   13  C   UNL     1     -10.122  16.462  66.188  1.00  0.00    -0.364 C  
BRANCH  13  14
HETATM   14  C   UNL     1     -10.872  17.438  67.106  1.00  0.00    -0.090 C  
BRANCH  14  15
HETATM   15  C   UNL     1     -10.295  17.590  68.519  1.00  0.00    -0.380 C  
BRANCH  15  16
HETATM   16  C   UNL     1      -9.727  16.321  69.094  1.00  0.00    -0.265 C  
HETATM   17  C   UNL     1     -10.440  15.405  69.768  1.00  0.00    -0.303 C  
BRANCH  17  18
HETATM   18  C   UNL     1     -11.900  15.508  70.097  1.00  0.00    -0.378 C  
BRANCH  18  19
HETATM   19  C   UNL     1     -12.529  14.135  70.321  1.00  0.00    -0.416 C  
BRANCH  19  20
HETATM   20  C   UNL     1     -11.854  13.094  69.428  1.00  0.00    -0.383 C  
BRANCH  20  21
HETATM   21  C   UNL     1     -11.840  11.720  70.090  1.00  0.00    -0.408 C  
BRANCH  21  22
HETATM   22  C   UNL     1     -12.767  11.680  71.301  1.00  0.00    -0.444 C  
BRANCH  22  23
HETATM   23  C   UNL     1     -12.943  10.249  71.801  1.00  0.00    -0.574 C  
BRANCH  23  24
HETATM   24  C   UNL     1     -11.796   9.349  71.351  1.00  0.00    -0.447 C  
HETATM   25  C   UNL     1     -12.203   7.893  71.340  1.00  0.00    -0.313 C  
HETATM   26  O   UNL     1     -11.198   7.088  70.924  1.00  0.00    -0.258 OA 
HETATM   27  O   UNL     1     -13.295   7.460  71.656  1.00  0.00    -0.362 OA 
ENDBRANCH  23  24
ENDBRANCH  22  23
ENDBRANCH  21  22
ENDBRANCH  20  21
ENDBRANCH  19  20
ENDBRANCH  18  19
ENDBRANCH  17  18
ENDBRANCH  15  16
ENDBRANCH  14  15
ENDBRANCH  13  14
ENDBRANCH  12  13
ENDBRANCH  11  12
ENDBRANCH  10  11
ENDBRANCH   6  10
TORSDOF 15
ENDMDL
MODEL      150
REMARK 921   NORMALIZED FREE ENERGY PREDICTED BY IDOCK:   -4.24 KCAL/MOL
REMARK 922        TOTAL FREE ENERGY PREDICTED BY IDOCK:   -9.90 KCAL/MOL
REMARK 923 INTER-LIGAND FREE ENERGY PREDICTED BY IDOCK:   -7.70 KCAL/MOL
REMARK 924 INTRA-LIGAND FREE ENERGY PREDICTED BY IDOCK:   -2.19 KCAL/MOL
REMARK 927      BINDING AFFINITY PREDICTED BY RF-SCORE:    0.00 PKD
ROOT
ATOM      1  N   GLY A   1     -14.257  13.656  72.456  1.00  0.00    -0.726 NA 
HETATM    2  C   UNL     1     -12.256  14.112  65.808  1.00  0.00    -0.458 C  
ATOM      3  H2  GLY A   1     -15.165  14.040  72.196  1.00  0.00     0.000 HD 
ATOM      4  H1  GLY A   1     -14.295  12.646  72.589  1.00  0.00     0.000 HD 
ATOM      5  CA  GLY A   1     -13.215  14.002  71.481  1.00  0.00    -0.359 C  
HETATM    6  C   UNL     1     -12.231  12.595  65.704  1.00  0.00    -0.474 C  
ENDROOT
BRANCH   5   7
ATOM      7  C   GLY A   1     -13.158  15.519  71.281  1.00  0.00    -0.511 C  
ATOM      8  H   GLY A   1     -11.789  16.918  71.362  1.00  0.00     0.000 HD 
ATOM      9  O   GLY A   1     -11.824  15.977  71.486  1.00  0.00    -0.430 OA 
ENDBRANCH   5   7
BRANCH   6  10
HETATM   10  C   UNL     1     -10.973  11.959  66.294  1.00  0.00    -0.345 C  
BRANCH  10  11
HETATM   11  C   UNL     1     -10.590  12.479  67.681  1.00  0.00    -0.234 C  
BRANCH  11  12
HETATM   12  C   UNL     1     -11.734  12.219  68.665  1.00  0.00    -0.377 C  
BRANCH  12  13
HETATM   13  C   UNL     1     -11.768  10.768  69.144  1.00  0.00    -0.368 C  
BRANCH  13  14
HETATM   14  C   UNL     1     -11.566  10.634  70.660  1.00  0.00    -0.432 C  
BRANCH  14  15
HETATM   15  C   UNL     1     -12.543   9.691  71.373  1.00  0.00    -0.463 C  
BRANCH  15  16
HETATM   16  C   UNL     1     -11.880   8.625  72.202  1.00  0.00    -0.447 C  
HETATM   17  C   UNL     1     -11.772   7.337  71.840  1.00  0.00    -0.323 C  
BRANCH  17  18
HETATM   18  C   UNL     1     -12.325   6.736  70.581  1.00  0.00    -0.231 C  
BRANCH  18  19
HETATM   19  C   UNL     1     -11.231   6.094  69.731  1.00  0.00    -0.494 C  
BRANCH  19  20
HETATM   20  C   UNL     1     -10.324   7.172  69.138  1.00  0.00    -0.205 C  
BRANCH  20  21
HETATM   21  C   UNL     1      -8.854   6.876  69.416  1.00  0.00    -0.136 C  
BRANCH  21  22
HETATM   22  C   UNL     1      -7.947   7.895  68.733  1.00  0.00    -0.124 C  
BRANCH  22  23
HETATM   23  C   UNL     1      -8.510   9.306  68.880  1.00  0.00    -0.129 C  
BRANCH  23  24
HETATM   24  C   UNL     1      -7.614  10.184  69.748  1.00  0.00    -0.175 C  
HETATM   25  C   UNL     1      -6.907  11.240  68.929  1.00  0.00    -0.086 C  
HETATM   26  O   UNL     1      -6.124  12.035  69.693  1.00  0.00    -0.103 OA 
HETATM   27  O   UNL     1      -7.011  11.390  67.726  1.00  0.00    -0.071 OA 
ENDBRANCH  23  24
ENDBRANCH  22  23
ENDBRANCH  21  22
ENDBRANCH  20  21
ENDBRANCH  19  20
ENDBRANCH  18  19
ENDBRANCH  17  18
ENDBRANCH  15  16
ENDBRANCH  14  15
ENDBRANCH  13  14
ENDBRANCH  12  13
ENDBRANCH  11  12
ENDBRANCH  10  11
ENDBRANCH   6  10
TORSDOF 15
ENDMDL
MODEL      151
REMARK 921   NORMALIZED FREE ENERGY PREDICTED BY IDOCK:   -4.23 KCAL/MOL
REMARK 922        TOTAL FREE ENERGY PREDICTED BY IDOCK:   -9.90 KCAL/MOL
REMARK 923 INTER-LIGAND FREE ENERGY PREDICTED BY IDOCK:   -7.43 KCAL/MOL
REMARK 924 INTRA-LIGAND FREE ENERGY PREDICTED BY IDOCK:   -2.47 KCAL/MOL
REMARK 927      BINDING AFFINITY PREDICTED BY RF-SCORE:    0.00 PKD
ROOT
ATOM      1  N   GLY A   1     -13.347  13.329  72.185  1.00  0.00    -0.504 NA 
HETATM    2  C   UNL     1     -12.525  14.165  65.327  1.00  0.00    -0.474 C  
ATOM      3  H2  GLY A   1     -14.255  13.788  72.119  1.00  0.00     0.000 HD 
ATOM      4  H1  GLY A   1     -13.437  12.316  72.258  1.00  0.00     0.000 HD 
ATOM      5  CA  GLY A   1     -12.471  13.682  71.060  1.00  0.00    -0.377 C  
HETATM    6  C   UNL     1     -12.634  12.662  65.123  1.00  0.00    -0.459 C  
ENDROOT
BRANCH   5   7
ATOM      7  C   GLY A   1     -12.336  15.204  70.952  1.00  0.00    -0.354 C  
ATOM      8  H   GLY A   1     -11.812  16.678  72.131  1.00  0.00     0.000 HD 
ATOM      9  O   GLY A   1     -11.895  15.734  72.199  1.00  0.00    -0.406 OA 
ENDBRANCH   5   7
BRANCH   6  10
HETATM   10  C   UNL     1     -11.343  11.905  65.433  1.00  0.00    -0.334 C  
BRANCH  10  11
HETATM   11  C   UNL     1     -11.216  11.434  66.884  1.00  0.00    -0.331 C  
BRANCH  11  12
HETATM   12  C   UNL     1     -10.312  10.200  66.950  1.00  0.00    -0.298 C  
BRANCH  12  13
HETATM   13  C   UNL     1      -9.614   9.920  65.620  1.00  0.00    -0.320 C  
BRANCH  13  14
HETATM   14  C   UNL     1      -8.115  10.245  65.651  1.00  0.00    -0.155 C  
BRANCH  14  15
HETATM   15  C   UNL     1      -7.566  10.695  67.010  1.00  0.00    -0.110 C  
BRANCH  15  16
HETATM   16  C   UNL     1      -6.870  12.029  66.984  1.00  0.00    -0.097 C  
HETATM   17  C   UNL     1      -7.342  13.145  67.562  1.00  0.00    -0.153 C  
BRANCH  17  18
HETATM   18  C   UNL     1      -8.649  13.263  68.290  1.00  0.00    -0.169 C  
BRANCH  18  19
HETATM   19  C   UNL     1      -9.357  14.579  67.974  1.00  0.00    -0.201 C  
BRANCH  19  20
HETATM   20  C   UNL     1      -9.101  14.979  66.521  1.00  0.00    -0.319 C  
BRANCH  20  21
HETATM   21  C   UNL     1      -9.626  16.381  66.230  1.00  0.00    -0.338 C  
BRANCH  21  22
HETATM   22  C   UNL     1     -10.576  16.854  67.327  1.00  0.00    -0.270 C  
BRANCH  22  23
HETATM   23  C   UNL     1     -10.575  18.377  67.425  1.00  0.00    -0.445 C  
BRANCH  23  24
HETATM   24  C   UNL     1      -9.502  18.880  68.385  1.00  0.00    -0.405 C  
HETATM   25  C   UNL     1      -8.350  19.521  67.645  1.00  0.00    -0.305 C  
HETATM   26  O   UNL     1      -7.401  19.987  68.490  1.00  0.00    -0.298 OA 
HETATM   27  O   UNL     1      -8.256  19.628  66.437  1.00  0.00    -0.306 OA 
ENDBRANCH  23  24
ENDBRANCH  22  23
ENDBRANCH  21  22
ENDBRANCH  20  21
ENDBRANCH  19  20
ENDBRANCH  18  19
ENDBRANCH  17  18
ENDBRANCH  15  16
ENDBRANCH  14  15
ENDBRANCH  13  14
ENDBRANCH  12  13
ENDBRANCH  11  12
ENDBRANCH  10  11
ENDBRANCH   6  10
TORSDOF 15
ENDMDL
MODEL      152
REMARK 921   NORMALIZED FREE ENERGY PREDICTED BY IDOCK:   -4.23 KCAL/MOL
REMARK 922        TOTAL FREE ENERGY PREDICTED BY IDOCK:   -9.90 KCAL/MOL
REMARK 923 INTER-LIGAND FREE ENERGY PREDICTED BY IDOCK:   -8.29 KCAL/MOL
REMARK 924 INTRA-LIGAND FREE ENERGY PREDICTED BY IDOCK:   -1.60 KCAL/MOL
REMARK 927      BINDING AFFINITY PREDICTED BY RF-SCORE:    0.00 PKD
ROOT
ATOM      1  N   GLY A   1     -13.357  11.355  72.097  1.00  0.00    -0.568 NA 
HETATM    2  C   UNL     1      -8.290   7.811  68.908  1.00  0.00    -0.128 C  
ATOM      3  H2  GLY A   1     -12.709  11.575  72.854  1.00  0.00     0.000 HD 
ATOM      4  H1  GLY A   1     -13.484  12.143  71.464  1.00  0.00     0.000 HD 
ATOM      5  CA  GLY A   1     -12.940  10.163  71.347  1.00  0.00    -0.429 C  
HETATM    6  C   UNL     1      -8.245   8.855  67.803  1.00  0.00    -0.110 C  
ENDROOT
BRANCH   5   7
ATOM      7  C   GLY A   1     -12.749   8.978  72.299  1.00  0.00    -0.387 C  
ATOM      8  H   GLY A   1     -12.522   7.039  72.135  1.00  0.00     0.000 HD 
ATOM      9  O   GLY A   1     -12.640   7.773  71.545  1.00  0.00    -0.317 OA 
ENDBRANCH   5   7
BRANCH   6  10
HETATM   10  C   UNL     1      -9.350   8.693  66.759  1.00  0.00    -0.229 C  
BRANCH  10  11
HETATM   11  C   UNL     1      -9.079   9.406  65.432  1.00  0.00    -0.280 C  
BRANCH  11  12
HETATM   12  C   UNL     1     -10.127  10.499  65.210  1.00  0.00    -0.369 C  
BRANCH  12  13
HETATM   13  C   UNL     1     -10.288  10.857  63.733  1.00  0.00    -0.384 C  
BRANCH  13  14
HETATM   14  C   UNL     1     -10.543  12.353  63.504  1.00  0.00    -0.451 C  
BRANCH  14  15
HETATM   15  C   UNL     1     -12.012  12.788  63.567  1.00  0.00    -0.633 C  
BRANCH  15  16
HETATM   16  C   UNL     1     -12.246  14.067  64.325  1.00  0.00    -0.453 C  
HETATM   17  C   UNL     1     -12.325  14.154  65.662  1.00  0.00    -0.473 C  
BRANCH  17  18
HETATM   18  C   UNL     1     -12.237  13.001  66.618  1.00  0.00    -0.285 C  
BRANCH  18  19
HETATM   19  C   UNL     1     -11.103  13.183  67.624  1.00  0.00    -0.295 C  
BRANCH  19  20
HETATM   20  C   UNL     1     -11.649  13.124  69.050  1.00  0.00    -0.360 C  
BRANCH  20  21
HETATM   21  C   UNL     1     -12.276  14.453  69.460  1.00  0.00    -0.325 C  
BRANCH  21  22
HETATM   22  C   UNL     1     -11.367  15.222  70.415  1.00  0.00    -0.325 C  
BRANCH  22  23
HETATM   23  C   UNL     1     -10.436  16.154  69.644  1.00  0.00    -0.291 C  
BRANCH  23  24
HETATM   24  C   UNL     1     -11.092  16.681  68.372  1.00  0.00    -0.305 C  
HETATM   25  C   UNL     1     -10.419  17.942  67.880  1.00  0.00    -0.396 C  
HETATM   26  O   UNL     1     -10.983  18.407  66.741  1.00  0.00    -0.186 OA 
HETATM   27  O   UNL     1      -9.478  18.497  68.414  1.00  0.00    -0.313 OA 
ENDBRANCH  23  24
ENDBRANCH  22  23
ENDBRANCH  21  22
ENDBRANCH  20  21
ENDBRANCH  19  20
ENDBRANCH  18  19
ENDBRANCH  17  18
ENDBRANCH  15  16
ENDBRANCH  14  15
ENDBRANCH  13  14
ENDBRANCH  12  13
ENDBRANCH  11  12
ENDBRANCH  10  11
ENDBRANCH   6  10
TORSDOF 15
ENDMDL
MODEL      153
REMARK 921   NORMALIZED FREE ENERGY PREDICTED BY IDOCK:   -4.23 KCAL/MOL
REMARK 922        TOTAL FREE ENERGY PREDICTED BY IDOCK:   -9.89 KCAL/MOL
REMARK 923 INTER-LIGAND FREE ENERGY PREDICTED BY IDOCK:   -7.78 KCAL/MOL
REMARK 924 INTRA-LIGAND FREE ENERGY PREDICTED BY IDOCK:   -2.11 KCAL/MOL
REMARK 927      BINDING AFFINITY PREDICTED BY RF-SCORE:    0.00 PKD
ROOT
ATOM      1  N   GLY A   1     -11.985   6.598  69.994  1.00  0.00    -0.636 NA 
HETATM    2  C   UNL     1      -7.691   9.784  65.542  1.00  0.00    -0.121 C  
ATOM      3  H2  GLY A   1     -11.378   6.881  70.763  1.00  0.00     0.000 HD 
ATOM      4  H1  GLY A   1     -12.817   7.185  69.931  1.00  0.00     0.000 HD 
ATOM      5  CA  GLY A   1     -11.274   6.584  68.709  1.00  0.00    -0.236 C  
HETATM    6  C   UNL     1      -8.757  10.828  65.249  1.00  0.00    -0.183 C  
ENDROOT
BRANCH   5   7
ATOM      7  C   GLY A   1     -10.026   5.703  68.804  1.00  0.00    -0.167 C  
ATOM      8  H   GLY A   1      -9.068   4.734  70.212  1.00  0.00     0.000 HD 
ATOM      9  O   GLY A   1      -9.842   5.281  70.153  1.00  0.00    -0.184 OA 
ENDBRANCH   5   7
BRANCH   6  10
HETATM   10  C   UNL     1      -9.825  10.357  64.263  1.00  0.00    -0.388 C  
BRANCH  10  11
HETATM   11  C   UNL     1     -10.429  11.469  63.403  1.00  0.00    -0.466 C  
BRANCH  11  12
HETATM   12  C   UNL     1     -11.767  11.915  64.000  1.00  0.00    -0.469 C  
BRANCH  12  13
HETATM   13  C   UNL     1     -12.270  13.220  63.386  1.00  0.00    -0.476 C  
BRANCH  13  14
HETATM   14  C   UNL     1     -11.964  14.448  64.256  1.00  0.00    -0.433 C  
BRANCH  14  15
HETATM   15  C   UNL     1     -11.310  14.148  65.611  1.00  0.00    -0.319 C  
BRANCH  15  16
HETATM   16  C   UNL     1      -9.863  14.550  65.701  1.00  0.00    -0.337 C  
HETATM   17  C   UNL     1      -9.425  15.700  66.237  1.00  0.00    -0.351 C  
BRANCH  17  18
HETATM   18  C   UNL     1     -10.295  16.789  66.794  1.00  0.00    -0.293 C  
BRANCH  18  19
HETATM   19  C   UNL     1     -10.416  16.697  68.313  1.00  0.00    -0.321 C  
BRANCH  19  20
HETATM   20  C   UNL     1     -11.751  16.058  68.696  1.00  0.00    -0.273 C  
BRANCH  20  21
HETATM   21  C   UNL     1     -11.802  15.729  70.185  1.00  0.00    -0.369 C  
BRANCH  21  22
HETATM   22  C   UNL     1     -11.819  14.221  70.417  1.00  0.00    -0.375 C  
BRANCH  22  23
HETATM   23  C   UNL     1     -11.936  13.471  69.093  1.00  0.00    -0.378 C  
BRANCH  23  24
HETATM   24  C   UNL     1     -10.832  12.430  68.935  1.00  0.00    -0.239 C  
HETATM   25  C   UNL     1     -11.393  11.027  68.883  1.00  0.00    -0.280 C  
HETATM   26  O   UNL     1     -10.422  10.098  68.724  1.00  0.00    -0.184 OA 
HETATM   27  O   UNL     1     -12.570  10.732  68.965  1.00  0.00    -0.303 OA 
ENDBRANCH  23  24
ENDBRANCH  22  23
ENDBRANCH  21  22
ENDBRANCH  20  21
ENDBRANCH  19  20
ENDBRANCH  18  19
ENDBRANCH  17  18
ENDBRANCH  15  16
ENDBRANCH  14  15
ENDBRANCH  13  14
ENDBRANCH  12  13
ENDBRANCH  11  12
ENDBRANCH  10  11
ENDBRANCH   6  10
TORSDOF 15
ENDMDL
MODEL      154
REMARK 921   NORMALIZED FREE ENERGY PREDICTED BY IDOCK:   -4.23 KCAL/MOL
REMARK 922        TOTAL FREE ENERGY PREDICTED BY IDOCK:   -9.88 KCAL/MOL
REMARK 923 INTER-LIGAND FREE ENERGY PREDICTED BY IDOCK:   -8.04 KCAL/MOL
REMARK 924 INTRA-LIGAND FREE ENERGY PREDICTED BY IDOCK:   -1.85 KCAL/MOL
REMARK 927      BINDING AFFINITY PREDICTED BY RF-SCORE:    0.00 PKD
ROOT
ATOM      1  N   GLY A   1      -5.651  15.139  69.614  1.00  0.00    -0.100 NA 
HETATM    2  C   UNL     1      -9.185   9.146  69.733  1.00  0.00    -0.179 C  
ATOM      3  H2  GLY A   1      -5.062  14.762  68.872  1.00  0.00     0.000 HD 
ATOM      4  H1  GLY A   1      -6.354  15.783  69.253  1.00  0.00     0.000 HD 
ATOM      5  CA  GLY A   1      -6.292  14.075  70.399  1.00  0.00    -0.073 C  
HETATM    6  C   UNL     1     -10.413   9.851  69.179  1.00  0.00    -0.235 C  
ENDROOT
BRANCH   5   7
ATOM      7  C   GLY A   1      -5.236  13.108  70.942  1.00  0.00    -0.152 C  
ATOM      8  H   GLY A   1      -5.177  11.235  71.514  1.00  0.00     0.000 HD 
ATOM      9  O   GLY A   1      -5.832  11.835  71.177  1.00  0.00    -0.381 OA 
ENDBRANCH   5   7
BRANCH   6  10
HETATM   10  C   UNL     1     -11.206  10.623  70.233  1.00  0.00    -0.365 C  
BRANCH  10  11
HETATM   11  C   UNL     1     -11.963   9.741  71.230  1.00  0.00    -0.471 C  
BRANCH  11  12
HETATM   12  C   UNL     1     -13.050  10.564  71.926  1.00  0.00    -0.567 C  
BRANCH  12  13
HETATM   13  C   UNL     1     -13.080  12.012  71.443  1.00  0.00    -0.295 C  
BRANCH  13  14
HETATM   14  C   UNL     1     -13.841  12.945  72.395  1.00  0.00    -0.443 C  
BRANCH  14  15
HETATM   15  C   UNL     1     -13.197  14.317  72.628  1.00  0.00    -0.601 C  
BRANCH  15  16
HETATM   16  C   UNL     1     -13.524  15.340  71.574  1.00  0.00    -0.577 C  
HETATM   17  C   UNL     1     -12.804  15.541  70.460  1.00  0.00    -0.402 C  
BRANCH  17  18
HETATM   18  C   UNL     1     -11.540  14.818  70.096  1.00  0.00    -0.338 C  
BRANCH  18  19
HETATM   19  C   UNL     1     -11.651  14.129  68.738  1.00  0.00    -0.362 C  
BRANCH  19  20
HETATM   20  C   UNL     1     -10.261  13.757  68.222  1.00  0.00    -0.245 C  
BRANCH  20  21
HETATM   21  C   UNL     1      -9.659  14.882  67.385  1.00  0.00    -0.206 C  
BRANCH  21  22
HETATM   22  C   UNL     1     -10.732  15.599  66.572  1.00  0.00    -0.293 C  
BRANCH  22  23
HETATM   23  C   UNL     1     -10.348  17.058  66.336  1.00  0.00    -0.304 C  
BRANCH  23  24
HETATM   24  C   UNL     1      -9.462  17.596  67.456  1.00  0.00    -0.256 C  
HETATM   25  C   UNL     1      -9.919  18.960  67.919  1.00  0.00    -0.352 C  
HETATM   26  O   UNL     1      -9.150  19.438  68.926  1.00  0.00    -0.370 OA 
HETATM   27  O   UNL     1     -10.862  19.582  67.469  1.00  0.00    -0.468 OA 
ENDBRANCH  23  24
ENDBRANCH  22  23
ENDBRANCH  21  22
ENDBRANCH  20  21
ENDBRANCH  19  20
ENDBRANCH  18  19
ENDBRANCH  17  18
ENDBRANCH  15  16
ENDBRANCH  14  15
ENDBRANCH  13  14
ENDBRANCH  12  13
ENDBRANCH  11  12
ENDBRANCH  10  11
ENDBRANCH   6  10
TORSDOF 15
ENDMDL
MODEL      155
REMARK 921   NORMALIZED FREE ENERGY PREDICTED BY IDOCK:   -4.23 KCAL/MOL
REMARK 922        TOTAL FREE ENERGY PREDICTED BY IDOCK:   -9.88 KCAL/MOL
REMARK 923 INTER-LIGAND FREE ENERGY PREDICTED BY IDOCK:   -8.45 KCAL/MOL
REMARK 924 INTRA-LIGAND FREE ENERGY PREDICTED BY IDOCK:   -1.43 KCAL/MOL
REMARK 927      BINDING AFFINITY PREDICTED BY RF-SCORE:    0.00 PKD
ROOT
ATOM      1  N   GLY A   1      -8.255   7.789  74.230  1.00  0.00    -0.218 NA 
HETATM    2  C   UNL     1     -11.127   6.359  68.056  1.00  0.00    -0.365 C  
ATOM      3  H2  GLY A   1      -7.864   6.847  74.252  1.00  0.00     0.000 HD 
ATOM      4  H1  GLY A   1      -7.556   8.485  73.974  1.00  0.00     0.000 HD 
ATOM      5  CA  GLY A   1      -9.416   7.880  73.335  1.00  0.00    -0.275 C  
HETATM    6  C   UNL     1     -10.188   7.347  67.382  1.00  0.00    -0.315 C  
ENDROOT
BRANCH   5   7
ATOM      7  C   GLY A   1     -10.466   6.834  73.721  1.00  0.00    -0.354 C  
ATOM      8  H   GLY A   1     -11.288   5.263  72.886  1.00  0.00     0.000 HD 
ATOM      9  O   GLY A   1     -10.637   5.912  72.647  1.00  0.00    -0.201 OA 
ENDBRANCH   5   7
BRANCH   6  10
HETATM   10  C   UNL     1     -10.625   8.804  67.523  1.00  0.00    -0.298 C  
BRANCH  10  11
HETATM   11  C   UNL     1     -10.169   9.482  68.817  1.00  0.00    -0.215 C  
BRANCH  11  12
HETATM   12  C   UNL     1     -11.389   9.885  69.649  1.00  0.00    -0.212 C  
BRANCH  12  13
HETATM   13  C   UNL     1     -12.051  11.160  69.128  1.00  0.00    -0.352 C  
BRANCH  13  14
HETATM   14  C   UNL     1     -12.071  12.290  70.167  1.00  0.00    -0.364 C  
BRANCH  14  15
HETATM   15  C   UNL     1     -12.276  13.701  69.601  1.00  0.00    -0.326 C  
BRANCH  15  16
HETATM   16  C   UNL     1     -12.384  14.776  70.648  1.00  0.00    -0.401 C  
HETATM   17  C   UNL     1     -11.523  15.797  70.781  1.00  0.00    -0.423 C  
BRANCH  17  18
HETATM   18  C   UNL     1     -10.296  16.017  69.945  1.00  0.00    -0.249 C  
BRANCH  18  19
HETATM   19  C   UNL     1     -10.370  17.327  69.163  1.00  0.00    -0.290 C  
BRANCH  19  20
HETATM   20  C   UNL     1     -10.715  17.047  67.700  1.00  0.00    -0.295 C  
BRANCH  20  21
HETATM   21  C   UNL     1     -10.061  15.758  67.212  1.00  0.00    -0.247 C  
BRANCH  21  22
HETATM   22  C   UNL     1     -11.054  14.892  66.443  1.00  0.00    -0.342 C  
BRANCH  22  23
HETATM   23  C   UNL     1     -10.519  14.560  65.052  1.00  0.00    -0.454 C  
BRANCH  23  24
HETATM   24  C   UNL     1     -10.875  13.135  64.637  1.00  0.00    -0.383 C  
HETATM   25  C   UNL     1     -12.103  13.102  63.756  1.00  0.00    -0.495 C  
HETATM   26  O   UNL     1     -12.415  11.843  63.368  1.00  0.00    -0.578 OA 
HETATM   27  O   UNL     1     -12.754  14.070  63.413  1.00  0.00    -0.796 OA 
ENDBRANCH  23  24
ENDBRANCH  22  23
ENDBRANCH  21  22
ENDBRANCH  20  21
ENDBRANCH  19  20
ENDBRANCH  18  19
ENDBRANCH  17  18
ENDBRANCH  15  16
ENDBRANCH  14  15
ENDBRANCH  13  14
ENDBRANCH  12  13
ENDBRANCH  11  12
ENDBRANCH  10  11
ENDBRANCH   6  10
TORSDOF 15
ENDMDL
MODEL      156
REMARK 921   NORMALIZED FREE ENERGY PREDICTED BY IDOCK:   -4.22 KCAL/MOL
REMARK 922        TOTAL FREE ENERGY PREDICTED BY IDOCK:   -9.87 KCAL/MOL
REMARK 923 INTER-LIGAND FREE ENERGY PREDICTED BY IDOCK:   -7.48 KCAL/MOL
REMARK 924 INTRA-LIGAND FREE ENERGY PREDICTED BY IDOCK:   -2.39 KCAL/MOL
REMARK 927      BINDING AFFINITY PREDICTED BY RF-SCORE:    0.00 PKD
ROOT
ATOM      1  N   GLY A   1      -9.522   9.758  64.308  1.00  0.00    -0.412 NA 
HETATM    2  C   UNL     1     -10.743  15.757  67.615  1.00  0.00    -0.310 C  
ATOM      3  H2  GLY A   1      -8.616  10.121  64.012  1.00  0.00     0.000 HD 
ATOM      4  H1  GLY A   1      -9.435   9.109  65.090  1.00  0.00     0.000 HD 
ATOM      5  CA  GLY A   1     -10.460  10.836  64.646  1.00  0.00    -0.276 C  
HETATM    6  C   UNL     1     -10.657  15.045  68.955  1.00  0.00    -0.245 C  
ENDROOT
BRANCH   5   7
ATOM      7  C   GLY A   1     -10.591  11.811  63.472  1.00  0.00    -0.440 C  
ATOM      8  H   GLY A   1     -11.264  13.631  63.198  1.00  0.00     0.000 HD 
ATOM      9  O   GLY A   1     -11.183  13.026  63.926  1.00  0.00    -0.394 OA 
ENDBRANCH   5   7
BRANCH   6  10
HETATM   10  C   UNL     1     -11.933  14.293  69.334  1.00  0.00    -0.381 C  
BRANCH  10  11
HETATM   11  C   UNL     1     -11.934  12.811  68.950  1.00  0.00    -0.286 C  
BRANCH  11  12
HETATM   12  C   UNL     1     -11.683  11.954  70.194  1.00  0.00    -0.337 C  
BRANCH  12  13
HETATM   13  C   UNL     1     -12.769  10.900  70.401  1.00  0.00    -0.326 C  
BRANCH  13  14
HETATM   14  C   UNL     1     -13.294  10.858  71.843  1.00  0.00    -0.429 C  
BRANCH  14  15
HETATM   15  C   UNL     1     -13.474   9.455  72.437  1.00  0.00    -0.506 C  
BRANCH  15  16
HETATM   16  C   UNL     1     -14.278   8.518  71.577  1.00  0.00    -0.448 C  
HETATM   17  C   UNL     1     -13.980   7.225  71.378  1.00  0.00    -0.429 C  
BRANCH  17  18
HETATM   18  C   UNL     1     -12.785   6.509  71.938  1.00  0.00    -0.179 C  
BRANCH  18  19
HETATM   19  C   UNL     1     -11.583   6.594  71.001  1.00  0.00    -0.399 C  
BRANCH  19  20
HETATM   20  C   UNL     1     -10.285   6.586  71.809  1.00  0.00    -0.210 C  
BRANCH  20  21
HETATM   21  C   UNL     1     -10.056   7.925  72.504  1.00  0.00    -0.325 C  
BRANCH  21  22
HETATM   22  C   UNL     1      -9.958   9.063  71.492  1.00  0.00    -0.391 C  
BRANCH  22  23
HETATM   23  C   UNL     1      -8.758   8.866  70.569  1.00  0.00    -0.213 C  
BRANCH  23  24
HETATM   24  C   UNL     1      -9.095   9.217  69.124  1.00  0.00    -0.145 C  
HETATM   25  C   UNL     1      -8.928   8.026  68.208  1.00  0.00    -0.132 C  
HETATM   26  O   UNL     1      -9.243   8.323  66.926  1.00  0.00    -0.143 OA 
HETATM   27  O   UNL     1      -8.563   6.916  68.549  1.00  0.00    -0.123 OA 
ENDBRANCH  23  24
ENDBRANCH  22  23
ENDBRANCH  21  22
ENDBRANCH  20  21
ENDBRANCH  19  20
ENDBRANCH  18  19
ENDBRANCH  17  18
ENDBRANCH  15  16
ENDBRANCH  14  15
ENDBRANCH  13  14
ENDBRANCH  12  13
ENDBRANCH  11  12
ENDBRANCH  10  11
ENDBRANCH   6  10
TORSDOF 15
ENDMDL
MODEL      157
REMARK 921   NORMALIZED FREE ENERGY PREDICTED BY IDOCK:   -4.22 KCAL/MOL
REMARK 922        TOTAL FREE ENERGY PREDICTED BY IDOCK:   -9.87 KCAL/MOL
REMARK 923 INTER-LIGAND FREE ENERGY PREDICTED BY IDOCK:   -8.22 KCAL/MOL
REMARK 924 INTRA-LIGAND FREE ENERGY PREDICTED BY IDOCK:   -1.65 KCAL/MOL
REMARK 927      BINDING AFFINITY PREDICTED BY RF-SCORE:    0.00 PKD
ROOT
ATOM      1  N   GLY A   1      -9.433   9.501  62.414  1.00  0.00    -0.580 NA 
HETATM    2  C   UNL     1      -7.471  13.926  67.412  1.00  0.00    -0.147 C  
ATOM      3  H2  GLY A   1      -9.387   8.738  63.089  1.00  0.00     0.000 HD 
ATOM      4  H1  GLY A   1     -10.392   9.800  62.242  1.00  0.00     0.000 HD 
ATOM      5  CA  GLY A   1      -8.609  10.647  62.823  1.00  0.00    -0.216 C  
HETATM    6  C   UNL     1      -8.845  14.577  67.386  1.00  0.00    -0.207 C  
ENDROOT
BRANCH   5   7
ATOM      7  C   GLY A   1      -7.168  10.197  63.081  1.00  0.00    -0.132 C  
ATOM      8  H   GLY A   1      -6.067   8.629  62.670  1.00  0.00     0.000 HD 
ATOM      9  O   GLY A   1      -6.961   8.908  62.510  1.00  0.00    -0.095 OA 
ENDBRANCH   5   7
BRANCH   6  10
HETATM   10  C   UNL     1      -9.033  15.571  66.240  1.00  0.00    -0.362 C  
BRANCH  10  11
HETATM   11  C   UNL     1     -10.483  16.000  66.003  1.00  0.00    -0.356 C  
BRANCH  11  12
HETATM   12  C   UNL     1     -11.104  15.135  64.903  1.00  0.00    -0.425 C  
BRANCH  12  13
HETATM   13  C   UNL     1     -12.166  14.180  65.447  1.00  0.00    -0.441 C  
BRANCH  13  14
HETATM   14  C   UNL     1     -11.706  12.715  65.453  1.00  0.00    -0.428 C  
BRANCH  14  15
HETATM   15  C   UNL     1     -11.685  12.037  66.829  1.00  0.00    -0.339 C  
BRANCH  15  16
HETATM   16  C   UNL     1     -11.825  12.987  67.987  1.00  0.00    -0.391 C  
HETATM   17  C   UNL     1     -11.751  12.627  69.278  1.00  0.00    -0.379 C  
BRANCH  17  18
HETATM   18  C   UNL     1     -11.559  11.227  69.784  1.00  0.00    -0.408 C  
BRANCH  18  19
HETATM   19  C   UNL     1     -12.813  10.696  70.474  1.00  0.00    -0.356 C  
BRANCH  19  20
HETATM   20  C   UNL     1     -12.450  10.081  71.825  1.00  0.00    -0.475 C  
BRANCH  20  21
HETATM   21  C   UNL     1     -11.285   9.105  71.696  1.00  0.00    -0.447 C  
BRANCH  21  22
HETATM   22  C   UNL     1     -11.474   7.895  72.607  1.00  0.00    -0.454 C  
BRANCH  22  23
HETATM   23  C   UNL     1     -11.829   6.654  71.792  1.00  0.00    -0.380 C  
BRANCH  23  24
HETATM   24  C   UNL     1     -11.676   6.900  70.294  1.00  0.00    -0.344 C  
HETATM   25  C   UNL     1     -10.836   5.829  69.637  1.00  0.00    -0.348 C  
HETATM   26  O   UNL     1     -10.711   6.029  68.304  1.00  0.00    -0.241 OA 
HETATM   27  O   UNL     1     -10.323   4.884  70.204  1.00  0.00    -0.265 OA 
ENDBRANCH  23  24
ENDBRANCH  22  23
ENDBRANCH  21  22
ENDBRANCH  20  21
ENDBRANCH  19  20
ENDBRANCH  18  19
ENDBRANCH  17  18
ENDBRANCH  15  16
ENDBRANCH  14  15
ENDBRANCH  13  14
ENDBRANCH  12  13
ENDBRANCH  11  12
ENDBRANCH  10  11
ENDBRANCH   6  10
TORSDOF 15
ENDMDL
MODEL      158
REMARK 921   NORMALIZED FREE ENERGY PREDICTED BY IDOCK:   -4.22 KCAL/MOL
REMARK 922        TOTAL FREE ENERGY PREDICTED BY IDOCK:   -9.87 KCAL/MOL
REMARK 923 INTER-LIGAND FREE ENERGY PREDICTED BY IDOCK:   -7.84 KCAL/MOL
REMARK 924 INTRA-LIGAND FREE ENERGY PREDICTED BY IDOCK:   -2.02 KCAL/MOL
REMARK 927      BINDING AFFINITY PREDICTED BY RF-SCORE:    0.00 PKD
ROOT
ATOM      1  N   GLY A   1      -7.139  13.376  69.300  1.00  0.00    -0.296 NA 
HETATM    2  C   UNL     1      -9.937   7.535  66.755  1.00  0.00    -0.307 C  
ATOM      3  H2  GLY A   1      -7.655  13.911  68.602  1.00  0.00     0.000 HD 
ATOM      4  H1  GLY A   1      -7.576  13.427  70.219  1.00  0.00     0.000 HD 
ATOM      5  CA  GLY A   1      -6.967  11.973  68.898  1.00  0.00    -0.104 C  
HETATM    6  C   UNL     1     -10.738   7.352  68.035  1.00  0.00    -0.191 C  
ENDROOT
BRANCH   5   7
ATOM      7  C   GLY A   1      -6.310  11.896  67.516  1.00  0.00    -0.105 C  
ATOM      8  H   GLY A   1      -4.955  12.904  66.522  1.00  0.00     0.000 HD 
ATOM      9  O   GLY A   1      -5.363  12.952  67.379  1.00  0.00    -0.277 OA 
ENDBRANCH   5   7
BRANCH   6  10
HETATM   10  C   UNL     1      -9.929   6.754  69.186  1.00  0.00    -0.166 C  
BRANCH  10  11
HETATM   11  C   UNL     1     -10.707   5.772  70.065  1.00  0.00    -0.400 C  
BRANCH  11  12
HETATM   12  C   UNL     1     -11.984   6.441  70.582  1.00  0.00    -0.240 C  
BRANCH  12  13
HETATM   13  C   UNL     1     -11.760   7.175  71.903  1.00  0.00    -0.328 C  
BRANCH  13  14
HETATM   14  C   UNL     1     -12.561   8.481  72.004  1.00  0.00    -0.414 C  
BRANCH  14  15
HETATM   15  C   UNL     1     -11.835   9.738  71.510  1.00  0.00    -0.476 C  
BRANCH  15  16
HETATM   16  C   UNL     1     -12.670  10.628  70.631  1.00  0.00    -0.445 C  
HETATM   17  C   UNL     1     -12.275  11.111  69.442  1.00  0.00    -0.329 C  
BRANCH  17  18
HETATM   18  C   UNL     1     -10.932  10.883  68.812  1.00  0.00    -0.285 C  
BRANCH  18  19
HETATM   19  C   UNL     1     -10.665  11.866  67.674  1.00  0.00    -0.253 C  
BRANCH  19  20
HETATM   20  C   UNL     1      -9.775  11.217  66.616  1.00  0.00    -0.224 C  
BRANCH  20  21
HETATM   21  C   UNL     1     -10.601  10.648  65.467  1.00  0.00    -0.180 C  
BRANCH  21  22
HETATM   22  C   UNL     1     -10.032  11.070  64.115  1.00  0.00    -0.385 C  
BRANCH  22  23
HETATM   23  C   UNL     1     -11.033  11.935  63.352  1.00  0.00    -0.470 C  
BRANCH  23  24
HETATM   24  C   UNL     1     -12.229  12.311  64.220  1.00  0.00    -0.514 C  
HETATM   25  C   UNL     1     -12.163  13.755  64.664  1.00  0.00    -0.406 C  
HETATM   26  O   UNL     1     -13.230  14.104  65.419  1.00  0.00    -0.741 OA 
HETATM   27  O   UNL     1     -11.275  14.540  64.390  1.00  0.00    -0.309 OA 
ENDBRANCH  23  24
ENDBRANCH  22  23
ENDBRANCH  21  22
ENDBRANCH  20  21
ENDBRANCH  19  20
ENDBRANCH  18  19
ENDBRANCH  17  18
ENDBRANCH  15  16
ENDBRANCH  14  15
ENDBRANCH  13  14
ENDBRANCH  12  13
ENDBRANCH  11  12
ENDBRANCH  10  11
ENDBRANCH   6  10
TORSDOF 15
ENDMDL
MODEL      159
REMARK 921   NORMALIZED FREE ENERGY PREDICTED BY IDOCK:   -4.21 KCAL/MOL
REMARK 922        TOTAL FREE ENERGY PREDICTED BY IDOCK:   -9.85 KCAL/MOL
REMARK 923 INTER-LIGAND FREE ENERGY PREDICTED BY IDOCK:   -7.11 KCAL/MOL
REMARK 924 INTRA-LIGAND FREE ENERGY PREDICTED BY IDOCK:   -2.74 KCAL/MOL
REMARK 927      BINDING AFFINITY PREDICTED BY RF-SCORE:    0.00 PKD
ROOT
ATOM      1  N   GLY A   1     -14.143  15.470  71.405  1.00  0.00    -0.640 NA 
HETATM    2  C   UNL     1     -11.116  15.192  65.146  1.00  0.00    -0.410 C  
ATOM      3  H2  GLY A   1     -14.256  16.477  71.291  1.00  0.00     0.000 HD 
ATOM      4  H1  GLY A   1     -15.013  14.967  71.233  1.00  0.00     0.000 HD 
ATOM      5  CA  GLY A   1     -13.072  14.938  70.551  1.00  0.00    -0.254 C  
HETATM    6  C   UNL     1     -12.307  14.424  64.596  1.00  0.00    -0.435 C  
ENDROOT
BRANCH   5   7
ATOM      7  C   GLY A   1     -11.765  15.692  70.810  1.00  0.00    -0.375 C  
ATOM      8  H   GLY A   1     -11.040  16.850  72.215  1.00  0.00     0.000 HD 
ATOM      9  O   GLY A   1     -11.850  16.382  72.055  1.00  0.00    -0.511 OA 
ENDBRANCH   5   7
BRANCH   6  10
HETATM   10  C   UNL     1     -12.290  12.935  64.941  1.00  0.00    -0.532 C  
BRANCH  10  11
HETATM   11  C   UNL     1     -11.844  12.023  63.795  1.00  0.00    -0.581 C  
BRANCH  11  12
HETATM   12  C   UNL     1     -10.318  12.045  63.681  1.00  0.00    -0.482 C  
BRANCH  12  13
HETATM   13  C   UNL     1      -9.760  10.744  63.105  1.00  0.00    -0.394 C  
BRANCH  13  14
HETATM   14  C   UNL     1      -9.160   9.824  64.177  1.00  0.00    -0.289 C  
BRANCH  14  15
HETATM   15  C   UNL     1      -7.648   9.589  64.071  1.00  0.00    -0.122 C  
BRANCH  15  16
HETATM   16  C   UNL     1      -7.023   9.017  65.314  1.00  0.00    -0.083 C  
HETATM   17  C   UNL     1      -6.502   9.751  66.310  1.00  0.00    -0.072 C  
BRANCH  17  18
HETATM   18  C   UNL     1      -6.417  11.249  66.336  1.00  0.00    -0.080 C  
BRANCH  18  19
HETATM   19  C   UNL     1      -7.268  11.847  67.454  1.00  0.00    -0.142 C  
BRANCH  19  20
HETATM   20  C   UNL     1      -8.481  12.565  66.866  1.00  0.00    -0.130 C  
BRANCH  20  21
HETATM   21  C   UNL     1      -9.786  11.950  67.362  1.00  0.00    -0.192 C  
BRANCH  21  22
HETATM   22  C   UNL     1      -9.559  10.546  67.915  1.00  0.00    -0.164 C  
BRANCH  22  23
HETATM   23  C   UNL     1     -10.703   9.616  67.519  1.00  0.00    -0.321 C  
BRANCH  23  24
HETATM   24  C   UNL     1     -10.267   8.154  67.518  1.00  0.00    -0.309 C  
HETATM   25  C   UNL     1     -10.489   7.506  68.865  1.00  0.00    -0.203 C  
HETATM   26  O   UNL     1     -10.122   6.203  68.869  1.00  0.00    -0.153 OA 
HETATM   27  O   UNL     1     -10.946   8.056  69.849  1.00  0.00    -0.242 OA 
ENDBRANCH  23  24
ENDBRANCH  22  23
ENDBRANCH  21  22
ENDBRANCH  20  21
ENDBRANCH  19  20
ENDBRANCH  18  19
ENDBRANCH  17  18
ENDBRANCH  15  16
ENDBRANCH  14  15
ENDBRANCH  13  14
ENDBRANCH  12  13
ENDBRANCH  11  12
ENDBRANCH  10  11
ENDBRANCH   6  10
TORSDOF 15
ENDMDL
MODEL      160
REMARK 921   NORMALIZED FREE ENERGY PREDICTED BY IDOCK:   -4.20 KCAL/MOL
REMARK 922        TOTAL FREE ENERGY PREDICTED BY IDOCK:   -9.84 KCAL/MOL
REMARK 923 INTER-LIGAND FREE ENERGY PREDICTED BY IDOCK:   -7.58 KCAL/MOL
REMARK 924 INTRA-LIGAND FREE ENERGY PREDICTED BY IDOCK:   -2.25 KCAL/MOL
REMARK 927      BINDING AFFINITY PREDICTED BY RF-SCORE:    0.00 PKD
ROOT
ATOM      1  N   GLY A   1      -9.169   9.153  64.397  1.00  0.00    -0.416 NA 
HETATM    2  C   UNL     1      -9.785  15.729  66.585  1.00  0.00    -0.266 C  
ATOM      3  H2  GLY A   1      -8.177   9.315  64.228  1.00  0.00     0.000 HD 
ATOM      4  H1  GLY A   1      -9.329   8.635  65.261  1.00  0.00     0.000 HD 
ATOM      5  CA  GLY A   1      -9.937  10.405  64.407  1.00  0.00    -0.318 C  
HETATM    6  C   UNL     1     -10.046  15.241  68.001  1.00  0.00    -0.229 C  
ENDROOT
BRANCH   5   7
ATOM      7  C   GLY A   1      -9.697  11.183  63.110  1.00  0.00    -0.376 C  
ATOM      8  H   GLY A   1     -10.187  12.938  62.387  1.00  0.00     0.000 HD 
ATOM      9  O   GLY A   1     -10.335  12.455  63.192  1.00  0.00    -0.302 OA 
ENDBRANCH   5   7
BRANCH   6  10
HETATM   10  C   UNL     1     -11.481  14.771  68.235  1.00  0.00    -0.338 C  
BRANCH  10  11
HETATM   11  C   UNL     1     -12.076  13.954  67.085  1.00  0.00    -0.422 C  
BRANCH  11  12
HETATM   12  C   UNL     1     -11.643  12.491  67.212  1.00  0.00    -0.434 C  
BRANCH  12  13
HETATM   13  C   UNL     1     -11.848  11.946  68.625  1.00  0.00    -0.365 C  
BRANCH  13  14
HETATM   14  C   UNL     1     -10.913  10.775  68.956  1.00  0.00    -0.289 C  
BRANCH  14  15
HETATM   15  C   UNL     1     -10.980  10.266  70.401  1.00  0.00    -0.365 C  
BRANCH  15  16
HETATM   16  C   UNL     1     -12.376  10.145  70.949  1.00  0.00    -0.461 C  
HETATM   17  C   UNL     1     -12.773   9.205  71.820  1.00  0.00    -0.446 C  
BRANCH  17  18
HETATM   18  C   UNL     1     -11.914   8.099  72.360  1.00  0.00    -0.431 C  
BRANCH  18  19
HETATM   19  C   UNL     1     -12.284   6.746  71.756  1.00  0.00    -0.402 C  
BRANCH  19  20
HETATM   20  C   UNL     1     -11.895   6.706  70.278  1.00  0.00    -0.378 C  
BRANCH  20  21
HETATM   21  C   UNL     1     -10.782   5.694  70.024  1.00  0.00    -0.390 C  
BRANCH  21  22
HETATM   22  C   UNL     1      -9.430   6.237  70.478  1.00  0.00    -0.175 C  
BRANCH  22  23
HETATM   23  C   UNL     1      -8.959   7.358  69.556  1.00  0.00    -0.144 C  
BRANCH  23  24
HETATM   24  C   UNL     1      -8.312   6.811  68.287  1.00  0.00    -0.118 C  
HETATM   25  C   UNL     1      -9.143   7.117  67.062  1.00  0.00    -0.134 C  
HETATM   26  O   UNL     1      -8.567   6.651  65.929  1.00  0.00    -0.143 OA 
HETATM   27  O   UNL     1     -10.203   7.712  67.056  1.00  0.00    -0.243 OA 
ENDBRANCH  23  24
ENDBRANCH  22  23
ENDBRANCH  21  22
ENDBRANCH  20  21
ENDBRANCH  19  20
ENDBRANCH  18  19
ENDBRANCH  17  18
ENDBRANCH  15  16
ENDBRANCH  14  15
ENDBRANCH  13  14
ENDBRANCH  12  13
ENDBRANCH  11  12
ENDBRANCH  10  11
ENDBRANCH   6  10
TORSDOF 15
ENDMDL
MODEL      161
REMARK 921   NORMALIZED FREE ENERGY PREDICTED BY IDOCK:   -4.20 KCAL/MOL
REMARK 922        TOTAL FREE ENERGY PREDICTED BY IDOCK:   -9.84 KCAL/MOL
REMARK 923 INTER-LIGAND FREE ENERGY PREDICTED BY IDOCK:   -8.09 KCAL/MOL
REMARK 924 INTRA-LIGAND FREE ENERGY PREDICTED BY IDOCK:   -1.75 KCAL/MOL
REMARK 927      BINDING AFFINITY PREDICTED BY RF-SCORE:    0.00 PKD
ROOT
ATOM      1  N   GLY A   1     -14.026  15.550  71.240  1.00  0.00    -0.707 NA 
HETATM    2  C   UNL     1     -10.964  15.349  64.995  1.00  0.00    -0.450 C  
ATOM      3  H2  GLY A   1     -14.123  16.561  71.145  1.00  0.00     0.000 HD 
ATOM      4  H1  GLY A   1     -14.903  15.064  71.053  1.00  0.00     0.000 HD 
ATOM      5  CA  GLY A   1     -12.958  15.019  70.382  1.00  0.00    -0.240 C  
HETATM    6  C   UNL     1     -12.163  14.609  64.423  1.00  0.00    -0.473 C  
ENDROOT
BRANCH   5   7
ATOM      7  C   GLY A   1     -11.641  15.749  70.663  1.00  0.00    -0.390 C  
ATOM      8  H   GLY A   1     -10.230  16.603  69.606  1.00  0.00     0.000 HD 
ATOM      9  O   GLY A   1     -11.046  16.150  69.432  1.00  0.00    -0.296 OA 
ENDBRANCH   5   7
BRANCH   6  10
HETATM   10  C   UNL     1     -12.170  13.114  64.739  1.00  0.00    -0.477 C  
BRANCH  10  11
HETATM   11  C   UNL     1     -11.341  12.258  63.778  1.00  0.00    -0.534 C  
BRANCH  11  12
HETATM   12  C   UNL     1     -10.189  11.595  64.538  1.00  0.00    -0.337 C  
BRANCH  12  13
HETATM   13  C   UNL     1     -10.681  10.579  65.567  1.00  0.00    -0.047 C  
BRANCH  13  14
HETATM   14  C   UNL     1     -10.275  10.938  67.004  1.00  0.00    -0.256 C  
BRANCH  14  15
HETATM   15  C   UNL     1     -10.790   9.987  68.091  1.00  0.00    -0.303 C  
BRANCH  15  16
HETATM   16  C   UNL     1     -10.072  10.108  69.408  1.00  0.00    -0.250 C  
HETATM   17  C   UNL     1     -10.643   9.910  70.606  1.00  0.00    -0.341 C  
BRANCH  17  18
HETATM   18  C   UNL     1     -12.088   9.579  70.839  1.00  0.00    -0.357 C  
BRANCH  18  19
HETATM   19  C   UNL     1     -12.256   8.469  71.874  1.00  0.00    -0.411 C  
BRANCH  19  20
HETATM   20  C   UNL     1     -12.430   7.120  71.176  1.00  0.00    -0.400 C  
BRANCH  20  21
HETATM   21  C   UNL     1     -11.299   6.161  71.531  1.00  0.00    -0.340 C  
BRANCH  21  22
HETATM   22  C   UNL     1     -10.539   5.718  70.284  1.00  0.00    -0.369 C  
BRANCH  22  23
HETATM   23  C   UNL     1     -11.079   6.424  69.042  1.00  0.00    -0.424 C  
BRANCH  23  24
HETATM   24  C   UNL     1     -10.633   5.729  67.760  1.00  0.00    -0.310 C  
HETATM   25  C   UNL     1      -9.298   6.250  67.279  1.00  0.00    -0.118 C  
HETATM   26  O   UNL     1      -8.885   5.626  66.151  1.00  0.00    -0.133 OA 
HETATM   27  O   UNL     1      -8.643   7.122  67.818  1.00  0.00    -0.126 OA 
ENDBRANCH  23  24
ENDBRANCH  22  23
ENDBRANCH  21  22
ENDBRANCH  20  21
ENDBRANCH  19  20
ENDBRANCH  18  19
ENDBRANCH  17  18
ENDBRANCH  15  16
ENDBRANCH  14  15
ENDBRANCH  13  14
ENDBRANCH  12  13
ENDBRANCH  11  12
ENDBRANCH  10  11
ENDBRANCH   6  10
TORSDOF 15
ENDMDL
MODEL      162
REMARK 921   NORMALIZED FREE ENERGY PREDICTED BY IDOCK:   -4.20 KCAL/MOL
REMARK 922        TOTAL FREE ENERGY PREDICTED BY IDOCK:   -9.84 KCAL/MOL
REMARK 923 INTER-LIGAND FREE ENERGY PREDICTED BY IDOCK:   -8.34 KCAL/MOL
REMARK 924 INTRA-LIGAND FREE ENERGY PREDICTED BY IDOCK:   -1.50 KCAL/MOL
REMARK 927      BINDING AFFINITY PREDICTED BY RF-SCORE:    0.00 PKD
ROOT
ATOM      1  N   GLY A   1     -10.740  11.028  62.724  1.00  0.00    -0.727 NA 
HETATM    2  C   UNL     1      -8.027  13.596  68.594  1.00  0.00    -0.083 C  
ATOM      3  H2  GLY A   1     -10.457  11.879  62.236  1.00  0.00     0.000 HD 
ATOM      4  H1  GLY A   1     -10.108  10.251  62.530  1.00  0.00     0.000 HD 
ATOM      5  CA  GLY A   1     -10.856  11.239  64.173  1.00  0.00    -0.337 C  
HETATM    6  C   UNL     1      -6.936  12.537  68.562  1.00  0.00    -0.086 C  
ENDROOT
BRANCH   5   7
ATOM      7  C   GLY A   1     -11.805  12.406  64.463  1.00  0.00    -0.384 C  
ATOM      8  H   GLY A   1     -13.043  13.527  63.439  1.00  0.00     0.000 HD 
ATOM      9  O   GLY A   1     -12.455  12.803  63.259  1.00  0.00    -0.665 OA 
ENDBRANCH   5   7
BRANCH   6  10
HETATM   10  C   UNL     1      -7.390  11.173  69.079  1.00  0.00    -0.120 C  
BRANCH  10  11
HETATM   11  C   UNL     1      -8.827  10.800  68.710  1.00  0.00    -0.163 C  
BRANCH  11  12
HETATM   12  C   UNL     1      -8.820   9.795  67.554  1.00  0.00    -0.129 C  
BRANCH  12  13
HETATM   13  C   UNL     1     -10.144   9.043  67.431  1.00  0.00    -0.291 C  
BRANCH  13  14
HETATM   14  C   UNL     1      -9.963   7.576  67.017  1.00  0.00    -0.304 C  
BRANCH  14  15
HETATM   15  C   UNL     1     -11.076   6.622  67.467  1.00  0.00    -0.374 C  
BRANCH  15  16
HETATM   16  C   UNL     1     -10.636   5.589  68.468  1.00  0.00    -0.208 C  
HETATM   17  C   UNL     1     -10.521   5.808  69.787  1.00  0.00    -0.363 C  
BRANCH  17  18
HETATM   18  C   UNL     1     -10.767   7.117  70.478  1.00  0.00    -0.259 C  
BRANCH  18  19
HETATM   19  C   UNL     1     -12.209   7.239  70.965  1.00  0.00    -0.350 C  
BRANCH  19  20
HETATM   20  C   UNL     1     -12.282   8.187  72.162  1.00  0.00    -0.398 C  
BRANCH  20  21
HETATM   21  C   UNL     1     -12.859   9.542  71.763  1.00  0.00    -0.496 C  
BRANCH  21  22
HETATM   22  C   UNL     1     -11.916  10.288  70.824  1.00  0.00    -0.456 C  
BRANCH  22  23
HETATM   23  C   UNL     1     -12.351  11.743  70.664  1.00  0.00    -0.421 C  
BRANCH  23  24
HETATM   24  C   UNL     1     -12.961  12.293  71.950  1.00  0.00    -0.411 C  
HETATM   25  C   UNL     1     -13.470  13.704  71.764  1.00  0.00    -0.384 C  
HETATM   26  O   UNL     1     -14.030  14.195  72.894  1.00  0.00    -0.602 OA 
HETATM   27  O   UNL     1     -13.406  14.351  70.735  1.00  0.00    -0.322 OA 
ENDBRANCH  23  24
ENDBRANCH  22  23
ENDBRANCH  21  22
ENDBRANCH  20  21
ENDBRANCH  19  20
ENDBRANCH  18  19
ENDBRANCH  17  18
ENDBRANCH  15  16
ENDBRANCH  14  15
ENDBRANCH  13  14
ENDBRANCH  12  13
ENDBRANCH  11  12
ENDBRANCH  10  11
ENDBRANCH   6  10
TORSDOF 15
ENDMDL
MODEL      163
REMARK 921   NORMALIZED FREE ENERGY PREDICTED BY IDOCK:   -4.20 KCAL/MOL
REMARK 922        TOTAL FREE ENERGY PREDICTED BY IDOCK:   -9.83 KCAL/MOL
REMARK 923 INTER-LIGAND FREE ENERGY PREDICTED BY IDOCK:   -7.91 KCAL/MOL
REMARK 924 INTRA-LIGAND FREE ENERGY PREDICTED BY IDOCK:   -1.92 KCAL/MOL
REMARK 927      BINDING AFFINITY PREDICTED BY RF-SCORE:    0.00 PKD
ROOT
ATOM      1  N   GLY A   1      -5.743  11.417  65.841  1.00  0.00    -0.484 NA 
HETATM    2  C   UNL     1     -12.273  12.132  63.550  1.00  0.00    -0.670 C  
ATOM      3  H2  GLY A   1      -5.427  11.330  64.875  1.00  0.00     0.000 HD 
ATOM      4  H1  GLY A   1      -5.557  12.346  66.220  1.00  0.00     0.000 HD 
ATOM      5  CA  GLY A   1      -7.167  11.086  65.985  1.00  0.00    -0.014 C  
HETATM    6  C   UNL     1     -12.286  13.580  64.013  1.00  0.00    -0.458 C  
ENDROOT
BRANCH   5   7
ATOM      7  C   GLY A   1      -7.445   9.692  65.416  1.00  0.00    -0.111 C  
ATOM      8  H   GLY A   1      -6.714   7.887  65.637  1.00  0.00     0.000 HD 
ATOM      9  O   GLY A   1      -6.541   8.752  65.990  1.00  0.00    -0.057 OA 
ENDBRANCH   5   7
BRANCH   6  10
HETATM   10  C   UNL     1     -12.534  13.744  65.512  1.00  0.00    -0.548 C  
BRANCH  10  11
HETATM   11  C   UNL     1     -11.399  14.436  66.271  1.00  0.00    -0.350 C  
BRANCH  11  12
HETATM   12  C   UNL     1     -10.938  13.551  67.432  1.00  0.00    -0.286 C  
BRANCH  12  13
HETATM   13  C   UNL     1     -10.315  12.242  66.951  1.00  0.00    -0.236 C  
BRANCH  13  14
HETATM   14  C   UNL     1     -11.126  11.006  67.365  1.00  0.00    -0.370 C  
BRANCH  14  15
HETATM   15  C   UNL     1     -11.908  11.140  68.678  1.00  0.00    -0.357 C  
BRANCH  15  16
HETATM   16  C   UNL     1     -11.116  10.787  69.907  1.00  0.00    -0.339 C  
HETATM   17  C   UNL     1     -11.640  10.255  71.022  1.00  0.00    -0.430 C  
BRANCH  17  18
HETATM   18  C   UNL     1     -13.094   9.962  71.249  1.00  0.00    -0.487 C  
BRANCH  18  19
HETATM   19  C   UNL     1     -13.302   8.954  72.376  1.00  0.00    -0.488 C  
BRANCH  19  20
HETATM   20  C   UNL     1     -12.155   7.944  72.396  1.00  0.00    -0.336 C  
BRANCH  20  21
HETATM   21  C   UNL     1     -12.380   6.826  71.383  1.00  0.00    -0.403 C  
BRANCH  21  22
HETATM   22  C   UNL     1     -11.112   6.543  70.583  1.00  0.00    -0.364 C  
BRANCH  22  23
HETATM   23  C   UNL     1     -11.408   6.533  69.085  1.00  0.00    -0.330 C  
BRANCH  23  24
HETATM   24  C   UNL     1     -10.204   6.996  68.269  1.00  0.00    -0.206 C  
HETATM   25  C   UNL     1     -10.151   6.314  66.921  1.00  0.00    -0.183 C  
HETATM   26  O   UNL     1      -9.096   6.732  66.183  1.00  0.00    -0.154 OA 
HETATM   27  O   UNL     1     -10.945   5.489  66.512  1.00  0.00    -0.250 OA 
ENDBRANCH  23  24
ENDBRANCH  22  23
ENDBRANCH  21  22
ENDBRANCH  20  21
ENDBRANCH  19  20
ENDBRANCH  18  19
ENDBRANCH  17  18
ENDBRANCH  15  16
ENDBRANCH  14  15
ENDBRANCH  13  14
ENDBRANCH  12  13
ENDBRANCH  11  12
ENDBRANCH  10  11
ENDBRANCH   6  10
TORSDOF 15
ENDMDL
MODEL      164
REMARK 921   NORMALIZED FREE ENERGY PREDICTED BY IDOCK:   -4.20 KCAL/MOL
REMARK 922        TOTAL FREE ENERGY PREDICTED BY IDOCK:   -9.83 KCAL/MOL
REMARK 923 INTER-LIGAND FREE ENERGY PREDICTED BY IDOCK:   -8.18 KCAL/MOL
REMARK 924 INTRA-LIGAND FREE ENERGY PREDICTED BY IDOCK:   -1.65 KCAL/MOL
REMARK 927      BINDING AFFINITY PREDICTED BY RF-SCORE:    0.00 PKD
ROOT
ATOM      1  N   GLY A   1      -5.575  11.230  66.651  1.00  0.00    -0.114 NA 
HETATM    2  C   UNL     1     -11.753  11.875  63.517  1.00  0.00    -0.550 C  
ATOM      3  H2  GLY A   1      -5.129  11.188  65.735  1.00  0.00     0.000 HD 
ATOM      4  H1  GLY A   1      -5.469  12.147  67.084  1.00  0.00     0.000 HD 
ATOM      5  CA  GLY A   1      -6.994  10.859  66.588  1.00  0.00    -0.135 C  
HETATM    6  C   UNL     1     -11.870  13.304  64.025  1.00  0.00    -0.512 C  
ENDROOT
BRANCH   5   7
ATOM      7  C   GLY A   1      -7.153   9.481  65.937  1.00  0.00    -0.096 C  
ATOM      8  H   GLY A   1      -8.466   8.589  64.789  1.00  0.00     0.000 HD 
ATOM      9  O   GLY A   1      -8.367   9.443  65.193  1.00  0.00    -0.130 OA 
ENDBRANCH   5   7
BRANCH   6  10
HETATM   10  C   UNL     1     -12.324  13.403  65.481  1.00  0.00    -0.528 C  
BRANCH  10  11
HETATM   11  C   UNL     1     -11.487  12.580  66.464  1.00  0.00    -0.418 C  
BRANCH  11  12
HETATM   12  C   UNL     1     -10.707  13.517  67.390  1.00  0.00    -0.269 C  
BRANCH  12  13
HETATM   13  C   UNL     1      -9.347  13.903  66.812  1.00  0.00    -0.286 C  
BRANCH  13  14
HETATM   14  C   UNL     1      -9.219  15.408  66.540  1.00  0.00    -0.323 C  
BRANCH  14  15
HETATM   15  C   UNL     1     -10.349  16.279  67.104  1.00  0.00    -0.285 C  
BRANCH  15  16
HETATM   16  C   UNL     1      -9.986  17.026  68.358  1.00  0.00    -0.289 C  
HETATM   17  C   UNL     1     -10.160  18.345  68.535  1.00  0.00    -0.413 C  
BRANCH  17  18
HETATM   18  C   UNL     1     -10.702  19.298  67.509  1.00  0.00    -0.571 C  
BRANCH  18  19
HETATM   19  C   UNL     1      -9.677  20.364  67.128  1.00  0.00    -0.601 C  
BRANCH  19  20
HETATM   20  C   UNL     1      -8.741  19.830  66.044  1.00  0.00    -0.296 C  
BRANCH  20  21
HETATM   21  C   UNL     1      -7.389  19.428  66.626  1.00  0.00    -0.240 C  
BRANCH  21  22
HETATM   22  C   UNL     1      -6.558  20.655  66.991  1.00  0.00    -0.331 C  
BRANCH  22  23
HETATM   23  C   UNL     1      -5.444  20.284  67.967  1.00  0.00    -0.233 C  
BRANCH  23  24
HETATM   24  C   UNL     1      -5.635  20.958  69.322  1.00  0.00    -0.391 C  
HETATM   25  C   UNL     1      -5.779  19.943  70.433  1.00  0.00    -0.292 C  
HETATM   26  O   UNL     1      -5.931  20.532  71.642  1.00  0.00    -0.639 OA 
HETATM   27  O   UNL     1      -5.761  18.735  70.295  1.00  0.00    -0.237 OA 
ENDBRANCH  23  24
ENDBRANCH  22  23
ENDBRANCH  21  22
ENDBRANCH  20  21
ENDBRANCH  19  20
ENDBRANCH  18  19
ENDBRANCH  17  18
ENDBRANCH  15  16
ENDBRANCH  14  15
ENDBRANCH  13  14
ENDBRANCH  12  13
ENDBRANCH  11  12
ENDBRANCH  10  11
ENDBRANCH   6  10
TORSDOF 15
ENDMDL
MODEL      165
REMARK 921   NORMALIZED FREE ENERGY PREDICTED BY IDOCK:   -4.20 KCAL/MOL
REMARK 922        TOTAL FREE ENERGY PREDICTED BY IDOCK:   -9.83 KCAL/MOL
REMARK 923 INTER-LIGAND FREE ENERGY PREDICTED BY IDOCK:   -7.62 KCAL/MOL
REMARK 924 INTRA-LIGAND FREE ENERGY PREDICTED BY IDOCK:   -2.21 KCAL/MOL
REMARK 927      BINDING AFFINITY PREDICTED BY RF-SCORE:    0.00 PKD
ROOT
ATOM      1  N   GLY A   1     -11.060   5.904  69.179  1.00  0.00    -0.326 NA 
HETATM    2  C   UNL     1      -7.940   9.190  63.899  1.00  0.00    -0.142 C  
ATOM      3  H2  GLY A   1     -10.145   5.735  69.597  1.00  0.00     0.000 HD 
ATOM      4  H1  GLY A   1     -11.551   6.672  69.636  1.00  0.00     0.000 HD 
ATOM      5  CA  GLY A   1     -10.965   6.149  67.734  1.00  0.00    -0.303 C  
HETATM    6  C   UNL     1      -8.538  10.511  64.358  1.00  0.00    -0.160 C  
ENDROOT
BRANCH   5   7
ATOM      7  C   GLY A   1     -10.227   4.995  67.048  1.00  0.00    -0.208 C  
ATOM      8  H   GLY A   1      -9.243   3.397  67.611  1.00  0.00     0.000 HD 
ATOM      9  O   GLY A   1      -9.701   4.112  68.036  1.00  0.00    -0.156 OA 
ENDBRANCH   5   7
BRANCH   6  10
HETATM   10  C   UNL     1      -9.995  10.705  63.939  1.00  0.00    -0.390 C  
BRANCH  10  11
HETATM   11  C   UNL     1     -10.271  12.012  63.192  1.00  0.00    -0.275 C  
BRANCH  11  12
HETATM   12  C   UNL     1     -11.727  12.434  63.411  1.00  0.00    -0.554 C  
BRANCH  12  13
HETATM   13  C   UNL     1     -11.844  13.685  64.280  1.00  0.00    -0.464 C  
BRANCH  13  14
HETATM   14  C   UNL     1     -12.842  13.520  65.434  1.00  0.00    -0.420 C  
BRANCH  14  15
HETATM   15  C   UNL     1     -12.219  13.343  66.824  1.00  0.00    -0.367 C  
BRANCH  15  16
HETATM   16  C   UNL     1     -11.267  12.183  66.930  1.00  0.00    -0.375 C  
HETATM   17  C   UNL     1     -10.002  12.275  67.371  1.00  0.00    -0.205 C  
BRANCH  17  18
HETATM   18  C   UNL     1      -9.314  13.542  67.788  1.00  0.00    -0.213 C  
BRANCH  18  19
HETATM   19  C   UNL     1      -9.082  14.478  66.605  1.00  0.00    -0.277 C  
BRANCH  19  20
HETATM   20  C   UNL     1      -9.145  15.934  67.065  1.00  0.00    -0.236 C  
BRANCH  20  21
HETATM   21  C   UNL     1     -10.551  16.313  67.520  1.00  0.00    -0.310 C  
BRANCH  21  22
HETATM   22  C   UNL     1     -10.515  17.105  68.823  1.00  0.00    -0.351 C  
BRANCH  22  23
HETATM   23  C   UNL     1     -10.494  16.166  70.027  1.00  0.00    -0.215 C  
BRANCH  23  24
HETATM   24  C   UNL     1     -11.818  15.427  70.189  1.00  0.00    -0.362 C  
HETATM   25  C   UNL     1     -12.414  15.644  71.561  1.00  0.00    -0.437 C  
HETATM   26  O   UNL     1     -13.599  15.007  71.707  1.00  0.00    -0.357 OA 
HETATM   27  O   UNL     1     -11.919  16.310  72.450  1.00  0.00    -0.516 OA 
ENDBRANCH  23  24
ENDBRANCH  22  23
ENDBRANCH  21  22
ENDBRANCH  20  21
ENDBRANCH  19  20
ENDBRANCH  18  19
ENDBRANCH  17  18
ENDBRANCH  15  16
ENDBRANCH  14  15
ENDBRANCH  13  14
ENDBRANCH  12  13
ENDBRANCH  11  12
ENDBRANCH  10  11
ENDBRANCH   6  10
TORSDOF 15
ENDMDL
MODEL      166
REMARK 921   NORMALIZED FREE ENERGY PREDICTED BY IDOCK:   -4.20 KCAL/MOL
REMARK 922        TOTAL FREE ENERGY PREDICTED BY IDOCK:   -9.82 KCAL/MOL
REMARK 923 INTER-LIGAND FREE ENERGY PREDICTED BY IDOCK:   -8.24 KCAL/MOL
REMARK 924 INTRA-LIGAND FREE ENERGY PREDICTED BY IDOCK:   -1.59 KCAL/MOL
REMARK 927      BINDING AFFINITY PREDICTED BY RF-SCORE:    0.00 PKD
ROOT
ATOM      1  N   GLY A   1     -11.308  13.202  63.349  1.00  0.00    -0.592 NA 
HETATM    2  C   UNL     1     -10.642  19.059  67.046  1.00  0.00    -0.543 C  
ATOM      3  H2  GLY A   1     -12.118  13.607  62.879  1.00  0.00     0.000 HD 
ATOM      4  H1  GLY A   1     -10.474  13.235  62.764  1.00  0.00     0.000 HD 
ATOM      5  CA  GLY A   1     -11.047  13.847  64.643  1.00  0.00    -0.385 C  
HETATM    6  C   UNL     1      -9.346  19.380  66.318  1.00  0.00    -0.402 C  
ENDROOT
BRANCH   5   7
ATOM      7  C   GLY A   1     -12.300  13.798  65.521  1.00  0.00    -0.475 C  
ATOM      8  H   GLY A   1     -14.036  12.890  65.481  1.00  0.00     0.000 HD 
ATOM      9  O   GLY A   1     -13.259  12.920  64.936  1.00  0.00    -0.782 OA 
ENDBRANCH   5   7
BRANCH   6  10
HETATM   10  C   UNL     1      -8.135  18.616  66.851  1.00  0.00    -0.256 C  
BRANCH  10  11
HETATM   11  C   UNL     1      -7.720  17.413  66.002  1.00  0.00    -0.233 C  
BRANCH  11  12
HETATM   12  C   UNL     1      -7.544  16.183  66.897  1.00  0.00    -0.275 C  
BRANCH  12  13
HETATM   13  C   UNL     1      -8.772  15.274  66.882  1.00  0.00    -0.288 C  
BRANCH  13  14
HETATM   14  C   UNL     1      -9.649  15.434  68.131  1.00  0.00    -0.203 C  
BRANCH  14  15
HETATM   15  C   UNL     1     -10.250  14.136  68.685  1.00  0.00    -0.238 C  
BRANCH  15  16
HETATM   16  C   UNL     1      -9.751  12.887  68.010  1.00  0.00    -0.224 C  
HETATM   17  C   UNL     1     -10.393  11.708  68.020  1.00  0.00    -0.208 C  
BRANCH  17  18
HETATM   18  C   UNL     1     -11.683  11.424  68.732  1.00  0.00    -0.404 C  
BRANCH  18  19
HETATM   19  C   UNL     1     -11.548  10.256  69.706  1.00  0.00    -0.294 C  
BRANCH  19  20
HETATM   20  C   UNL     1     -12.077  10.655  71.083  1.00  0.00    -0.445 C  
BRANCH  20  21
HETATM   21  C   UNL     1     -12.050   9.476  72.051  1.00  0.00    -0.332 C  
BRANCH  21  22
HETATM   22  C   UNL     1     -13.078   8.418  71.661  1.00  0.00    -0.355 C  
BRANCH  22  23
HETATM   23  C   UNL     1     -12.493   7.015  71.807  1.00  0.00    -0.393 C  
BRANCH  23  24
HETATM   24  C   UNL     1     -11.869   6.526  70.504  1.00  0.00    -0.393 C  
HETATM   25  C   UNL     1     -10.359   6.594  70.551  1.00  0.00    -0.199 C  
HETATM   26  O   UNL     1      -9.795   6.145  69.405  1.00  0.00    -0.150 OA 
HETATM   27  O   UNL     1      -9.697   6.994  71.489  1.00  0.00    -0.166 OA 
ENDBRANCH  23  24
ENDBRANCH  22  23
ENDBRANCH  21  22
ENDBRANCH  20  21
ENDBRANCH  19  20
ENDBRANCH  18  19
ENDBRANCH  17  18
ENDBRANCH  15  16
ENDBRANCH  14  15
ENDBRANCH  13  14
ENDBRANCH  12  13
ENDBRANCH  11  12
ENDBRANCH  10  11
ENDBRANCH   6  10
TORSDOF 15
ENDMDL
MODEL      167
REMARK 921   NORMALIZED FREE ENERGY PREDICTED BY IDOCK:   -4.19 KCAL/MOL
REMARK 922        TOTAL FREE ENERGY PREDICTED BY IDOCK:   -9.82 KCAL/MOL
REMARK 923 INTER-LIGAND FREE ENERGY PREDICTED BY IDOCK:   -8.77 KCAL/MOL
REMARK 924 INTRA-LIGAND FREE ENERGY PREDICTED BY IDOCK:   -1.04 KCAL/MOL
REMARK 927      BINDING AFFINITY PREDICTED BY RF-SCORE:    0.00 PKD
ROOT
ATOM      1  N   GLY A   1      -7.315  10.700  67.760  1.00  0.00    -0.089 NA 
HETATM    2  C   UNL     1     -11.522   6.629  71.521  1.00  0.00    -0.343 C  
ATOM      3  H2  GLY A   1      -7.372  10.029  66.995  1.00  0.00     0.000 HD 
ATOM      4  H1  GLY A   1      -7.909  11.513  67.599  1.00  0.00     0.000 HD 
ATOM      5  CA  GLY A   1      -7.638  10.084  69.054  1.00  0.00    -0.090 C  
HETATM    6  C   UNL     1     -12.621   7.676  71.438  1.00  0.00    -0.359 C  
ENDROOT
BRANCH   5   7
ATOM      7  C   GLY A   1      -6.746   8.864  69.297  1.00  0.00    -0.050 C  
ATOM      8  H   GLY A   1      -4.878   8.538  69.790  1.00  0.00     0.000 HD 
ATOM      9  O   GLY A   1      -5.431   9.295  69.640  1.00  0.00    -0.033 OA 
ENDBRANCH   5   7
BRANCH   6  10
HETATM   10  C   UNL     1     -12.449   8.828  72.428  1.00  0.00    -0.421 C  
BRANCH  10  11
HETATM   11  C   UNL     1     -13.152  10.125  72.020  1.00  0.00    -0.538 C  
BRANCH  11  12
HETATM   12  C   UNL     1     -12.362  10.812  70.903  1.00  0.00    -0.497 C  
BRANCH  12  13
HETATM   13  C   UNL     1     -12.516  12.332  70.933  1.00  0.00    -0.371 C  
BRANCH  13  14
HETATM   14  C   UNL     1     -13.416  12.818  72.077  1.00  0.00    -0.540 C  
BRANCH  14  15
HETATM   15  C   UNL     1     -14.098  14.173  71.848  1.00  0.00    -0.566 C  
BRANCH  15  16
HETATM   16  C   UNL     1     -13.686  15.244  72.821  1.00  0.00    -0.584 C  
HETATM   17  C   UNL     1     -12.470  15.809  72.860  1.00  0.00    -0.566 C  
BRANCH  17  18
HETATM   18  C   UNL     1     -11.311  15.445  71.979  1.00  0.00    -0.466 C  
BRANCH  18  19
HETATM   19  C   UNL     1     -11.369  16.171  70.636  1.00  0.00    -0.394 C  
BRANCH  19  20
HETATM   20  C   UNL     1     -10.270  15.652  69.709  1.00  0.00    -0.303 C  
BRANCH  20  21
HETATM   21  C   UNL     1     -10.640  15.851  68.243  1.00  0.00    -0.276 C  
BRANCH  21  22
HETATM   22  C   UNL     1      -9.489  15.453  67.324  1.00  0.00    -0.215 C  
BRANCH  22  23
HETATM   23  C   UNL     1      -9.230  16.536  66.279  1.00  0.00    -0.345 C  
BRANCH  23  24
HETATM   24  C   UNL     1      -9.309  17.934  66.885  1.00  0.00    -0.276 C  
HETATM   25  C   UNL     1     -10.238  18.830  66.098  1.00  0.00    -0.421 C  
HETATM   26  O   UNL     1     -10.329  20.067  66.639  1.00  0.00    -0.443 OA 
HETATM   27  O   UNL     1     -10.852  18.510  65.098  1.00  0.00    -0.588 OA 
ENDBRANCH  23  24
ENDBRANCH  22  23
ENDBRANCH  21  22
ENDBRANCH  20  21
ENDBRANCH  19  20
ENDBRANCH  18  19
ENDBRANCH  17  18
ENDBRANCH  15  16
ENDBRANCH  14  15
ENDBRANCH  13  14
ENDBRANCH  12  13
ENDBRANCH  11  12
ENDBRANCH  10  11
ENDBRANCH   6  10
TORSDOF 15
ENDMDL
MODEL      168
REMARK 921   NORMALIZED FREE ENERGY PREDICTED BY IDOCK:   -4.19 KCAL/MOL
REMARK 922        TOTAL FREE ENERGY PREDICTED BY IDOCK:   -9.82 KCAL/MOL
REMARK 923 INTER-LIGAND FREE ENERGY PREDICTED BY IDOCK:   -7.83 KCAL/MOL
REMARK 924 INTRA-LIGAND FREE ENERGY PREDICTED BY IDOCK:   -1.98 KCAL/MOL
REMARK 927      BINDING AFFINITY PREDICTED BY RF-SCORE:    0.00 PKD
ROOT
ATOM      1  N   GLY A   1     -10.366  10.830  62.568  1.00  0.00    -0.685 NA 
HETATM    2  C   UNL     1      -7.473  12.376  68.704  1.00  0.00    -0.095 C  
ATOM      3  H2  GLY A   1     -11.113  10.339  63.059  1.00  0.00     0.000 HD 
ATOM      4  H1  GLY A   1     -10.664  11.750  62.246  1.00  0.00     0.000 HD 
ATOM      5  CA  GLY A   1      -9.154  10.948  63.390  1.00  0.00    -0.224 C  
HETATM    6  C   UNL     1      -7.802  13.846  68.498  1.00  0.00    -0.139 C  
ENDROOT
BRANCH   5   7
ATOM      7  C   GLY A   1      -8.707   9.566  63.874  1.00  0.00    -0.216 C  
ATOM      8  H   GLY A   1      -7.106   8.447  63.714  1.00  0.00     0.000 HD 
ATOM      9  O   GLY A   1      -7.383   9.304  63.414  1.00  0.00    -0.095 OA 
ENDBRANCH   5   7
BRANCH   6  10
HETATM   10  C   UNL     1      -6.823  14.572  67.577  1.00  0.00    -0.168 C  
BRANCH  10  11
HETATM   11  C   UNL     1      -6.731  16.082  67.812  1.00  0.00    -0.175 C  
BRANCH  11  12
HETATM   12  C   UNL     1      -7.317  16.829  66.612  1.00  0.00    -0.297 C  
BRANCH  12  13
HETATM   13  C   UNL     1      -6.534  18.098  66.280  1.00  0.00    -0.255 C  
BRANCH  13  14
HETATM   14  C   UNL     1      -6.235  18.957  67.516  1.00  0.00    -0.185 C  
BRANCH  14  15
HETATM   15  C   UNL     1      -7.461  19.569  68.205  1.00  0.00    -0.350 C  
BRANCH  15  16
HETATM   16  C   UNL     1      -8.419  20.252  67.268  1.00  0.00    -0.415 C  
HETATM   17  C   UNL     1      -9.730  19.977  67.186  1.00  0.00    -0.545 C  
BRANCH  17  18
HETATM   18  C   UNL     1     -10.450  18.923  67.976  1.00  0.00    -0.427 C  
BRANCH  18  19
HETATM   19  C   UNL     1     -10.652  17.645  67.166  1.00  0.00    -0.277 C  
BRANCH  19  20
HETATM   20  C   UNL     1     -10.618  16.426  68.088  1.00  0.00    -0.318 C  
BRANCH  20  21
HETATM   21  C   UNL     1     -10.554  16.841  69.555  1.00  0.00    -0.283 C  
BRANCH  21  22
HETATM   22  C   UNL     1     -11.079  15.734  70.465  1.00  0.00    -0.383 C  
BRANCH  22  23
HETATM   23  C   UNL     1     -12.481  15.304  70.040  1.00  0.00    -0.330 C  
BRANCH  23  24
HETATM   24  C   UNL     1     -13.390  15.077  71.244  1.00  0.00    -0.510 C  
HETATM   25  C   UNL     1     -13.352  13.639  71.708  1.00  0.00    -0.388 C  
HETATM   26  O   UNL     1     -14.141  13.432  72.788  1.00  0.00    -0.715 OA 
HETATM   27  O   UNL     1     -12.698  12.748  71.199  1.00  0.00    -0.359 OA 
ENDBRANCH  23  24
ENDBRANCH  22  23
ENDBRANCH  21  22
ENDBRANCH  20  21
ENDBRANCH  19  20
ENDBRANCH  18  19
ENDBRANCH  17  18
ENDBRANCH  15  16
ENDBRANCH  14  15
ENDBRANCH  13  14
ENDBRANCH  12  13
ENDBRANCH  11  12
ENDBRANCH  10  11
ENDBRANCH   6  10
TORSDOF 15
ENDMDL
MODEL      169
REMARK 921   NORMALIZED FREE ENERGY PREDICTED BY IDOCK:   -4.18 KCAL/MOL
REMARK 922        TOTAL FREE ENERGY PREDICTED BY IDOCK:   -9.79 KCAL/MOL
REMARK 923 INTER-LIGAND FREE ENERGY PREDICTED BY IDOCK:   -7.32 KCAL/MOL
REMARK 924 INTRA-LIGAND FREE ENERGY PREDICTED BY IDOCK:   -2.47 KCAL/MOL
REMARK 927      BINDING AFFINITY PREDICTED BY RF-SCORE:    0.00 PKD
ROOT
ATOM      1  N   GLY A   1     -13.381  11.901  72.294  1.00  0.00    -0.548 NA 
HETATM    2  C   UNL     1      -7.111  11.508  69.304  1.00  0.00    -0.077 C  
ATOM      3  H2  GLY A   1     -12.941  11.771  73.204  1.00  0.00     0.000 HD 
ATOM      4  H1  GLY A   1     -13.626  12.877  72.126  1.00  0.00     0.000 HD 
ATOM      5  CA  GLY A   1     -12.542  11.393  71.201  1.00  0.00    -0.386 C  
HETATM    6  C   UNL     1      -7.193  12.978  68.921  1.00  0.00    -0.047 C  
ENDROOT
BRANCH   5   7
ATOM      7  C   GLY A   1     -12.174   9.928  71.452  1.00  0.00    -0.408 C  
ATOM      8  H   GLY A   1     -12.788   8.485  72.627  1.00  0.00     0.000 HD 
ATOM      9  O   GLY A   1     -13.016   9.394  72.471  1.00  0.00    -0.380 OA 
ENDBRANCH   5   7
BRANCH   6  10
HETATM   10  C   UNL     1      -8.040  13.242  67.677  1.00  0.00    -0.174 C  
BRANCH  10  11
HETATM   11  C   UNL     1      -9.550  13.265  67.930  1.00  0.00    -0.217 C  
BRANCH  11  12
HETATM   12  C   UNL     1     -10.294  13.447  66.605  1.00  0.00    -0.269 C  
BRANCH  12  13
HETATM   13  C   UNL     1     -11.742  12.967  66.681  1.00  0.00    -0.438 C  
BRANCH  13  14
HETATM   14  C   UNL     1     -12.557  13.325  65.431  1.00  0.00    -0.526 C  
BRANCH  14  15
HETATM   15  C   UNL     1     -12.532  12.281  64.307  1.00  0.00    -0.508 C  
BRANCH  15  16
HETATM   16  C   UNL     1     -11.376  12.426  63.356  1.00  0.00    -0.507 C  
HETATM   17  C   UNL     1     -10.299  11.625  63.339  1.00  0.00    -0.482 C  
BRANCH  17  18
HETATM   18  C   UNL     1     -10.046  10.486  64.283  1.00  0.00    -0.380 C  
BRANCH  18  19
HETATM   19  C   UNL     1      -8.688  10.609  64.971  1.00  0.00    -0.186 C  
BRANCH  19  20
HETATM   20  C   UNL     1      -8.729   9.934  66.341  1.00  0.00    -0.144 C  
BRANCH  20  21
HETATM   21  C   UNL     1     -10.151   9.530  66.720  1.00  0.00    -0.312 C  
BRANCH  21  22
HETATM   22  C   UNL     1     -10.157   8.258  67.563  1.00  0.00    -0.287 C  
BRANCH  22  23
HETATM   23  C   UNL     1     -10.580   7.055  66.723  1.00  0.00    -0.297 C  
BRANCH  23  24
HETATM   24  C   UNL     1      -9.466   6.018  66.622  1.00  0.00    -0.167 C  
HETATM   25  C   UNL     1      -9.910   4.799  65.847  1.00  0.00    -0.211 C  
HETATM   26  O   UNL     1      -8.921   3.881  65.736  1.00  0.00    -0.121 OA 
HETATM   27  O   UNL     1     -11.013   4.630  65.362  1.00  0.00    -0.242 OA 
ENDBRANCH  23  24
ENDBRANCH  22  23
ENDBRANCH  21  22
ENDBRANCH  20  21
ENDBRANCH  19  20
ENDBRANCH  18  19
ENDBRANCH  17  18
ENDBRANCH  15  16
ENDBRANCH  14  15
ENDBRANCH  13  14
ENDBRANCH  12  13
ENDBRANCH  11  12
ENDBRANCH  10  11
ENDBRANCH   6  10
TORSDOF 15
ENDMDL
MODEL      170
REMARK 921   NORMALIZED FREE ENERGY PREDICTED BY IDOCK:   -4.18 KCAL/MOL
REMARK 922        TOTAL FREE ENERGY PREDICTED BY IDOCK:   -9.78 KCAL/MOL
REMARK 923 INTER-LIGAND FREE ENERGY PREDICTED BY IDOCK:   -7.70 KCAL/MOL
REMARK 924 INTRA-LIGAND FREE ENERGY PREDICTED BY IDOCK:   -2.08 KCAL/MOL
REMARK 927      BINDING AFFINITY PREDICTED BY RF-SCORE:    0.00 PKD
ROOT
ATOM      1  N   GLY A   1     -13.898   9.101  70.872  1.00  0.00    -0.552 NA 
HETATM    2  C   UNL     1     -12.072  14.263  66.579  1.00  0.00    -0.454 C  
ATOM      3  H2  GLY A   1     -14.599   9.713  71.289  1.00  0.00     0.000 HD 
ATOM      4  H1  GLY A   1     -14.314   8.433  70.223  1.00  0.00     0.000 HD 
ATOM      5  CA  GLY A   1     -12.832   9.861  70.206  1.00  0.00     0.171 C  
HETATM    6  C   UNL     1     -12.630  13.487  65.396  1.00  0.00    -0.531 C  
ENDROOT
BRANCH   5   7
ATOM      7  C   GLY A   1     -12.208  10.864  71.181  1.00  0.00    -0.336 C  
ATOM      8  H   GLY A   1     -12.799  12.449  72.170  1.00  0.00     0.000 HD 
ATOM      9  O   GLY A   1     -13.186  11.827  71.565  1.00  0.00    -0.361 OA 
ENDBRANCH   5   7
BRANCH   6  10
HETATM   10  C   UNL     1     -11.693  12.397  64.879  1.00  0.00    -0.418 C  
BRANCH  10  11
HETATM   11  C   UNL     1     -10.245  12.524  65.361  1.00  0.00    -0.303 C  
BRANCH  11  12
HETATM   12  C   UNL     1      -9.821  11.235  66.070  1.00  0.00    -0.267 C  
BRANCH  12  13
HETATM   13  C   UNL     1      -9.204  11.503  67.441  1.00  0.00    -0.166 C  
BRANCH  13  14
HETATM   14  C   UNL     1      -7.819  12.160  67.356  1.00  0.00    -0.168 C  
BRANCH  14  15
HETATM   15  C   UNL     1      -7.667  13.477  68.126  1.00  0.00    -0.139 C  
BRANCH  15  16
HETATM   16  C   UNL     1      -8.727  14.499  67.818  1.00  0.00    -0.174 C  
HETATM   17  C   UNL     1      -8.501  15.667  67.196  1.00  0.00    -0.234 C  
BRANCH  17  18
HETATM   18  C   UNL     1      -7.161  16.168  66.743  1.00  0.00    -0.190 C  
BRANCH  18  19
HETATM   19  C   UNL     1      -6.821  17.520  67.366  1.00  0.00    -0.184 C  
BRANCH  19  20
HETATM   20  C   UNL     1      -7.639  17.734  68.639  1.00  0.00    -0.276 C  
BRANCH  20  21
HETATM   21  C   UNL     1      -7.855  19.218  68.917  1.00  0.00    -0.367 C  
BRANCH  21  22
HETATM   22  C   UNL     1      -7.819  20.033  67.627  1.00  0.00    -0.341 C  
BRANCH  22  23
HETATM   23  C   UNL     1      -9.223  20.480  67.230  1.00  0.00    -0.500 C  
BRANCH  23  24
HETATM   24  C   UNL     1      -9.664  19.850  65.912  1.00  0.00    -0.379 C  
HETATM   25  C   UNL     1     -10.525  18.629  66.140  1.00  0.00    -0.430 C  
HETATM   26  O   UNL     1     -10.937  18.074  64.976  1.00  0.00    -0.748 OA 
HETATM   27  O   UNL     1     -10.837  18.174  67.224  1.00  0.00    -0.353 OA 
ENDBRANCH  23  24
ENDBRANCH  22  23
ENDBRANCH  21  22
ENDBRANCH  20  21
ENDBRANCH  19  20
ENDBRANCH  18  19
ENDBRANCH  17  18
ENDBRANCH  15  16
ENDBRANCH  14  15
ENDBRANCH  13  14
ENDBRANCH  12  13
ENDBRANCH  11  12
ENDBRANCH  10  11
ENDBRANCH   6  10
TORSDOF 15
ENDMDL
MODEL      171
REMARK 921   NORMALIZED FREE ENERGY PREDICTED BY IDOCK:   -4.17 KCAL/MOL
REMARK 922        TOTAL FREE ENERGY PREDICTED BY IDOCK:   -9.77 KCAL/MOL
REMARK 923 INTER-LIGAND FREE ENERGY PREDICTED BY IDOCK:   -7.63 KCAL/MOL
REMARK 924 INTRA-LIGAND FREE ENERGY PREDICTED BY IDOCK:   -2.14 KCAL/MOL
REMARK 927      BINDING AFFINITY PREDICTED BY RF-SCORE:    0.00 PKD
ROOT
ATOM      1  N   GLY A   1      -9.741  20.549  65.742  1.00  0.00    -0.569 NA 
HETATM    2  C   UNL     1      -9.029  14.475  69.061  1.00  0.00    -0.044 C  
ATOM      3  H2  GLY A   1      -9.087  20.222  65.031  1.00  0.00     0.000 HD 
ATOM      4  H1  GLY A   1     -10.708  20.495  65.425  1.00  0.00     0.000 HD 
ATOM      5  CA  GLY A   1      -9.581  19.822  67.009  1.00  0.00    -0.369 C  
HETATM    6  C   UNL     1     -10.465  14.112  68.720  1.00  0.00    -0.249 C  
ENDROOT
BRANCH   5   7
ATOM      7  C   GLY A   1      -8.128  19.902  67.486  1.00  0.00    -0.306 C  
ATOM      8  H   GLY A   1      -6.360  19.490  66.749  1.00  0.00     0.000 HD 
ATOM      9  O   GLY A   1      -7.261  19.441  66.453  1.00  0.00    -0.220 OA 
ENDBRANCH   5   7
BRANCH   6  10
HETATM   10  C   UNL     1     -11.499  14.769  69.634  1.00  0.00    -0.327 C  
BRANCH  10  11
HETATM   11  C   UNL     1     -12.277  13.792  70.519  1.00  0.00    -0.440 C  
BRANCH  11  12
HETATM   12  C   UNL     1     -12.350  12.423  69.837  1.00  0.00    -0.117 C  
BRANCH  12  13
HETATM   13  C   UNL     1     -11.918  11.289  70.764  1.00  0.00    -0.383 C  
BRANCH  13  14
HETATM   14  C   UNL     1     -11.467  10.034  70.004  1.00  0.00    -0.310 C  
BRANCH  14  15
HETATM   15  C   UNL     1     -10.622  10.292  68.750  1.00  0.00    -0.231 C  
BRANCH  15  16
HETATM   16  C   UNL     1      -9.324   9.532  68.713  1.00  0.00    -0.146 C  
HETATM   17  C   UNL     1      -8.943   8.726  67.710  1.00  0.00    -0.140 C  
BRANCH  17  18
HETATM   18  C   UNL     1      -9.753   8.415  66.486  1.00  0.00    -0.330 C  
BRANCH  18  19
HETATM   19  C   UNL     1      -8.939   8.589  65.206  1.00  0.00    -0.102 C  
BRANCH  19  20
HETATM   20  C   UNL     1      -8.748  10.075  64.902  1.00  0.00    -0.201 C  
BRANCH  20  21
HETATM   21  C   UNL     1     -10.084  10.765  64.643  1.00  0.00    -0.410 C  
BRANCH  21  22
HETATM   22  C   UNL     1     -10.252  11.994  65.532  1.00  0.00    -0.290 C  
BRANCH  22  23
HETATM   23  C   UNL     1     -11.729  12.265  65.808  1.00  0.00    -0.445 C  
BRANCH  23  24
HETATM   24  C   UNL     1     -12.378  13.055  64.676  1.00  0.00    -0.480 C  
HETATM   25  C   UNL     1     -12.039  14.526  64.758  1.00  0.00    -0.445 C  
HETATM   26  O   UNL     1     -12.595  15.232  63.746  1.00  0.00    -0.733 OA 
HETATM   27  O   UNL     1     -11.347  15.047  65.612  1.00  0.00    -0.345 OA 
ENDBRANCH  23  24
ENDBRANCH  22  23
ENDBRANCH  21  22
ENDBRANCH  20  21
ENDBRANCH  19  20
ENDBRANCH  18  19
ENDBRANCH  17  18
ENDBRANCH  15  16
ENDBRANCH  14  15
ENDBRANCH  13  14
ENDBRANCH  12  13
ENDBRANCH  11  12
ENDBRANCH  10  11
ENDBRANCH   6  10
TORSDOF 15
ENDMDL
MODEL      172
REMARK 921   NORMALIZED FREE ENERGY PREDICTED BY IDOCK:   -4.16 KCAL/MOL
REMARK 922        TOTAL FREE ENERGY PREDICTED BY IDOCK:   -9.76 KCAL/MOL
REMARK 923 INTER-LIGAND FREE ENERGY PREDICTED BY IDOCK:   -7.47 KCAL/MOL
REMARK 924 INTRA-LIGAND FREE ENERGY PREDICTED BY IDOCK:   -2.29 KCAL/MOL
REMARK 927      BINDING AFFINITY PREDICTED BY RF-SCORE:    0.00 PKD
ROOT
ATOM      1  N   GLY A   1     -13.573   8.808  73.058  1.00  0.00    -0.959 NA 
HETATM    2  C   UNL     1     -10.410   7.868  66.933  1.00  0.00    -0.400 C  
ATOM      3  H2  GLY A   1     -14.430   8.424  72.660  1.00  0.00     0.000 HD 
ATOM      4  H1  GLY A   1     -13.088   8.129  73.644  1.00  0.00     0.000 HD 
ATOM      5  CA  GLY A   1     -12.669   9.322  72.021  1.00  0.00    -0.401 C  
HETATM    6  C   UNL     1      -9.533   6.785  67.543  1.00  0.00    -0.139 C  
ENDROOT
BRANCH   5   7
ATOM      7  C   GLY A   1     -13.397  10.341  71.140  1.00  0.00    -0.259 C  
ATOM      8  H   GLY A   1     -13.222  12.247  70.720  1.00  0.00     0.000 HD 
ATOM      9  O   GLY A   1     -12.771  11.615  71.266  1.00  0.00    -0.393 OA 
ENDBRANCH   5   7
BRANCH   6  10
HETATM   10  C   UNL     1      -8.353   7.330  68.346  1.00  0.00    -0.125 C  
BRANCH  10  11
HETATM   11  C   UNL     1      -7.060   7.492  67.543  1.00  0.00    -0.085 C  
BRANCH  11  12
HETATM   12  C   UNL     1      -6.691   8.975  67.450  1.00  0.00    -0.069 C  
BRANCH  12  13
HETATM   13  C   UNL     1      -7.319   9.653  66.233  1.00  0.00    -0.094 C  
BRANCH  13  14
HETATM   14  C   UNL     1      -6.910   8.999  64.906  1.00  0.00    -0.076 C  
BRANCH  14  15
HETATM   15  C   UNL     1      -8.039   8.295  64.143  1.00  0.00    -0.136 C  
BRANCH  15  16
HETATM   16  C   UNL     1      -8.430   8.971  62.857  1.00  0.00    -0.200 C  
HETATM   17  C   UNL     1      -9.271  10.013  62.771  1.00  0.00    -0.313 C  
BRANCH  17  18
HETATM   18  C   UNL     1      -9.990  10.651  63.923  1.00  0.00    -0.390 C  
BRANCH  18  19
HETATM   19  C   UNL     1     -10.394  12.090  63.614  1.00  0.00    -0.482 C  
BRANCH  19  20
HETATM   20  C   UNL     1     -11.913  12.239  63.689  1.00  0.00    -0.633 C  
BRANCH  20  21
HETATM   21  C   UNL     1     -12.317  13.300  64.709  1.00  0.00    -0.454 C  
BRANCH  21  22
HETATM   22  C   UNL     1     -11.094  14.007  65.284  1.00  0.00    -0.325 C  
BRANCH  22  23
HETATM   23  C   UNL     1     -11.157  14.044  66.809  1.00  0.00    -0.311 C  
BRANCH  23  24
HETATM   24  C   UNL     1     -10.123  13.115  67.439  1.00  0.00    -0.229 C  
HETATM   25  C   UNL     1     -10.748  11.814  67.892  1.00  0.00    -0.204 C  
HETATM   26  O   UNL     1      -9.835  10.975  68.435  1.00  0.00    -0.168 OA 
HETATM   27  O   UNL     1     -11.924  11.520  67.791  1.00  0.00    -0.623 OA 
ENDBRANCH  23  24
ENDBRANCH  22  23
ENDBRANCH  21  22
ENDBRANCH  20  21
ENDBRANCH  19  20
ENDBRANCH  18  19
ENDBRANCH  17  18
ENDBRANCH  15  16
ENDBRANCH  14  15
ENDBRANCH  13  14
ENDBRANCH  12  13
ENDBRANCH  11  12
ENDBRANCH  10  11
ENDBRANCH   6  10
TORSDOF 15
ENDMDL
MODEL      173
REMARK 921   NORMALIZED FREE ENERGY PREDICTED BY IDOCK:   -4.16 KCAL/MOL
REMARK 922        TOTAL FREE ENERGY PREDICTED BY IDOCK:   -9.75 KCAL/MOL
REMARK 923 INTER-LIGAND FREE ENERGY PREDICTED BY IDOCK:   -7.62 KCAL/MOL
REMARK 924 INTRA-LIGAND FREE ENERGY PREDICTED BY IDOCK:   -2.14 KCAL/MOL
REMARK 927      BINDING AFFINITY PREDICTED BY RF-SCORE:    0.00 PKD
ROOT
ATOM      1  N   GLY A   1      -9.401   8.567  69.365  1.00  0.00    -0.153 NA 
HETATM    2  C   UNL     1      -9.597  11.405  63.015  1.00  0.00    -0.397 C  
ATOM      3  H2  GLY A   1      -8.404   8.774  69.413  1.00  0.00     0.000 HD 
ATOM      4  H1  GLY A   1      -9.954   9.233  69.903  1.00  0.00     0.000 HD 
ATOM      5  CA  GLY A   1      -9.884   8.509  67.979  1.00  0.00    -0.169 C  
HETATM    6  C   UNL     1     -10.440  12.554  63.546  1.00  0.00    -0.360 C  
ENDROOT
BRANCH   5   7
ATOM      7  C   GLY A   1      -9.052   7.508  67.170  1.00  0.00    -0.127 C  
ATOM      8  H   GLY A   1      -7.903   5.968  67.555  1.00  0.00     0.000 HD 
ATOM      9  O   GLY A   1      -8.419   6.588  68.056  1.00  0.00    -0.119 OA 
ENDBRANCH   5   7
BRANCH   6  10
HETATM   10  C   UNL     1     -11.920  12.208  63.705  1.00  0.00    -0.628 C  
BRANCH  10  11
HETATM   11  C   UNL     1     -12.551  12.701  65.009  1.00  0.00    -0.504 C  
BRANCH  11  12
HETATM   12  C   UNL     1     -11.460  12.921  66.060  1.00  0.00    -0.384 C  
BRANCH  12  13
HETATM   13  C   UNL     1     -11.169  11.657  66.868  1.00  0.00    -0.376 C  
BRANCH  13  14
HETATM   14  C   UNL     1     -12.035  11.541  68.130  1.00  0.00    -0.206 C  
BRANCH  14  15
HETATM   15  C   UNL     1     -11.477  12.237  69.378  1.00  0.00    -0.341 C  
BRANCH  15  16
HETATM   16  C   UNL     1     -12.393  13.274  69.968  1.00  0.00    -0.269 C  
HETATM   17  C   UNL     1     -12.084  14.573  70.103  1.00  0.00    -0.394 C  
BRANCH  17  18
HETATM   18  C   UNL     1     -10.772  15.200  69.732  1.00  0.00    -0.288 C  
BRANCH  18  19
HETATM   19  C   UNL     1     -10.770  15.702  68.290  1.00  0.00    -0.283 C  
BRANCH  19  20
HETATM   20  C   UNL     1      -9.430  15.391  67.626  1.00  0.00    -0.205 C  
BRANCH  20  21
HETATM   21  C   UNL     1      -9.393  15.894  66.186  1.00  0.00    -0.385 C  
BRANCH  21  22
HETATM   22  C   UNL     1     -10.525  16.882  65.917  1.00  0.00    -0.294 C  
BRANCH  22  23
HETATM   23  C   UNL     1     -10.020  18.320  66.009  1.00  0.00    -0.222 C  
BRANCH  23  24
HETATM   24  C   UNL     1     -10.685  19.079  67.154  1.00  0.00    -0.541 C  
HETATM   25  C   UNL     1      -9.749  19.243  68.330  1.00  0.00    -0.385 C  
HETATM   26  O   UNL     1     -10.324  19.932  69.344  1.00  0.00    -0.267 OA 
HETATM   27  O   UNL     1      -8.609  18.825  68.391  1.00  0.00    -0.321 OA 
ENDBRANCH  23  24
ENDBRANCH  22  23
ENDBRANCH  21  22
ENDBRANCH  20  21
ENDBRANCH  19  20
ENDBRANCH  18  19
ENDBRANCH  17  18
ENDBRANCH  15  16
ENDBRANCH  14  15
ENDBRANCH  13  14
ENDBRANCH  12  13
ENDBRANCH  11  12
ENDBRANCH  10  11
ENDBRANCH   6  10
TORSDOF 15
ENDMDL
MODEL      174
REMARK 921   NORMALIZED FREE ENERGY PREDICTED BY IDOCK:   -4.15 KCAL/MOL
REMARK 922        TOTAL FREE ENERGY PREDICTED BY IDOCK:   -9.73 KCAL/MOL
REMARK 923 INTER-LIGAND FREE ENERGY PREDICTED BY IDOCK:   -7.42 KCAL/MOL
REMARK 924 INTRA-LIGAND FREE ENERGY PREDICTED BY IDOCK:   -2.31 KCAL/MOL
REMARK 927      BINDING AFFINITY PREDICTED BY RF-SCORE:    0.00 PKD
ROOT
ATOM      1  N   GLY A   1     -11.333   8.302  70.029  1.00  0.00    -0.452 NA 
HETATM    2  C   UNL     1     -12.780  13.548  65.694  1.00  0.00    -0.478 C  
ATOM      3  H2  GLY A   1     -12.332   8.173  70.185  1.00  0.00     0.000 HD 
ATOM      4  H1  GLY A   1     -10.954   7.606  69.387  1.00  0.00     0.000 HD 
ATOM      5  CA  GLY A   1     -11.023   9.656  69.550  1.00  0.00    -0.208 C  
HETATM    6  C   UNL     1     -12.279  12.725  64.518  1.00  0.00    -0.500 C  
ENDROOT
BRANCH   5   7
ATOM      7  C   GLY A   1     -11.592  10.701  70.514  1.00  0.00    -0.350 C  
ATOM      8  H   GLY A   1     -13.351  11.162  71.243  1.00  0.00     0.000 HD 
ATOM      9  O   GLY A   1     -12.998  10.513  70.646  1.00  0.00    -0.366 OA 
ENDBRANCH   5   7
BRANCH   6  10
HETATM   10  C   UNL     1     -10.756  12.710  64.383  1.00  0.00    -0.384 C  
BRANCH  10  11
HETATM   11  C   UNL     1     -10.000  12.940  65.693  1.00  0.00    -0.245 C  
BRANCH  11  12
HETATM   12  C   UNL     1      -9.314  11.643  66.130  1.00  0.00    -0.237 C  
BRANCH  12  13
HETATM   13  C   UNL     1      -8.696  11.754  67.523  1.00  0.00    -0.159 C  
BRANCH  13  14
HETATM   14  C   UNL     1      -7.328  12.449  67.517  1.00  0.00    -0.146 C  
BRANCH  14  15
HETATM   15  C   UNL     1      -7.229  13.718  68.372  1.00  0.00    -0.108 C  
BRANCH  15  16
HETATM   16  C   UNL     1      -7.217  14.997  67.581  1.00  0.00    -0.208 C  
HETATM   17  C   UNL     1      -8.257  15.839  67.481  1.00  0.00    -0.181 C  
BRANCH  17  18
HETATM   18  C   UNL     1      -9.609  15.632  68.099  1.00  0.00    -0.196 C  
BRANCH  18  19
HETATM   19  C   UNL     1     -10.712  16.312  67.291  1.00  0.00    -0.265 C  
BRANCH  19  20
HETATM   20  C   UNL     1     -10.118  16.999  66.062  1.00  0.00    -0.318 C  
BRANCH  20  21
HETATM   21  C   UNL     1     -10.504  18.473  66.008  1.00  0.00    -0.433 C  
BRANCH  21  22
HETATM   22  C   UNL     1     -10.319  19.143  67.367  1.00  0.00    -0.522 C  
BRANCH  22  23
HETATM   23  C   UNL     1      -9.338  20.309  67.267  1.00  0.00    -0.538 C  
BRANCH  23  24
HETATM   24  C   UNL     1      -7.954  19.846  66.825  1.00  0.00    -0.340 C  
HETATM   25  C   UNL     1      -7.036  19.632  68.006  1.00  0.00    -0.264 C  
HETATM   26  O   UNL     1      -5.810  19.202  67.626  1.00  0.00    -0.189 OA 
HETATM   27  O   UNL     1      -7.330  19.809  69.173  1.00  0.00    -0.336 OA 
ENDBRANCH  23  24
ENDBRANCH  22  23
ENDBRANCH  21  22
ENDBRANCH  20  21
ENDBRANCH  19  20
ENDBRANCH  18  19
ENDBRANCH  17  18
ENDBRANCH  15  16
ENDBRANCH  14  15
ENDBRANCH  13  14
ENDBRANCH  12  13
ENDBRANCH  11  12
ENDBRANCH  10  11
ENDBRANCH   6  10
TORSDOF 15
ENDMDL
MODEL      175
REMARK 921   NORMALIZED FREE ENERGY PREDICTED BY IDOCK:   -4.14 KCAL/MOL
REMARK 922        TOTAL FREE ENERGY PREDICTED BY IDOCK:   -9.72 KCAL/MOL
REMARK 923 INTER-LIGAND FREE ENERGY PREDICTED BY IDOCK:   -8.43 KCAL/MOL
REMARK 924 INTRA-LIGAND FREE ENERGY PREDICTED BY IDOCK:   -1.29 KCAL/MOL
REMARK 927      BINDING AFFINITY PREDICTED BY RF-SCORE:    0.00 PKD
ROOT
ATOM      1  N   GLY A   1     -13.673  15.420  70.485  1.00  0.00    -0.770 NA 
HETATM    2  C   UNL     1      -8.486  19.704  68.707  1.00  0.00    -0.274 C  
ATOM      3  H2  GLY A   1     -13.917  16.053  71.246  1.00  0.00     0.000 HD 
ATOM      4  H1  GLY A   1     -14.303  15.522  69.689  1.00  0.00     0.000 HD 
ATOM      5  CA  GLY A   1     -12.279  15.592  70.054  1.00  0.00    -0.355 C  
HETATM    6  C   UNL     1      -9.213  20.061  67.420  1.00  0.00    -0.477 C  
ENDROOT
BRANCH   5   7
ATOM      7  C   GLY A   1     -11.333  15.440  71.249  1.00  0.00    -0.387 C  
ATOM      8  H   GLY A   1     -11.087  16.300  72.992  1.00  0.00     0.000 HD 
ATOM      9  O   GLY A   1     -11.673  16.395  72.251  1.00  0.00    -0.508 OA 
ENDBRANCH   5   7
BRANCH   6  10
HETATM   10  C   UNL     1      -9.056  19.017  66.315  1.00  0.00    -0.298 C  
BRANCH  10  11
HETATM   11  C   UNL     1      -8.246  17.783  66.720  1.00  0.00    -0.275 C  
BRANCH  11  12
HETATM   12  C   UNL     1      -8.979  16.515  66.274  1.00  0.00    -0.359 C  
BRANCH  12  13
HETATM   13  C   UNL     1     -10.380  16.811  65.742  1.00  0.00    -0.322 C  
BRANCH  13  14
HETATM   14  C   UNL     1     -10.975  15.646  64.940  1.00  0.00    -0.447 C  
BRANCH  14  15
HETATM   15  C   UNL     1     -11.366  14.412  65.763  1.00  0.00    -0.330 C  
BRANCH  15  16
HETATM   16  C   UNL     1     -11.703  13.200  64.937  1.00  0.00    -0.377 C  
HETATM   17  C   UNL     1     -11.615  11.934  65.374  1.00  0.00    -0.284 C  
BRANCH  17  18
HETATM   18  C   UNL     1     -11.133  11.511  66.731  1.00  0.00    -0.361 C  
BRANCH  18  19
HETATM   19  C   UNL     1      -9.661  11.105  66.709  1.00  0.00    -0.220 C  
BRANCH  19  20
HETATM   20  C   UNL     1      -9.432   9.907  67.630  1.00  0.00    -0.167 C  
BRANCH  20  21
HETATM   21  C   UNL     1      -8.913  10.348  68.995  1.00  0.00    -0.184 C  
BRANCH  21  22
HETATM   22  C   UNL     1      -9.683   9.669  70.124  1.00  0.00    -0.301 C  
BRANCH  22  23
HETATM   23  C   UNL     1     -11.160   9.528  69.763  1.00  0.00    -0.216 C  
BRANCH  23  24
HETATM   24  C   UNL     1     -12.063   9.866  70.945  1.00  0.00    -0.431 C  
HETATM   25  C   UNL     1     -12.558   8.619  71.642  1.00  0.00    -0.338 C  
HETATM   26  O   UNL     1     -13.346   8.909  72.703  1.00  0.00    -0.433 OA 
HETATM   27  O   UNL     1     -12.295   7.476  71.319  1.00  0.00    -0.319 OA 
ENDBRANCH  23  24
ENDBRANCH  22  23
ENDBRANCH  21  22
ENDBRANCH  20  21
ENDBRANCH  19  20
ENDBRANCH  18  19
ENDBRANCH  17  18
ENDBRANCH  15  16
ENDBRANCH  14  15
ENDBRANCH  13  14
ENDBRANCH  12  13
ENDBRANCH  11  12
ENDBRANCH  10  11
ENDBRANCH   6  10
TORSDOF 15
ENDMDL
MODEL      176
REMARK 921   NORMALIZED FREE ENERGY PREDICTED BY IDOCK:   -4.13 KCAL/MOL
REMARK 922        TOTAL FREE ENERGY PREDICTED BY IDOCK:   -9.70 KCAL/MOL
REMARK 923 INTER-LIGAND FREE ENERGY PREDICTED BY IDOCK:   -7.45 KCAL/MOL
REMARK 924 INTRA-LIGAND FREE ENERGY PREDICTED BY IDOCK:   -2.26 KCAL/MOL
REMARK 927      BINDING AFFINITY PREDICTED BY RF-SCORE:    0.00 PKD
ROOT
ATOM      1  N   GLY A   1      -7.743  12.943  69.028  1.00  0.00    -0.328 NA 
HETATM    2  C   UNL     1     -10.109   6.764  66.876  1.00  0.00    -0.268 C  
ATOM      3  H2  GLY A   1      -8.262  13.390  68.273  1.00  0.00     0.000 HD 
ATOM      4  H1  GLY A   1      -8.217  13.041  69.926  1.00  0.00     0.000 HD 
ATOM      5  CA  GLY A   1      -7.476  11.526  68.747  1.00  0.00    -0.119 C  
HETATM    6  C   UNL     1     -10.945   6.636  68.139  1.00  0.00    -0.323 C  
ENDROOT
BRANCH   5   7
ATOM      7  C   GLY A   1      -6.765  11.378  67.399  1.00  0.00    -0.094 C  
ATOM      8  H   GLY A   1      -5.564  12.463  66.294  1.00  0.00     0.000 HD 
ATOM      9  O   GLY A   1      -6.005  12.554  67.130  1.00  0.00    -0.243 OA 
ENDBRANCH   5   7
BRANCH   6  10
HETATM   10  C   UNL     1     -10.148   6.180  69.361  1.00  0.00    -0.230 C  
BRANCH  10  11
HETATM   11  C   UNL     1     -11.005   5.796  70.570  1.00  0.00    -0.320 C  
BRANCH  11  12
HETATM   12  C   UNL     1     -11.847   6.997  71.009  1.00  0.00    -0.395 C  
BRANCH  12  13
HETATM   13  C   UNL     1     -11.099   7.906  71.983  1.00  0.00    -0.332 C  
BRANCH  13  14
HETATM   14  C   UNL     1     -11.287   9.397  71.674  1.00  0.00    -0.452 C  
BRANCH  14  15
HETATM   15  C   UNL     1     -10.853   9.840  70.271  1.00  0.00    -0.356 C  
BRANCH  15  16
HETATM   16  C   UNL     1     -11.534  11.087  69.779  1.00  0.00    -0.387 C  
HETATM   17  C   UNL     1     -11.729  11.387  68.485  1.00  0.00    -0.386 C  
BRANCH  17  18
HETATM   18  C   UNL     1     -11.270  10.560  67.320  1.00  0.00    -0.202 C  
BRANCH  18  19
HETATM   19  C   UNL     1     -10.326  11.339  66.407  1.00  0.00    -0.291 C  
BRANCH  19  20
HETATM   20  C   UNL     1     -11.018  11.657  65.082  1.00  0.00    -0.326 C  
BRANCH  20  21
HETATM   21  C   UNL     1     -12.194  12.608  65.282  1.00  0.00    -0.532 C  
BRANCH  21  22
HETATM   22  C   UNL     1     -11.718  14.052  65.416  1.00  0.00    -0.344 C  
BRANCH  22  23
HETATM   23  C   UNL     1     -11.962  14.574  66.830  1.00  0.00    -0.364 C  
BRANCH  23  24
HETATM   24  C   UNL     1     -10.665  14.665  67.628  1.00  0.00    -0.271 C  
HETATM   25  C   UNL     1     -10.872  15.375  68.947  1.00  0.00    -0.251 C  
HETATM   26  O   UNL     1      -9.730  15.445  69.670  1.00  0.00    -0.266 OA 
HETATM   27  O   UNL     1     -11.925  15.837  69.345  1.00  0.00    -0.370 OA 
ENDBRANCH  23  24
ENDBRANCH  22  23
ENDBRANCH  21  22
ENDBRANCH  20  21
ENDBRANCH  19  20
ENDBRANCH  18  19
ENDBRANCH  17  18
ENDBRANCH  15  16
ENDBRANCH  14  15
ENDBRANCH  13  14
ENDBRANCH  12  13
ENDBRANCH  11  12
ENDBRANCH  10  11
ENDBRANCH   6  10
TORSDOF 15
ENDMDL
MODEL      177
REMARK 921   NORMALIZED FREE ENERGY PREDICTED BY IDOCK:   -4.12 KCAL/MOL
REMARK 922        TOTAL FREE ENERGY PREDICTED BY IDOCK:   -9.68 KCAL/MOL
REMARK 923 INTER-LIGAND FREE ENERGY PREDICTED BY IDOCK:   -7.26 KCAL/MOL
REMARK 924 INTRA-LIGAND FREE ENERGY PREDICTED BY IDOCK:   -2.42 KCAL/MOL
REMARK 927      BINDING AFFINITY PREDICTED BY RF-SCORE:    0.00 PKD
ROOT
ATOM      1  N   GLY A   1     -11.672  16.377  63.824  1.00  0.00    -1.498 NA 
HETATM    2  C   UNL     1      -6.609  13.810  67.848  1.00  0.00    -0.164 C  
ATOM      3  H2  GLY A   1     -10.963  16.766  63.203  1.00  0.00     0.000 HD 
ATOM      4  H1  GLY A   1     -12.083  15.524  63.445  1.00  0.00     0.000 HD 
ATOM      5  CA  GLY A   1     -11.145  16.130  65.172  1.00  0.00    -0.249 C  
HETATM    6  C   UNL     1      -6.998  12.396  67.447  1.00  0.00    -0.149 C  
ENDROOT
BRANCH   5   7
ATOM      7  C   GLY A   1     -10.527  17.411  65.741  1.00  0.00    -0.215 C  
ATOM      8  H   GLY A   1      -9.241  17.872  67.146  1.00  0.00     0.000 HD 
ATOM      9  O   GLY A   1      -9.624  17.078  66.793  1.00  0.00    -0.245 OA 
ENDBRANCH   5   7
BRANCH   6  10
HETATM   10  C   UNL     1      -8.209  11.853  68.204  1.00  0.00    -0.158 C  
BRANCH  10  11
HETATM   11  C   UNL     1      -7.892  10.715  69.177  1.00  0.00    -0.142 C  
BRANCH  11  12
HETATM   12  C   UNL     1      -9.193  10.056  69.643  1.00  0.00    -0.236 C  
BRANCH  12  13
HETATM   13  C   UNL     1      -8.943   8.762  70.416  1.00  0.00    -0.188 C  
BRANCH  13  14
HETATM   14  C   UNL     1      -9.403   7.511  69.653  1.00  0.00    -0.153 C  
BRANCH  14  15
HETATM   15  C   UNL     1      -8.400   6.955  68.635  1.00  0.00    -0.121 C  
BRANCH  15  16
HETATM   16  C   UNL     1      -9.030   6.395  67.389  1.00  0.00    -0.109 C  
HETATM   17  C   UNL     1      -9.143   7.061  66.229  1.00  0.00    -0.178 C  
BRANCH  17  18
HETATM   18  C   UNL     1      -8.702   8.475  65.989  1.00  0.00    -0.188 C  
BRANCH  18  19
HETATM   19  C   UNL     1      -9.883   9.443  65.977  1.00  0.00    -0.366 C  
BRANCH  19  20
HETATM   20  C   UNL     1      -9.746  10.427  64.816  1.00  0.00    -0.383 C  
BRANCH  20  21
HETATM   21  C   UNL     1     -10.072  11.852  65.252  1.00  0.00    -0.290 C  
BRANCH  21  22
HETATM   22  C   UNL     1     -11.480  12.252  64.821  1.00  0.00    -0.382 C  
BRANCH  22  23
HETATM   23  C   UNL     1     -12.204  12.986  65.948  1.00  0.00    -0.493 C  
BRANCH  23  24
HETATM   24  C   UNL     1     -11.775  12.474  67.320  1.00  0.00    -0.431 C  
HETATM   25  C   UNL     1     -11.676  13.597  68.327  1.00  0.00    -0.363 C  
HETATM   26  O   UNL     1     -11.315  13.150  69.552  1.00  0.00    -0.234 OA 
HETATM   27  O   UNL     1     -11.893  14.772  68.100  1.00  0.00    -0.326 OA 
ENDBRANCH  23  24
ENDBRANCH  22  23
ENDBRANCH  21  22
ENDBRANCH  20  21
ENDBRANCH  19  20
ENDBRANCH  18  19
ENDBRANCH  17  18
ENDBRANCH  15  16
ENDBRANCH  14  15
ENDBRANCH  13  14
ENDBRANCH  12  13
ENDBRANCH  11  12
ENDBRANCH  10  11
ENDBRANCH   6  10
TORSDOF 15
ENDMDL
MODEL      178
REMARK 921   NORMALIZED FREE ENERGY PREDICTED BY IDOCK:   -4.12 KCAL/MOL
REMARK 922        TOTAL FREE ENERGY PREDICTED BY IDOCK:   -9.67 KCAL/MOL
REMARK 923 INTER-LIGAND FREE ENERGY PREDICTED BY IDOCK:   -7.25 KCAL/MOL
REMARK 924 INTRA-LIGAND FREE ENERGY PREDICTED BY IDOCK:   -2.42 KCAL/MOL
REMARK 927      BINDING AFFINITY PREDICTED BY RF-SCORE:    0.00 PKD
ROOT
ATOM      1  N   GLY A   1     -12.020  12.284  63.265  1.00  0.00    -0.733 NA 
HETATM    2  C   UNL     1      -7.074  11.759  68.131  1.00  0.00    -0.079 C  
ATOM      3  H2  GLY A   1     -12.572  11.590  63.770  1.00  0.00     0.000 HD 
ATOM      4  H1  GLY A   1     -12.362  13.231  63.423  1.00  0.00     0.000 HD 
ATOM      5  CA  GLY A   1     -10.592  12.197  63.599  1.00  0.00    -0.461 C  
HETATM    6  C   UNL     1      -7.375  13.174  68.600  1.00  0.00    -0.102 C  
ENDROOT
BRANCH   5   7
ATOM      7  C   GLY A   1     -10.078  10.773  63.361  1.00  0.00    -0.284 C  
ATOM      8  H   GLY A   1      -8.356   9.844  63.455  1.00  0.00     0.000 HD 
ATOM      9  O   GLY A   1      -8.674  10.727  63.602  1.00  0.00    -0.166 OA 
ENDBRANCH   5   7
BRANCH   6  10
HETATM   10  C   UNL     1      -6.744  14.258  67.727  1.00  0.00    -0.190 C  
BRANCH  10  11
HETATM   11  C   UNL     1      -7.142  15.687  68.104  1.00  0.00    -0.125 C  
BRANCH  11  12
HETATM   12  C   UNL     1      -6.908  16.620  66.913  1.00  0.00    -0.253 C  
BRANCH  12  13
HETATM   13  C   UNL     1      -5.970  17.776  67.256  1.00  0.00    -0.157 C  
BRANCH  13  14
HETATM   14  C   UNL     1      -6.239  18.372  68.644  1.00  0.00    -0.210 C  
BRANCH  14  15
HETATM   15  C   UNL     1      -7.376  19.400  68.711  1.00  0.00    -0.390 C  
BRANCH  15  16
HETATM   16  C   UNL     1      -7.691  20.059  67.396  1.00  0.00    -0.330 C  
HETATM   17  C   UNL     1      -8.879  19.991  66.776  1.00  0.00    -0.427 C  
BRANCH  17  18
HETATM   18  C   UNL     1     -10.073  19.221  67.262  1.00  0.00    -0.481 C  
BRANCH  18  19
HETATM   19  C   UNL     1     -10.077  17.789  66.734  1.00  0.00    -0.349 C  
BRANCH  19  20
HETATM   20  C   UNL     1     -10.989  16.914  67.594  1.00  0.00    -0.165 C  
BRANCH  20  21
HETATM   21  C   UNL     1     -10.604  16.991  69.068  1.00  0.00    -0.314 C  
BRANCH  21  22
HETATM   22  C   UNL     1     -11.016  15.724  69.813  1.00  0.00    -0.316 C  
BRANCH  22  23
HETATM   23  C   UNL     1     -10.421  14.486  69.145  1.00  0.00    -0.224 C  
BRANCH  23  24
HETATM   24  C   UNL     1     -11.506  13.573  68.582  1.00  0.00    -0.343 C  
HETATM   25  C   UNL     1     -11.161  13.089  67.193  1.00  0.00    -0.273 C  
HETATM   26  O   UNL     1     -12.109  12.263  66.692  1.00  0.00    -0.612 OA 
HETATM   27  O   UNL     1     -10.157  13.382  66.570  1.00  0.00    -0.267 OA 
ENDBRANCH  23  24
ENDBRANCH  22  23
ENDBRANCH  21  22
ENDBRANCH  20  21
ENDBRANCH  19  20
ENDBRANCH  18  19
ENDBRANCH  17  18
ENDBRANCH  15  16
ENDBRANCH  14  15
ENDBRANCH  13  14
ENDBRANCH  12  13
ENDBRANCH  11  12
ENDBRANCH  10  11
ENDBRANCH   6  10
TORSDOF 15
ENDMDL
MODEL      179
REMARK 921   NORMALIZED FREE ENERGY PREDICTED BY IDOCK:   -4.12 KCAL/MOL
REMARK 922        TOTAL FREE ENERGY PREDICTED BY IDOCK:   -9.67 KCAL/MOL
REMARK 923 INTER-LIGAND FREE ENERGY PREDICTED BY IDOCK:   -7.73 KCAL/MOL
REMARK 924 INTRA-LIGAND FREE ENERGY PREDICTED BY IDOCK:   -1.94 KCAL/MOL
REMARK 927      BINDING AFFINITY PREDICTED BY RF-SCORE:    0.00 PKD
ROOT
ATOM      1  N   GLY A   1     -10.842  11.174  62.955  1.00  0.00    -0.822 NA 
HETATM    2  C   UNL     1     -11.566  15.379  68.451  1.00  0.00    -0.368 C  
ATOM      3  H2  GLY A   1     -10.097  11.777  62.608  1.00  0.00     0.000 HD 
ATOM      4  H1  GLY A   1     -10.474  10.329  63.392  1.00  0.00     0.000 HD 
ATOM      5  CA  GLY A   1     -11.732  11.881  63.886  1.00  0.00    -0.415 C  
HETATM    6  C   UNL     1     -11.031  14.288  69.366  1.00  0.00    -0.242 C  
ENDROOT
BRANCH   5   7
ATOM      7  C   GLY A   1     -12.284  13.149  63.230  1.00  0.00    -0.360 C  
ATOM      8  H   GLY A   1     -12.917  14.905  63.828  1.00  0.00     0.000 HD 
ATOM      9  O   GLY A   1     -12.575  14.118  64.234  1.00  0.00    -0.676 OA 
ENDBRANCH   5   7
BRANCH   6  10
HETATM   10  C   UNL     1     -12.069  13.228  69.731  1.00  0.00    -0.355 C  
BRANCH  10  11
HETATM   11  C   UNL     1     -11.587  11.785  69.567  1.00  0.00    -0.398 C  
BRANCH  11  12
HETATM   12  C   UNL     1     -11.031  11.583  68.155  1.00  0.00    -0.279 C  
BRANCH  12  13
HETATM   13  C   UNL     1     -11.027  10.113  67.738  1.00  0.00    -0.338 C  
BRANCH  13  14
HETATM   14  C   UNL     1     -10.208   9.855  66.465  1.00  0.00    -0.292 C  
BRANCH  14  15
HETATM   15  C   UNL     1      -8.810  10.486  66.442  1.00  0.00    -0.165 C  
BRANCH  15  16
HETATM   16  C   UNL     1      -7.692   9.522  66.733  1.00  0.00    -0.098 C  
HETATM   17  C   UNL     1      -6.952   9.531  67.853  1.00  0.00    -0.079 C  
BRANCH  17  18
HETATM   18  C   UNL     1      -7.082  10.518  68.976  1.00  0.00    -0.081 C  
BRANCH  18  19
HETATM   19  C   UNL     1      -7.379   9.828  70.306  1.00  0.00    -0.165 C  
BRANCH  19  20
HETATM   20  C   UNL     1      -8.859   9.455  70.386  1.00  0.00    -0.290 C  
BRANCH  20  21
HETATM   21  C   UNL     1      -9.152   8.608  71.621  1.00  0.00    -0.318 C  
BRANCH  21  22
HETATM   22  C   UNL     1      -9.644   7.217  71.232  1.00  0.00    -0.163 C  
BRANCH  22  23
HETATM   23  C   UNL     1     -10.903   6.849  72.012  1.00  0.00    -0.255 C  
BRANCH  23  24
HETATM   24  C   UNL     1     -11.635   8.089  72.518  1.00  0.00    -0.464 C  
HETATM   25  C   UNL     1     -13.048   8.156  71.987  1.00  0.00    -0.293 C  
HETATM   26  O   UNL     1     -13.712   9.243  72.445  1.00  0.00    -0.465 OA 
HETATM   27  O   UNL     1     -13.563   7.346  71.240  1.00  0.00    -0.355 OA 
ENDBRANCH  23  24
ENDBRANCH  22  23
ENDBRANCH  21  22
ENDBRANCH  20  21
ENDBRANCH  19  20
ENDBRANCH  18  19
ENDBRANCH  17  18
ENDBRANCH  15  16
ENDBRANCH  14  15
ENDBRANCH  13  14
ENDBRANCH  12  13
ENDBRANCH  11  12
ENDBRANCH  10  11
ENDBRANCH   6  10
TORSDOF 15
ENDMDL
MODEL      180
REMARK 921   NORMALIZED FREE ENERGY PREDICTED BY IDOCK:   -4.12 KCAL/MOL
REMARK 922        TOTAL FREE ENERGY PREDICTED BY IDOCK:   -9.67 KCAL/MOL
REMARK 923 INTER-LIGAND FREE ENERGY PREDICTED BY IDOCK:   -8.35 KCAL/MOL
REMARK 924 INTRA-LIGAND FREE ENERGY PREDICTED BY IDOCK:   -1.32 KCAL/MOL
REMARK 927      BINDING AFFINITY PREDICTED BY RF-SCORE:    0.00 PKD
ROOT
ATOM      1  N   GLY A   1      -5.858  10.498  64.823  1.00  0.00    -0.261 NA 
HETATM    2  C   UNL     1     -12.494  12.151  63.543  1.00  0.00    -0.666 C  
ATOM      3  H2  GLY A   1      -5.673  10.516  63.820  1.00  0.00     0.000 HD 
ATOM      4  H1  GLY A   1      -5.523  11.342  65.286  1.00  0.00     0.000 HD 
ATOM      5  CA  GLY A   1      -7.282  10.288  65.115  1.00  0.00    -0.125 C  
HETATM    6  C   UNL     1     -12.285  13.515  64.181  1.00  0.00    -0.449 C  
ENDROOT
BRANCH   5   7
ATOM      7  C   GLY A   1      -7.785   9.020  64.419  1.00  0.00    -0.118 C  
ATOM      8  H   GLY A   1      -7.009   7.589  63.329  1.00  0.00     0.000 HD 
ATOM      9  O   GLY A   1      -6.697   8.375  63.761  1.00  0.00    -0.075 OA 
ENDBRANCH   5   7
BRANCH   6  10
HETATM   10  C   UNL     1     -12.330  13.492  65.708  1.00  0.00    -0.516 C  
BRANCH  10  11
HETATM   11  C   UNL     1     -11.016  13.080  66.375  1.00  0.00    -0.301 C  
BRANCH  11  12
HETATM   12  C   UNL     1      -9.983  14.200  66.220  1.00  0.00    -0.315 C  
BRANCH  12  13
HETATM   13  C   UNL     1     -10.485  15.532  66.775  1.00  0.00    -0.295 C  
BRANCH  13  14
HETATM   14  C   UNL     1     -10.432  15.600  68.307  1.00  0.00    -0.252 C  
BRANCH  14  15
HETATM   15  C   UNL     1     -11.767  15.898  69.000  1.00  0.00    -0.377 C  
BRANCH  15  16
HETATM   16  C   UNL     1     -11.691  15.926  70.502  1.00  0.00    -0.394 C  
HETATM   17  C   UNL     1     -12.037  14.904  71.301  1.00  0.00    -0.385 C  
BRANCH  17  18
HETATM   18  C   UNL     1     -12.591  13.587  70.841  1.00  0.00    -0.414 C  
BRANCH  18  19
HETATM   19  C   UNL     1     -13.297  12.843  71.971  1.00  0.00    -0.579 C  
BRANCH  19  20
HETATM   20  C   UNL     1     -13.104  11.335  71.810  1.00  0.00    -0.527 C  
BRANCH  20  21
HETATM   21  C   UNL     1     -12.377  11.004  70.510  1.00  0.00    -0.462 C  
BRANCH  21  22
HETATM   22  C   UNL     1     -11.192  10.076  70.761  1.00  0.00    -0.428 C  
BRANCH  22  23
HETATM   23  C   UNL     1     -11.570   8.969  71.743  1.00  0.00    -0.444 C  
BRANCH  23  24
HETATM   24  C   UNL     1     -11.863   7.655  71.025  1.00  0.00    -0.306 C  
HETATM   25  C   UNL     1     -10.640   6.767  70.968  1.00  0.00    -0.222 C  
HETATM   26  O   UNL     1     -10.895   5.591  70.349  1.00  0.00    -0.277 OA 
HETATM   27  O   UNL     1      -9.544   7.042  71.419  1.00  0.00    -0.163 OA 
ENDBRANCH  23  24
ENDBRANCH  22  23
ENDBRANCH  21  22
ENDBRANCH  20  21
ENDBRANCH  19  20
ENDBRANCH  18  19
ENDBRANCH  17  18
ENDBRANCH  15  16
ENDBRANCH  14  15
ENDBRANCH  13  14
ENDBRANCH  12  13
ENDBRANCH  11  12
ENDBRANCH  10  11
ENDBRANCH   6  10
TORSDOF 15
ENDMDL
MODEL      181
REMARK 921   NORMALIZED FREE ENERGY PREDICTED BY IDOCK:   -4.11 KCAL/MOL
REMARK 922        TOTAL FREE ENERGY PREDICTED BY IDOCK:   -9.67 KCAL/MOL
REMARK 923 INTER-LIGAND FREE ENERGY PREDICTED BY IDOCK:   -7.93 KCAL/MOL
REMARK 924 INTRA-LIGAND FREE ENERGY PREDICTED BY IDOCK:   -1.74 KCAL/MOL
REMARK 927      BINDING AFFINITY PREDICTED BY RF-SCORE:    0.00 PKD
ROOT
ATOM      1  N   GLY A   1      -9.904   3.511  66.483  1.00  0.00    -0.411 NA 
HETATM    2  C   UNL     1      -8.172   9.244  62.940  1.00  0.00    -0.175 C  
ATOM      3  H2  GLY A   1      -8.947   3.174  66.380  1.00  0.00     0.000 HD 
ATOM      4  H1  GLY A   1     -10.075   3.891  67.414  1.00  0.00     0.000 HD 
ATOM      5  CA  GLY A   1     -10.249   4.505  65.458  1.00  0.00    -0.231 C  
HETATM    6  C   UNL     1      -8.344  10.082  64.197  1.00  0.00    -0.167 C  
ENDROOT
BRANCH   5   7
ATOM      7  C   GLY A   1      -9.991   3.935  64.060  1.00  0.00    -0.186 C  
ATOM      8  H   GLY A   1     -10.949   2.796  62.785  1.00  0.00     0.000 HD 
ATOM      9  O   GLY A   1     -11.109   3.150  63.652  1.00  0.00    -0.289 OA 
ENDBRANCH   5   7
BRANCH   6  10
HETATM   10  C   UNL     1      -9.800  10.422  64.515  1.00  0.00    -0.405 C  
BRANCH  10  11
HETATM   11  C   UNL     1     -10.459  11.379  63.519  1.00  0.00    -0.477 C  
BRANCH  11  12
HETATM   12  C   UNL     1     -11.781  11.894  64.095  1.00  0.00    -0.428 C  
BRANCH  12  13
HETATM   13  C   UNL     1     -11.938  13.405  63.927  1.00  0.00    -0.520 C  
BRANCH  13  14
HETATM   14  C   UNL     1     -12.187  14.132  65.255  1.00  0.00    -0.440 C  
BRANCH  14  15
HETATM   15  C   UNL     1     -11.210  13.791  66.387  1.00  0.00    -0.321 C  
BRANCH  15  16
HETATM   16  C   UNL     1     -11.870  13.492  67.705  1.00  0.00    -0.399 C  
HETATM   17  C   UNL     1     -11.722  12.346  68.387  1.00  0.00    -0.386 C  
BRANCH  17  18
HETATM   18  C   UNL     1     -10.916  11.163  67.939  1.00  0.00    -0.307 C  
BRANCH  18  19
HETATM   19  C   UNL     1      -9.575  11.082  68.665  1.00  0.00    -0.198 C  
BRANCH  19  20
HETATM   20  C   UNL     1      -9.166   9.622  68.856  1.00  0.00    -0.147 C  
BRANCH  20  21
HETATM   21  C   UNL     1      -8.867   9.315  70.320  1.00  0.00    -0.254 C  
BRANCH  21  22
HETATM   22  C   UNL     1     -10.128   9.418  71.174  1.00  0.00    -0.335 C  
BRANCH  22  23
HETATM   23  C   UNL     1     -11.188   8.430  70.694  1.00  0.00    -0.275 C  
BRANCH  23  24
HETATM   24  C   UNL     1     -12.215   8.132  71.783  1.00  0.00    -0.358 C  
HETATM   25  C   UNL     1     -13.438   9.011  71.650  1.00  0.00    -0.386 C  
HETATM   26  O   UNL     1     -14.363   8.741  72.601  1.00  0.00    -0.585 OA 
HETATM   27  O   UNL     1     -13.607   9.865  70.800  1.00  0.00    -0.249 OA 
ENDBRANCH  23  24
ENDBRANCH  22  23
ENDBRANCH  21  22
ENDBRANCH  20  21
ENDBRANCH  19  20
ENDBRANCH  18  19
ENDBRANCH  17  18
ENDBRANCH  15  16
ENDBRANCH  14  15
ENDBRANCH  13  14
ENDBRANCH  12  13
ENDBRANCH  11  12
ENDBRANCH  10  11
ENDBRANCH   6  10
TORSDOF 15
ENDMDL
MODEL      182
REMARK 921   NORMALIZED FREE ENERGY PREDICTED BY IDOCK:   -4.11 KCAL/MOL
REMARK 922        TOTAL FREE ENERGY PREDICTED BY IDOCK:   -9.67 KCAL/MOL
REMARK 923 INTER-LIGAND FREE ENERGY PREDICTED BY IDOCK:   -7.11 KCAL/MOL
REMARK 924 INTRA-LIGAND FREE ENERGY PREDICTED BY IDOCK:   -2.56 KCAL/MOL
REMARK 927      BINDING AFFINITY PREDICTED BY RF-SCORE:    0.00 PKD
ROOT
ATOM      1  N   GLY A   1      -9.958  20.291  65.854  1.00  0.00    -0.612 NA 
HETATM    2  C   UNL     1      -9.801  13.411  66.877  1.00  0.00    -0.256 C  
ATOM      3  H2  GLY A   1      -9.561  20.150  64.926  1.00  0.00     0.000 HD 
ATOM      4  H1  GLY A   1     -10.961  20.469  65.816  1.00  0.00     0.000 HD 
ATOM      5  CA  GLY A   1      -9.676  19.162  66.750  1.00  0.00    -0.338 C  
HETATM    6  C   UNL     1     -11.320  13.365  66.856  1.00  0.00    -0.351 C  
ENDROOT
BRANCH   5   7
ATOM      7  C   GLY A   1      -8.169  18.896  66.808  1.00  0.00    -0.279 C  
ATOM      8  H   GLY A   1      -6.651  19.014  65.574  1.00  0.00     0.000 HD 
ATOM      9  O   GLY A   1      -7.586  19.180  65.539  1.00  0.00    -0.452 OA 
ENDBRANCH   5   7
BRANCH   6  10
HETATM   10  C   UNL     1     -11.967  13.793  68.173  1.00  0.00    -0.394 C  
BRANCH  10  11
HETATM   11  C   UNL     1     -11.451  13.045  69.405  1.00  0.00    -0.323 C  
BRANCH  11  12
HETATM   12  C   UNL     1     -12.129  11.675  69.499  1.00  0.00    -0.336 C  
BRANCH  12  13
HETATM   13  C   UNL     1     -11.168  10.583  69.965  1.00  0.00    -0.386 C  
BRANCH  13  14
HETATM   14  C   UNL     1     -10.213  10.114  68.859  1.00  0.00    -0.213 C  
BRANCH  14  15
HETATM   15  C   UNL     1     -10.885   9.671  67.553  1.00  0.00    -0.265 C  
BRANCH  15  16
HETATM   16  C   UNL     1      -9.953   9.594  66.374  1.00  0.00    -0.323 C  
HETATM   17  C   UNL     1      -9.377   8.466  65.932  1.00  0.00    -0.205 C  
BRANCH  17  18
HETATM   18  C   UNL     1      -9.528   7.108  66.555  1.00  0.00    -0.208 C  
BRANCH  18  19
HETATM   19  C   UNL     1      -8.249   6.664  67.261  1.00  0.00    -0.121 C  
BRANCH  19  20
HETATM   20  C   UNL     1      -8.570   5.594  68.305  1.00  0.00    -0.107 C  
BRANCH  20  21
HETATM   21  C   UNL     1      -9.701   6.039  69.227  1.00  0.00    -0.174 C  
BRANCH  21  22
HETATM   22  C   UNL     1      -9.191   6.990  70.306  1.00  0.00    -0.156 C  
BRANCH  22  23
HETATM   23  C   UNL     1     -10.291   7.298  71.320  1.00  0.00    -0.204 C  
BRANCH  23  24
HETATM   24  C   UNL     1     -11.669   6.917  70.790  1.00  0.00    -0.417 C  
HETATM   25  C   UNL     1     -12.773   7.591  71.574  1.00  0.00    -0.359 C  
HETATM   26  O   UNL     1     -14.000   7.274  71.098  1.00  0.00    -0.325 OA 
HETATM   27  O   UNL     1     -12.614   8.338  72.521  1.00  0.00    -0.310 OA 
ENDBRANCH  23  24
ENDBRANCH  22  23
ENDBRANCH  21  22
ENDBRANCH  20  21
ENDBRANCH  19  20
ENDBRANCH  18  19
ENDBRANCH  17  18
ENDBRANCH  15  16
ENDBRANCH  14  15
ENDBRANCH  13  14
ENDBRANCH  12  13
ENDBRANCH  11  12
ENDBRANCH  10  11
ENDBRANCH   6  10
TORSDOF 15
ENDMDL
MODEL      183
REMARK 921   NORMALIZED FREE ENERGY PREDICTED BY IDOCK:   -4.11 KCAL/MOL
REMARK 922        TOTAL FREE ENERGY PREDICTED BY IDOCK:   -9.66 KCAL/MOL
REMARK 923 INTER-LIGAND FREE ENERGY PREDICTED BY IDOCK:   -7.83 KCAL/MOL
REMARK 924 INTRA-LIGAND FREE ENERGY PREDICTED BY IDOCK:   -1.84 KCAL/MOL
REMARK 927      BINDING AFFINITY PREDICTED BY RF-SCORE:    0.00 PKD
ROOT
ATOM      1  N   GLY A   1     -10.674   5.538  69.697  1.00  0.00    -0.321 NA 
HETATM    2  C   UNL     1      -8.577  11.145  66.151  1.00  0.00    -0.172 C  
ATOM      3  H2  GLY A   1      -9.748   5.130  69.574  1.00  0.00     0.000 HD 
ATOM      4  H1  GLY A   1     -10.800   5.924  70.633  1.00  0.00     0.000 HD 
ATOM      5  CA  GLY A   1     -10.962   6.562  68.683  1.00  0.00    -0.293 C  
HETATM    6  C   UNL     1      -8.662  11.986  67.415  1.00  0.00    -0.170 C  
ENDROOT
BRANCH   5   7
ATOM      7  C   GLY A   1     -10.773   5.982  67.278  1.00  0.00    -0.318 C  
ATOM      8  H   GLY A   1      -9.666   6.375  65.709  1.00  0.00     0.000 HD 
ATOM      9  O   GLY A   1      -9.783   6.734  66.581  1.00  0.00    -0.171 OA 
ENDBRANCH   5   7
BRANCH   6  10
HETATM   10  C   UNL     1     -10.082  12.433  67.760  1.00  0.00    -0.203 C  
BRANCH  10  11
HETATM   11  C   UNL     1     -11.185  11.522  67.216  1.00  0.00    -0.365 C  
BRANCH  11  12
HETATM   12  C   UNL     1     -11.468  10.399  68.217  1.00  0.00    -0.218 C  
BRANCH  12  13
HETATM   13  C   UNL     1     -11.392  10.879  69.665  1.00  0.00    -0.362 C  
BRANCH  13  14
HETATM   14  C   UNL     1     -12.748  10.830  70.383  1.00  0.00    -0.346 C  
BRANCH  14  15
HETATM   15  C   UNL     1     -12.733  11.280  71.849  1.00  0.00    -0.278 C  
BRANCH  15  16
HETATM   16  C   UNL     1     -13.785  12.300  72.193  1.00  0.00    -0.207 C  
HETATM   17  C   UNL     1     -13.612  13.628  72.112  1.00  0.00    -0.632 C  
BRANCH  17  18
HETATM   18  C   UNL     1     -12.342  14.319  71.711  1.00  0.00    -0.362 C  
BRANCH  18  19
HETATM   19  C   UNL     1     -12.247  14.498  70.197  1.00  0.00    -0.399 C  
BRANCH  19  20
HETATM   20  C   UNL     1     -11.471  15.772  69.865  1.00  0.00    -0.347 C  
BRANCH  20  21
HETATM   21  C   UNL     1      -9.994  15.476  69.624  1.00  0.00    -0.287 C  
BRANCH  21  22
HETATM   22  C   UNL     1      -9.519  16.079  68.305  1.00  0.00    -0.206 C  
BRANCH  22  23
HETATM   23  C   UNL     1     -10.697  16.637  67.509  1.00  0.00    -0.278 C  
BRANCH  23  24
HETATM   24  C   UNL     1     -10.526  18.124  67.217  1.00  0.00    -0.407 C  
HETATM   25  C   UNL     1     -10.709  18.427  65.747  1.00  0.00    -0.131 C  
HETATM   26  O   UNL     1     -10.578  19.748  65.481  1.00  0.00    -0.468 OA 
HETATM   27  O   UNL     1     -10.952  17.609  64.880  1.00  0.00    -0.886 OA 
ENDBRANCH  23  24
ENDBRANCH  22  23
ENDBRANCH  21  22
ENDBRANCH  20  21
ENDBRANCH  19  20
ENDBRANCH  18  19
ENDBRANCH  17  18
ENDBRANCH  15  16
ENDBRANCH  14  15
ENDBRANCH  13  14
ENDBRANCH  12  13
ENDBRANCH  11  12
ENDBRANCH  10  11
ENDBRANCH   6  10
TORSDOF 15
ENDMDL
MODEL      184
REMARK 921   NORMALIZED FREE ENERGY PREDICTED BY IDOCK:   -4.11 KCAL/MOL
REMARK 922        TOTAL FREE ENERGY PREDICTED BY IDOCK:   -9.66 KCAL/MOL
REMARK 923 INTER-LIGAND FREE ENERGY PREDICTED BY IDOCK:   -7.63 KCAL/MOL
REMARK 924 INTRA-LIGAND FREE ENERGY PREDICTED BY IDOCK:   -2.03 KCAL/MOL
REMARK 927      BINDING AFFINITY PREDICTED BY RF-SCORE:    0.00 PKD
ROOT
ATOM      1  N   GLY A   1      -8.517   8.226  73.649  1.00  0.00    -0.307 NA 
HETATM    2  C   UNL     1     -11.015   6.573  67.370  1.00  0.00    -0.458 C  
ATOM      3  H2  GLY A   1      -8.342   7.237  73.826  1.00  0.00     0.000 HD 
ATOM      4  H1  GLY A   1      -7.663   8.726  73.404  1.00  0.00     0.000 HD 
ATOM      5  CA  GLY A   1      -9.538   8.426  72.613  1.00  0.00    -0.267 C  
HETATM    6  C   UNL     1      -9.824   7.249  66.709  1.00  0.00    -0.281 C  
ENDROOT
BRANCH   5   7
ATOM      7  C   GLY A   1     -10.821   7.676  72.982  1.00  0.00    -0.400 C  
ATOM      8  H   GLY A   1     -12.747   8.039  72.948  1.00  0.00     0.000 HD 
ATOM      9  O   GLY A   1     -11.951   8.504  72.719  1.00  0.00    -0.335 OA 
ENDBRANCH   5   7
BRANCH   6  10
HETATM   10  C   UNL     1      -9.949   8.770  66.628  1.00  0.00    -0.355 C  
BRANCH  10  11
HETATM   11  C   UNL     1      -8.636   9.499  66.329  1.00  0.00    -0.141 C  
BRANCH  11  12
HETATM   12  C   UNL     1      -8.070  10.096  67.620  1.00  0.00    -0.109 C  
BRANCH  12  13
HETATM   13  C   UNL     1      -8.824  11.350  68.059  1.00  0.00    -0.155 C  
BRANCH  13  14
HETATM   14  C   UNL     1      -8.179  12.645  67.549  1.00  0.00    -0.178 C  
BRANCH  14  15
HETATM   15  C   UNL     1      -8.074  13.779  68.577  1.00  0.00    -0.128 C  
BRANCH  15  16
HETATM   16  C   UNL     1      -7.415  15.027  68.056  1.00  0.00    -0.130 C  
HETATM   17  C   UNL     1      -8.076  16.119  67.641  1.00  0.00    -0.163 C  
BRANCH  17  18
HETATM   18  C   UNL     1      -9.569  16.267  67.588  1.00  0.00    -0.227 C  
BRANCH  18  19
HETATM   19  C   UNL     1     -10.148  16.667  68.943  1.00  0.00    -0.274 C  
BRANCH  19  20
HETATM   20  C   UNL     1     -11.058  15.559  69.473  1.00  0.00    -0.286 C  
BRANCH  20  21
HETATM   21  C   UNL     1     -11.850  14.904  68.346  1.00  0.00    -0.309 C  
BRANCH  21  22
HETATM   22  C   UNL     1     -11.710  13.384  68.384  1.00  0.00    -0.390 C  
BRANCH  22  23
HETATM   23  C   UNL     1     -11.801  12.797  66.978  1.00  0.00    -0.428 C  
BRANCH  23  24
HETATM   24  C   UNL     1     -11.808  13.887  65.911  1.00  0.00    -0.399 C  
HETATM   25  C   UNL     1     -12.645  13.490  64.716  1.00  0.00    -0.301 C  
HETATM   26  O   UNL     1     -12.672  14.459  63.771  1.00  0.00    -0.785 OA 
HETATM   27  O   UNL     1     -13.241  12.438  64.587  1.00  0.00    -0.822 OA 
ENDBRANCH  23  24
ENDBRANCH  22  23
ENDBRANCH  21  22
ENDBRANCH  20  21
ENDBRANCH  19  20
ENDBRANCH  18  19
ENDBRANCH  17  18
ENDBRANCH  15  16
ENDBRANCH  14  15
ENDBRANCH  13  14
ENDBRANCH  12  13
ENDBRANCH  11  12
ENDBRANCH  10  11
ENDBRANCH   6  10
TORSDOF 15
ENDMDL
MODEL      185
REMARK 921   NORMALIZED FREE ENERGY PREDICTED BY IDOCK:   -4.11 KCAL/MOL
REMARK 922        TOTAL FREE ENERGY PREDICTED BY IDOCK:   -9.66 KCAL/MOL
REMARK 923 INTER-LIGAND FREE ENERGY PREDICTED BY IDOCK:   -7.58 KCAL/MOL
REMARK 924 INTRA-LIGAND FREE ENERGY PREDICTED BY IDOCK:   -2.08 KCAL/MOL
REMARK 927      BINDING AFFINITY PREDICTED BY RF-SCORE:    0.00 PKD
ROOT
ATOM      1  N   GLY A   1     -14.276  15.519  71.263  1.00  0.00    -0.741 NA 
HETATM    2  C   UNL     1      -9.824  16.822  66.077  1.00  0.00    -0.311 C  
ATOM      3  H2  GLY A   1     -14.432  16.521  71.363  1.00  0.00     0.000 HD 
ATOM      4  H1  GLY A   1     -15.040  15.062  70.766  1.00  0.00     0.000 HD 
ATOM      5  CA  GLY A   1     -12.996  15.226  70.605  1.00  0.00    -0.391 C  
HETATM    6  C   UNL     1     -10.788  16.195  65.082  1.00  0.00    -0.376 C  
ENDROOT
BRANCH   5   7
ATOM      7  C   GLY A   1     -11.848  15.912  71.352  1.00  0.00    -0.463 C  
ATOM      8  H   GLY A   1     -11.213  16.019  73.203  1.00  0.00     0.000 HD 
ATOM      9  O   GLY A   1     -11.925  15.594  72.739  1.00  0.00    -0.408 OA 
ENDBRANCH   5   7
BRANCH   6  10
HETATM   10  C   UNL     1     -10.745  14.668  65.062  1.00  0.00    -0.448 C  
BRANCH  10  11
HETATM   11  C   UNL     1     -12.088  13.998  64.763  1.00  0.00    -0.455 C  
BRANCH  11  12
HETATM   12  C   UNL     1     -12.016  13.274  63.416  1.00  0.00    -0.491 C  
BRANCH  12  13
HETATM   13  C   UNL     1     -11.885  11.761  63.577  1.00  0.00    -0.481 C  
BRANCH  13  14
HETATM   14  C   UNL     1     -10.431  11.275  63.496  1.00  0.00    -0.457 C  
BRANCH  14  15
HETATM   15  C   UNL     1      -9.943  10.453  64.696  1.00  0.00    -0.408 C  
BRANCH  15  16
HETATM   16  C   UNL     1     -10.731  10.676  65.958  1.00  0.00    -0.127 C  
HETATM   17  C   UNL     1     -10.307  11.410  67.000  1.00  0.00    -0.258 C  
BRANCH  17  18
HETATM   18  C   UNL     1      -8.974  12.092  67.101  1.00  0.00    -0.185 C  
BRANCH  18  19
HETATM   19  C   UNL     1      -8.056  11.398  68.105  1.00  0.00    -0.137 C  
BRANCH  19  20
HETATM   20  C   UNL     1      -7.327  10.234  67.435  1.00  0.00    -0.093 C  
BRANCH  20  21
HETATM   21  C   UNL     1      -7.992   8.900  67.760  1.00  0.00    -0.102 C  
BRANCH  21  22
HETATM   22  C   UNL     1      -8.139   8.038  66.509  1.00  0.00    -0.103 C  
BRANCH  22  23
HETATM   23  C   UNL     1      -8.657   6.648  66.868  1.00  0.00    -0.115 C  
BRANCH  23  24
HETATM   24  C   UNL     1      -9.194   6.597  68.295  1.00  0.00    -0.121 C  
HETATM   25  C   UNL     1     -10.689   6.375  68.319  1.00  0.00    -0.285 C  
HETATM   26  O   UNL     1     -11.173   6.310  69.582  1.00  0.00    -0.378 OA 
HETATM   27  O   UNL     1     -11.404   6.258  67.342  1.00  0.00    -0.247 OA 
ENDBRANCH  23  24
ENDBRANCH  22  23
ENDBRANCH  21  22
ENDBRANCH  20  21
ENDBRANCH  19  20
ENDBRANCH  18  19
ENDBRANCH  17  18
ENDBRANCH  15  16
ENDBRANCH  14  15
ENDBRANCH  13  14
ENDBRANCH  12  13
ENDBRANCH  11  12
ENDBRANCH  10  11
ENDBRANCH   6  10
TORSDOF 15
ENDMDL
MODEL      186
REMARK 921   NORMALIZED FREE ENERGY PREDICTED BY IDOCK:   -4.10 KCAL/MOL
REMARK 922        TOTAL FREE ENERGY PREDICTED BY IDOCK:   -9.65 KCAL/MOL
REMARK 923 INTER-LIGAND FREE ENERGY PREDICTED BY IDOCK:   -8.04 KCAL/MOL
REMARK 924 INTRA-LIGAND FREE ENERGY PREDICTED BY IDOCK:   -1.61 KCAL/MOL
REMARK 927      BINDING AFFINITY PREDICTED BY RF-SCORE:    0.00 PKD
ROOT
ATOM      1  N   GLY A   1      -9.218   9.204  65.866  1.00  0.00    -0.210 NA 
HETATM    2  C   UNL     1      -9.516   6.570  72.299  1.00  0.00    -0.144 C  
ATOM      3  H2  GLY A   1      -8.887   8.302  65.526  1.00  0.00     0.000 HD 
ATOM      4  H1  GLY A   1     -10.206   9.350  65.660  1.00  0.00     0.000 HD 
ATOM      5  CA  GLY A   1      -8.970   9.373  67.304  1.00  0.00    -0.130 C  
HETATM    6  C   UNL     1     -11.034   6.662  72.275  1.00  0.00    -0.278 C  
ENDROOT
BRANCH   5   7
ATOM      7  C   GLY A   1      -7.486   9.155  67.614  1.00  0.00    -0.084 C  
ATOM      8  H   GLY A   1      -5.893  10.275  67.829  1.00  0.00     0.000 HD 
ATOM      9  O   GLY A   1      -6.813  10.411  67.637  1.00  0.00    -0.073 OA 
ENDBRANCH   5   7
BRANCH   6  10
HETATM   10  C   UNL     1     -11.569   8.065  72.561  1.00  0.00    -0.464 C  
BRANCH  10  11
HETATM   11  C   UNL     1     -12.427   8.658  71.440  1.00  0.00    -0.337 C  
BRANCH  11  12
HETATM   12  C   UNL     1     -13.325   9.761  72.005  1.00  0.00    -0.547 C  
BRANCH  12  13
HETATM   13  C   UNL     1     -13.016  11.128  71.397  1.00  0.00    -0.506 C  
BRANCH  13  14
HETATM   14  C   UNL     1     -11.804  11.104  70.456  1.00  0.00    -0.448 C  
BRANCH  14  15
HETATM   15  C   UNL     1     -11.598  12.370  69.615  1.00  0.00    -0.330 C  
BRANCH  15  16
HETATM   16  C   UNL     1     -12.283  13.593  70.161  1.00  0.00    -0.413 C  
HETATM   17  C   UNL     1     -11.786  14.838  70.092  1.00  0.00    -0.360 C  
BRANCH  17  18
HETATM   18  C   UNL     1     -10.459  15.215  69.502  1.00  0.00    -0.268 C  
BRANCH  18  19
HETATM   19  C   UNL     1     -10.377  16.709  69.198  1.00  0.00    -0.326 C  
BRANCH  19  20
HETATM   20  C   UNL     1     -10.466  16.945  67.690  1.00  0.00    -0.332 C  
BRANCH  20  21
HETATM   21  C   UNL     1      -9.084  16.951  67.046  1.00  0.00    -0.240 C  
BRANCH  21  22
HETATM   22  C   UNL     1      -8.933  15.802  66.052  1.00  0.00    -0.322 C  
BRANCH  22  23
HETATM   23  C   UNL     1     -10.300  15.285  65.612  1.00  0.00    -0.389 C  
BRANCH  23  24
HETATM   24  C   UNL     1     -10.492  13.816  65.978  1.00  0.00    -0.297 C  
HETATM   25  C   UNL     1     -11.956  13.441  66.022  1.00  0.00    -0.415 C  
HETATM   26  O   UNL     1     -12.135  12.134  66.328  1.00  0.00    -0.626 OA 
HETATM   27  O   UNL     1     -12.887  14.194  65.808  1.00  0.00    -0.502 OA 
ENDBRANCH  23  24
ENDBRANCH  22  23
ENDBRANCH  21  22
ENDBRANCH  20  21
ENDBRANCH  19  20
ENDBRANCH  18  19
ENDBRANCH  17  18
ENDBRANCH  15  16
ENDBRANCH  14  15
ENDBRANCH  13  14
ENDBRANCH  12  13
ENDBRANCH  11  12
ENDBRANCH  10  11
ENDBRANCH   6  10
TORSDOF 15
ENDMDL
MODEL      187
REMARK 921   NORMALIZED FREE ENERGY PREDICTED BY IDOCK:   -4.10 KCAL/MOL
REMARK 922        TOTAL FREE ENERGY PREDICTED BY IDOCK:   -9.64 KCAL/MOL
REMARK 923 INTER-LIGAND FREE ENERGY PREDICTED BY IDOCK:   -7.57 KCAL/MOL
REMARK 924 INTRA-LIGAND FREE ENERGY PREDICTED BY IDOCK:   -2.07 KCAL/MOL
REMARK 927      BINDING AFFINITY PREDICTED BY RF-SCORE:    0.00 PKD
ROOT
ATOM      1  N   GLY A   1     -10.959   7.647  69.128  1.00  0.00    -0.429 NA 
HETATM    2  C   UNL     1     -12.719  13.015  65.066  1.00  0.00    -0.475 C  
ATOM      3  H2  GLY A   1     -11.941   7.528  69.374  1.00  0.00     0.000 HD 
ATOM      4  H1  GLY A   1     -10.653   6.961  68.438  1.00  0.00     0.000 HD 
ATOM      5  CA  GLY A   1     -10.673   9.007  68.652  1.00  0.00    -0.097 C  
HETATM    6  C   UNL     1     -12.344  12.213  63.830  1.00  0.00    -0.587 C  
ENDROOT
BRANCH   5   7
ATOM      7  C   GLY A   1     -11.132  10.038  69.688  1.00  0.00    -0.259 C  
ATOM      8  H   GLY A   1     -11.038  10.242  71.635  1.00  0.00     0.000 HD 
ATOM      9  O   GLY A   1     -10.753   9.604  70.992  1.00  0.00    -0.316 OA 
ENDBRANCH   5   7
BRANCH   6  10
HETATM   10  C   UNL     1     -10.842  12.179  63.552  1.00  0.00    -0.518 C  
BRANCH  10  11
HETATM   11  C   UNL     1     -10.000  11.584  64.683  1.00  0.00    -0.305 C  
BRANCH  11  12
HETATM   12  C   UNL     1      -9.417  10.239  64.241  1.00  0.00    -0.365 C  
BRANCH  12  13
HETATM   13  C   UNL     1      -9.099   9.327  65.424  1.00  0.00    -0.277 C  
BRANCH  13  14
HETATM   14  C   UNL     1      -7.646   9.451  65.902  1.00  0.00    -0.099 C  
BRANCH  14  15
HETATM   15  C   UNL     1      -7.435  10.313  67.153  1.00  0.00    -0.092 C  
BRANCH  15  16
HETATM   16  C   UNL     1      -7.233  11.776  66.868  1.00  0.00    -0.103 C  
HETATM   17  C   UNL     1      -7.922  12.768  67.454  1.00  0.00    -0.179 C  
BRANCH  17  18
HETATM   18  C   UNL     1      -9.028  12.588  68.453  1.00  0.00    -0.130 C  
BRANCH  18  19
HETATM   19  C   UNL     1     -10.325  13.247  67.988  1.00  0.00    -0.243 C  
BRANCH  19  20
HETATM   20  C   UNL     1     -10.045  14.665  67.489  1.00  0.00    -0.224 C  
BRANCH  20  21
HETATM   21  C   UNL     1     -10.580  15.711  68.462  1.00  0.00    -0.256 C  
BRANCH  21  22
HETATM   22  C   UNL     1     -11.772  15.175  69.250  1.00  0.00    -0.352 C  
BRANCH  22  23
HETATM   23  C   UNL     1     -11.506  15.250  70.751  1.00  0.00    -0.361 C  
BRANCH  23  24
HETATM   24  C   UNL     1     -12.798  15.166  71.557  1.00  0.00    -0.442 C  
HETATM   25  C   UNL     1     -13.240  13.734  71.754  1.00  0.00    -0.386 C  
HETATM   26  O   UNL     1     -14.376  13.649  72.485  1.00  0.00    -0.707 OA 
HETATM   27  O   UNL     1     -12.665  12.751  71.327  1.00  0.00    -0.368 OA 
ENDBRANCH  23  24
ENDBRANCH  22  23
ENDBRANCH  21  22
ENDBRANCH  20  21
ENDBRANCH  19  20
ENDBRANCH  18  19
ENDBRANCH  17  18
ENDBRANCH  15  16
ENDBRANCH  14  15
ENDBRANCH  13  14
ENDBRANCH  12  13
ENDBRANCH  11  12
ENDBRANCH  10  11
ENDBRANCH   6  10
TORSDOF 15
ENDMDL
MODEL      188
REMARK 921   NORMALIZED FREE ENERGY PREDICTED BY IDOCK:   -4.10 KCAL/MOL
REMARK 922        TOTAL FREE ENERGY PREDICTED BY IDOCK:   -9.64 KCAL/MOL
REMARK 923 INTER-LIGAND FREE ENERGY PREDICTED BY IDOCK:   -7.83 KCAL/MOL
REMARK 924 INTRA-LIGAND FREE ENERGY PREDICTED BY IDOCK:   -1.80 KCAL/MOL
REMARK 927      BINDING AFFINITY PREDICTED BY RF-SCORE:    0.00 PKD
ROOT
ATOM      1  N   GLY A   1      -7.910   8.843  71.479  1.00  0.00    -0.292 NA 
HETATM    2  C   UNL     1      -9.094  15.308  69.196  1.00  0.00    -0.236 C  
ATOM      3  H2  GLY A   1      -7.333   9.227  72.227  1.00  0.00     0.000 HD 
ATOM      4  H1  GLY A   1      -8.835   8.572  71.812  1.00  0.00     0.000 HD 
ATOM      5  CA  GLY A   1      -8.030   9.772  70.347  1.00  0.00    -0.109 C  
HETATM    6  C   UNL     1     -10.553  15.195  69.608  1.00  0.00    -0.274 C  
ENDROOT
BRANCH   5   7
ATOM      7  C   GLY A   1      -6.642  10.179  69.846  1.00  0.00    -0.100 C  
ATOM      8  H   GLY A   1      -5.320  11.561  70.273  1.00  0.00     0.000 HD 
ATOM      9  O   GLY A   1      -6.181  11.309  70.583  1.00  0.00    -0.334 OA 
ENDBRANCH   5   7
BRANCH   6  10
HETATM   10  C   UNL     1     -11.415  14.422  68.610  1.00  0.00    -0.316 C  
BRANCH  10  11
HETATM   11  C   UNL     1     -11.534  15.078  67.233  1.00  0.00    -0.312 C  
BRANCH  11  12
HETATM   12  C   UNL     1     -10.654  14.331  66.227  1.00  0.00    -0.291 C  
BRANCH  12  13
HETATM   13  C   UNL     1     -10.977  14.706  64.782  1.00  0.00    -0.399 C  
BRANCH  13  14
HETATM   14  C   UNL     1     -12.130  13.882  64.193  1.00  0.00    -0.464 C  
BRANCH  14  15
HETATM   15  C   UNL     1     -11.851  12.382  64.030  1.00  0.00    -0.521 C  
BRANCH  15  16
HETATM   16  C   UNL     1     -10.453  12.060  63.578  1.00  0.00    -0.505 C  
HETATM   17  C   UNL     1      -9.710  11.053  64.063  1.00  0.00    -0.333 C  
BRANCH  17  18
HETATM   18  C   UNL     1     -10.124  10.113  65.157  1.00  0.00    -0.329 C  
BRANCH  18  19
HETATM   19  C   UNL     1      -9.767  10.657  66.538  1.00  0.00    -0.236 C  
BRANCH  19  20
HETATM   20  C   UNL     1     -11.035  11.068  67.286  1.00  0.00    -0.356 C  
BRANCH  20  21
HETATM   21  C   UNL     1     -11.069  10.473  68.691  1.00  0.00    -0.319 C  
BRANCH  21  22
HETATM   22  C   UNL     1     -12.183  11.097  69.527  1.00  0.00    -0.347 C  
BRANCH  22  23
HETATM   23  C   UNL     1     -12.234  10.467  70.916  1.00  0.00    -0.484 C  
BRANCH  23  24
HETATM   24  C   UNL     1     -11.890   8.981  70.875  1.00  0.00    -0.302 C  
HETATM   25  C   UNL     1     -12.484   8.239  72.051  1.00  0.00    -0.351 C  
HETATM   26  O   UNL     1     -12.199   6.917  72.012  1.00  0.00    -0.310 OA 
HETATM   27  O   UNL     1     -13.148   8.737  72.940  1.00  0.00    -0.312 OA 
ENDBRANCH  23  24
ENDBRANCH  22  23
ENDBRANCH  21  22
ENDBRANCH  20  21
ENDBRANCH  19  20
ENDBRANCH  18  19
ENDBRANCH  17  18
ENDBRANCH  15  16
ENDBRANCH  14  15
ENDBRANCH  13  14
ENDBRANCH  12  13
ENDBRANCH  11  12
ENDBRANCH  10  11
ENDBRANCH   6  10
TORSDOF 15
ENDMDL
MODEL      189
REMARK 921   NORMALIZED FREE ENERGY PREDICTED BY IDOCK:   -4.09 KCAL/MOL
REMARK 922        TOTAL FREE ENERGY PREDICTED BY IDOCK:   -9.63 KCAL/MOL
REMARK 923 INTER-LIGAND FREE ENERGY PREDICTED BY IDOCK:   -7.85 KCAL/MOL
REMARK 924 INTRA-LIGAND FREE ENERGY PREDICTED BY IDOCK:   -1.78 KCAL/MOL
REMARK 927      BINDING AFFINITY PREDICTED BY RF-SCORE:    0.00 PKD
ROOT
ATOM      1  N   GLY A   1      -7.249  10.203  70.584  1.00  0.00    -0.409 NA 
HETATM    2  C   UNL     1      -9.065  16.747  69.074  1.00  0.00    -0.191 C  
ATOM      3  H2  GLY A   1      -6.677  10.552  71.353  1.00  0.00     0.000 HD 
ATOM      4  H1  GLY A   1      -8.133   9.816  70.913  1.00  0.00     0.000 HD 
ATOM      5  CA  GLY A   1      -7.492  11.235  69.567  1.00  0.00     0.081 C  
HETATM    6  C   UNL     1     -10.492  16.461  69.515  1.00  0.00    -0.301 C  
ENDROOT
BRANCH   5   7
ATOM      7  C   GLY A   1      -6.164  11.815  69.073  1.00  0.00    -0.072 C  
ATOM      8  H   GLY A   1      -5.356  13.593  68.911  1.00  0.00     0.000 HD 
ATOM      9  O   GLY A   1      -6.179  13.233  69.218  1.00  0.00    -0.093 OA 
ENDBRANCH   5   7
BRANCH   6  10
HETATM   10  C   UNL     1     -11.324  15.728  68.464  1.00  0.00    -0.374 C  
BRANCH  10  11
HETATM   11  C   UNL     1     -11.006  16.118  67.018  1.00  0.00    -0.123 C  
BRANCH  11  12
HETATM   12  C   UNL     1     -10.593  14.874  66.227  1.00  0.00    -0.309 C  
BRANCH  12  13
HETATM   13  C   UNL     1     -10.933  14.991  64.742  1.00  0.00    -0.389 C  
BRANCH  13  14
HETATM   14  C   UNL     1     -12.141  14.136  64.335  1.00  0.00    -0.486 C  
BRANCH  14  15
HETATM   15  C   UNL     1     -11.811  12.716  63.857  1.00  0.00    -0.544 C  
BRANCH  15  16
HETATM   16  C   UNL     1     -10.390  12.293  64.111  1.00  0.00    -0.396 C  
HETATM   17  C   UNL     1     -10.004  11.483  65.109  1.00  0.00    -0.304 C  
BRANCH  17  18
HETATM   18  C   UNL     1     -10.907  10.900  66.157  1.00  0.00    -0.166 C  
BRANCH  18  19
HETATM   19  C   UNL     1     -10.583  11.440  67.548  1.00  0.00    -0.252 C  
BRANCH  19  20
HETATM   20  C   UNL     1     -11.862  11.905  68.244  1.00  0.00    -0.343 C  
BRANCH  20  21
HETATM   21  C   UNL     1     -11.682  11.964  69.757  1.00  0.00    -0.403 C  
BRANCH  21  22
HETATM   22  C   UNL     1     -12.367  13.194  70.347  1.00  0.00    -0.351 C  
BRANCH  22  23
HETATM   23  C   UNL     1     -12.709  12.970  71.818  1.00  0.00    -0.260 C  
BRANCH  23  24
HETATM   24  C   UNL     1     -13.621  14.067  72.357  1.00  0.00    -0.658 C  
HETATM   25  C   UNL     1     -12.829  15.196  72.976  1.00  0.00    -0.468 C  
HETATM   26  O   UNL     1     -13.630  16.183  73.441  1.00  0.00    -0.615 OA 
HETATM   27  O   UNL     1     -11.617  15.248  73.059  1.00  0.00    -0.425 OA 
ENDBRANCH  23  24
ENDBRANCH  22  23
ENDBRANCH  21  22
ENDBRANCH  20  21
ENDBRANCH  19  20
ENDBRANCH  18  19
ENDBRANCH  17  18
ENDBRANCH  15  16
ENDBRANCH  14  15
ENDBRANCH  13  14
ENDBRANCH  12  13
ENDBRANCH  11  12
ENDBRANCH  10  11
ENDBRANCH   6  10
TORSDOF 15
ENDMDL
MODEL      190
REMARK 921   NORMALIZED FREE ENERGY PREDICTED BY IDOCK:   -4.09 KCAL/MOL
REMARK 922        TOTAL FREE ENERGY PREDICTED BY IDOCK:   -9.63 KCAL/MOL
REMARK 923 INTER-LIGAND FREE ENERGY PREDICTED BY IDOCK:   -7.62 KCAL/MOL
REMARK 924 INTRA-LIGAND FREE ENERGY PREDICTED BY IDOCK:   -2.01 KCAL/MOL
REMARK 927      BINDING AFFINITY PREDICTED BY RF-SCORE:    0.00 PKD
ROOT
ATOM      1  N   GLY A   1      -7.297   5.973  72.863  1.00  0.00    -0.093 NA 
HETATM    2  C   UNL     1      -9.135   7.716  66.383  1.00  0.00    -0.214 C  
ATOM      3  H2  GLY A   1      -6.354   5.778  72.529  1.00  0.00     0.000 HD 
ATOM      4  H1  GLY A   1      -7.354   6.872  73.340  1.00  0.00     0.000 HD 
ATOM      5  CA  GLY A   1      -8.287   5.909  71.779  1.00  0.00    -0.119 C  
HETATM    6  C   UNL     1      -9.296   9.167  66.810  1.00  0.00    -0.213 C  
ENDROOT
BRANCH   5   7
ATOM      7  C   GLY A   1      -8.202   4.559  71.063  1.00  0.00    -0.089 C  
ATOM      8  H   GLY A   1      -7.712   3.919  69.277  1.00  0.00     0.000 HD 
ATOM      9  O   GLY A   1      -7.764   4.757  69.721  1.00  0.00    -0.058 OA 
ENDBRANCH   5   7
BRANCH   6  10
HETATM   10  C   UNL     1     -10.617   9.454  67.524  1.00  0.00    -0.333 C  
BRANCH  10  11
HETATM   11  C   UNL     1     -10.735  10.870  68.093  1.00  0.00    -0.256 C  
BRANCH  11  12
HETATM   12  C   UNL     1     -11.524  11.753  67.123  1.00  0.00    -0.366 C  
BRANCH  12  13
HETATM   13  C   UNL     1     -10.611  12.561  66.201  1.00  0.00    -0.279 C  
BRANCH  13  14
HETATM   14  C   UNL     1     -10.670  14.070  66.475  1.00  0.00    -0.281 C  
BRANCH  14  15
HETATM   15  C   UNL     1     -11.862  14.541  67.317  1.00  0.00    -0.419 C  
BRANCH  15  16
HETATM   16  C   UNL     1     -11.483  15.354  68.525  1.00  0.00    -0.360 C  
HETATM   17  C   UNL     1     -11.581  14.923  69.792  1.00  0.00    -0.339 C  
BRANCH  17  18
HETATM   18  C   UNL     1     -12.119  13.589  70.221  1.00  0.00    -0.425 C  
BRANCH  18  19
HETATM   19  C   UNL     1     -13.001  13.704  71.461  1.00  0.00    -0.443 C  
BRANCH  19  20
HETATM   20  C   UNL     1     -13.307  12.315  72.021  1.00  0.00    -0.491 C  
BRANCH  20  21
HETATM   21  C   UNL     1     -12.629  11.223  71.199  1.00  0.00    -0.501 C  
BRANCH  21  22
HETATM   22  C   UNL     1     -12.930   9.839  71.765  1.00  0.00    -0.536 C  
BRANCH  22  23
HETATM   23  C   UNL     1     -11.639   9.067  72.023  1.00  0.00    -0.413 C  
BRANCH  23  24
HETATM   24  C   UNL     1     -11.240   8.218  70.820  1.00  0.00    -0.284 C  
HETATM   25  C   UNL     1     -11.752   6.801  70.943  1.00  0.00    -0.372 C  
HETATM   26  O   UNL     1     -11.419   6.045  69.871  1.00  0.00    -0.388 OA 
HETATM   27  O   UNL     1     -12.395   6.360  71.877  1.00  0.00    -0.345 OA 
ENDBRANCH  23  24
ENDBRANCH  22  23
ENDBRANCH  21  22
ENDBRANCH  20  21
ENDBRANCH  19  20
ENDBRANCH  18  19
ENDBRANCH  17  18
ENDBRANCH  15  16
ENDBRANCH  14  15
ENDBRANCH  13  14
ENDBRANCH  12  13
ENDBRANCH  11  12
ENDBRANCH  10  11
ENDBRANCH   6  10
TORSDOF 15
ENDMDL
MODEL      191
REMARK 921   NORMALIZED FREE ENERGY PREDICTED BY IDOCK:   -4.09 KCAL/MOL
REMARK 922        TOTAL FREE ENERGY PREDICTED BY IDOCK:   -9.62 KCAL/MOL
REMARK 923 INTER-LIGAND FREE ENERGY PREDICTED BY IDOCK:   -7.48 KCAL/MOL
REMARK 924 INTRA-LIGAND FREE ENERGY PREDICTED BY IDOCK:   -2.14 KCAL/MOL
REMARK 927      BINDING AFFINITY PREDICTED BY RF-SCORE:    0.00 PKD
ROOT
ATOM      1  N   GLY A   1     -14.078  14.647  71.686  1.00  0.00    -0.454 NA 
HETATM    2  C   UNL     1      -7.873  13.907  68.628  1.00  0.00    -0.120 C  
ATOM      3  H2  GLY A   1     -14.202  15.530  71.191  1.00  0.00     0.000 HD 
ATOM      4  H1  GLY A   1     -14.610  13.891  71.255  1.00  0.00     0.000 HD 
ATOM      5  CA  GLY A   1     -12.662  14.274  71.796  1.00  0.00    -0.347 C  
HETATM    6  C   UNL     1      -8.400  12.728  67.825  1.00  0.00    -0.177 C  
ENDROOT
BRANCH   5   7
ATOM      7  C   GLY A   1     -11.864  15.410  72.443  1.00  0.00    -0.459 C  
ATOM      8  H   GLY A   1     -11.098  17.121  71.873  1.00  0.00     0.000 HD 
ATOM      9  O   GLY A   1     -11.592  16.416  71.471  1.00  0.00    -0.437 OA 
ENDBRANCH   5   7
BRANCH   6  10
HETATM   10  C   UNL     1      -8.443  11.418  68.611  1.00  0.00    -0.131 C  
BRANCH  10  11
HETATM   11  C   UNL     1      -7.094  10.981  69.189  1.00  0.00    -0.116 C  
BRANCH  11  12
HETATM   12  C   UNL     1      -7.294   9.780  70.117  1.00  0.00    -0.159 C  
BRANCH  12  13
HETATM   13  C   UNL     1      -8.763   9.374  70.232  1.00  0.00    -0.261 C  
BRANCH  13  14
HETATM   14  C   UNL     1      -9.010   7.909  69.844  1.00  0.00    -0.146 C  
BRANCH  14  15
HETATM   15  C   UNL     1     -10.210   7.241  70.526  1.00  0.00    -0.203 C  
BRANCH  15  16
HETATM   16  C   UNL     1     -10.329   7.537  71.996  1.00  0.00    -0.236 C  
HETATM   17  C   UNL     1     -11.395   8.115  72.572  1.00  0.00    -0.469 C  
BRANCH  17  18
HETATM   18  C   UNL     1     -12.620   8.597  71.852  1.00  0.00    -0.411 C  
BRANCH  18  19
HETATM   19  C   UNL     1     -12.546  10.090  71.543  1.00  0.00    -0.525 C  
BRANCH  19  20
HETATM   20  C   UNL     1     -12.101  10.308  70.098  1.00  0.00    -0.279 C  
BRANCH  20  21
HETATM   21  C   UNL     1     -11.890  11.789  69.799  1.00  0.00    -0.420 C  
BRANCH  21  22
HETATM   22  C   UNL     1     -11.932  12.060  68.297  1.00  0.00    -0.244 C  
BRANCH  22  23
HETATM   23  C   UNL     1     -11.904  13.561  68.018  1.00  0.00    -0.400 C  
BRANCH  23  24
HETATM   24  C   UNL     1     -11.787  13.854  66.525  1.00  0.00    -0.440 C  
HETATM   25  C   UNL     1     -11.096  15.174  66.270  1.00  0.00    -0.309 C  
HETATM   26  O   UNL     1     -10.970  15.435  64.948  1.00  0.00    -0.417 OA 
HETATM   27  O   UNL     1     -10.684  15.935  67.126  1.00  0.00    -0.316 OA 
ENDBRANCH  23  24
ENDBRANCH  22  23
ENDBRANCH  21  22
ENDBRANCH  20  21
ENDBRANCH  19  20
ENDBRANCH  18  19
ENDBRANCH  17  18
ENDBRANCH  15  16
ENDBRANCH  14  15
ENDBRANCH  13  14
ENDBRANCH  12  13
ENDBRANCH  11  12
ENDBRANCH  10  11
ENDBRANCH   6  10
TORSDOF 15
ENDMDL
MODEL      192
REMARK 921   NORMALIZED FREE ENERGY PREDICTED BY IDOCK:   -4.08 KCAL/MOL
REMARK 922        TOTAL FREE ENERGY PREDICTED BY IDOCK:   -9.61 KCAL/MOL
REMARK 923 INTER-LIGAND FREE ENERGY PREDICTED BY IDOCK:   -8.54 KCAL/MOL
REMARK 924 INTRA-LIGAND FREE ENERGY PREDICTED BY IDOCK:   -1.07 KCAL/MOL
REMARK 927      BINDING AFFINITY PREDICTED BY RF-SCORE:    0.00 PKD
ROOT
ATOM      1  N   GLY A   1     -11.074  12.243  69.702  1.00  0.00    -0.474 NA 
HETATM    2  C   UNL     1      -6.272   7.706  67.521  1.00  0.00    -0.050 C  
ATOM      3  H2  GLY A   1     -10.490  12.452  70.511  1.00  0.00     0.000 HD 
ATOM      4  H1  GLY A   1     -11.008  12.969  68.988  1.00  0.00     0.000 HD 
ATOM      5  CA  GLY A   1     -10.759  10.931  69.122  1.00  0.00    -0.226 C  
HETATM    6  C   UNL     1      -5.945   8.607  66.340  1.00  0.00    -0.052 C  
ENDROOT
BRANCH   5   7
ATOM      7  C   GLY A   1     -10.858   9.842  70.194  1.00  0.00    -0.291 C  
ATOM      8  H   GLY A   1     -12.151   9.301  71.564  1.00  0.00     0.000 HD 
ATOM      9  O   GLY A   1     -12.090   9.977  70.899  1.00  0.00    -0.307 OA 
ENDBRANCH   5   7
BRANCH   6  10
HETATM   10  C   UNL     1      -6.937   8.487  65.184  1.00  0.00    -0.075 C  
BRANCH  10  11
HETATM   11  C   UNL     1      -7.326   9.821  64.541  1.00  0.00    -0.135 C  
BRANCH  11  12
HETATM   12  C   UNL     1      -8.846   9.999  64.602  1.00  0.00    -0.227 C  
BRANCH  12  13
HETATM   13  C   UNL     1      -9.437  10.404  63.253  1.00  0.00    -0.361 C  
BRANCH  13  14
HETATM   14  C   UNL     1     -10.023  11.823  63.258  1.00  0.00    -0.435 C  
BRANCH  14  15
HETATM   15  C   UNL     1     -11.246  12.027  64.160  1.00  0.00    -0.441 C  
BRANCH  15  16
HETATM   16  C   UNL     1     -12.065  13.244  63.824  1.00  0.00    -0.546 C  
HETATM   17  C   UNL     1     -12.231  14.298  64.639  1.00  0.00    -0.470 C  
BRANCH  17  18
HETATM   18  C   UNL     1     -11.669  14.425  66.025  1.00  0.00    -0.378 C  
BRANCH  18  19
HETATM   19  C   UNL     1     -10.499  15.404  66.075  1.00  0.00    -0.333 C  
BRANCH  19  20
HETATM   20  C   UNL     1     -10.134  15.714  67.527  1.00  0.00    -0.253 C  
BRANCH  20  21
HETATM   21  C   UNL     1     -11.334  15.537  68.451  1.00  0.00    -0.357 C  
BRANCH  21  22
HETATM   22  C   UNL     1     -10.986  15.920  69.887  1.00  0.00    -0.343 C  
BRANCH  22  23
HETATM   23  C   UNL     1     -12.168  15.661  70.818  1.00  0.00    -0.463 C  
BRANCH  23  24
HETATM   24  C   UNL     1     -11.812  15.946  72.274  1.00  0.00    -0.617 C  
HETATM   25  C   UNL     1     -12.620  15.089  73.222  1.00  0.00    -0.485 C  
HETATM   26  O   UNL     1     -12.297  15.322  74.516  1.00  0.00    -0.629 OA 
HETATM   27  O   UNL     1     -13.462  14.274  72.897  1.00  0.00    -0.593 OA 
ENDBRANCH  23  24
ENDBRANCH  22  23
ENDBRANCH  21  22
ENDBRANCH  20  21
ENDBRANCH  19  20
ENDBRANCH  18  19
ENDBRANCH  17  18
ENDBRANCH  15  16
ENDBRANCH  14  15
ENDBRANCH  13  14
ENDBRANCH  12  13
ENDBRANCH  11  12
ENDBRANCH  10  11
ENDBRANCH   6  10
TORSDOF 15
ENDMDL
MODEL      193
REMARK 921   NORMALIZED FREE ENERGY PREDICTED BY IDOCK:   -4.08 KCAL/MOL
REMARK 922        TOTAL FREE ENERGY PREDICTED BY IDOCK:   -9.60 KCAL/MOL
REMARK 923 INTER-LIGAND FREE ENERGY PREDICTED BY IDOCK:   -8.47 KCAL/MOL
REMARK 924 INTRA-LIGAND FREE ENERGY PREDICTED BY IDOCK:   -1.13 KCAL/MOL
REMARK 927      BINDING AFFINITY PREDICTED BY RF-SCORE:    0.00 PKD
ROOT
ATOM      1  N   GLY A   1     -14.407  15.364  70.991  1.00  0.00    -0.848 NA 
HETATM    2  C   UNL     1      -8.848  17.990  67.732  1.00  0.00    -0.255 C  
ATOM      3  H2  GLY A   1     -14.749  16.313  71.144  1.00  0.00     0.000 HD 
ATOM      4  H1  GLY A   1     -14.894  14.903  70.224  1.00  0.00     0.000 HD 
ATOM      5  CA  GLY A   1     -12.956  15.335  70.763  1.00  0.00    -0.436 C  
HETATM    6  C   UNL     1      -9.341  17.416  66.413  1.00  0.00    -0.272 C  
ENDROOT
BRANCH   5   7
ATOM      7  C   GLY A   1     -12.224  16.028  71.916  1.00  0.00    -0.489 C  
ATOM      8  H   GLY A   1     -12.662  16.625  73.730  1.00  0.00     0.000 HD 
ATOM      9  O   GLY A   1     -13.116  16.195  73.015  1.00  0.00    -0.481 OA 
ENDBRANCH   5   7
BRANCH   6  10
HETATM   10  C   UNL     1      -9.043  15.927  66.241  1.00  0.00    -0.379 C  
BRANCH  10  11
HETATM   11  C   UNL     1     -10.273  15.020  66.329  1.00  0.00    -0.306 C  
BRANCH  11  12
HETATM   12  C   UNL     1     -10.469  14.285  65.000  1.00  0.00    -0.458 C  
BRANCH  12  13
HETATM   13  C   UNL     1     -10.647  12.779  65.190  1.00  0.00    -0.324 C  
BRANCH  13  14
HETATM   14  C   UNL     1     -10.187  12.293  66.571  1.00  0.00    -0.235 C  
BRANCH  14  15
HETATM   15  C   UNL     1     -11.210  11.455  67.349  1.00  0.00    -0.370 C  
BRANCH  15  16
HETATM   16  C   UNL     1     -11.772  12.140  68.565  1.00  0.00    -0.382 C  
HETATM   17  C   UNL     1     -11.859  11.578  69.781  1.00  0.00    -0.429 C  
BRANCH  17  18
HETATM   18  C   UNL     1     -11.456  10.174  70.124  1.00  0.00    -0.368 C  
BRANCH  18  19
HETATM   19  C   UNL     1     -11.934   9.770  71.517  1.00  0.00    -0.488 C  
BRANCH  19  20
HETATM   20  C   UNL     1     -11.046   8.659  72.077  1.00  0.00    -0.437 C  
BRANCH  20  21
HETATM   21  C   UNL     1     -11.370   7.313  71.436  1.00  0.00    -0.282 C  
BRANCH  21  22
HETATM   22  C   UNL     1     -10.512   6.199  72.029  1.00  0.00    -0.249 C  
BRANCH  22  23
HETATM   23  C   UNL     1     -10.274   5.095  71.002  1.00  0.00    -0.295 C  
BRANCH  23  24
HETATM   24  C   UNL     1     -10.488   5.594  69.577  1.00  0.00    -0.372 C  
HETATM   25  C   UNL     1      -9.250   5.405  68.729  1.00  0.00    -0.124 C  
HETATM   26  O   UNL     1      -9.436   5.829  67.457  1.00  0.00    -0.111 OA 
HETATM   27  O   UNL     1      -8.197   4.929  69.110  1.00  0.00    -0.078 OA 
ENDBRANCH  23  24
ENDBRANCH  22  23
ENDBRANCH  21  22
ENDBRANCH  20  21
ENDBRANCH  19  20
ENDBRANCH  18  19
ENDBRANCH  17  18
ENDBRANCH  15  16
ENDBRANCH  14  15
ENDBRANCH  13  14
ENDBRANCH  12  13
ENDBRANCH  11  12
ENDBRANCH  10  11
ENDBRANCH   6  10
TORSDOF 15
ENDMDL
MODEL      194
REMARK 921   NORMALIZED FREE ENERGY PREDICTED BY IDOCK:   -4.08 KCAL/MOL
REMARK 922        TOTAL FREE ENERGY PREDICTED BY IDOCK:   -9.60 KCAL/MOL
REMARK 923 INTER-LIGAND FREE ENERGY PREDICTED BY IDOCK:   -7.26 KCAL/MOL
REMARK 924 INTRA-LIGAND FREE ENERGY PREDICTED BY IDOCK:   -2.34 KCAL/MOL
REMARK 927      BINDING AFFINITY PREDICTED BY RF-SCORE:    0.00 PKD
ROOT
ATOM      1  N   GLY A   1      -6.147   9.728  68.554  1.00  0.00    -0.043 NA 
HETATM    2  C   UNL     1     -10.494  11.750  63.513  1.00  0.00    -0.500 C  
ATOM      3  H2  GLY A   1      -5.359  10.007  67.969  1.00  0.00     0.000 HD 
ATOM      4  H1  GLY A   1      -6.343  10.416  69.281  1.00  0.00     0.000 HD 
ATOM      5  CA  GLY A   1      -7.355   9.469  67.761  1.00  0.00    -0.083 C  
HETATM    6  C   UNL     1     -10.985  12.895  64.384  1.00  0.00    -0.400 C  
ENDROOT
BRANCH   5   7
ATOM      7  C   GLY A   1      -7.060   8.435  66.669  1.00  0.00    -0.073 C  
ATOM      8  H   GLY A   1      -6.597   8.464  64.766  1.00  0.00     0.000 HD 
ATOM      9  O   GLY A   1      -6.780   9.105  65.442  1.00  0.00    -0.071 OA 
ENDBRANCH   5   7
BRANCH   6  10
HETATM   10  C   UNL     1     -12.010  12.472  65.435  1.00  0.00    -0.492 C  
BRANCH  10  11
HETATM   11  C   UNL     1     -11.676  12.913  66.862  1.00  0.00    -0.445 C  
BRANCH  11  12
HETATM   12  C   UNL     1     -10.353  12.281  67.302  1.00  0.00    -0.228 C  
BRANCH  12  13
HETATM   13  C   UNL     1     -10.475  11.550  68.639  1.00  0.00    -0.224 C  
BRANCH  13  14
HETATM   14  C   UNL     1     -11.301  10.260  68.541  1.00  0.00    -0.231 C  
BRANCH  14  15
HETATM   15  C   UNL     1     -10.658   9.018  69.171  1.00  0.00    -0.219 C  
BRANCH  15  16
HETATM   16  C   UNL     1      -9.756   9.313  70.338  1.00  0.00    -0.293 C  
HETATM   17  C   UNL     1      -9.803   8.673  71.517  1.00  0.00    -0.342 C  
BRANCH  17  18
HETATM   18  C   UNL     1     -10.778   7.594  71.885  1.00  0.00    -0.259 C  
BRANCH  18  19
HETATM   19  C   UNL     1     -11.989   8.153  72.629  1.00  0.00    -0.353 C  
BRANCH  19  20
HETATM   20  C   UNL     1     -13.244   8.021  71.767  1.00  0.00    -0.367 C  
BRANCH  20  21
HETATM   21  C   UNL     1     -13.825   9.389  71.421  1.00  0.00    -0.253 C  
BRANCH  21  22
HETATM   22  C   UNL     1     -13.152  10.495  72.227  1.00  0.00    -0.242 C  
BRANCH  22  23
HETATM   23  C   UNL     1     -12.983  11.755  71.382  1.00  0.00    -0.408 C  
BRANCH  23  24
HETATM   24  C   UNL     1     -13.551  12.985  72.082  1.00  0.00    -0.618 C  
HETATM   25  C   UNL     1     -13.161  14.261  71.370  1.00  0.00    -0.351 C  
HETATM   26  O   UNL     1     -13.676  15.357  71.974  1.00  0.00    -0.431 OA 
HETATM   27  O   UNL     1     -12.473  14.331  70.370  1.00  0.00    -0.331 OA 
ENDBRANCH  23  24
ENDBRANCH  22  23
ENDBRANCH  21  22
ENDBRANCH  20  21
ENDBRANCH  19  20
ENDBRANCH  18  19
ENDBRANCH  17  18
ENDBRANCH  15  16
ENDBRANCH  14  15
ENDBRANCH  13  14
ENDBRANCH  12  13
ENDBRANCH  11  12
ENDBRANCH  10  11
ENDBRANCH   6  10
TORSDOF 15
ENDMDL
MODEL      195
REMARK 921   NORMALIZED FREE ENERGY PREDICTED BY IDOCK:   -4.08 KCAL/MOL
REMARK 922        TOTAL FREE ENERGY PREDICTED BY IDOCK:   -9.60 KCAL/MOL
REMARK 923 INTER-LIGAND FREE ENERGY PREDICTED BY IDOCK:   -7.29 KCAL/MOL
REMARK 924 INTRA-LIGAND FREE ENERGY PREDICTED BY IDOCK:   -2.31 KCAL/MOL
REMARK 927      BINDING AFFINITY PREDICTED BY RF-SCORE:    0.00 PKD
ROOT
ATOM      1  N   GLY A   1     -14.106  13.193  72.594  1.00  0.00    -0.710 NA 
HETATM    2  C   UNL     1     -12.423  14.133  65.909  1.00  0.00    -0.479 C  
ATOM      3  H2  GLY A   1     -15.070  13.442  72.373  1.00  0.00     0.000 HD 
ATOM      4  H1  GLY A   1     -13.986  12.186  72.695  1.00  0.00     0.000 HD 
ATOM      5  CA  GLY A   1     -13.161  13.720  71.600  1.00  0.00    -0.371 C  
HETATM    6  C   UNL     1     -12.173  12.641  65.754  1.00  0.00    -0.427 C  
ENDROOT
BRANCH   5   7
ATOM      7  C   GLY A   1     -13.341  15.233  71.449  1.00  0.00    -0.491 C  
ATOM      8  H   GLY A   1     -14.375  16.643  72.335  1.00  0.00     0.000 HD 
ATOM      9  O   GLY A   1     -14.264  15.704  72.428  1.00  0.00    -0.551 OA 
ENDBRANCH   5   7
BRANCH   6  10
HETATM   10  C   UNL     1     -10.815  12.187  66.286  1.00  0.00    -0.317 C  
BRANCH  10  11
HETATM   11  C   UNL     1     -10.555  12.544  67.752  1.00  0.00    -0.235 C  
BRANCH  11  12
HETATM   12  C   UNL     1     -11.545  11.796  68.649  1.00  0.00    -0.367 C  
BRANCH  12  13
HETATM   13  C   UNL     1     -11.248  10.298  68.717  1.00  0.00    -0.260 C  
BRANCH  13  14
HETATM   14  C   UNL     1     -10.583   9.880  70.036  1.00  0.00    -0.335 C  
BRANCH  14  15
HETATM   15  C   UNL     1     -11.386   8.895  70.895  1.00  0.00    -0.336 C  
BRANCH  15  16
HETATM   16  C   UNL     1     -10.626   7.659  71.291  1.00  0.00    -0.237 C  
HETATM   17  C   UNL     1     -10.573   6.533  70.563  1.00  0.00    -0.282 C  
BRANCH  17  18
HETATM   18  C   UNL     1     -11.287   6.300  69.264  1.00  0.00    -0.411 C  
BRANCH  18  19
HETATM   19  C   UNL     1     -10.428   5.513  68.277  1.00  0.00    -0.225 C  
BRANCH  19  20
HETATM   20  C   UNL     1      -9.938   6.430  67.158  1.00  0.00    -0.197 C  
BRANCH  20  21
HETATM   21  C   UNL     1      -8.645   7.140  67.548  1.00  0.00    -0.122 C  
BRANCH  21  22
HETATM   22  C   UNL     1      -8.662   8.600  67.106  1.00  0.00    -0.134 C  
BRANCH  22  23
HETATM   23  C   UNL     1      -9.488   8.771  65.833  1.00  0.00    -0.278 C  
BRANCH  23  24
HETATM   24  C   UNL     1      -8.673   9.414  64.715  1.00  0.00    -0.227 C  
HETATM   25  C   UNL     1      -8.073   8.376  63.795  1.00  0.00    -0.142 C  
HETATM   26  O   UNL     1      -7.364   8.938  62.788  1.00  0.00    -0.096 OA 
HETATM   27  O   UNL     1      -8.196   7.171  63.911  1.00  0.00    -0.054 OA 
ENDBRANCH  23  24
ENDBRANCH  22  23
ENDBRANCH  21  22
ENDBRANCH  20  21
ENDBRANCH  19  20
ENDBRANCH  18  19
ENDBRANCH  17  18
ENDBRANCH  15  16
ENDBRANCH  14  15
ENDBRANCH  13  14
ENDBRANCH  12  13
ENDBRANCH  11  12
ENDBRANCH  10  11
ENDBRANCH   6  10
TORSDOF 15
ENDMDL
MODEL      196
REMARK 921   NORMALIZED FREE ENERGY PREDICTED BY IDOCK:   -4.07 KCAL/MOL
REMARK 922        TOTAL FREE ENERGY PREDICTED BY IDOCK:   -9.59 KCAL/MOL
REMARK 923 INTER-LIGAND FREE ENERGY PREDICTED BY IDOCK:   -7.41 KCAL/MOL
REMARK 924 INTRA-LIGAND FREE ENERGY PREDICTED BY IDOCK:   -2.18 KCAL/MOL
REMARK 927      BINDING AFFINITY PREDICTED BY RF-SCORE:    0.00 PKD
ROOT
ATOM      1  N   GLY A   1      -9.669   9.693  64.793  1.00  0.00    -0.431 NA 
HETATM    2  C   UNL     1      -9.836  16.542  66.003  1.00  0.00    -0.348 C  
ATOM      3  H2  GLY A   1      -8.699   9.783  64.489  1.00  0.00     0.000 HD 
ATOM      4  H1  GLY A   1      -9.737   9.317  65.738  1.00  0.00     0.000 HD 
ATOM      5  CA  GLY A   1     -10.395  10.966  64.699  1.00  0.00    -0.338 C  
HETATM    6  C   UNL     1      -9.938  16.284  67.498  1.00  0.00    -0.248 C  
ENDROOT
BRANCH   5   7
ATOM      7  C   GLY A   1     -10.291  11.531  63.279  1.00  0.00    -0.384 C  
ATOM      8  H   GLY A   1      -9.010  11.444  61.799  1.00  0.00     0.000 HD 
ATOM      9  O   GLY A   1      -9.074  11.094  62.679  1.00  0.00    -0.319 OA 
ENDBRANCH   5   7
BRANCH   6  10
HETATM   10  C   UNL     1     -11.347  15.919  67.963  1.00  0.00    -0.284 C  
BRANCH  10  11
HETATM   11  C   UNL     1     -11.825  14.535  67.517  1.00  0.00    -0.404 C  
BRANCH  11  12
HETATM   12  C   UNL     1     -11.474  13.497  68.586  1.00  0.00    -0.343 C  
BRANCH  12  13
HETATM   13  C   UNL     1     -11.558  12.067  68.056  1.00  0.00    -0.407 C  
BRANCH  13  14
HETATM   14  C   UNL     1     -12.158  11.087  69.073  1.00  0.00    -0.285 C  
BRANCH  14  15
HETATM   15  C   UNL     1     -11.918  11.437  70.547  1.00  0.00    -0.451 C  
BRANCH  15  16
HETATM   16  C   UNL     1     -12.996  10.958  71.480  1.00  0.00    -0.556 C  
HETATM   17  C   UNL     1     -13.148   9.685  71.878  1.00  0.00    -0.530 C  
BRANCH  17  18
HETATM   18  C   UNL     1     -12.303   8.526  71.434  1.00  0.00    -0.332 C  
BRANCH  18  19
HETATM   19  C   UNL     1     -11.494   7.939  72.588  1.00  0.00    -0.454 C  
BRANCH  19  20
HETATM   20  C   UNL     1      -9.999   8.099  72.317  1.00  0.00    -0.332 C  
BRANCH  20  21
HETATM   21  C   UNL     1      -9.722   8.310  70.831  1.00  0.00    -0.204 C  
BRANCH  21  22
HETATM   22  C   UNL     1      -8.707   9.429  70.613  1.00  0.00    -0.263 C  
BRANCH  22  23
HETATM   23  C   UNL     1      -8.798   9.971  69.189  1.00  0.00    -0.171 C  
BRANCH  23  24
HETATM   24  C   UNL     1      -7.482  10.600  68.740  1.00  0.00    -0.104 C  
HETATM   25  C   UNL     1      -6.965   9.961  67.471  1.00  0.00    -0.083 C  
HETATM   26  O   UNL     1      -5.807  10.525  67.054  1.00  0.00    -0.048 OA 
HETATM   27  O   UNL     1      -7.501   9.052  66.866  1.00  0.00    -0.089 OA 
ENDBRANCH  23  24
ENDBRANCH  22  23
ENDBRANCH  21  22
ENDBRANCH  20  21
ENDBRANCH  19  20
ENDBRANCH  18  19
ENDBRANCH  17  18
ENDBRANCH  15  16
ENDBRANCH  14  15
ENDBRANCH  13  14
ENDBRANCH  12  13
ENDBRANCH  11  12
ENDBRANCH  10  11
ENDBRANCH   6  10
TORSDOF 15
ENDMDL
MODEL      197
REMARK 921   NORMALIZED FREE ENERGY PREDICTED BY IDOCK:   -4.07 KCAL/MOL
REMARK 922        TOTAL FREE ENERGY PREDICTED BY IDOCK:   -9.58 KCAL/MOL
REMARK 923 INTER-LIGAND FREE ENERGY PREDICTED BY IDOCK:   -7.90 KCAL/MOL
REMARK 924 INTRA-LIGAND FREE ENERGY PREDICTED BY IDOCK:   -1.69 KCAL/MOL
REMARK 927      BINDING AFFINITY PREDICTED BY RF-SCORE:    0.00 PKD
ROOT
ATOM      1  N   GLY A   1     -10.779  11.272  62.763  1.00  0.00    -0.672 NA 
HETATM    2  C   UNL     1      -8.119  10.817  69.176  1.00  0.00    -0.133 C  
ATOM      3  H2  GLY A   1      -9.956  11.800  62.473  1.00  0.00     0.000 HD 
ATOM      4  H1  GLY A   1     -10.736  10.301  62.455  1.00  0.00     0.000 HD 
ATOM      5  CA  GLY A   1     -10.988  11.335  64.216  1.00  0.00    -0.288 C  
HETATM    6  C   UNL     1      -7.923   9.320  68.997  1.00  0.00    -0.097 C  
ENDROOT
BRANCH   5   7
ATOM      7  C   GLY A   1     -11.053  12.794  64.678  1.00  0.00    -0.318 C  
ATOM      8  H   GLY A   1     -12.442  14.043  65.268  1.00  0.00     0.000 HD 
ATOM      9  O   GLY A   1     -12.402  13.139  64.981  1.00  0.00    -0.411 OA 
ENDBRANCH   5   7
BRANCH   6  10
HETATM   10  C   UNL     1      -9.199   8.504  69.204  1.00  0.00    -0.150 C  
BRANCH  10  11
HETATM   11  C   UNL     1      -8.962   7.054  69.633  1.00  0.00    -0.141 C  
BRANCH  11  12
HETATM   12  C   UNL     1      -9.303   6.891  71.117  1.00  0.00    -0.162 C  
BRANCH  12  13
HETATM   13  C   UNL     1     -10.251   5.721  71.370  1.00  0.00    -0.269 C  
BRANCH  13  14
HETATM   14  C   UNL     1     -11.625   6.166  71.889  1.00  0.00    -0.352 C  
BRANCH  14  15
HETATM   15  C   UNL     1     -12.529   6.852  70.858  1.00  0.00    -0.314 C  
BRANCH  15  16
HETATM   16  C   UNL     1     -13.900   7.197  71.371  1.00  0.00    -0.368 C  
HETATM   17  C   UNL     1     -14.217   8.352  71.978  1.00  0.00    -0.528 C  
BRANCH  17  18
HETATM   18  C   UNL     1     -13.261   9.467  72.284  1.00  0.00    -0.528 C  
BRANCH  18  19
HETATM   19  C   UNL     1     -13.220  10.503  71.163  1.00  0.00    -0.358 C  
BRANCH  19  20
HETATM   20  C   UNL     1     -11.952  10.326  70.328  1.00  0.00    -0.348 C  
BRANCH  20  21
HETATM   21  C   UNL     1     -11.795  11.450  69.309  1.00  0.00    -0.417 C  
BRANCH  21  22
HETATM   22  C   UNL     1     -11.832  12.817  69.986  1.00  0.00    -0.352 C  
BRANCH  22  23
HETATM   23  C   UNL     1     -12.056  13.924  68.958  1.00  0.00    -0.365 C  
BRANCH  23  24
HETATM   24  C   UNL     1     -11.638  15.288  69.499  1.00  0.00    -0.339 C  
HETATM   25  C   UNL     1     -11.017  16.147  68.422  1.00  0.00    -0.341 C  
HETATM   26  O   UNL     1     -10.660  17.367  68.888  1.00  0.00    -0.328 OA 
HETATM   27  O   UNL     1     -10.847  15.818  67.263  1.00  0.00    -0.318 OA 
ENDBRANCH  23  24
ENDBRANCH  22  23
ENDBRANCH  21  22
ENDBRANCH  20  21
ENDBRANCH  19  20
ENDBRANCH  18  19
ENDBRANCH  17  18
ENDBRANCH  15  16
ENDBRANCH  14  15
ENDBRANCH  13  14
ENDBRANCH  12  13
ENDBRANCH  11  12
ENDBRANCH  10  11
ENDBRANCH   6  10
TORSDOF 15
ENDMDL
MODEL      198
REMARK 921   NORMALIZED FREE ENERGY PREDICTED BY IDOCK:   -4.07 KCAL/MOL
REMARK 922        TOTAL FREE ENERGY PREDICTED BY IDOCK:   -9.58 KCAL/MOL
REMARK 923 INTER-LIGAND FREE ENERGY PREDICTED BY IDOCK:   -7.80 KCAL/MOL
REMARK 924 INTRA-LIGAND FREE ENERGY PREDICTED BY IDOCK:   -1.78 KCAL/MOL
REMARK 927      BINDING AFFINITY PREDICTED BY RF-SCORE:    0.00 PKD
ROOT
ATOM      1  N   GLY A   1     -13.525  13.076  72.260  1.00  0.00    -0.569 NA 
HETATM    2  C   UNL     1     -12.478  14.175  65.470  1.00  0.00    -0.495 C  
ATOM      3  H2  GLY A   1     -14.447  13.501  72.174  1.00  0.00     0.000 HD 
ATOM      4  H1  GLY A   1     -13.577  12.058  72.297  1.00  0.00     0.000 HD 
ATOM      5  CA  GLY A   1     -12.621  13.500  71.183  1.00  0.00    -0.355 C  
HETATM    6  C   UNL     1     -12.519  12.677  65.214  1.00  0.00    -0.483 C  
ENDROOT
BRANCH   5   7
ATOM      7  C   GLY A   1     -12.543  15.028  71.128  1.00  0.00    -0.348 C  
ATOM      8  H   GLY A   1     -13.812  16.520  71.058  1.00  0.00     0.000 HD 
ATOM      9  O   GLY A   1     -13.861  15.572  71.092  1.00  0.00    -0.549 OA 
ENDBRANCH   5   7
BRANCH   6  10
HETATM   10  C   UNL     1     -11.212  11.960  65.549  1.00  0.00    -0.353 C  
BRANCH  10  11
HETATM   11  C   UNL     1     -10.932  11.819  67.047  1.00  0.00    -0.333 C  
BRANCH  11  12
HETATM   12  C   UNL     1     -11.085  10.354  67.466  1.00  0.00    -0.336 C  
BRANCH  12  13
HETATM   13  C   UNL     1      -9.907   9.494  67.013  1.00  0.00    -0.246 C  
BRANCH  13  14
HETATM   14  C   UNL     1      -8.847   9.308  68.107  1.00  0.00    -0.129 C  
BRANCH  14  15
HETATM   15  C   UNL     1      -9.180   9.944  69.463  1.00  0.00    -0.238 C  
BRANCH  15  16
HETATM   16  C   UNL     1      -8.579   9.231  70.644  1.00  0.00    -0.270 C  
HETATM   17  C   UNL     1      -9.288   8.693  71.649  1.00  0.00    -0.333 C  
BRANCH  17  18
HETATM   18  C   UNL     1     -10.781   8.744  71.787  1.00  0.00    -0.413 C  
BRANCH  18  19
HETATM   19  C   UNL     1     -11.290   7.739  72.818  1.00  0.00    -0.446 C  
BRANCH  19  20
HETATM   20  C   UNL     1     -10.161   7.340  73.767  1.00  0.00    -0.375 C  
BRANCH  20  21
HETATM   21  C   UNL     1     -10.290   5.884  74.204  1.00  0.00    -0.295 C  
BRANCH  21  22
HETATM   22  C   UNL     1     -11.128   5.083  73.212  1.00  0.00    -0.406 C  
BRANCH  22  23
HETATM   23  C   UNL     1     -10.234   4.237  72.308  1.00  0.00    -0.244 C  
BRANCH  23  24
HETATM   24  C   UNL     1     -10.226   4.758  70.875  1.00  0.00    -0.247 C  
HETATM   25  C   UNL     1      -8.864   5.282  70.481  1.00  0.00    -0.132 C  
HETATM   26  O   UNL     1      -8.842   5.730  69.204  1.00  0.00    -0.112 OA 
HETATM   27  O   UNL     1      -7.881   5.309  71.197  1.00  0.00    -0.097 OA 
ENDBRANCH  23  24
ENDBRANCH  22  23
ENDBRANCH  21  22
ENDBRANCH  20  21
ENDBRANCH  19  20
ENDBRANCH  18  19
ENDBRANCH  17  18
ENDBRANCH  15  16
ENDBRANCH  14  15
ENDBRANCH  13  14
ENDBRANCH  12  13
ENDBRANCH  11  12
ENDBRANCH  10  11
ENDBRANCH   6  10
TORSDOF 15
ENDMDL
MODEL      199
REMARK 921   NORMALIZED FREE ENERGY PREDICTED BY IDOCK:   -4.06 KCAL/MOL
REMARK 922        TOTAL FREE ENERGY PREDICTED BY IDOCK:   -9.58 KCAL/MOL
REMARK 923 INTER-LIGAND FREE ENERGY PREDICTED BY IDOCK:   -8.02 KCAL/MOL
REMARK 924 INTRA-LIGAND FREE ENERGY PREDICTED BY IDOCK:   -1.55 KCAL/MOL
REMARK 927      BINDING AFFINITY PREDICTED BY RF-SCORE:    0.00 PKD
ROOT
ATOM      1  N   GLY A   1     -12.346  13.685  63.135  1.00  0.00    -1.076 NA 
HETATM    2  C   UNL     1      -6.946  13.525  67.520  1.00  0.00    -0.157 C  
ATOM      3  H2  GLY A   1     -11.754  14.147  62.444  1.00  0.00     0.000 HD 
ATOM      4  H1  GLY A   1     -12.470  12.694  62.928  1.00  0.00     0.000 HD 
ATOM      5  CA  GLY A   1     -11.833  13.858  64.500  1.00  0.00    -0.426 C  
HETATM    6  C   UNL     1      -6.882  12.011  67.398  1.00  0.00    -0.142 C  
ENDROOT
BRANCH   5   7
ATOM      7  C   GLY A   1     -11.646  15.346  64.811  1.00  0.00    -0.286 C  
ATOM      8  H   GLY A   1     -12.036  17.049  63.922  1.00  0.00     0.000 HD 
ATOM      9  O   GLY A   1     -12.152  16.126  63.730  1.00  0.00    -0.946 OA 
ENDBRANCH   5   7
BRANCH   6  10
HETATM   10  C   UNL     1      -7.915  11.281  68.256  1.00  0.00    -0.134 C  
BRANCH  10  11
HETATM   11  C   UNL     1      -7.650   9.783  68.431  1.00  0.00    -0.080 C  
BRANCH  11  12
HETATM   12  C   UNL     1      -7.004   9.221  67.162  1.00  0.00    -0.085 C  
BRANCH  12  13
HETATM   13  C   UNL     1      -7.790   8.045  66.584  1.00  0.00    -0.098 C  
BRANCH  13  14
HETATM   14  C   UNL     1      -9.246   8.402  66.256  1.00  0.00    -0.263 C  
BRANCH  14  15
HETATM   15  C   UNL     1     -10.306   7.698  67.113  1.00  0.00    -0.385 C  
BRANCH  15  16
HETATM   16  C   UNL     1     -10.397   6.214  66.886  1.00  0.00    -0.307 C  
HETATM   17  C   UNL     1     -10.049   5.283  67.789  1.00  0.00    -0.205 C  
BRANCH  17  18
HETATM   18  C   UNL     1      -9.476   5.559  69.148  1.00  0.00    -0.169 C  
BRANCH  18  19
HETATM   19  C   UNL     1     -10.394   5.061  70.262  1.00  0.00    -0.299 C  
BRANCH  19  20
HETATM   20  C   UNL     1     -10.097   5.808  71.562  1.00  0.00    -0.246 C  
BRANCH  20  21
HETATM   21  C   UNL     1     -11.358   5.985  72.402  1.00  0.00    -0.349 C  
BRANCH  21  22
HETATM   22  C   UNL     1     -12.215   7.132  71.877  1.00  0.00    -0.358 C  
BRANCH  22  23
HETATM   23  C   UNL     1     -11.782   8.459  72.495  1.00  0.00    -0.429 C  
BRANCH  23  24
HETATM   24  C   UNL     1     -11.245   9.424  71.442  1.00  0.00    -0.452 C  
HETATM   25  C   UNL     1     -12.187  10.585  71.220  1.00  0.00    -0.368 C  
HETATM   26  O   UNL     1     -11.710  11.456  70.300  1.00  0.00    -0.322 OA 
HETATM   27  O   UNL     1     -13.251  10.752  71.785  1.00  0.00    -0.445 OA 
ENDBRANCH  23  24
ENDBRANCH  22  23
ENDBRANCH  21  22
ENDBRANCH  20  21
ENDBRANCH  19  20
ENDBRANCH  18  19
ENDBRANCH  17  18
ENDBRANCH  15  16
ENDBRANCH  14  15
ENDBRANCH  13  14
ENDBRANCH  12  13
ENDBRANCH  11  12
ENDBRANCH  10  11
ENDBRANCH   6  10
TORSDOF 15
ENDMDL
MODEL      200
REMARK 921   NORMALIZED FREE ENERGY PREDICTED BY IDOCK:   -4.06 KCAL/MOL
REMARK 922        TOTAL FREE ENERGY PREDICTED BY IDOCK:   -9.56 KCAL/MOL
REMARK 923 INTER-LIGAND FREE ENERGY PREDICTED BY IDOCK:   -8.62 KCAL/MOL
REMARK 924 INTRA-LIGAND FREE ENERGY PREDICTED BY IDOCK:   -0.95 KCAL/MOL
REMARK 927      BINDING AFFINITY PREDICTED BY RF-SCORE:    0.00 PKD
ROOT
ATOM      1  N   GLY A   1      -5.991  10.949  65.690  1.00  0.00    -0.308 NA 
HETATM    2  C   UNL     1     -12.452  12.087  63.373  1.00  0.00    -0.625 C  
ATOM      3  H2  GLY A   1      -5.670  10.888  64.724  1.00  0.00     0.000 HD 
ATOM      4  H1  GLY A   1      -5.764  11.850  66.110  1.00  0.00     0.000 HD 
ATOM      5  CA  GLY A   1      -7.431  10.683  65.807  1.00  0.00    -0.114 C  
HETATM    6  C   UNL     1     -12.398  13.513  63.898  1.00  0.00    -0.397 C  
ENDROOT
BRANCH   5   7
ATOM      7  C   GLY A   1      -7.773   9.331  65.176  1.00  0.00    -0.108 C  
ATOM      8  H   GLY A   1      -9.366   8.205  64.989  1.00  0.00     0.000 HD 
ATOM      9  O   GLY A   1      -9.154   9.044  65.381  1.00  0.00    -0.209 OA 
ENDBRANCH   5   7
BRANCH   6  10
HETATM   10  C   UNL     1     -12.654  13.625  65.400  1.00  0.00    -0.533 C  
BRANCH  10  11
HETATM   11  C   UNL     1     -11.610  12.928  66.276  1.00  0.00    -0.424 C  
BRANCH  11  12
HETATM   12  C   UNL     1     -10.212  13.160  65.697  1.00  0.00    -0.294 C  
BRANCH  12  13
HETATM   13  C   UNL     1      -9.673  14.552  66.023  1.00  0.00    -0.331 C  
BRANCH  13  14
HETATM   14  C   UNL     1      -9.900  14.954  67.487  1.00  0.00    -0.217 C  
BRANCH  14  15
HETATM   15  C   UNL     1     -10.951  16.047  67.714  1.00  0.00    -0.307 C  
BRANCH  15  16
HETATM   16  C   UNL     1     -10.677  16.930  68.901  1.00  0.00    -0.321 C  
HETATM   17  C   UNL     1     -10.913  16.586  70.176  1.00  0.00    -0.215 C  
BRANCH  17  18
HETATM   18  C   UNL     1     -11.522  15.292  70.631  1.00  0.00    -0.353 C  
BRANCH  18  19
HETATM   19  C   UNL     1     -12.138  15.413  72.023  1.00  0.00    -0.477 C  
BRANCH  19  20
HETATM   20  C   UNL     1     -13.662  15.350  71.931  1.00  0.00    -0.603 C  
BRANCH  20  21
HETATM   21  C   UNL     1     -14.171  13.922  72.104  1.00  0.00    -0.595 C  
BRANCH  21  22
HETATM   22  C   UNL     1     -13.043  12.981  72.517  1.00  0.00    -0.263 C  
BRANCH  22  23
HETATM   23  C   UNL     1     -12.810  11.915  71.449  1.00  0.00    -0.411 C  
BRANCH  23  24
HETATM   24  C   UNL     1     -13.305  10.545  71.903  1.00  0.00    -0.461 C  
HETATM   25  C   UNL     1     -12.278   9.467  71.641  1.00  0.00    -0.398 C  
HETATM   26  O   UNL     1     -12.700   8.251  72.057  1.00  0.00    -0.321 OA 
HETATM   27  O   UNL     1     -11.189   9.636  71.124  1.00  0.00    -0.331 OA 
ENDBRANCH  23  24
ENDBRANCH  22  23
ENDBRANCH  21  22
ENDBRANCH  20  21
ENDBRANCH  19  20
ENDBRANCH  18  19
ENDBRANCH  17  18
ENDBRANCH  15  16
ENDBRANCH  14  15
ENDBRANCH  13  14
ENDBRANCH  12  13
ENDBRANCH  11  12
ENDBRANCH  10  11
ENDBRANCH   6  10
TORSDOF 15
ENDMDL
MODEL      201
REMARK 921   NORMALIZED FREE ENERGY PREDICTED BY IDOCK:   -4.05 KCAL/MOL
REMARK 922        TOTAL FREE ENERGY PREDICTED BY IDOCK:   -9.55 KCAL/MOL
REMARK 923 INTER-LIGAND FREE ENERGY PREDICTED BY IDOCK:   -7.45 KCAL/MOL
REMARK 924 INTRA-LIGAND FREE ENERGY PREDICTED BY IDOCK:   -2.10 KCAL/MOL
REMARK 927      BINDING AFFINITY PREDICTED BY RF-SCORE:    0.00 PKD
ROOT
ATOM      1  N   GLY A   1      -9.356   7.978  73.585  1.00  0.00    -0.273 NA 
HETATM    2  C   UNL     1     -10.703   5.892  67.086  1.00  0.00    -0.387 C  
ATOM      3  H2  GLY A   1      -9.143   7.013  73.837  1.00  0.00     0.000 HD 
ATOM      4  H1  GLY A   1      -8.511   8.531  73.451  1.00  0.00     0.000 HD 
ATOM      5  CA  GLY A   1     -10.211   8.058  72.393  1.00  0.00    -0.280 C  
HETATM    6  C   UNL     1      -9.472   6.631  66.585  1.00  0.00    -0.201 C  
ENDROOT
BRANCH   5   7
ATOM      7  C   GLY A   1     -11.481   7.227  72.595  1.00  0.00    -0.261 C  
ATOM      8  H   GLY A   1     -12.841   6.399  71.453  1.00  0.00     0.000 HD 
ATOM      9  O   GLY A   1     -12.054   6.915  71.328  1.00  0.00    -0.335 OA 
ENDBRANCH   5   7
BRANCH   6  10
HETATM   10  C   UNL     1      -9.687   8.133  66.408  1.00  0.00    -0.275 C  
BRANCH  10  11
HETATM   11  C   UNL     1      -8.399   8.944  66.242  1.00  0.00    -0.119 C  
BRANCH  11  12
HETATM   12  C   UNL     1      -8.658  10.146  65.331  1.00  0.00    -0.165 C  
BRANCH  12  13
HETATM   13  C   UNL     1     -10.130  10.270  64.939  1.00  0.00    -0.346 C  
BRANCH  13  14
HETATM   14  C   UNL     1     -10.360  11.255  63.785  1.00  0.00    -0.453 C  
BRANCH  14  15
HETATM   15  C   UNL     1     -11.786  11.809  63.665  1.00  0.00    -0.517 C  
BRANCH  15  16
HETATM   16  C   UNL     1     -12.348  12.349  64.952  1.00  0.00    -0.475 C  
HETATM   17  C   UNL     1     -12.245  13.626  65.350  1.00  0.00    -0.474 C  
BRANCH  17  18
HETATM   18  C   UNL     1     -11.524  14.715  64.610  1.00  0.00    -0.389 C  
BRANCH  18  19
HETATM   19  C   UNL     1     -10.073  14.845  65.066  1.00  0.00    -0.300 C  
BRANCH  19  20
HETATM   20  C   UNL     1      -9.893  16.117  65.894  1.00  0.00    -0.384 C  
BRANCH  20  21
HETATM   21  C   UNL     1      -9.673  15.793  67.369  1.00  0.00    -0.223 C  
BRANCH  21  22
HETATM   22  C   UNL     1     -10.969  15.935  68.163  1.00  0.00    -0.335 C  
BRANCH  22  23
HETATM   23  C   UNL     1     -11.356  14.606  68.807  1.00  0.00    -0.302 C  
BRANCH  23  24
HETATM   24  C   UNL     1     -10.293  13.536  68.578  1.00  0.00    -0.242 C  
HETATM   25  C   UNL     1     -10.865  12.144  68.715  1.00  0.00    -0.228 C  
HETATM   26  O   UNL     1      -9.933  11.188  68.494  1.00  0.00    -0.186 OA 
HETATM   27  O   UNL     1     -12.021  11.877  68.984  1.00  0.00    -0.299 OA 
ENDBRANCH  23  24
ENDBRANCH  22  23
ENDBRANCH  21  22
ENDBRANCH  20  21
ENDBRANCH  19  20
ENDBRANCH  18  19
ENDBRANCH  17  18
ENDBRANCH  15  16
ENDBRANCH  14  15
ENDBRANCH  13  14
ENDBRANCH  12  13
ENDBRANCH  11  12
ENDBRANCH  10  11
ENDBRANCH   6  10
TORSDOF 15
ENDMDL
MODEL      202
REMARK 921   NORMALIZED FREE ENERGY PREDICTED BY IDOCK:   -4.05 KCAL/MOL
REMARK 922        TOTAL FREE ENERGY PREDICTED BY IDOCK:   -9.54 KCAL/MOL
REMARK 923 INTER-LIGAND FREE ENERGY PREDICTED BY IDOCK:   -7.45 KCAL/MOL
REMARK 924 INTRA-LIGAND FREE ENERGY PREDICTED BY IDOCK:   -2.09 KCAL/MOL
REMARK 927      BINDING AFFINITY PREDICTED BY RF-SCORE:    0.00 PKD
ROOT
ATOM      1  N   GLY A   1     -11.325  11.223  63.082  1.00  0.00    -0.836 NA 
HETATM    2  C   UNL     1      -7.268  12.832  68.500  1.00  0.00    -0.114 C  
ATOM      3  H2  GLY A   1     -11.903  10.654  63.700  1.00  0.00     0.000 HD 
ATOM      4  H1  GLY A   1     -11.758  12.123  62.877  1.00  0.00     0.000 HD 
ATOM      5  CA  GLY A   1      -9.973  11.421  63.622  1.00  0.00    -0.364 C  
HETATM    6  C   UNL     1      -7.749  14.273  68.443  1.00  0.00    -0.134 C  
ENDROOT
BRANCH   5   7
ATOM      7  C   GLY A   1      -9.323  10.069  63.929  1.00  0.00    -0.263 C  
ATOM      8  H   GLY A   1      -8.349   8.695  62.929  1.00  0.00     0.000 HD 
ATOM      9  O   GLY A   1      -8.752   9.533  62.738  1.00  0.00    -0.201 OA 
ENDBRANCH   5   7
BRANCH   6  10
HETATM   10  C   UNL     1      -7.059  15.109  67.365  1.00  0.00    -0.219 C  
BRANCH  10  11
HETATM   11  C   UNL     1      -6.875  16.584  67.728  1.00  0.00    -0.159 C  
BRANCH  11  12
HETATM   12  C   UNL     1      -6.803  17.426  66.451  1.00  0.00    -0.310 C  
BRANCH  12  13
HETATM   13  C   UNL     1      -6.344  18.857  66.724  1.00  0.00    -0.200 C  
BRANCH  13  14
HETATM   14  C   UNL     1      -6.587  19.296  68.174  1.00  0.00    -0.264 C  
BRANCH  14  15
HETATM   15  C   UNL     1      -7.963  19.913  68.454  1.00  0.00    -0.258 C  
BRANCH  15  16
HETATM   16  C   UNL     1      -8.766  20.219  67.219  1.00  0.00    -0.441 C  
HETATM   17  C   UNL     1      -9.946  19.655  66.920  1.00  0.00    -0.515 C  
BRANCH  17  18
HETATM   18  C   UNL     1     -10.641  18.603  67.735  1.00  0.00    -0.433 C  
BRANCH  18  19
HETATM   19  C   UNL     1     -10.719  17.270  66.995  1.00  0.00    -0.152 C  
BRANCH  19  20
HETATM   20  C   UNL     1     -10.817  16.118  67.994  1.00  0.00    -0.333 C  
BRANCH  20  21
HETATM   21  C   UNL     1     -11.424  14.875  67.351  1.00  0.00    -0.354 C  
BRANCH  21  22
HETATM   22  C   UNL     1     -11.747  13.813  68.399  1.00  0.00    -0.393 C  
BRANCH  22  23
HETATM   23  C   UNL     1     -11.575  12.411  67.819  1.00  0.00    -0.413 C  
BRANCH  23  24
HETATM   24  C   UNL     1     -10.696  11.537  68.709  1.00  0.00    -0.247 C  
HETATM   25  C   UNL     1     -11.512  10.812  69.756  1.00  0.00    -0.311 C  
HETATM   26  O   UNL     1     -10.743  10.020  70.538  1.00  0.00    -0.294 OA 
HETATM   27  O   UNL     1     -12.716  10.902  69.903  1.00  0.00    -0.240 OA 
ENDBRANCH  23  24
ENDBRANCH  22  23
ENDBRANCH  21  22
ENDBRANCH  20  21
ENDBRANCH  19  20
ENDBRANCH  18  19
ENDBRANCH  17  18
ENDBRANCH  15  16
ENDBRANCH  14  15
ENDBRANCH  13  14
ENDBRANCH  12  13
ENDBRANCH  11  12
ENDBRANCH  10  11
ENDBRANCH   6  10
TORSDOF 15
ENDMDL
MODEL      203
REMARK 921   NORMALIZED FREE ENERGY PREDICTED BY IDOCK:   -4.04 KCAL/MOL
REMARK 922        TOTAL FREE ENERGY PREDICTED BY IDOCK:   -9.53 KCAL/MOL
REMARK 923 INTER-LIGAND FREE ENERGY PREDICTED BY IDOCK:   -7.45 KCAL/MOL
REMARK 924 INTRA-LIGAND FREE ENERGY PREDICTED BY IDOCK:   -2.08 KCAL/MOL
REMARK 927      BINDING AFFINITY PREDICTED BY RF-SCORE:    0.00 PKD
ROOT
ATOM      1  N   GLY A   1      -9.100   8.042  73.334  1.00  0.00    -0.275 NA 
HETATM    2  C   UNL     1     -10.578  10.168  66.876  1.00  0.00    -0.267 C  
ATOM      3  H2  GLY A   1      -8.416   7.391  72.949  1.00  0.00     0.000 HD 
ATOM      4  H1  GLY A   1      -8.656   8.872  73.725  1.00  0.00     0.000 HD 
ATOM      5  CA  GLY A   1     -10.111   8.427  72.340  1.00  0.00    -0.316 C  
HETATM    6  C   UNL     1      -9.962  11.526  67.174  1.00  0.00    -0.222 C  
ENDROOT
BRANCH   5   7
ATOM      7  C   GLY A   1     -10.776   7.179  71.752  1.00  0.00    -0.215 C  
ATOM      8  H   GLY A   1     -12.267   6.795  70.539  1.00  0.00     0.000 HD 
ATOM      9  O   GLY A   1     -11.854   7.569  70.904  1.00  0.00    -0.292 OA 
ENDBRANCH   5   7
BRANCH   6  10
HETATM   10  C   UNL     1     -10.884  12.461  67.955  1.00  0.00    -0.251 C  
BRANCH  10  11
HETATM   11  C   UNL     1     -10.215  13.747  68.446  1.00  0.00    -0.248 C  
BRANCH  11  12
HETATM   12  C   UNL     1      -8.733  13.738  68.063  1.00  0.00    -0.181 C  
BRANCH  12  13
HETATM   13  C   UNL     1      -8.287  15.059  67.437  1.00  0.00    -0.210 C  
BRANCH  13  14
HETATM   14  C   UNL     1      -8.288  16.224  68.436  1.00  0.00    -0.190 C  
BRANCH  14  15
HETATM   15  C   UNL     1      -7.410  17.422  68.051  1.00  0.00    -0.195 C  
BRANCH  15  16
HETATM   16  C   UNL     1      -7.714  18.681  68.816  1.00  0.00    -0.329 C  
HETATM   17  C   UNL     1      -8.341  19.750  68.302  1.00  0.00    -0.312 C  
BRANCH  17  18
HETATM   18  C   UNL     1      -8.806  19.890  66.881  1.00  0.00    -0.419 C  
BRANCH  18  19
HETATM   19  C   UNL     1     -10.329  19.880  66.779  1.00  0.00    -0.599 C  
BRANCH  19  20
HETATM   20  C   UNL     1     -10.773  18.979  65.626  1.00  0.00    -0.252 C  
BRANCH  20  21
HETATM   21  C   UNL     1     -10.621  17.504  65.983  1.00  0.00    -0.217 C  
BRANCH  21  22
HETATM   22  C   UNL     1     -11.270  16.612  64.929  1.00  0.00    -0.065 C  
BRANCH  22  23
HETATM   23  C   UNL     1     -11.008  15.138  65.231  1.00  0.00    -0.405 C  
BRANCH  23  24
HETATM   24  C   UNL     1     -12.278  14.302  65.106  1.00  0.00    -0.422 C  
HETATM   25  C   UNL     1     -12.043  13.052  64.289  1.00  0.00    -0.414 C  
HETATM   26  O   UNL     1     -13.160  12.294  64.188  1.00  0.00    -0.749 OA 
HETATM   27  O   UNL     1     -10.989  12.730  63.774  1.00  0.00    -0.409 OA 
ENDBRANCH  23  24
ENDBRANCH  22  23
ENDBRANCH  21  22
ENDBRANCH  20  21
ENDBRANCH  19  20
ENDBRANCH  18  19
ENDBRANCH  17  18
ENDBRANCH  15  16
ENDBRANCH  14  15
ENDBRANCH  13  14
ENDBRANCH  12  13
ENDBRANCH  11  12
ENDBRANCH  10  11
ENDBRANCH   6  10
TORSDOF 15
ENDMDL
MODEL      204
REMARK 921   NORMALIZED FREE ENERGY PREDICTED BY IDOCK:   -4.04 KCAL/MOL
REMARK 922        TOTAL FREE ENERGY PREDICTED BY IDOCK:   -9.53 KCAL/MOL
REMARK 923 INTER-LIGAND FREE ENERGY PREDICTED BY IDOCK:   -7.37 KCAL/MOL
REMARK 924 INTRA-LIGAND FREE ENERGY PREDICTED BY IDOCK:   -2.16 KCAL/MOL
REMARK 927      BINDING AFFINITY PREDICTED BY RF-SCORE:    0.00 PKD
ROOT
ATOM      1  N   GLY A   1     -13.896  13.154  72.605  1.00  0.00    -0.746 NA 
HETATM    2  C   UNL     1     -12.512  14.327  65.888  1.00  0.00    -0.404 C  
ATOM      3  H2  GLY A   1     -14.852  13.473  72.450  1.00  0.00     0.000 HD 
ATOM      4  H1  GLY A   1     -13.837  12.137  72.651  1.00  0.00     0.000 HD 
ATOM      5  CA  GLY A   1     -12.973  13.671  71.585  1.00  0.00    -0.362 C  
HETATM    6  C   UNL     1     -12.368  12.833  65.648  1.00  0.00    -0.444 C  
ENDROOT
BRANCH   5   7
ATOM      7  C   GLY A   1     -13.062  15.199  71.517  1.00  0.00    -0.403 C  
ATOM      8  H   GLY A   1     -14.162  16.602  72.330  1.00  0.00     0.000 HD 
ATOM      9  O   GLY A   1     -14.107  15.654  72.372  1.00  0.00    -0.543 OA 
ENDBRANCH   5   7
BRANCH   6  10
HETATM   10  C   UNL     1     -11.015  12.268  66.081  1.00  0.00    -0.328 C  
BRANCH  10  11
HETATM   11  C   UNL     1     -11.082  10.875  66.713  1.00  0.00    -0.196 C  
BRANCH  11  12
HETATM   12  C   UNL     1     -11.477  10.995  68.187  1.00  0.00    -0.374 C  
BRANCH  12  13
HETATM   13  C   UNL     1     -10.323  11.491  69.058  1.00  0.00    -0.143 C  
BRANCH  13  14
HETATM   14  C   UNL     1      -9.037  10.675  68.868  1.00  0.00    -0.181 C  
BRANCH  14  15
HETATM   15  C   UNL     1      -7.746  11.497  68.758  1.00  0.00    -0.124 C  
BRANCH  15  16
HETATM   16  C   UNL     1      -7.610  12.265  67.471  1.00  0.00    -0.155 C  
HETATM   17  C   UNL     1      -7.884  13.571  67.333  1.00  0.00    -0.157 C  
BRANCH  17  18
HETATM   18  C   UNL     1      -8.406  14.472  68.414  1.00  0.00    -0.153 C  
BRANCH  18  19
HETATM   19  C   UNL     1      -7.375  15.519  68.828  1.00  0.00    -0.141 C  
BRANCH  19  20
HETATM   20  C   UNL     1      -6.500  15.898  67.633  1.00  0.00    -0.192 C  
BRANCH  20  21
HETATM   21  C   UNL     1      -6.423  17.411  67.459  1.00  0.00    -0.159 C  
BRANCH  21  22
HETATM   22  C   UNL     1      -7.130  17.857  66.182  1.00  0.00    -0.341 C  
BRANCH  22  23
HETATM   23  C   UNL     1      -8.636  17.961  66.405  1.00  0.00    -0.254 C  
BRANCH  23  24
HETATM   24  C   UNL     1      -8.964  18.621  67.740  1.00  0.00    -0.301 C  
HETATM   25  C   UNL     1     -10.192  19.498  67.641  1.00  0.00    -0.434 C  
HETATM   26  O   UNL     1     -10.502  20.073  68.826  1.00  0.00    -0.377 OA 
HETATM   27  O   UNL     1     -10.851  19.683  66.635  1.00  0.00    -0.462 OA 
ENDBRANCH  23  24
ENDBRANCH  22  23
ENDBRANCH  21  22
ENDBRANCH  20  21
ENDBRANCH  19  20
ENDBRANCH  18  19
ENDBRANCH  17  18
ENDBRANCH  15  16
ENDBRANCH  14  15
ENDBRANCH  13  14
ENDBRANCH  12  13
ENDBRANCH  11  12
ENDBRANCH  10  11
ENDBRANCH   6  10
TORSDOF 15
ENDMDL
MODEL      205
REMARK 921   NORMALIZED FREE ENERGY PREDICTED BY IDOCK:   -4.04 KCAL/MOL
REMARK 922        TOTAL FREE ENERGY PREDICTED BY IDOCK:   -9.52 KCAL/MOL
REMARK 923 INTER-LIGAND FREE ENERGY PREDICTED BY IDOCK:   -7.54 KCAL/MOL
REMARK 924 INTRA-LIGAND FREE ENERGY PREDICTED BY IDOCK:   -1.98 KCAL/MOL
REMARK 927      BINDING AFFINITY PREDICTED BY RF-SCORE:    0.00 PKD
ROOT
ATOM      1  N   GLY A   1      -7.611  14.213  69.345  1.00  0.00    -0.342 NA 
HETATM    2  C   UNL     1     -12.307  14.194  64.211  1.00  0.00    -0.398 C  
ATOM      3  H2  GLY A   1      -8.262  14.747  69.921  1.00  0.00     0.000 HD 
ATOM      4  H1  GLY A   1      -7.592  13.228  69.608  1.00  0.00     0.000 HD 
ATOM      5  CA  GLY A   1      -7.905  14.351  67.913  1.00  0.00    -0.150 C  
HETATM    6  C   UNL     1     -12.500  12.695  64.383  1.00  0.00    -0.509 C  
ENDROOT
BRANCH   5   7
ATOM      7  C   GLY A   1      -7.934  15.831  67.519  1.00  0.00    -0.150 C  
ATOM      8  H   GLY A   1      -9.200  17.053  66.657  1.00  0.00     0.000 HD 
ATOM      9  O   GLY A   1      -9.182  16.136  66.902  1.00  0.00    -0.209 OA 
ENDBRANCH   5   7
BRANCH   6  10
HETATM   10  C   UNL     1     -11.409  11.856  63.718  1.00  0.00    -0.532 C  
BRANCH  10  11
HETATM   11  C   UNL     1     -10.530  11.070  64.695  1.00  0.00    -0.398 C  
BRANCH  11  12
HETATM   12  C   UNL     1      -9.301  10.526  63.961  1.00  0.00    -0.308 C  
BRANCH  12  13
HETATM   13  C   UNL     1      -8.298   9.876  64.913  1.00  0.00    -0.154 C  
BRANCH  13  14
HETATM   14  C   UNL     1      -7.944  10.769  66.110  1.00  0.00    -0.157 C  
BRANCH  14  15
HETATM   15  C   UNL     1      -8.230  10.163  67.490  1.00  0.00    -0.114 C  
BRANCH  15  16
HETATM   16  C   UNL     1      -9.633  10.385  67.984  1.00  0.00    -0.156 C  
HETATM   17  C   UNL     1     -10.604   9.459  67.956  1.00  0.00    -0.278 C  
BRANCH  17  18
HETATM   18  C   UNL     1     -10.471   8.073  67.397  1.00  0.00    -0.357 C  
BRANCH  18  19
HETATM   19  C   UNL     1      -9.912   7.096  68.429  1.00  0.00    -0.166 C  
BRANCH  19  20
HETATM   20  C   UNL     1     -10.986   6.085  68.832  1.00  0.00    -0.395 C  
BRANCH  20  21
HETATM   21  C   UNL     1     -11.580   6.420  70.197  1.00  0.00    -0.449 C  
BRANCH  21  22
HETATM   22  C   UNL     1     -10.608   7.247  71.034  1.00  0.00    -0.235 C  
BRANCH  22  23
HETATM   23  C   UNL     1     -11.363   8.134  72.021  1.00  0.00    -0.378 C  
BRANCH  23  24
HETATM   24  C   UNL     1     -11.387   9.590  71.566  1.00  0.00    -0.456 C  
HETATM   25  C   UNL     1     -12.733  10.230  71.819  1.00  0.00    -0.433 C  
HETATM   26  O   UNL     1     -12.758  11.528  71.436  1.00  0.00    -0.397 OA 
HETATM   27  O   UNL     1     -13.698   9.678  72.311  1.00  0.00    -0.417 OA 
ENDBRANCH  23  24
ENDBRANCH  22  23
ENDBRANCH  21  22
ENDBRANCH  20  21
ENDBRANCH  19  20
ENDBRANCH  18  19
ENDBRANCH  17  18
ENDBRANCH  15  16
ENDBRANCH  14  15
ENDBRANCH  13  14
ENDBRANCH  12  13
ENDBRANCH  11  12
ENDBRANCH  10  11
ENDBRANCH   6  10
TORSDOF 15
ENDMDL
MODEL      206
REMARK 921   NORMALIZED FREE ENERGY PREDICTED BY IDOCK:   -4.03 KCAL/MOL
REMARK 922        TOTAL FREE ENERGY PREDICTED BY IDOCK:   -9.51 KCAL/MOL
REMARK 923 INTER-LIGAND FREE ENERGY PREDICTED BY IDOCK:   -7.74 KCAL/MOL
REMARK 924 INTRA-LIGAND FREE ENERGY PREDICTED BY IDOCK:   -1.77 KCAL/MOL
REMARK 927      BINDING AFFINITY PREDICTED BY RF-SCORE:    0.00 PKD
ROOT
ATOM      1  N   GLY A   1     -12.979  13.458  64.738  1.00  0.00    -0.701 NA 
HETATM    2  C   UNL     1      -9.056   7.874  66.095  1.00  0.00    -0.210 C  
ATOM      3  H2  GLY A   1     -13.139  13.101  63.796  1.00  0.00     0.000 HD 
ATOM      4  H1  GLY A   1     -13.780  13.297  65.348  1.00  0.00     0.000 HD 
ATOM      5  CA  GLY A   1     -11.762  12.895  65.339  1.00  0.00    -0.375 C  
HETATM    6  C   UNL     1     -10.101   7.369  67.077  1.00  0.00    -0.328 C  
ENDROOT
BRANCH   5   7
ATOM      7  C   GLY A   1     -10.559  13.137  64.424  1.00  0.00    -0.421 C  
ATOM      8  H   GLY A   1      -9.902  12.436  62.715  1.00  0.00     0.000 HD 
ATOM      9  O   GLY A   1     -10.649  12.286  63.283  1.00  0.00    -0.421 OA 
ENDBRANCH   5   7
BRANCH   6  10
HETATM   10  C   UNL     1     -10.038   8.049  68.445  1.00  0.00    -0.221 C  
BRANCH  10  11
HETATM   11  C   UNL     1     -10.897   9.310  68.566  1.00  0.00    -0.119 C  
BRANCH  11  12
HETATM   12  C   UNL     1     -10.143  10.375  69.367  1.00  0.00    -0.251 C  
BRANCH  12  13
HETATM   13  C   UNL     1      -8.914   9.805  70.075  1.00  0.00    -0.255 C  
BRANCH  13  14
HETATM   14  C   UNL     1      -7.593  10.322  69.489  1.00  0.00    -0.150 C  
BRANCH  14  15
HETATM   15  C   UNL     1      -7.731  11.325  68.337  1.00  0.00    -0.125 C  
BRANCH  15  16
HETATM   16  C   UNL     1      -7.157  12.684  68.629  1.00  0.00    -0.096 C  
HETATM   17  C   UNL     1      -7.789  13.844  68.392  1.00  0.00    -0.138 C  
BRANCH  17  18
HETATM   18  C   UNL     1      -9.145  13.985  67.764  1.00  0.00    -0.192 C  
BRANCH  18  19
HETATM   19  C   UNL     1      -9.325  15.350  67.102  1.00  0.00    -0.225 C  
BRANCH  19  20
HETATM   20  C   UNL     1     -10.622  16.001  67.582  1.00  0.00    -0.309 C  
BRANCH  20  21
HETATM   21  C   UNL     1     -10.585  16.272  69.083  1.00  0.00    -0.292 C  
BRANCH  21  22
HETATM   22  C   UNL     1     -11.898  15.870  69.749  1.00  0.00    -0.303 C  
BRANCH  22  23
HETATM   23  C   UNL     1     -11.721  15.740  71.260  1.00  0.00    -0.496 C  
BRANCH  23  24
HETATM   24  C   UNL     1     -12.305  14.433  71.786  1.00  0.00    -0.390 C  
HETATM   25  C   UNL     1     -13.740  14.604  72.231  1.00  0.00    -0.460 C  
HETATM   26  O   UNL     1     -14.273  13.444  72.682  1.00  0.00    -0.747 OA 
HETATM   27  O   UNL     1     -14.373  15.642  72.197  1.00  0.00    -0.514 OA 
ENDBRANCH  23  24
ENDBRANCH  22  23
ENDBRANCH  21  22
ENDBRANCH  20  21
ENDBRANCH  19  20
ENDBRANCH  18  19
ENDBRANCH  17  18
ENDBRANCH  15  16
ENDBRANCH  14  15
ENDBRANCH  13  14
ENDBRANCH  12  13
ENDBRANCH  11  12
ENDBRANCH  10  11
ENDBRANCH   6  10
TORSDOF 15
ENDMDL
MODEL      207
REMARK 921   NORMALIZED FREE ENERGY PREDICTED BY IDOCK:   -4.03 KCAL/MOL
REMARK 922        TOTAL FREE ENERGY PREDICTED BY IDOCK:   -9.51 KCAL/MOL
REMARK 923 INTER-LIGAND FREE ENERGY PREDICTED BY IDOCK:   -6.71 KCAL/MOL
REMARK 924 INTRA-LIGAND FREE ENERGY PREDICTED BY IDOCK:   -2.80 KCAL/MOL
REMARK 927      BINDING AFFINITY PREDICTED BY RF-SCORE:    0.00 PKD
ROOT
ATOM      1  N   GLY A   1     -11.018  16.477  67.642  1.00  0.00    -0.262 NA 
HETATM    2  C   UNL     1     -10.007   9.711  66.370  1.00  0.00    -0.323 C  
ATOM      3  H2  GLY A   1     -11.671  16.513  66.860  1.00  0.00     0.000 HD 
ATOM      4  H1  GLY A   1     -11.500  16.446  68.540  1.00  0.00     0.000 HD 
ATOM      5  CA  GLY A   1     -10.086  15.347  67.526  1.00  0.00    -0.233 C  
HETATM    6  C   UNL     1     -10.703   9.355  67.674  1.00  0.00    -0.295 C  
ENDROOT
BRANCH   5   7
ATOM      7  C   GLY A   1      -9.362  15.394  66.178  1.00  0.00    -0.332 C  
ATOM      8  H   GLY A   1      -9.793  14.981  64.312  1.00  0.00     0.000 HD 
ATOM      9  O   GLY A   1     -10.242  14.952  65.148  1.00  0.00    -0.383 OA 
ENDBRANCH   5   7
BRANCH   6  10
HETATM   10  C   UNL     1      -9.814   9.506  68.907  1.00  0.00    -0.179 C  
BRANCH  10  11
HETATM   11  C   UNL     1     -10.571   9.813  70.202  1.00  0.00    -0.337 C  
BRANCH  11  12
HETATM   12  C   UNL     1     -11.541  10.975  69.970  1.00  0.00    -0.427 C  
BRANCH  12  13
HETATM   13  C   UNL     1     -12.967  10.633  70.399  1.00  0.00    -0.210 C  
BRANCH  13  14
HETATM   14  C   UNL     1     -13.159  10.672  71.922  1.00  0.00    -0.563 C  
BRANCH  14  15
HETATM   15  C   UNL     1     -13.645   9.364  72.558  1.00  0.00    -0.441 C  
BRANCH  15  16
HETATM   16  C   UNL     1     -13.965   8.277  71.568  1.00  0.00    -0.412 C  
HETATM   17  C   UNL     1     -13.215   7.181  71.373  1.00  0.00    -0.391 C  
BRANCH  17  18
HETATM   18  C   UNL     1     -11.921   6.875  72.070  1.00  0.00    -0.342 C  
BRANCH  18  19
HETATM   19  C   UNL     1     -10.998   6.021  71.204  1.00  0.00    -0.341 C  
BRANCH  19  20
HETATM   20  C   UNL     1     -11.337   6.213  69.726  1.00  0.00    -0.452 C  
BRANCH  20  21
HETATM   21  C   UNL     1     -10.178   5.785  68.831  1.00  0.00    -0.267 C  
BRANCH  21  22
HETATM   22  C   UNL     1      -8.876   5.691  69.620  1.00  0.00    -0.121 C  
BRANCH  22  23
HETATM   23  C   UNL     1      -7.673   5.666  68.680  1.00  0.00    -0.092 C  
BRANCH  23  24
HETATM   24  C   UNL     1      -7.017   7.039  68.567  1.00  0.00    -0.075 C  
HETATM   25  C   UNL     1      -7.128   7.595  67.166  1.00  0.00    -0.085 C  
HETATM   26  O   UNL     1      -6.565   8.822  67.061  1.00  0.00    -0.060 OA 
HETATM   27  O   UNL     1      -7.658   7.039  66.223  1.00  0.00    -0.088 OA 
ENDBRANCH  23  24
ENDBRANCH  22  23
ENDBRANCH  21  22
ENDBRANCH  20  21
ENDBRANCH  19  20
ENDBRANCH  18  19
ENDBRANCH  17  18
ENDBRANCH  15  16
ENDBRANCH  14  15
ENDBRANCH  13  14
ENDBRANCH  12  13
ENDBRANCH  11  12
ENDBRANCH  10  11
ENDBRANCH   6  10
TORSDOF 15
ENDMDL
MODEL      208
REMARK 921   NORMALIZED FREE ENERGY PREDICTED BY IDOCK:   -4.03 KCAL/MOL
REMARK 922        TOTAL FREE ENERGY PREDICTED BY IDOCK:   -9.51 KCAL/MOL
REMARK 923 INTER-LIGAND FREE ENERGY PREDICTED BY IDOCK:   -7.16 KCAL/MOL
REMARK 924 INTRA-LIGAND FREE ENERGY PREDICTED BY IDOCK:   -2.34 KCAL/MOL
REMARK 927      BINDING AFFINITY PREDICTED BY RF-SCORE:    0.00 PKD
ROOT
ATOM      1  N   GLY A   1     -12.238  12.222  63.138  1.00  0.00    -0.717 NA 
HETATM    2  C   UNL     1      -8.075  11.189  68.617  1.00  0.00    -0.150 C  
ATOM      3  H2  GLY A   1     -11.518  12.809  62.718  1.00  0.00     0.000 HD 
ATOM      4  H1  GLY A   1     -12.261  11.292  62.721  1.00  0.00     0.000 HD 
ATOM      5  CA  GLY A   1     -12.083  12.122  64.596  1.00  0.00    -0.311 C  
HETATM    6  C   UNL     1      -7.912   9.728  68.227  1.00  0.00    -0.096 C  
ENDROOT
BRANCH   5   7
ATOM      7  C   GLY A   1     -12.048  13.519  65.221  1.00  0.00    -0.411 C  
ATOM      8  H   GLY A   1     -13.334  14.955  65.580  1.00  0.00     0.000 HD 
ATOM      9  O   GLY A   1     -13.355  14.088  65.192  1.00  0.00    -0.703 OA 
ENDBRANCH   5   7
BRANCH   6  10
HETATM   10  C   UNL     1      -9.088   8.846  68.645  1.00  0.00    -0.137 C  
BRANCH  10  11
HETATM   11  C   UNL     1     -10.331   8.986  67.763  1.00  0.00    -0.304 C  
BRANCH  11  12
HETATM   12  C   UNL     1     -10.359   7.860  66.726  1.00  0.00    -0.357 C  
BRANCH  12  13
HETATM   13  C   UNL     1     -11.106   6.626  67.230  1.00  0.00    -0.418 C  
BRANCH  13  14
HETATM   14  C   UNL     1     -10.590   5.320  66.610  1.00  0.00    -0.334 C  
BRANCH  14  15
HETATM   15  C   UNL     1      -9.168   5.379  66.038  1.00  0.00    -0.166 C  
BRANCH  15  16
HETATM   16  C   UNL     1      -8.267   4.269  66.508  1.00  0.00    -0.102 C  
HETATM   17  C   UNL     1      -7.568   4.291  67.654  1.00  0.00    -0.073 C  
BRANCH  17  18
HETATM   18  C   UNL     1      -7.531   5.429  68.632  1.00  0.00    -0.075 C  
BRANCH  18  19
HETATM   19  C   UNL     1      -8.013   5.003  70.016  1.00  0.00    -0.074 C  
BRANCH  19  20
HETATM   20  C   UNL     1      -9.539   5.056  70.083  1.00  0.00    -0.257 C  
BRANCH  20  21
HETATM   21  C   UNL     1     -10.022   6.339  70.751  1.00  0.00    -0.220 C  
BRANCH  21  22
HETATM   22  C   UNL     1     -11.530   6.308  70.981  1.00  0.00    -0.370 C  
BRANCH  22  23
HETATM   23  C   UNL     1     -11.893   7.003  72.291  1.00  0.00    -0.272 C  
BRANCH  23  24
HETATM   24  C   UNL     1     -11.618   8.502  72.230  1.00  0.00    -0.444 C  
HETATM   25  C   UNL     1     -12.884   9.289  71.976  1.00  0.00    -0.415 C  
HETATM   26  O   UNL     1     -12.653  10.622  71.938  1.00  0.00    -0.361 OA 
HETATM   27  O   UNL     1     -13.994   8.816  71.824  1.00  0.00    -0.397 OA 
ENDBRANCH  23  24
ENDBRANCH  22  23
ENDBRANCH  21  22
ENDBRANCH  20  21
ENDBRANCH  19  20
ENDBRANCH  18  19
ENDBRANCH  17  18
ENDBRANCH  15  16
ENDBRANCH  14  15
ENDBRANCH  13  14
ENDBRANCH  12  13
ENDBRANCH  11  12
ENDBRANCH  10  11
ENDBRANCH   6  10
TORSDOF 15
ENDMDL
MODEL      209
REMARK 921   NORMALIZED FREE ENERGY PREDICTED BY IDOCK:   -4.02 KCAL/MOL
REMARK 922        TOTAL FREE ENERGY PREDICTED BY IDOCK:   -9.50 KCAL/MOL
REMARK 923 INTER-LIGAND FREE ENERGY PREDICTED BY IDOCK:   -7.92 KCAL/MOL
REMARK 924 INTRA-LIGAND FREE ENERGY PREDICTED BY IDOCK:   -1.58 KCAL/MOL
REMARK 927      BINDING AFFINITY PREDICTED BY RF-SCORE:    0.00 PKD
ROOT
ATOM      1  N   GLY A   1      -6.604   8.589  73.580  1.00  0.00    -0.208 NA 
HETATM    2  C   UNL     1     -11.990  11.206  70.036  1.00  0.00    -0.447 C  
ATOM      3  H2  GLY A   1      -6.185   9.518  73.603  1.00  0.00     0.000 HD 
ATOM      4  H1  GLY A   1      -7.043   8.348  74.468  1.00  0.00     0.000 HD 
ATOM      5  CA  GLY A   1      -7.570   8.451  72.482  1.00  0.00    -0.084 C  
HETATM    6  C   UNL     1     -12.901  10.966  71.230  1.00  0.00    -0.536 C  
ENDROOT
BRANCH   5   7
ATOM      7  C   GLY A   1      -6.912   8.814  71.148  1.00  0.00    -0.082 C  
ATOM      8  H   GLY A   1      -7.404   9.822  69.542  1.00  0.00     0.000 HD 
ATOM      9  O   GLY A   1      -7.812   9.597  70.369  1.00  0.00    -0.155 OA 
ENDBRANCH   5   7
BRANCH   6  10
HETATM   10  C   UNL     1     -13.375   9.519  71.361  1.00  0.00    -0.435 C  
BRANCH  10  11
HETATM   11  C   UNL     1     -12.903   8.809  72.632  1.00  0.00    -0.294 C  
BRANCH  11  12
HETATM   12  C   UNL     1     -11.469   8.307  72.441  1.00  0.00    -0.463 C  
BRANCH  12  13
HETATM   13  C   UNL     1     -11.373   6.784  72.519  1.00  0.00    -0.292 C  
BRANCH  13  14
HETATM   14  C   UNL     1     -10.474   6.185  71.428  1.00  0.00    -0.273 C  
BRANCH  14  15
HETATM   15  C   UNL     1     -10.302   7.045  70.170  1.00  0.00    -0.213 C  
BRANCH  15  16
HETATM   16  C   UNL     1     -11.101   6.574  68.986  1.00  0.00    -0.375 C  
HETATM   17  C   UNL     1     -10.800   6.850  67.707  1.00  0.00    -0.312 C  
BRANCH  17  18
HETATM   18  C   UNL     1      -9.653   7.700  67.245  1.00  0.00    -0.201 C  
BRANCH  18  19
HETATM   19  C   UNL     1     -10.100   8.761  66.243  1.00  0.00    -0.254 C  
BRANCH  19  20
HETATM   20  C   UNL     1      -8.923   9.661  65.868  1.00  0.00    -0.203 C  
BRANCH  20  21
HETATM   21  C   UNL     1      -9.270  11.135  66.051  1.00  0.00    -0.223 C  
BRANCH  21  22
HETATM   22  C   UNL     1     -10.496  11.519  65.227  1.00  0.00    -0.336 C  
BRANCH  22  23
HETATM   23  C   UNL     1     -11.403  12.462  66.015  1.00  0.00    -0.397 C  
BRANCH  23  24
HETATM   24  C   UNL     1     -12.423  13.149  65.111  1.00  0.00    -0.539 C  
HETATM   25  C   UNL     1     -11.885  14.445  64.550  1.00  0.00    -0.449 C  
HETATM   26  O   UNL     1     -12.775  15.053  63.732  1.00  0.00    -0.741 OA 
HETATM   27  O   UNL     1     -10.786  14.914  64.780  1.00  0.00    -0.404 OA 
ENDBRANCH  23  24
ENDBRANCH  22  23
ENDBRANCH  21  22
ENDBRANCH  20  21
ENDBRANCH  19  20
ENDBRANCH  18  19
ENDBRANCH  17  18
ENDBRANCH  15  16
ENDBRANCH  14  15
ENDBRANCH  13  14
ENDBRANCH  12  13
ENDBRANCH  11  12
ENDBRANCH  10  11
ENDBRANCH   6  10
TORSDOF 15
ENDMDL
MODEL      210
REMARK 921   NORMALIZED FREE ENERGY PREDICTED BY IDOCK:   -4.02 KCAL/MOL
REMARK 922        TOTAL FREE ENERGY PREDICTED BY IDOCK:   -9.50 KCAL/MOL
REMARK 923 INTER-LIGAND FREE ENERGY PREDICTED BY IDOCK:   -8.44 KCAL/MOL
REMARK 924 INTRA-LIGAND FREE ENERGY PREDICTED BY IDOCK:   -1.06 KCAL/MOL
REMARK 927      BINDING AFFINITY PREDICTED BY RF-SCORE:    0.00 PKD
ROOT
ATOM      1  N   GLY A   1     -13.937  15.528  70.868  1.00  0.00    -0.853 NA 
HETATM    2  C   UNL     1      -8.276  18.820  68.516  1.00  0.00    -0.379 C  
ATOM      3  H2  GLY A   1     -14.305  16.422  71.193  1.00  0.00     0.000 HD 
ATOM      4  H1  GLY A   1     -14.375  15.230  69.998  1.00  0.00     0.000 HD 
ATOM      5  CA  GLY A   1     -12.476  15.560  70.717  1.00  0.00    -0.440 C  
HETATM    6  C   UNL     1      -8.690  18.524  67.083  1.00  0.00    -0.274 C  
ENDROOT
BRANCH   5   7
ATOM      7  C   GLY A   1     -11.817  16.009  72.024  1.00  0.00    -0.533 C  
ATOM      8  H   GLY A   1     -12.409  16.469  73.835  1.00  0.00     0.000 HD 
ATOM      9  O   GLY A   1     -12.817  16.191  73.024  1.00  0.00    -0.457 OA 
ENDBRANCH   5   7
BRANCH   6  10
HETATM   10  C   UNL     1      -8.354  17.105  66.627  1.00  0.00    -0.286 C  
BRANCH  10  11
HETATM   11  C   UNL     1      -9.540  16.137  66.640  1.00  0.00    -0.263 C  
BRANCH  11  12
HETATM   12  C   UNL     1     -10.547  16.538  65.559  1.00  0.00    -0.310 C  
BRANCH  12  13
HETATM   13  C   UNL     1     -11.094  15.332  64.799  1.00  0.00    -0.407 C  
BRANCH  13  14
HETATM   14  C   UNL     1     -10.315  14.041  65.086  1.00  0.00    -0.422 C  
BRANCH  14  15
HETATM   15  C   UNL     1     -11.122  12.742  64.960  1.00  0.00    -0.317 C  
BRANCH  15  16
HETATM   16  C   UNL     1     -11.752  12.280  66.245  1.00  0.00    -0.431 C  
HETATM   17  C   UNL     1     -11.212  11.374  67.075  1.00  0.00    -0.350 C  
BRANCH  17  18
HETATM   18  C   UNL     1      -9.920  10.645  66.847  1.00  0.00    -0.245 C  
BRANCH  18  19
HETATM   19  C   UNL     1     -10.022   9.660  65.685  1.00  0.00    -0.321 C  
BRANCH  19  20
HETATM   20  C   UNL     1      -8.884   8.642  65.756  1.00  0.00    -0.231 C  
BRANCH  20  21
HETATM   21  C   UNL     1      -9.095   7.653  66.898  1.00  0.00    -0.171 C  
BRANCH  21  22
HETATM   22  C   UNL     1      -9.193   6.222  66.378  1.00  0.00    -0.173 C  
BRANCH  22  23
HETATM   23  C   UNL     1     -10.486   5.562  66.849  1.00  0.00    -0.348 C  
BRANCH  23  24
HETATM   24  C   UNL     1     -11.259   6.459  67.812  1.00  0.00    -0.258 C  
HETATM   25  C   UNL     1     -11.112   5.995  69.243  1.00  0.00    -0.354 C  
HETATM   26  O   UNL     1     -11.779   6.796  70.107  1.00  0.00    -0.357 OA 
HETATM   27  O   UNL     1     -10.475   5.027  69.612  1.00  0.00    -0.255 OA 
ENDBRANCH  23  24
ENDBRANCH  22  23
ENDBRANCH  21  22
ENDBRANCH  20  21
ENDBRANCH  19  20
ENDBRANCH  18  19
ENDBRANCH  17  18
ENDBRANCH  15  16
ENDBRANCH  14  15
ENDBRANCH  13  14
ENDBRANCH  12  13
ENDBRANCH  11  12
ENDBRANCH  10  11
ENDBRANCH   6  10
TORSDOF 15
ENDMDL
MODEL      211
REMARK 921   NORMALIZED FREE ENERGY PREDICTED BY IDOCK:   -4.01 KCAL/MOL
REMARK 922        TOTAL FREE ENERGY PREDICTED BY IDOCK:   -9.48 KCAL/MOL
REMARK 923 INTER-LIGAND FREE ENERGY PREDICTED BY IDOCK:   -7.93 KCAL/MOL
REMARK 924 INTRA-LIGAND FREE ENERGY PREDICTED BY IDOCK:   -1.55 KCAL/MOL
REMARK 927      BINDING AFFINITY PREDICTED BY RF-SCORE:    0.00 PKD
ROOT
ATOM      1  N   GLY A   1      -9.475   5.548  72.219  1.00  0.00    -0.145 NA 
HETATM    2  C   UNL     1     -11.876  11.711  70.061  1.00  0.00    -0.435 C  
ATOM      3  H2  GLY A   1     -10.390   5.347  72.623  1.00  0.00     0.000 HD 
ATOM      4  H1  GLY A   1      -9.335   5.062  71.334  1.00  0.00     0.000 HD 
ATOM      5  CA  GLY A   1      -9.255   6.990  72.048  1.00  0.00    -0.138 C  
HETATM    6  C   UNL     1     -11.782  11.250  68.615  1.00  0.00    -0.391 C  
ENDROOT
BRANCH   5   7
ATOM      7  C   GLY A   1      -9.466   7.719  73.378  1.00  0.00    -0.287 C  
ATOM      8  H   GLY A   1      -8.517   9.074  74.428  1.00  0.00     0.000 HD 
ATOM      9  O   GLY A   1      -8.387   8.622  73.603  1.00  0.00    -0.380 OA 
ENDBRANCH   5   7
BRANCH   6  10
HETATM   10  C   UNL     1     -10.369  11.323  68.038  1.00  0.00    -0.204 C  
BRANCH  10  11
HETATM   11  C   UNL     1     -10.077  10.296  66.941  1.00  0.00    -0.274 C  
BRANCH  11  12
HETATM   12  C   UNL     1      -9.324  10.969  65.790  1.00  0.00    -0.236 C  
BRANCH  12  13
HETATM   13  C   UNL     1      -9.717  10.398  64.428  1.00  0.00    -0.396 C  
BRANCH  13  14
HETATM   14  C   UNL     1     -10.308  11.455  63.485  1.00  0.00    -0.476 C  
BRANCH  14  15
HETATM   15  C   UNL     1     -11.780  11.810  63.733  1.00  0.00    -0.499 C  
BRANCH  15  16
HETATM   16  C   UNL     1     -12.111  13.260  63.510  1.00  0.00    -0.550 C  
HETATM   17  C   UNL     1     -12.267  14.164  64.489  1.00  0.00    -0.468 C  
BRANCH  17  18
HETATM   18  C   UNL     1     -12.180  13.880  65.960  1.00  0.00    -0.495 C  
BRANCH  18  19
HETATM   19  C   UNL     1     -10.828  14.291  66.538  1.00  0.00    -0.304 C  
BRANCH  19  20
HETATM   20  C   UNL     1     -10.561  15.769  66.254  1.00  0.00    -0.313 C  
BRANCH  20  21
HETATM   21  C   UNL     1      -9.081  16.024  65.984  1.00  0.00    -0.361 C  
BRANCH  21  22
HETATM   22  C   UNL     1      -8.742  17.505  66.127  1.00  0.00    -0.155 C  
BRANCH  22  23
HETATM   23  C   UNL     1      -7.236  17.703  66.280  1.00  0.00    -0.342 C  
BRANCH  23  24
HETATM   24  C   UNL     1      -6.820  19.135  65.961  1.00  0.00    -0.270 C  
HETATM   25  C   UNL     1      -6.778  19.993  67.206  1.00  0.00    -0.218 C  
HETATM   26  O   UNL     1      -6.392  21.261  66.935  1.00  0.00    -0.303 OA 
HETATM   27  O   UNL     1      -7.047  19.620  68.332  1.00  0.00    -0.287 OA 
ENDBRANCH  23  24
ENDBRANCH  22  23
ENDBRANCH  21  22
ENDBRANCH  20  21
ENDBRANCH  19  20
ENDBRANCH  18  19
ENDBRANCH  17  18
ENDBRANCH  15  16
ENDBRANCH  14  15
ENDBRANCH  13  14
ENDBRANCH  12  13
ENDBRANCH  11  12
ENDBRANCH  10  11
ENDBRANCH   6  10
TORSDOF 15
ENDMDL
MODEL      212
REMARK 921   NORMALIZED FREE ENERGY PREDICTED BY IDOCK:   -4.00 KCAL/MOL
REMARK 922        TOTAL FREE ENERGY PREDICTED BY IDOCK:   -9.46 KCAL/MOL
REMARK 923 INTER-LIGAND FREE ENERGY PREDICTED BY IDOCK:   -7.58 KCAL/MOL
REMARK 924 INTRA-LIGAND FREE ENERGY PREDICTED BY IDOCK:   -1.88 KCAL/MOL
REMARK 927      BINDING AFFINITY PREDICTED BY RF-SCORE:    0.00 PKD
ROOT
ATOM      1  N   GLY A   1      -5.760  13.624  67.088  1.00  0.00    -0.243 NA 
HETATM    2  C   UNL     1      -9.060   9.146  71.268  1.00  0.00    -0.232 C  
ATOM      3  H2  GLY A   1      -4.882  13.146  67.290  1.00  0.00     0.000 HD 
ATOM      4  H1  GLY A   1      -6.133  13.363  66.175  1.00  0.00     0.000 HD 
ATOM      5  CA  GLY A   1      -6.765  13.391  68.133  1.00  0.00    -0.117 C  
HETATM    6  C   UNL     1      -9.771   8.539  70.068  1.00  0.00    -0.172 C  
ENDROOT
BRANCH   5   7
ATOM      7  C   GLY A   1      -6.205  13.781  69.503  1.00  0.00    -0.116 C  
ATOM      8  H   GLY A   1      -5.765  12.865  71.179  1.00  0.00     0.000 HD 
ATOM      9  O   GLY A   1      -6.113  12.623  70.329  1.00  0.00    -0.148 OA 
ENDBRANCH   5   7
BRANCH   6  10
HETATM   10  C   UNL     1     -10.971   9.355  69.588  1.00  0.00    -0.216 C  
BRANCH  10  11
HETATM   11  C   UNL     1     -10.845   9.887  68.159  1.00  0.00    -0.282 C  
BRANCH  11  12
HETATM   12  C   UNL     1     -10.389   8.762  67.226  1.00  0.00    -0.360 C  
BRANCH  12  13
HETATM   13  C   UNL     1      -9.572   9.284  66.045  1.00  0.00    -0.338 C  
BRANCH  13  14
HETATM   14  C   UNL     1      -9.800  10.777  65.772  1.00  0.00    -0.292 C  
BRANCH  14  15
HETATM   15  C   UNL     1     -10.639  11.099  64.530  1.00  0.00    -0.397 C  
BRANCH  15  16
HETATM   16  C   UNL     1     -10.358  12.450  63.928  1.00  0.00    -0.450 C  
HETATM   17  C   UNL     1     -10.993  13.582  64.271  1.00  0.00    -0.355 C  
BRANCH  17  18
HETATM   18  C   UNL     1     -12.108  13.688  65.270  1.00  0.00    -0.429 C  
BRANCH  18  19
HETATM   19  C   UNL     1     -11.627  14.274  66.595  1.00  0.00    -0.397 C  
BRANCH  19  20
HETATM   20  C   UNL     1     -12.072  13.386  67.757  1.00  0.00    -0.299 C  
BRANCH  20  21
HETATM   21  C   UNL     1     -11.128  13.515  68.948  1.00  0.00    -0.305 C  
BRANCH  21  22
HETATM   22  C   UNL     1     -10.705  14.965  69.162  1.00  0.00    -0.253 C  
BRANCH  22  23
HETATM   23  C   UNL     1     -11.370  15.545  70.408  1.00  0.00    -0.360 C  
BRANCH  23  24
HETATM   24  C   UNL     1     -12.145  14.482  71.181  1.00  0.00    -0.408 C  
HETATM   25  C   UNL     1     -12.640  15.008  72.509  1.00  0.00    -0.357 C  
HETATM   26  O   UNL     1     -13.344  14.077  73.193  1.00  0.00    -0.613 OA 
HETATM   27  O   UNL     1     -12.451  16.130  72.940  1.00  0.00    -0.446 OA 
ENDBRANCH  23  24
ENDBRANCH  22  23
ENDBRANCH  21  22
ENDBRANCH  20  21
ENDBRANCH  19  20
ENDBRANCH  18  19
ENDBRANCH  17  18
ENDBRANCH  15  16
ENDBRANCH  14  15
ENDBRANCH  13  14
ENDBRANCH  12  13
ENDBRANCH  11  12
ENDBRANCH  10  11
ENDBRANCH   6  10
TORSDOF 15
ENDMDL
MODEL      213
REMARK 921   NORMALIZED FREE ENERGY PREDICTED BY IDOCK:   -4.00 KCAL/MOL
REMARK 922        TOTAL FREE ENERGY PREDICTED BY IDOCK:   -9.45 KCAL/MOL
REMARK 923 INTER-LIGAND FREE ENERGY PREDICTED BY IDOCK:   -8.13 KCAL/MOL
REMARK 924 INTRA-LIGAND FREE ENERGY PREDICTED BY IDOCK:   -1.32 KCAL/MOL
REMARK 927      BINDING AFFINITY PREDICTED BY RF-SCORE:    0.00 PKD
ROOT
ATOM      1  N   GLY A   1     -10.139  13.275  63.963  1.00  0.00    -0.776 NA 
HETATM    2  C   UNL     1     -10.736  19.790  66.330  1.00  0.00    -0.499 C  
ATOM      3  H2  GLY A   1     -10.273  13.621  63.013  1.00  0.00     0.000 HD 
ATOM      4  H1  GLY A   1      -9.158  13.075  64.160  1.00  0.00     0.000 HD 
ATOM      5  CA  GLY A   1     -10.680  14.200  64.967  1.00  0.00    -0.416 C  
HETATM    6  C   UNL     1      -9.269  19.788  66.730  1.00  0.00    -0.457 C  
ENDROOT
BRANCH   5   7
ATOM      7  C   GLY A   1     -12.153  14.500  64.671  1.00  0.00    -0.473 C  
ATOM      8  H   GLY A   1     -13.426  14.111  63.233  1.00  0.00     0.000 HD 
ATOM      9  O   GLY A   1     -12.513  13.926  63.417  1.00  0.00    -0.833 OA 
ENDBRANCH   5   7
BRANCH   6  10
HETATM   10  C   UNL     1      -8.993  19.072  68.052  1.00  0.00    -0.348 C  
BRANCH  10  11
HETATM   11  C   UNL     1      -8.074  17.854  67.934  1.00  0.00    -0.244 C  
BRANCH  11  12
HETATM   12  C   UNL     1      -8.670  16.679  68.713  1.00  0.00    -0.260 C  
BRANCH  12  13
HETATM   13  C   UNL     1      -9.809  15.999  67.955  1.00  0.00    -0.222 C  
BRANCH  13  14
HETATM   14  C   UNL     1     -11.170  16.166  68.645  1.00  0.00    -0.369 C  
BRANCH  14  15
HETATM   15  C   UNL     1     -12.078  14.931  68.620  1.00  0.00    -0.205 C  
BRANCH  15  16
HETATM   16  C   UNL     1     -11.994  14.078  69.857  1.00  0.00    -0.399 C  
HETATM   17  C   UNL     1     -11.941  12.737  69.854  1.00  0.00    -0.368 C  
BRANCH  17  18
HETATM   18  C   UNL     1     -11.997  11.865  68.633  1.00  0.00    -0.291 C  
BRANCH  18  19
HETATM   19  C   UNL     1     -11.204  10.574  68.821  1.00  0.00    -0.317 C  
BRANCH  19  20
HETATM   20  C   UNL     1     -11.501   9.967  70.192  1.00  0.00    -0.344 C  
BRANCH  20  21
HETATM   21  C   UNL     1     -10.216   9.649  70.950  1.00  0.00    -0.303 C  
BRANCH  21  22
HETATM   22  C   UNL     1     -10.467   8.631  72.059  1.00  0.00    -0.422 C  
BRANCH  22  23
HETATM   23  C   UNL     1      -9.423   7.518  72.018  1.00  0.00    -0.174 C  
BRANCH  23  24
HETATM   24  C   UNL     1      -9.246   6.962  70.608  1.00  0.00    -0.158 C  
HETATM   25  C   UNL     1      -7.801   7.011  70.168  1.00  0.00    -0.109 C  
HETATM   26  O   UNL     1      -7.631   6.503  68.925  1.00  0.00    -0.096 OA 
HETATM   27  O   UNL     1      -6.874   7.443  70.827  1.00  0.00    -0.047 OA 
ENDBRANCH  23  24
ENDBRANCH  22  23
ENDBRANCH  21  22
ENDBRANCH  20  21
ENDBRANCH  19  20
ENDBRANCH  18  19
ENDBRANCH  17  18
ENDBRANCH  15  16
ENDBRANCH  14  15
ENDBRANCH  13  14
ENDBRANCH  12  13
ENDBRANCH  11  12
ENDBRANCH  10  11
ENDBRANCH   6  10
TORSDOF 15
ENDMDL
MODEL      214
REMARK 921   NORMALIZED FREE ENERGY PREDICTED BY IDOCK:   -4.00 KCAL/MOL
REMARK 922        TOTAL FREE ENERGY PREDICTED BY IDOCK:   -9.45 KCAL/MOL
REMARK 923 INTER-LIGAND FREE ENERGY PREDICTED BY IDOCK:   -7.79 KCAL/MOL
REMARK 924 INTRA-LIGAND FREE ENERGY PREDICTED BY IDOCK:   -1.65 KCAL/MOL
REMARK 927      BINDING AFFINITY PREDICTED BY RF-SCORE:    0.00 PKD
ROOT
ATOM      1  N   GLY A   1      -6.029   8.160  72.285  1.00  0.00    -0.044 NA 
HETATM    2  C   UNL     1     -12.589  10.279  71.340  1.00  0.00    -0.539 C  
ATOM      3  H2  GLY A   1      -5.862   8.981  72.867  1.00  0.00     0.000 HD 
ATOM      4  H1  GLY A   1      -6.166   7.318  72.844  1.00  0.00     0.000 HD 
ATOM      5  CA  GLY A   1      -7.166   8.355  71.375  1.00  0.00    -0.084 C  
HETATM    6  C   UNL     1     -13.095   9.100  72.155  1.00  0.00    -0.516 C  
ENDROOT
BRANCH   5   7
ATOM      7  C   GLY A   1      -6.962   9.620  70.536  1.00  0.00    -0.130 C  
ATOM      8  H   GLY A   1      -6.705  10.048  68.641  1.00  0.00     0.000 HD 
ATOM      9  O   GLY A   1      -6.832   9.264  69.162  1.00  0.00    -0.049 OA 
ENDBRANCH   5   7
BRANCH   6  10
HETATM   10  C   UNL     1     -13.148   7.788  71.373  1.00  0.00    -0.310 C  
BRANCH  10  11
HETATM   11  C   UNL     1     -12.035   6.797  71.721  1.00  0.00    -0.382 C  
BRANCH  11  12
HETATM   12  C   UNL     1     -10.782   7.116  70.901  1.00  0.00    -0.251 C  
BRANCH  12  13
HETATM   13  C   UNL     1     -11.075   7.200  69.404  1.00  0.00    -0.141 C  
BRANCH  13  14
HETATM   14  C   UNL     1      -9.971   7.922  68.619  1.00  0.00    -0.201 C  
BRANCH  14  15
HETATM   15  C   UNL     1     -10.459   8.845  67.495  1.00  0.00    -0.337 C  
BRANCH  15  16
HETATM   16  C   UNL     1      -9.597   8.826  66.262  1.00  0.00    -0.328 C  
HETATM   17  C   UNL     1      -9.589   9.786  65.325  1.00  0.00    -0.368 C  
BRANCH  17  18
HETATM   18  C   UNL     1     -10.458  11.010  65.323  1.00  0.00    -0.316 C  
BRANCH  18  19
HETATM   19  C   UNL     1     -10.807  11.456  63.905  1.00  0.00    -0.463 C  
BRANCH  19  20
HETATM   20  C   UNL     1     -12.084  12.295  63.916  1.00  0.00    -0.598 C  
BRANCH  20  21
HETATM   21  C   UNL     1     -11.797  13.739  64.317  1.00  0.00    -0.451 C  
BRANCH  21  22
HETATM   22  C   UNL     1     -12.449  14.081  65.653  1.00  0.00    -0.531 C  
BRANCH  22  23
HETATM   23  C   UNL     1     -11.390  14.360  66.717  1.00  0.00    -0.360 C  
BRANCH  23  24
HETATM   24  C   UNL     1     -11.629  13.537  67.980  1.00  0.00    -0.372 C  
HETATM   25  C   UNL     1     -11.937  14.419  69.168  1.00  0.00    -0.322 C  
HETATM   26  O   UNL     1     -12.169  13.697  70.289  1.00  0.00    -0.330 OA 
HETATM   27  O   UNL     1     -11.985  15.635  69.155  1.00  0.00    -0.368 OA 
ENDBRANCH  23  24
ENDBRANCH  22  23
ENDBRANCH  21  22
ENDBRANCH  20  21
ENDBRANCH  19  20
ENDBRANCH  18  19
ENDBRANCH  17  18
ENDBRANCH  15  16
ENDBRANCH  14  15
ENDBRANCH  13  14
ENDBRANCH  12  13
ENDBRANCH  11  12
ENDBRANCH  10  11
ENDBRANCH   6  10
TORSDOF 15
ENDMDL
MODEL      215
REMARK 921   NORMALIZED FREE ENERGY PREDICTED BY IDOCK:   -3.98 KCAL/MOL
REMARK 922        TOTAL FREE ENERGY PREDICTED BY IDOCK:   -9.43 KCAL/MOL
REMARK 923 INTER-LIGAND FREE ENERGY PREDICTED BY IDOCK:   -8.21 KCAL/MOL
REMARK 924 INTRA-LIGAND FREE ENERGY PREDICTED BY IDOCK:   -1.21 KCAL/MOL
REMARK 927      BINDING AFFINITY PREDICTED BY RF-SCORE:    0.00 PKD
ROOT
ATOM      1  N   GLY A   1     -14.285   8.964  73.079  1.00  0.00    -1.158 NA 
HETATM    2  C   UNL     1     -10.948   7.037  67.286  1.00  0.00    -0.372 C  
ATOM      3  H2  GLY A   1     -15.170   8.893  72.577  1.00  0.00     0.000 HD 
ATOM      4  H1  GLY A   1     -14.124   8.159  73.684  1.00  0.00     0.000 HD 
ATOM      5  CA  GLY A   1     -13.149   9.147  72.165  1.00  0.00    -0.446 C  
HETATM    6  C   UNL     1     -10.559   5.720  67.939  1.00  0.00    -0.304 C  
ENDROOT
BRANCH   5   7
ATOM      7  C   GLY A   1     -13.391  10.356  71.256  1.00  0.00    -0.246 C  
ATOM      8  H   GLY A   1     -13.196  12.301  71.388  1.00  0.00     0.000 HD 
ATOM      9  O   GLY A   1     -13.046  11.551  71.951  1.00  0.00    -0.481 OA 
ENDBRANCH   5   7
BRANCH   6  10
HETATM   10  C   UNL     1      -9.363   5.831  68.883  1.00  0.00    -0.141 C  
BRANCH  10  11
HETATM   11  C   UNL     1      -8.054   6.242  68.204  1.00  0.00    -0.115 C  
BRANCH  11  12
HETATM   12  C   UNL     1      -7.583   7.588  68.760  1.00  0.00    -0.106 C  
BRANCH  12  13
HETATM   13  C   UNL     1      -8.121   8.769  67.953  1.00  0.00    -0.107 C  
BRANCH  13  14
HETATM   14  C   UNL     1      -7.295   9.057  66.691  1.00  0.00    -0.086 C  
BRANCH  14  15
HETATM   15  C   UNL     1      -7.929   8.604  65.371  1.00  0.00    -0.111 C  
BRANCH  15  16
HETATM   16  C   UNL     1      -7.599   9.482  64.194  1.00  0.00    -0.123 C  
HETATM   17  C   UNL     1      -8.465  10.320  63.603  1.00  0.00    -0.183 C  
BRANCH  17  18
HETATM   18  C   UNL     1      -9.907  10.494  63.983  1.00  0.00    -0.387 C  
BRANCH  18  19
HETATM   19  C   UNL     1     -10.422  11.887  63.631  1.00  0.00    -0.493 C  
BRANCH  19  20
HETATM   20  C   UNL     1     -11.948  11.920  63.712  1.00  0.00    -0.547 C  
BRANCH  20  21
HETATM   21  C   UNL     1     -12.422  12.628  64.978  1.00  0.00    -0.556 C  
BRANCH  21  22
HETATM   22  C   UNL     1     -12.339  14.144  64.827  1.00  0.00    -0.436 C  
BRANCH  22  23
HETATM   23  C   UNL     1     -11.512  14.756  65.955  1.00  0.00    -0.316 C  
BRANCH  23  24
HETATM   24  C   UNL     1     -10.211  15.360  65.437  1.00  0.00    -0.408 C  
HETATM   25  C   UNL     1      -9.910  16.685  66.100  1.00  0.00    -0.318 C  
HETATM   26  O   UNL     1      -8.747  17.220  65.660  1.00  0.00    -0.473 OA 
HETATM   27  O   UNL     1     -10.603  17.232  66.937  1.00  0.00    -0.300 OA 
ENDBRANCH  23  24
ENDBRANCH  22  23
ENDBRANCH  21  22
ENDBRANCH  20  21
ENDBRANCH  19  20
ENDBRANCH  18  19
ENDBRANCH  17  18
ENDBRANCH  15  16
ENDBRANCH  14  15
ENDBRANCH  13  14
ENDBRANCH  12  13
ENDBRANCH  11  12
ENDBRANCH  10  11
ENDBRANCH   6  10
TORSDOF 15
ENDMDL
MODEL      216
REMARK 921   NORMALIZED FREE ENERGY PREDICTED BY IDOCK:   -3.98 KCAL/MOL
REMARK 922        TOTAL FREE ENERGY PREDICTED BY IDOCK:   -9.42 KCAL/MOL
REMARK 923 INTER-LIGAND FREE ENERGY PREDICTED BY IDOCK:   -7.97 KCAL/MOL
REMARK 924 INTRA-LIGAND FREE ENERGY PREDICTED BY IDOCK:   -1.45 KCAL/MOL
REMARK 927      BINDING AFFINITY PREDICTED BY RF-SCORE:    0.00 PKD
ROOT
ATOM      1  N   GLY A   1     -14.326  15.402  71.203  1.00  0.00    -0.821 NA 
HETATM    2  C   UNL     1     -10.069  14.218  65.828  1.00  0.00    -0.356 C  
ATOM      3  H2  GLY A   1     -14.550  16.315  70.808  1.00  0.00     0.000 HD 
ATOM      4  H1  GLY A   1     -15.066  14.722  71.031  1.00  0.00     0.000 HD 
ATOM      5  CA  GLY A   1     -13.040  14.891  70.710  1.00  0.00    -0.348 C  
HETATM    6  C   UNL     1     -11.006  13.135  65.316  1.00  0.00    -0.304 C  
ENDROOT
BRANCH   5   7
ATOM      7  C   GLY A   1     -11.930  15.913  70.968  1.00  0.00    -0.412 C  
ATOM      8  H   GLY A   1     -10.965  16.609  72.525  1.00  0.00     0.000 HD 
ATOM      9  O   GLY A   1     -11.654  15.975  72.365  1.00  0.00    -0.438 OA 
ENDBRANCH   5   7
BRANCH   6  10
HETATM   10  C   UNL     1     -10.857  11.799  66.043  1.00  0.00    -0.343 C  
BRANCH  10  11
HETATM   11  C   UNL     1      -9.668  10.954  65.581  1.00  0.00    -0.279 C  
BRANCH  11  12
HETATM   12  C   UNL     1      -8.789  10.597  66.782  1.00  0.00    -0.146 C  
BRANCH  12  13
HETATM   13  C   UNL     1      -8.405   9.118  66.801  1.00  0.00    -0.123 C  
BRANCH  13  14
HETATM   14  C   UNL     1      -9.544   8.199  66.340  1.00  0.00    -0.286 C  
BRANCH  14  15
HETATM   15  C   UNL     1     -10.650   7.949  67.373  1.00  0.00    -0.342 C  
BRANCH  15  16
HETATM   16  C   UNL     1     -11.081   6.512  67.482  1.00  0.00    -0.396 C  
HETATM   17  C   UNL     1     -10.408   5.564  68.153  1.00  0.00    -0.236 C  
BRANCH  17  18
HETATM   18  C   UNL     1      -9.103   5.763  68.867  1.00  0.00    -0.121 C  
BRANCH  18  19
HETATM   19  C   UNL     1      -9.307   6.060  70.350  1.00  0.00    -0.177 C  
BRANCH  19  20
HETATM   20  C   UNL     1      -8.807   7.466  70.679  1.00  0.00    -0.150 C  
BRANCH  20  21
HETATM   21  C   UNL     1      -9.040   7.810  72.147  1.00  0.00    -0.192 C  
BRANCH  21  22
HETATM   22  C   UNL     1     -10.414   8.442  72.354  1.00  0.00    -0.402 C  
BRANCH  22  23
HETATM   23  C   UNL     1     -11.073   8.757  71.013  1.00  0.00    -0.328 C  
BRANCH  23  24
HETATM   24  C   UNL     1     -11.621  10.180  70.975  1.00  0.00    -0.462 C  
HETATM   25  C   UNL     1     -12.848  10.327  71.846  1.00  0.00    -0.426 C  
HETATM   26  O   UNL     1     -13.331  11.591  71.833  1.00  0.00    -0.443 OA 
HETATM   27  O   UNL     1     -13.364   9.440  72.499  1.00  0.00    -0.440 OA 
ENDBRANCH  23  24
ENDBRANCH  22  23
ENDBRANCH  21  22
ENDBRANCH  20  21
ENDBRANCH  19  20
ENDBRANCH  18  19
ENDBRANCH  17  18
ENDBRANCH  15  16
ENDBRANCH  14  15
ENDBRANCH  13  14
ENDBRANCH  12  13
ENDBRANCH  11  12
ENDBRANCH  10  11
ENDBRANCH   6  10
TORSDOF 15
ENDMDL
MODEL      217
REMARK 921   NORMALIZED FREE ENERGY PREDICTED BY IDOCK:   -3.98 KCAL/MOL
REMARK 922        TOTAL FREE ENERGY PREDICTED BY IDOCK:   -9.42 KCAL/MOL
REMARK 923 INTER-LIGAND FREE ENERGY PREDICTED BY IDOCK:   -7.93 KCAL/MOL
REMARK 924 INTRA-LIGAND FREE ENERGY PREDICTED BY IDOCK:   -1.49 KCAL/MOL
REMARK 927      BINDING AFFINITY PREDICTED BY RF-SCORE:    0.00 PKD
ROOT
ATOM      1  N   GLY A   1      -9.135   7.939  73.642  1.00  0.00    -0.280 NA 
HETATM    2  C   UNL     1     -10.963   6.630  67.058  1.00  0.00    -0.463 C  
ATOM      3  H2  GLY A   1      -9.028   6.937  73.798  1.00  0.00     0.000 HD 
ATOM      4  H1  GLY A   1      -8.235   8.403  73.516  1.00  0.00     0.000 HD 
ATOM      5  CA  GLY A   1     -10.018   8.226  72.505  1.00  0.00    -0.303 C  
HETATM    6  C   UNL     1      -9.673   7.267  66.565  1.00  0.00    -0.207 C  
ENDROOT
BRANCH   5   7
ATOM      7  C   GLY A   1     -11.369   7.530  72.695  1.00  0.00    -0.344 C  
ATOM      8  H   GLY A   1     -12.773   6.801  71.539  1.00  0.00     0.000 HD 
ATOM      9  O   GLY A   1     -11.936   7.233  71.421  1.00  0.00    -0.288 OA 
ENDBRANCH   5   7
BRANCH   6  10
HETATM   10  C   UNL     1      -9.716   8.794  66.531  1.00  0.00    -0.328 C  
BRANCH  10  11
HETATM   11  C   UNL     1      -8.452   9.452  65.972  1.00  0.00    -0.132 C  
BRANCH  11  12
HETATM   12  C   UNL     1      -8.838  10.581  65.012  1.00  0.00    -0.207 C  
BRANCH  12  13
HETATM   13  C   UNL     1     -10.337  10.603  64.716  1.00  0.00    -0.353 C  
BRANCH  13  14
HETATM   14  C   UNL     1     -10.845  11.994  64.312  1.00  0.00    -0.389 C  
BRANCH  14  15
HETATM   15  C   UNL     1     -11.984  12.555  65.173  1.00  0.00    -0.484 C  
BRANCH  15  16
HETATM   16  C   UNL     1     -11.900  12.183  66.628  1.00  0.00    -0.314 C  
HETATM   17  C   UNL     1     -11.726  13.060  67.629  1.00  0.00    -0.415 C  
BRANCH  17  18
HETATM   18  C   UNL     1     -11.547  14.542  67.468  1.00  0.00    -0.403 C  
BRANCH  18  19
HETATM   19  C   UNL     1     -10.074  14.925  67.346  1.00  0.00    -0.228 C  
BRANCH  19  20
HETATM   20  C   UNL     1      -9.801  15.536  65.972  1.00  0.00    -0.364 C  
BRANCH  20  21
HETATM   21  C   UNL     1      -9.302  16.973  66.092  1.00  0.00    -0.245 C  
BRANCH  21  22
HETATM   22  C   UNL     1     -10.460  17.943  66.307  1.00  0.00    -0.320 C  
BRANCH  22  23
HETATM   23  C   UNL     1      -9.944  19.367  66.501  1.00  0.00    -0.485 C  
BRANCH  23  24
HETATM   24  C   UNL     1      -8.551  19.383  67.122  1.00  0.00    -0.325 C  
HETATM   25  C   UNL     1      -8.615  19.503  68.628  1.00  0.00    -0.325 C  
HETATM   26  O   UNL     1      -7.383  19.499  69.190  1.00  0.00    -0.361 OA 
HETATM   27  O   UNL     1      -9.632  19.589  69.289  1.00  0.00    -0.361 OA 
ENDBRANCH  23  24
ENDBRANCH  22  23
ENDBRANCH  21  22
ENDBRANCH  20  21
ENDBRANCH  19  20
ENDBRANCH  18  19
ENDBRANCH  17  18
ENDBRANCH  15  16
ENDBRANCH  14  15
ENDBRANCH  13  14
ENDBRANCH  12  13
ENDBRANCH  11  12
ENDBRANCH  10  11
ENDBRANCH   6  10
TORSDOF 15
ENDMDL
MODEL      218
REMARK 921   NORMALIZED FREE ENERGY PREDICTED BY IDOCK:   -3.98 KCAL/MOL
REMARK 922        TOTAL FREE ENERGY PREDICTED BY IDOCK:   -9.41 KCAL/MOL
REMARK 923 INTER-LIGAND FREE ENERGY PREDICTED BY IDOCK:   -7.42 KCAL/MOL
REMARK 924 INTRA-LIGAND FREE ENERGY PREDICTED BY IDOCK:   -1.99 KCAL/MOL
REMARK 927      BINDING AFFINITY PREDICTED BY RF-SCORE:    0.00 PKD
ROOT
ATOM      1  N   GLY A   1     -10.574  11.343  64.441  1.00  0.00    -0.321 NA 
HETATM    2  C   UNL     1     -10.656  18.006  66.443  1.00  0.00    -0.259 C  
ATOM      3  H2  GLY A   1      -9.989  11.602  63.647  1.00  0.00     0.000 HD 
ATOM      4  H1  GLY A   1     -10.030  10.912  65.188  1.00  0.00     0.000 HD 
ATOM      5  CA  GLY A   1     -11.333  12.488  64.960  1.00  0.00    -0.313 C  
HETATM    6  C   UNL     1      -9.825  17.656  67.668  1.00  0.00    -0.294 C  
ENDROOT
BRANCH   5   7
ATOM      7  C   GLY A   1     -12.149  13.135  63.837  1.00  0.00    -0.470 C  
ATOM      8  H   GLY A   1     -13.652  12.623  62.689  1.00  0.00     0.000 HD 
ATOM      9  O   GLY A   1     -13.147  12.222  63.385  1.00  0.00    -0.727 OA 
ENDBRANCH   5   7
BRANCH   6  10
HETATM   10  C   UNL     1     -10.638  17.048  68.810  1.00  0.00    -0.346 C  
BRANCH  10  11
HETATM   11  C   UNL     1     -10.385  15.557  69.046  1.00  0.00    -0.235 C  
BRANCH  11  12
HETATM   12  C   UNL     1     -10.752  14.764  67.788  1.00  0.00    -0.268 C  
BRANCH  12  13
HETATM   13  C   UNL     1      -9.585  13.927  67.269  1.00  0.00    -0.243 C  
BRANCH  13  14
HETATM   14  C   UNL     1      -8.245  14.300  67.918  1.00  0.00    -0.156 C  
BRANCH  14  15
HETATM   15  C   UNL     1      -7.547  13.170  68.685  1.00  0.00    -0.089 C  
BRANCH  15  16
HETATM   16  C   UNL     1      -6.835  12.177  67.808  1.00  0.00    -0.106 C  
HETATM   17  C   UNL     1      -7.201  10.894  67.657  1.00  0.00    -0.093 C  
BRANCH  17  18
HETATM   18  C   UNL     1      -8.346  10.226  68.361  1.00  0.00    -0.119 C  
BRANCH  18  19
HETATM   19  C   UNL     1      -9.649  10.356  67.576  1.00  0.00    -0.178 C  
BRANCH  19  20
HETATM   20  C   UNL     1     -10.840  10.018  68.472  1.00  0.00    -0.270 C  
BRANCH  20  21
HETATM   21  C   UNL     1     -10.982  11.024  69.610  1.00  0.00    -0.286 C  
BRANCH  21  22
HETATM   22  C   UNL     1     -11.587  10.373  70.850  1.00  0.00    -0.428 C  
BRANCH  22  23
HETATM   23  C   UNL     1     -12.626  11.290  71.491  1.00  0.00    -0.418 C  
BRANCH  23  24
HETATM   24  C   UNL     1     -12.564  12.701  70.915  1.00  0.00    -0.338 C  
HETATM   25  C   UNL     1     -13.454  13.654  71.680  1.00  0.00    -0.322 C  
HETATM   26  O   UNL     1     -13.392  14.913  71.188  1.00  0.00    -0.378 OA 
HETATM   27  O   UNL     1     -14.152  13.361  72.633  1.00  0.00    -0.767 OA 
ENDBRANCH  23  24
ENDBRANCH  22  23
ENDBRANCH  21  22
ENDBRANCH  20  21
ENDBRANCH  19  20
ENDBRANCH  18  19
ENDBRANCH  17  18
ENDBRANCH  15  16
ENDBRANCH  14  15
ENDBRANCH  13  14
ENDBRANCH  12  13
ENDBRANCH  11  12
ENDBRANCH  10  11
ENDBRANCH   6  10
TORSDOF 15
ENDMDL
MODEL      219
REMARK 921   NORMALIZED FREE ENERGY PREDICTED BY IDOCK:   -3.97 KCAL/MOL
REMARK 922        TOTAL FREE ENERGY PREDICTED BY IDOCK:   -9.40 KCAL/MOL
REMARK 923 INTER-LIGAND FREE ENERGY PREDICTED BY IDOCK:   -6.98 KCAL/MOL
REMARK 924 INTRA-LIGAND FREE ENERGY PREDICTED BY IDOCK:   -2.42 KCAL/MOL
REMARK 927      BINDING AFFINITY PREDICTED BY RF-SCORE:    0.00 PKD
ROOT
ATOM      1  N   GLY A   1     -13.192  12.651  71.720  1.00  0.00    -0.418 NA 
HETATM    2  C   UNL     1      -6.779  10.616  69.945  1.00  0.00    -0.147 C  
ATOM      3  H2  GLY A   1     -12.965  12.469  72.697  1.00  0.00     0.000 HD 
ATOM      4  H1  GLY A   1     -13.158  13.646  71.501  1.00  0.00     0.000 HD 
ATOM      5  CA  GLY A   1     -12.322  11.899  70.805  1.00  0.00    -0.320 C  
HETATM    6  C   UNL     1      -6.432  12.040  69.539  1.00  0.00    -0.109 C  
ENDROOT
BRANCH   5   7
ATOM      7  C   GLY A   1     -12.373  10.405  71.135  1.00  0.00    -0.400 C  
ATOM      8  H   GLY A   1     -13.511   9.217  72.199  1.00  0.00     0.000 HD 
ATOM      9  O   GLY A   1     -13.479  10.144  71.995  1.00  0.00    -0.403 OA 
ENDBRANCH   5   7
BRANCH   6  10
HETATM   10  C   UNL     1      -6.955  12.430  68.157  1.00  0.00    -0.087 C  
BRANCH  10  11
HETATM   11  C   UNL     1      -8.123  13.419  68.177  1.00  0.00    -0.155 C  
BRANCH  11  12
HETATM   12  C   UNL     1      -9.024  13.179  66.962  1.00  0.00    -0.228 C  
BRANCH  12  13
HETATM   13  C   UNL     1     -10.500  13.079  67.344  1.00  0.00    -0.235 C  
BRANCH  13  14
HETATM   14  C   UNL     1     -11.323  14.287  66.874  1.00  0.00    -0.354 C  
BRANCH  14  15
HETATM   15  C   UNL     1     -12.582  13.951  66.065  1.00  0.00    -0.467 C  
BRANCH  15  16
HETATM   16  C   UNL     1     -12.498  14.321  64.609  1.00  0.00    -0.371 C  
HETATM   17  C   UNL     1     -12.036  13.510  63.644  1.00  0.00    -0.459 C  
BRANCH  17  18
HETATM   18  C   UNL     1     -11.491  12.128  63.854  1.00  0.00    -0.519 C  
BRANCH  18  19
HETATM   19  C   UNL     1     -10.022  12.030  63.448  1.00  0.00    -0.384 C  
BRANCH  19  20
HETATM   20  C   UNL     1      -9.553  10.576  63.515  1.00  0.00    -0.374 C  
BRANCH  20  21
HETATM   21  C   UNL     1      -9.747   9.994  64.912  1.00  0.00    -0.377 C  
BRANCH  21  22
HETATM   22  C   UNL     1      -8.431   9.965  65.684  1.00  0.00    -0.152 C  
BRANCH  22  23
HETATM   23  C   UNL     1      -8.616   9.295  67.044  1.00  0.00    -0.128 C  
BRANCH  23  24
HETATM   24  C   UNL     1      -9.499   8.055  66.946  1.00  0.00    -0.244 C  
HETATM   25  C   UNL     1     -10.239   7.796  68.239  1.00  0.00    -0.201 C  
HETATM   26  O   UNL     1     -11.040   6.708  68.155  1.00  0.00    -0.257 OA 
HETATM   27  O   UNL     1     -10.153   8.466  69.250  1.00  0.00    -0.191 OA 
ENDBRANCH  23  24
ENDBRANCH  22  23
ENDBRANCH  21  22
ENDBRANCH  20  21
ENDBRANCH  19  20
ENDBRANCH  18  19
ENDBRANCH  17  18
ENDBRANCH  15  16
ENDBRANCH  14  15
ENDBRANCH  13  14
ENDBRANCH  12  13
ENDBRANCH  11  12
ENDBRANCH  10  11
ENDBRANCH   6  10
TORSDOF 15
ENDMDL
MODEL      220
REMARK 921   NORMALIZED FREE ENERGY PREDICTED BY IDOCK:   -3.95 KCAL/MOL
REMARK 922        TOTAL FREE ENERGY PREDICTED BY IDOCK:   -9.37 KCAL/MOL
REMARK 923 INTER-LIGAND FREE ENERGY PREDICTED BY IDOCK:   -7.61 KCAL/MOL
REMARK 924 INTRA-LIGAND FREE ENERGY PREDICTED BY IDOCK:   -1.76 KCAL/MOL
REMARK 927      BINDING AFFINITY PREDICTED BY RF-SCORE:    0.00 PKD
ROOT
ATOM      1  N   GLY A   1      -5.498  14.292  67.606  1.00  0.00    -0.338 NA 
HETATM    2  C   UNL     1     -10.531  10.064  69.886  1.00  0.00    -0.317 C  
ATOM      3  H2  GLY A   1      -4.994  14.143  68.480  1.00  0.00     0.000 HD 
ATOM      4  H1  GLY A   1      -5.104  13.746  66.841  1.00  0.00     0.000 HD 
ATOM      5  CA  GLY A   1      -6.933  14.010  67.745  1.00  0.00    -0.177 C  
HETATM    6  C   UNL     1     -10.155   9.035  68.832  1.00  0.00    -0.207 C  
ENDROOT
BRANCH   5   7
ATOM      7  C   GLY A   1      -7.525  14.831  68.894  1.00  0.00    -0.137 C  
ATOM      8  H   GLY A   1      -9.281  15.044  69.739  1.00  0.00     0.000 HD 
ATOM      9  O   GLY A   1      -8.913  14.535  69.026  1.00  0.00    -0.147 OA 
ENDBRANCH   5   7
BRANCH   6  10
HETATM   10  C   UNL     1     -10.709   9.347  67.443  1.00  0.00    -0.280 C  
BRANCH  10  11
HETATM   11  C   UNL     1      -9.756  10.135  66.541  1.00  0.00    -0.252 C  
BRANCH  11  12
HETATM   12  C   UNL     1      -9.226   9.225  65.430  1.00  0.00    -0.284 C  
BRANCH  12  13
HETATM   13  C   UNL     1      -9.378   9.853  64.045  1.00  0.00    -0.280 C  
BRANCH  13  14
HETATM   14  C   UNL     1      -9.947  11.277  64.093  1.00  0.00    -0.350 C  
BRANCH  14  15
HETATM   15  C   UNL     1     -11.408  11.418  63.647  1.00  0.00    -0.299 C  
BRANCH  15  16
HETATM   16  C   UNL     1     -11.820  12.828  63.318  1.00  0.00    -0.493 C  
HETATM   17  C   UNL     1     -12.345  13.692  64.200  1.00  0.00    -0.385 C  
BRANCH  17  18
HETATM   18  C   UNL     1     -12.648  13.392  65.639  1.00  0.00    -0.496 C  
BRANCH  18  19
HETATM   19  C   UNL     1     -11.443  13.653  66.539  1.00  0.00    -0.357 C  
BRANCH  19  20
HETATM   20  C   UNL     1     -11.115  15.146  66.561  1.00  0.00    -0.305 C  
BRANCH  20  21
HETATM   21  C   UNL     1      -9.877  15.455  65.725  1.00  0.00    -0.399 C  
BRANCH  21  22
HETATM   22  C   UNL     1      -9.141  16.679  66.262  1.00  0.00    -0.333 C  
BRANCH  22  23
HETATM   23  C   UNL     1      -9.982  17.400  67.312  1.00  0.00    -0.302 C  
BRANCH  23  24
HETATM   24  C   UNL     1     -10.317  18.826  66.886  1.00  0.00    -0.456 C  
HETATM   25  C   UNL     1      -9.523  19.843  67.674  1.00  0.00    -0.364 C  
HETATM   26  O   UNL     1      -9.800  21.111  67.290  1.00  0.00    -0.298 OA 
HETATM   27  O   UNL     1      -8.720  19.589  68.552  1.00  0.00    -0.354 OA 
ENDBRANCH  23  24
ENDBRANCH  22  23
ENDBRANCH  21  22
ENDBRANCH  20  21
ENDBRANCH  19  20
ENDBRANCH  18  19
ENDBRANCH  17  18
ENDBRANCH  15  16
ENDBRANCH  14  15
ENDBRANCH  13  14
ENDBRANCH  12  13
ENDBRANCH  11  12
ENDBRANCH  10  11
ENDBRANCH   6  10
TORSDOF 15
ENDMDL
MODEL      221
REMARK 921   NORMALIZED FREE ENERGY PREDICTED BY IDOCK:   -3.95 KCAL/MOL
REMARK 922        TOTAL FREE ENERGY PREDICTED BY IDOCK:   -9.35 KCAL/MOL
REMARK 923 INTER-LIGAND FREE ENERGY PREDICTED BY IDOCK:   -7.44 KCAL/MOL
REMARK 924 INTRA-LIGAND FREE ENERGY PREDICTED BY IDOCK:   -1.92 KCAL/MOL
REMARK 927      BINDING AFFINITY PREDICTED BY RF-SCORE:    0.00 PKD
ROOT
ATOM      1  N   GLY A   1      -8.793  14.848  69.470  1.00  0.00    -0.437 NA 
HETATM    2  C   UNL     1     -12.265  13.489  63.595  1.00  0.00    -0.438 C  
ATOM      3  H2  GLY A   1      -9.645  15.243  69.867  1.00  0.00     0.000 HD 
ATOM      4  H1  GLY A   1      -8.611  13.908  69.821  1.00  0.00     0.000 HD 
ATOM      5  CA  GLY A   1      -8.822  14.845  68.001  1.00  0.00    -0.167 C  
HETATM    6  C   UNL     1     -12.154  11.997  63.866  1.00  0.00    -0.557 C  
ENDROOT
BRANCH   5   7
ATOM      7  C   GLY A   1      -9.096  16.257  67.474  1.00  0.00    -0.192 C  
ATOM      8  H   GLY A   1      -8.049  17.873  67.112  1.00  0.00     0.000 HD 
ATOM      9  O   GLY A   1      -7.879  16.997  67.438  1.00  0.00    -0.165 OA 
ENDBRANCH   5   7
BRANCH   6  10
HETATM   10  C   UNL     1     -10.797  11.403  63.490  1.00  0.00    -0.430 C  
BRANCH  10  11
HETATM   11  C   UNL     1      -9.913  11.036  64.684  1.00  0.00    -0.357 C  
BRANCH  11  12
HETATM   12  C   UNL     1      -9.162   9.734  64.389  1.00  0.00    -0.301 C  
BRANCH  12  13
HETATM   13  C   UNL     1      -8.260   9.310  65.548  1.00  0.00    -0.125 C  
BRANCH  13  14
HETATM   14  C   UNL     1      -7.758  10.498  66.381  1.00  0.00    -0.135 C  
BRANCH  14  15
HETATM   15  C   UNL     1      -7.965  10.374  67.895  1.00  0.00    -0.102 C  
BRANCH  15  16
HETATM   16  C   UNL     1      -9.193  11.074  68.410  1.00  0.00    -0.175 C  
HETATM   17  C   UNL     1     -10.276  10.450  68.898  1.00  0.00    -0.220 C  
BRANCH  17  18
HETATM   18  C   UNL     1     -10.465   8.963  68.975  1.00  0.00    -0.231 C  
BRANCH  18  19
HETATM   19  C   UNL     1      -9.884   8.383  70.262  1.00  0.00    -0.188 C  
BRANCH  19  20
HETATM   20  C   UNL     1     -10.555   9.022  71.478  1.00  0.00    -0.415 C  
BRANCH  20  21
HETATM   21  C   UNL     1     -12.065   8.802  71.457  1.00  0.00    -0.388 C  
BRANCH  21  22
HETATM   22  C   UNL     1     -12.804   9.990  72.066  1.00  0.00    -0.484 C  
BRANCH  22  23
HETATM   23  C   UNL     1     -13.270  10.954  70.978  1.00  0.00    -0.157 C  
BRANCH  23  24
HETATM   24  C   UNL     1     -12.492  12.266  71.015  1.00  0.00    -0.361 C  
HETATM   25  C   UNL     1     -13.161  13.285  71.909  1.00  0.00    -0.431 C  
HETATM   26  O   UNL     1     -12.468  14.446  71.963  1.00  0.00    -0.330 OA 
HETATM   27  O   UNL     1     -14.197  13.115  72.525  1.00  0.00    -0.654 OA 
ENDBRANCH  23  24
ENDBRANCH  22  23
ENDBRANCH  21  22
ENDBRANCH  20  21
ENDBRANCH  19  20
ENDBRANCH  18  19
ENDBRANCH  17  18
ENDBRANCH  15  16
ENDBRANCH  14  15
ENDBRANCH  13  14
ENDBRANCH  12  13
ENDBRANCH  11  12
ENDBRANCH  10  11
ENDBRANCH   6  10
TORSDOF 15
ENDMDL
MODEL      222
REMARK 921   NORMALIZED FREE ENERGY PREDICTED BY IDOCK:   -3.94 KCAL/MOL
REMARK 922        TOTAL FREE ENERGY PREDICTED BY IDOCK:   -9.35 KCAL/MOL
REMARK 923 INTER-LIGAND FREE ENERGY PREDICTED BY IDOCK:   -7.73 KCAL/MOL
REMARK 924 INTRA-LIGAND FREE ENERGY PREDICTED BY IDOCK:   -1.62 KCAL/MOL
REMARK 927      BINDING AFFINITY PREDICTED BY RF-SCORE:    0.00 PKD
ROOT
ATOM      1  N   GLY A   1      -8.645  17.930  66.639  1.00  0.00    -0.254 NA 
HETATM    2  C   UNL     1     -10.094  11.439  64.593  1.00  0.00    -0.330 C  
ATOM      3  H2  GLY A   1      -7.651  17.724  66.543  1.00  0.00     0.000 HD 
ATOM      4  H1  GLY A   1      -8.998  18.475  65.853  1.00  0.00     0.000 HD 
ATOM      5  CA  GLY A   1      -9.444  16.709  66.810  1.00  0.00    -0.244 C  
HETATM    6  C   UNL     1     -10.690  11.972  63.299  1.00  0.00    -0.400 C  
ENDROOT
BRANCH   5   7
ATOM      7  C   GLY A   1      -8.913  15.891  67.990  1.00  0.00    -0.182 C  
ATOM      8  H   GLY A   1      -7.178  15.198  68.580  1.00  0.00     0.000 HD 
ATOM      9  O   GLY A   1      -7.507  15.705  67.848  1.00  0.00    -0.119 OA 
ENDBRANCH   5   7
BRANCH   6  10
HETATM   10  C   UNL     1     -12.114  12.504  63.451  1.00  0.00    -0.621 C  
BRANCH  10  11
HETATM   11  C   UNL     1     -12.656  12.468  64.883  1.00  0.00    -0.469 C  
BRANCH  11  12
HETATM   12  C   UNL     1     -12.561  13.863  65.506  1.00  0.00    -0.560 C  
BRANCH  12  13
HETATM   13  C   UNL     1     -12.080  13.819  66.956  1.00  0.00    -0.436 C  
BRANCH  13  14
HETATM   14  C   UNL     1     -11.866  12.389  67.472  1.00  0.00    -0.354 C  
BRANCH  14  15
HETATM   15  C   UNL     1     -11.287  12.279  68.888  1.00  0.00    -0.337 C  
BRANCH  15  16
HETATM   16  C   UNL     1     -12.276  11.825  69.926  1.00  0.00    -0.293 C  
HETATM   17  C   UNL     1     -12.069  10.811  70.781  1.00  0.00    -0.473 C  
BRANCH  17  18
HETATM   18  C   UNL     1     -10.848   9.939  70.820  1.00  0.00    -0.387 C  
BRANCH  18  19
HETATM   19  C   UNL     1     -11.122   8.611  71.523  1.00  0.00    -0.358 C  
BRANCH  19  20
HETATM   20  C   UNL     1     -12.147   7.799  70.734  1.00  0.00    -0.120 C  
BRANCH  20  21
HETATM   21  C   UNL     1     -11.764   6.323  70.679  1.00  0.00    -0.285 C  
BRANCH  21  22
HETATM   22  C   UNL     1     -10.249   6.149  70.614  1.00  0.00    -0.250 C  
BRANCH  22  23
HETATM   23  C   UNL     1      -9.798   5.863  69.183  1.00  0.00    -0.199 C  
BRANCH  23  24
HETATM   24  C   UNL     1      -9.517   7.150  68.413  1.00  0.00    -0.138 C  
HETATM   25  C   UNL     1     -10.318   7.218  67.133  1.00  0.00    -0.297 C  
HETATM   26  O   UNL     1     -10.090   8.366  66.452  1.00  0.00    -0.265 OA 
HETATM   27  O   UNL     1     -11.089   6.367  66.734  1.00  0.00    -0.358 OA 
ENDBRANCH  23  24
ENDBRANCH  22  23
ENDBRANCH  21  22
ENDBRANCH  20  21
ENDBRANCH  19  20
ENDBRANCH  18  19
ENDBRANCH  17  18
ENDBRANCH  15  16
ENDBRANCH  14  15
ENDBRANCH  13  14
ENDBRANCH  12  13
ENDBRANCH  11  12
ENDBRANCH  10  11
ENDBRANCH   6  10
TORSDOF 15
ENDMDL
MODEL      223
REMARK 921   NORMALIZED FREE ENERGY PREDICTED BY IDOCK:   -3.94 KCAL/MOL
REMARK 922        TOTAL FREE ENERGY PREDICTED BY IDOCK:   -9.33 KCAL/MOL
REMARK 923 INTER-LIGAND FREE ENERGY PREDICTED BY IDOCK:   -7.78 KCAL/MOL
REMARK 924 INTRA-LIGAND FREE ENERGY PREDICTED BY IDOCK:   -1.55 KCAL/MOL
REMARK 927      BINDING AFFINITY PREDICTED BY RF-SCORE:    0.00 PKD
ROOT
ATOM      1  N   GLY A   1     -11.073   4.446  65.235  1.00  0.00    -0.899 NA 
HETATM    2  C   UNL     1      -9.210   4.686  71.934  1.00  0.00    -0.175 C  
ATOM      3  H2  GLY A   1     -10.924   3.437  65.242  1.00  0.00     0.000 HD 
ATOM      4  H1  GLY A   1     -12.063   4.684  65.290  1.00  0.00     0.000 HD 
ATOM      5  CA  GLY A   1     -10.328   5.119  66.306  1.00  0.00    -0.268 C  
HETATM    6  C   UNL     1     -10.633   5.050  72.325  1.00  0.00    -0.269 C  
ENDROOT
BRANCH   5   7
ATOM      7  C   GLY A   1      -8.842   4.762  66.224  1.00  0.00    -0.114 C  
ATOM      8  H   GLY A   1      -7.228   5.119  67.276  1.00  0.00     0.000 HD 
ATOM      9  O   GLY A   1      -8.150   5.341  67.327  1.00  0.00    -0.100 OA 
ENDBRANCH   5   7
BRANCH   6  10
HETATM   10  C   UNL     1     -10.971   6.525  72.112  1.00  0.00    -0.283 C  
BRANCH  10  11
HETATM   11  C   UNL     1     -11.989   6.790  71.001  1.00  0.00    -0.431 C  
BRANCH  11  12
HETATM   12  C   UNL     1     -11.347   6.524  69.637  1.00  0.00    -0.443 C  
BRANCH  12  13
HETATM   13  C   UNL     1     -10.082   7.353  69.420  1.00  0.00    -0.185 C  
BRANCH  13  14
HETATM   14  C   UNL     1     -10.380   8.796  68.988  1.00  0.00    -0.227 C  
BRANCH  14  15
HETATM   15  C   UNL     1     -10.187   9.861  70.074  1.00  0.00    -0.319 C  
BRANCH  15  16
HETATM   16  C   UNL     1     -11.469  10.454  70.593  1.00  0.00    -0.438 C  
HETATM   17  C   UNL     1     -12.257  11.289  69.897  1.00  0.00    -0.358 C  
BRANCH  17  18
HETATM   18  C   UNL     1     -11.978  11.803  68.515  1.00  0.00    -0.279 C  
BRANCH  18  19
HETATM   19  C   UNL     1     -11.745  13.312  68.508  1.00  0.00    -0.388 C  
BRANCH  19  20
HETATM   20  C   UNL     1     -10.249  13.614  68.424  1.00  0.00    -0.245 C  
BRANCH  20  21
HETATM   21  C   UNL     1      -9.927  14.988  69.002  1.00  0.00    -0.246 C  
BRANCH  21  22
HETATM   22  C   UNL     1     -11.094  15.953  68.815  1.00  0.00    -0.328 C  
BRANCH  22  23
HETATM   23  C   UNL     1     -10.624  17.254  68.167  1.00  0.00    -0.386 C  
BRANCH  23  24
HETATM   24  C   UNL     1      -9.299  17.071  67.433  1.00  0.00    -0.239 C  
HETATM   25  C   UNL     1      -9.132  18.087  66.326  1.00  0.00    -0.178 C  
HETATM   26  O   UNL     1      -7.951  17.945  65.681  1.00  0.00    -0.527 OA 
HETATM   27  O   UNL     1      -9.938  18.947  66.027  1.00  0.00    -0.457 OA 
ENDBRANCH  23  24
ENDBRANCH  22  23
ENDBRANCH  21  22
ENDBRANCH  20  21
ENDBRANCH  19  20
ENDBRANCH  18  19
ENDBRANCH  17  18
ENDBRANCH  15  16
ENDBRANCH  14  15
ENDBRANCH  13  14
ENDBRANCH  12  13
ENDBRANCH  11  12
ENDBRANCH  10  11
ENDBRANCH   6  10
TORSDOF 15
ENDMDL
MODEL      224
REMARK 921   NORMALIZED FREE ENERGY PREDICTED BY IDOCK:   -3.93 KCAL/MOL
REMARK 922        TOTAL FREE ENERGY PREDICTED BY IDOCK:   -9.33 KCAL/MOL
REMARK 923 INTER-LIGAND FREE ENERGY PREDICTED BY IDOCK:   -8.04 KCAL/MOL
REMARK 924 INTRA-LIGAND FREE ENERGY PREDICTED BY IDOCK:   -1.29 KCAL/MOL
REMARK 927      BINDING AFFINITY PREDICTED BY RF-SCORE:    0.00 PKD
ROOT
ATOM      1  N   GLY A   1      -7.635  17.608  65.806  1.00  0.00    -0.527 NA 
HETATM    2  C   UNL     1     -10.021  11.117  65.048  1.00  0.00    -0.325 C  
ATOM      3  H2  GLY A   1      -6.695  17.234  65.934  1.00  0.00     0.000 HD 
ATOM      4  H1  GLY A   1      -7.769  17.986  64.869  1.00  0.00     0.000 HD 
ATOM      5  CA  GLY A   1      -8.669  16.609  66.105  1.00  0.00    -0.287 C  
HETATM    6  C   UNL     1     -10.326  11.392  63.584  1.00  0.00    -0.463 C  
ENDROOT
BRANCH   5   7
ATOM      7  C   GLY A   1      -8.466  16.042  67.513  1.00  0.00    -0.163 C  
ATOM      8  H   GLY A   1      -9.068  16.477  69.326  1.00  0.00     0.000 HD 
ATOM      9  O   GLY A   1      -9.194  16.829  68.453  1.00  0.00    -0.214 OA 
ENDBRANCH   5   7
BRANCH   6  10
HETATM   10  C   UNL     1     -11.630  12.158  63.362  1.00  0.00    -0.508 C  
BRANCH  10  11
HETATM   11  C   UNL     1     -12.282  12.686  64.642  1.00  0.00    -0.519 C  
BRANCH  11  12
HETATM   12  C   UNL     1     -12.187  14.213  64.679  1.00  0.00    -0.465 C  
BRANCH  12  13
HETATM   13  C   UNL     1     -11.683  14.731  66.025  1.00  0.00    -0.248 C  
BRANCH  13  14
HETATM   14  C   UNL     1     -12.259  13.955  67.218  1.00  0.00    -0.324 C  
BRANCH  14  15
HETATM   15  C   UNL     1     -11.291  13.728  68.386  1.00  0.00    -0.326 C  
BRANCH  15  16
HETATM   16  C   UNL     1     -11.964  13.421  69.696  1.00  0.00    -0.386 C  
HETATM   17  C   UNL     1     -12.103  12.189  70.209  1.00  0.00    -0.385 C  
BRANCH  17  18
HETATM   18  C   UNL     1     -11.652  10.916  69.555  1.00  0.00    -0.384 C  
BRANCH  18  19
HETATM   19  C   UNL     1     -11.353   9.825  70.581  1.00  0.00    -0.401 C  
BRANCH  19  20
HETATM   20  C   UNL     1     -12.481   9.745  71.609  1.00  0.00    -0.500 C  
BRANCH  20  21
HETATM   21  C   UNL     1     -12.280   8.573  72.564  1.00  0.00    -0.383 C  
BRANCH  21  22
HETATM   22  C   UNL     1     -11.090   7.716  72.143  1.00  0.00    -0.314 C  
BRANCH  22  23
HETATM   23  C   UNL     1      -9.950   7.839  73.152  1.00  0.00    -0.374 C  
BRANCH  23  24
HETATM   24  C   UNL     1      -8.842   6.828  72.876  1.00  0.00    -0.136 C  
HETATM   25  C   UNL     1      -9.047   5.550  73.657  1.00  0.00    -0.124 C  
HETATM   26  O   UNL     1      -8.078   4.640  73.405  1.00  0.00    -0.098 OA 
HETATM   27  O   UNL     1      -9.964   5.329  74.425  1.00  0.00    -0.182 OA 
ENDBRANCH  23  24
ENDBRANCH  22  23
ENDBRANCH  21  22
ENDBRANCH  20  21
ENDBRANCH  19  20
ENDBRANCH  18  19
ENDBRANCH  17  18
ENDBRANCH  15  16
ENDBRANCH  14  15
ENDBRANCH  13  14
ENDBRANCH  12  13
ENDBRANCH  11  12
ENDBRANCH  10  11
ENDBRANCH   6  10
TORSDOF 15
ENDMDL
MODEL      225
REMARK 921   NORMALIZED FREE ENERGY PREDICTED BY IDOCK:   -3.93 KCAL/MOL
REMARK 922        TOTAL FREE ENERGY PREDICTED BY IDOCK:   -9.32 KCAL/MOL
REMARK 923 INTER-LIGAND FREE ENERGY PREDICTED BY IDOCK:   -6.79 KCAL/MOL
REMARK 924 INTRA-LIGAND FREE ENERGY PREDICTED BY IDOCK:   -2.53 KCAL/MOL
REMARK 927      BINDING AFFINITY PREDICTED BY RF-SCORE:    0.00 PKD
ROOT
ATOM      1  N   GLY A   1      -8.210   7.535  72.416  1.00  0.00    -0.100 NA 
HETATM    2  C   UNL     1      -9.007   9.040  65.670  1.00  0.00    -0.249 C  
ATOM      3  H2  GLY A   1      -7.203   7.460  72.267  1.00  0.00     0.000 HD 
ATOM      4  H1  GLY A   1      -8.465   8.419  72.854  1.00  0.00     0.000 HD 
ATOM      5  CA  GLY A   1      -8.964   7.349  71.169  1.00  0.00    -0.143 C  
HETATM    6  C   UNL     1      -9.423  10.458  66.028  1.00  0.00    -0.232 C  
ENDROOT
BRANCH   5   7
ATOM      7  C   GLY A   1      -8.580   6.020  70.512  1.00  0.00    -0.137 C  
ATOM      8  H   GLY A   1      -7.446   4.484  70.954  1.00  0.00     0.000 HD 
ATOM      9  O   GLY A   1      -7.685   5.308  71.362  1.00  0.00    -0.100 OA 
ENDBRANCH   5   7
BRANCH   6  10
HETATM   10  C   UNL     1     -10.878  10.577  66.478  1.00  0.00    -0.128 C  
BRANCH  10  11
HETATM   11  C   UNL     1     -11.118  11.606  67.586  1.00  0.00    -0.314 C  
BRANCH  11  12
HETATM   12  C   UNL     1     -10.327  11.213  68.836  1.00  0.00    -0.220 C  
BRANCH  12  13
HETATM   13  C   UNL     1     -11.233  10.958  70.039  1.00  0.00    -0.340 C  
BRANCH  13  14
HETATM   14  C   UNL     1     -12.460  11.880  70.070  1.00  0.00    -0.091 C  
BRANCH  14  15
HETATM   15  C   UNL     1     -12.286  13.182  70.862  1.00  0.00    -0.393 C  
BRANCH  15  16
HETATM   16  C   UNL     1     -12.659  14.424  70.099  1.00  0.00    -0.340 C  
HETATM   17  C   UNL     1     -11.794  15.386  69.744  1.00  0.00    -0.367 C  
BRANCH  17  18
HETATM   18  C   UNL     1     -10.331  15.411  70.078  1.00  0.00    -0.288 C  
BRANCH  18  19
HETATM   19  C   UNL     1      -9.482  15.831  68.881  1.00  0.00    -0.229 C  
BRANCH  19  20
HETATM   20  C   UNL     1      -9.086  14.604  68.060  1.00  0.00    -0.189 C  
BRANCH  20  21
HETATM   21  C   UNL     1      -8.935  14.950  66.581  1.00  0.00    -0.301 C  
BRANCH  21  22
HETATM   22  C   UNL     1     -10.294  15.037  65.893  1.00  0.00    -0.329 C  
BRANCH  22  23
HETATM   23  C   UNL     1     -10.426  13.961  64.818  1.00  0.00    -0.451 C  
BRANCH  23  24
HETATM   24  C   UNL     1     -11.887  13.629  64.528  1.00  0.00    -0.445 C  
HETATM   25  C   UNL     1     -12.015  12.425  63.623  1.00  0.00    -0.539 C  
HETATM   26  O   UNL     1     -13.308  12.112  63.375  1.00  0.00    -0.570 OA 
HETATM   27  O   UNL     1     -11.090  11.786  63.159  1.00  0.00    -0.299 OA 
ENDBRANCH  23  24
ENDBRANCH  22  23
ENDBRANCH  21  22
ENDBRANCH  20  21
ENDBRANCH  19  20
ENDBRANCH  18  19
ENDBRANCH  17  18
ENDBRANCH  15  16
ENDBRANCH  14  15
ENDBRANCH  13  14
ENDBRANCH  12  13
ENDBRANCH  11  12
ENDBRANCH  10  11
ENDBRANCH   6  10
TORSDOF 15
ENDMDL
MODEL      226
REMARK 921   NORMALIZED FREE ENERGY PREDICTED BY IDOCK:   -3.93 KCAL/MOL
REMARK 922        TOTAL FREE ENERGY PREDICTED BY IDOCK:   -9.31 KCAL/MOL
REMARK 923 INTER-LIGAND FREE ENERGY PREDICTED BY IDOCK:   -7.11 KCAL/MOL
REMARK 924 INTRA-LIGAND FREE ENERGY PREDICTED BY IDOCK:   -2.20 KCAL/MOL
REMARK 927      BINDING AFFINITY PREDICTED BY RF-SCORE:    0.00 PKD
ROOT
ATOM      1  N   GLY A   1      -9.257   9.502  69.606  1.00  0.00    -0.185 NA 
HETATM    2  C   UNL     1      -5.864  15.570  69.870  1.00  0.00    -0.144 C  
ATOM      3  H2  GLY A   1      -9.524   9.623  70.583  1.00  0.00     0.000 HD 
ATOM      4  H1  GLY A   1     -10.024   9.724  68.972  1.00  0.00     0.000 HD 
ATOM      5  CA  GLY A   1      -8.067  10.290  69.260  1.00  0.00    -0.155 C  
HETATM    6  C   UNL     1      -6.881  16.189  68.924  1.00  0.00    -0.152 C  
ENDROOT
BRANCH   5   7
ATOM      7  C   GLY A   1      -6.915   9.956  70.213  1.00  0.00    -0.146 C  
ATOM      8  H   GLY A   1      -5.664  10.953  71.344  1.00  0.00     0.000 HD 
ATOM      9  O   GLY A   1      -6.378  11.160  70.753  1.00  0.00    -0.344 OA 
ENDBRANCH   5   7
BRANCH   6  10
HETATM   10  C   UNL     1      -6.645  15.841  67.455  1.00  0.00    -0.215 C  
BRANCH  10  11
HETATM   11  C   UNL     1      -7.259  16.831  66.462  1.00  0.00    -0.278 C  
BRANCH  11  12
HETATM   12  C   UNL     1      -6.229  17.902  66.095  1.00  0.00    -0.272 C  
BRANCH  12  13
HETATM   13  C   UNL     1      -6.884  19.221  65.687  1.00  0.00    -0.313 C  
BRANCH  13  14
HETATM   14  C   UNL     1      -6.935  20.243  66.832  1.00  0.00    -0.296 C  
BRANCH  14  15
HETATM   15  C   UNL     1      -8.174  20.161  67.732  1.00  0.00    -0.302 C  
BRANCH  15  16
HETATM   16  C   UNL     1      -9.441  20.650  67.085  1.00  0.00    -0.505 C  
HETATM   17  C   UNL     1     -10.438  19.854  66.667  1.00  0.00    -0.580 C  
BRANCH  17  18
HETATM   18  C   UNL     1     -10.443  18.355  66.735  1.00  0.00    -0.415 C  
BRANCH  18  19
HETATM   19  C   UNL     1     -10.871  17.850  68.111  1.00  0.00    -0.178 C  
BRANCH  19  20
HETATM   20  C   UNL     1     -10.405  16.409  68.312  1.00  0.00    -0.279 C  
BRANCH  20  21
HETATM   21  C   UNL     1     -11.569  15.429  68.207  1.00  0.00    -0.361 C  
BRANCH  21  22
HETATM   22  C   UNL     1     -11.071  13.994  68.054  1.00  0.00    -0.282 C  
BRANCH  22  23
HETATM   23  C   UNL     1     -11.823  13.276  66.936  1.00  0.00    -0.446 C  
BRANCH  23  24
HETATM   24  C   UNL     1     -11.014  12.114  66.368  1.00  0.00    -0.327 C  
HETATM   25  C   UNL     1     -11.189  10.859  67.192  1.00  0.00    -0.184 C  
HETATM   26  O   UNL     1     -10.489   9.817  66.685  1.00  0.00    -0.218 OA 
HETATM   27  O   UNL     1     -11.872  10.759  68.194  1.00  0.00    -0.533 OA 
ENDBRANCH  23  24
ENDBRANCH  22  23
ENDBRANCH  21  22
ENDBRANCH  20  21
ENDBRANCH  19  20
ENDBRANCH  18  19
ENDBRANCH  17  18
ENDBRANCH  15  16
ENDBRANCH  14  15
ENDBRANCH  13  14
ENDBRANCH  12  13
ENDBRANCH  11  12
ENDBRANCH  10  11
ENDBRANCH   6  10
TORSDOF 15
ENDMDL
MODEL      227
REMARK 921   NORMALIZED FREE ENERGY PREDICTED BY IDOCK:   -3.92 KCAL/MOL
REMARK 922        TOTAL FREE ENERGY PREDICTED BY IDOCK:   -9.30 KCAL/MOL
REMARK 923 INTER-LIGAND FREE ENERGY PREDICTED BY IDOCK:   -7.55 KCAL/MOL
REMARK 924 INTRA-LIGAND FREE ENERGY PREDICTED BY IDOCK:   -1.75 KCAL/MOL
REMARK 927      BINDING AFFINITY PREDICTED BY RF-SCORE:    0.00 PKD
ROOT
ATOM      1  N   GLY A   1      -7.453  18.579  65.646  1.00  0.00    -0.522 NA 
HETATM    2  C   UNL     1     -11.165  13.419  68.475  1.00  0.00    -0.316 C  
ATOM      3  H2  GLY A   1      -6.620  18.216  66.108  1.00  0.00     0.000 HD 
ATOM      4  H1  GLY A   1      -7.479  18.330  64.657  1.00  0.00     0.000 HD 
ATOM      5  CA  GLY A   1      -8.686  18.139  66.313  1.00  0.00    -0.172 C  
HETATM    6  C   UNL     1     -11.366  12.800  67.101  1.00  0.00    -0.365 C  
ENDROOT
BRANCH   5   7
ATOM      7  C   GLY A   1      -8.647  18.513  67.797  1.00  0.00    -0.271 C  
ATOM      8  H   GLY A   1      -9.953  18.831  69.223  1.00  0.00     0.000 HD 
ATOM      9  O   GLY A   1      -9.977  18.599  68.302  1.00  0.00    -0.344 OA 
ENDBRANCH   5   7
BRANCH   6  10
HETATM   10  C   UNL     1     -12.466  13.470  66.280  1.00  0.00    -0.384 C  
BRANCH  10  11
HETATM   11  C   UNL     1     -12.029  13.928  64.886  1.00  0.00    -0.412 C  
BRANCH  11  12
HETATM   12  C   UNL     1     -10.685  13.287  64.530  1.00  0.00    -0.428 C  
BRANCH  12  13
HETATM   13  C   UNL     1     -10.839  12.120  63.556  1.00  0.00    -0.518 C  
BRANCH  13  14
HETATM   14  C   UNL     1      -9.524  11.368  63.311  1.00  0.00    -0.330 C  
BRANCH  14  15
HETATM   15  C   UNL     1      -9.324  10.099  64.149  1.00  0.00    -0.340 C  
BRANCH  15  16
HETATM   16  C   UNL     1     -10.261   9.978  65.320  1.00  0.00    -0.196 C  
HETATM   17  C   UNL     1     -10.035   9.214  66.400  1.00  0.00    -0.358 C  
BRANCH  17  18
HETATM   18  C   UNL     1      -8.842   8.325  66.604  1.00  0.00    -0.166 C  
BRANCH  18  19
HETATM   19  C   UNL     1      -8.104   8.655  67.900  1.00  0.00    -0.108 C  
BRANCH  19  20
HETATM   20  C   UNL     1      -8.242  10.143  68.220  1.00  0.00    -0.110 C  
BRANCH  20  21
HETATM   21  C   UNL     1      -8.700  10.362  69.658  1.00  0.00    -0.056 C  
BRANCH  21  22
HETATM   22  C   UNL     1      -8.567   9.083  70.480  1.00  0.00    -0.229 C  
BRANCH  22  23
HETATM   23  C   UNL     1      -9.738   8.938  71.449  1.00  0.00    -0.370 C  
BRANCH  23  24
HETATM   24  C   UNL     1     -10.925   9.801  71.032  1.00  0.00    -0.402 C  
HETATM   25  C   UNL     1     -12.194   9.382  71.740  1.00  0.00    -0.390 C  
HETATM   26  O   UNL     1     -13.249  10.154  71.390  1.00  0.00    -0.376 OA 
HETATM   27  O   UNL     1     -12.291   8.469  72.537  1.00  0.00    -0.388 OA 
ENDBRANCH  23  24
ENDBRANCH  22  23
ENDBRANCH  21  22
ENDBRANCH  20  21
ENDBRANCH  19  20
ENDBRANCH  18  19
ENDBRANCH  17  18
ENDBRANCH  15  16
ENDBRANCH  14  15
ENDBRANCH  13  14
ENDBRANCH  12  13
ENDBRANCH  11  12
ENDBRANCH  10  11
ENDBRANCH   6  10
TORSDOF 15
ENDMDL
MODEL      228
REMARK 921   NORMALIZED FREE ENERGY PREDICTED BY IDOCK:   -3.92 KCAL/MOL
REMARK 922        TOTAL FREE ENERGY PREDICTED BY IDOCK:   -9.30 KCAL/MOL
REMARK 923 INTER-LIGAND FREE ENERGY PREDICTED BY IDOCK:   -7.15 KCAL/MOL
REMARK 924 INTRA-LIGAND FREE ENERGY PREDICTED BY IDOCK:   -2.15 KCAL/MOL
REMARK 927      BINDING AFFINITY PREDICTED BY RF-SCORE:    0.00 PKD
ROOT
ATOM      1  N   GLY A   1      -9.691  20.462  65.580  1.00  0.00    -0.533 NA 
HETATM    2  C   UNL     1      -8.122  14.886  69.435  1.00  0.00    -0.103 C  
ATOM      3  H2  GLY A   1      -9.258  21.056  66.287  1.00  0.00     0.000 HD 
ATOM      4  H1  GLY A   1      -9.084  20.328  64.772  1.00  0.00     0.000 HD 
ATOM      5  CA  GLY A   1     -10.098  19.162  66.130  1.00  0.00    -0.426 C  
HETATM    6  C   UNL     1      -7.120  14.433  68.385  1.00  0.00    -0.106 C  
ENDROOT
BRANCH   5   7
ATOM      7  C   GLY A   1     -11.009  19.363  67.344  1.00  0.00    -0.334 C  
ATOM      8  H   GLY A   1     -10.783  19.558  69.281  1.00  0.00     0.000 HD 
ATOM      9  O   GLY A   1     -10.218  19.434  68.528  1.00  0.00    -0.412 OA 
ENDBRANCH   5   7
BRANCH   6  10
HETATM   10  C   UNL     1      -7.759  13.730  67.188  1.00  0.00     0.009 C  
BRANCH  10  11
HETATM   11  C   UNL     1      -7.567  12.211  67.168  1.00  0.00    -0.132 C  
BRANCH  11  12
HETATM   12  C   UNL     1      -8.741  11.551  66.440  1.00  0.00    -0.179 C  
BRANCH  12  13
HETATM   13  C   UNL     1      -8.347  10.231  65.780  1.00  0.00    -0.152 C  
BRANCH  13  14
HETATM   14  C   UNL     1      -9.433   9.154  65.902  1.00  0.00    -0.326 C  
BRANCH  14  15
HETATM   15  C   UNL     1     -10.466   9.382  67.014  1.00  0.00    -0.302 C  
BRANCH  15  16
HETATM   16  C   UNL     1     -10.335   8.441  68.181  1.00  0.00    -0.255 C  
HETATM   17  C   UNL     1     -10.347   8.820  69.468  1.00  0.00    -0.213 C  
BRANCH  17  18
HETATM   18  C   UNL     1     -10.449  10.234  69.960  1.00  0.00    -0.293 C  
BRANCH  18  19
HETATM   19  C   UNL     1     -11.886  10.748  69.916  1.00  0.00    -0.413 C  
BRANCH  19  20
HETATM   20  C   UNL     1     -11.925  12.236  70.263  1.00  0.00    -0.373 C  
BRANCH  20  21
HETATM   21  C   UNL     1     -11.465  13.093  69.088  1.00  0.00    -0.358 C  
BRANCH  21  22
HETATM   22  C   UNL     1     -11.786  12.421  67.756  1.00  0.00    -0.413 C  
BRANCH  22  23
HETATM   23  C   UNL     1     -12.221  13.455  66.720  1.00  0.00    -0.367 C  
BRANCH  23  24
HETATM   24  C   UNL     1     -11.223  14.604  66.617  1.00  0.00    -0.349 C  
HETATM   25  C   UNL     1     -10.814  14.859  65.184  1.00  0.00    -0.414 C  
HETATM   26  O   UNL     1      -9.942  15.890  65.081  1.00  0.00    -0.420 OA 
HETATM   27  O   UNL     1     -11.204  14.237  64.215  1.00  0.00    -0.285 OA 
ENDBRANCH  23  24
ENDBRANCH  22  23
ENDBRANCH  21  22
ENDBRANCH  20  21
ENDBRANCH  19  20
ENDBRANCH  18  19
ENDBRANCH  17  18
ENDBRANCH  15  16
ENDBRANCH  14  15
ENDBRANCH  13  14
ENDBRANCH  12  13
ENDBRANCH  11  12
ENDBRANCH  10  11
ENDBRANCH   6  10
TORSDOF 15
ENDMDL
MODEL      229
REMARK 921   NORMALIZED FREE ENERGY PREDICTED BY IDOCK:   -3.91 KCAL/MOL
REMARK 922        TOTAL FREE ENERGY PREDICTED BY IDOCK:   -9.28 KCAL/MOL
REMARK 923 INTER-LIGAND FREE ENERGY PREDICTED BY IDOCK:   -7.21 KCAL/MOL
REMARK 924 INTRA-LIGAND FREE ENERGY PREDICTED BY IDOCK:   -2.07 KCAL/MOL
REMARK 927      BINDING AFFINITY PREDICTED BY RF-SCORE:    0.00 PKD
ROOT
ATOM      1  N   GLY A   1      -7.947  14.905  69.585  1.00  0.00    -0.407 NA 
HETATM    2  C   UNL     1      -9.903   9.120  66.250  1.00  0.00    -0.359 C  
ATOM      3  H2  GLY A   1      -8.603  15.439  69.015  1.00  0.00     0.000 HD 
ATOM      4  H1  GLY A   1      -8.310  14.732  70.522  1.00  0.00     0.000 HD 
ATOM      5  CA  GLY A   1      -7.571  13.637  68.944  1.00  0.00    -0.016 C  
HETATM    6  C   UNL     1     -10.552   8.597  67.522  1.00  0.00    -0.292 C  
ENDROOT
BRANCH   5   7
ATOM      7  C   GLY A   1      -7.027  13.897  67.536  1.00  0.00    -0.144 C  
ATOM      8  H   GLY A   1      -6.549  15.461  66.458  1.00  0.00     0.000 HD 
ATOM      9  O   GLY A   1      -6.886  15.300  67.331  1.00  0.00    -0.185 OA 
ENDBRANCH   5   7
BRANCH   6  10
HETATM   10  C   UNL     1      -9.561   7.985  68.511  1.00  0.00    -0.159 C  
BRANCH  10  11
HETATM   11  C   UNL     1     -10.207   7.333  69.735  1.00  0.00    -0.214 C  
BRANCH  11  12
HETATM   12  C   UNL     1     -11.390   8.182  70.209  1.00  0.00    -0.132 C  
BRANCH  12  13
HETATM   13  C   UNL     1     -10.949   9.351  71.088  1.00  0.00    -0.430 C  
BRANCH  13  14
HETATM   14  C   UNL     1     -11.631  10.673  70.711  1.00  0.00    -0.388 C  
BRANCH  14  15
HETATM   15  C   UNL     1     -11.054  11.385  69.481  1.00  0.00    -0.274 C  
BRANCH  15  16
HETATM   16  C   UNL     1     -11.692  12.714  69.181  1.00  0.00    -0.375 C  
HETATM   17  C   UNL     1     -12.008  13.146  67.950  1.00  0.00    -0.347 C  
BRANCH  17  18
HETATM   18  C   UNL     1     -11.747  12.403  66.672  1.00  0.00    -0.438 C  
BRANCH  18  19
HETATM   19  C   UNL     1     -10.432  12.833  66.025  1.00  0.00    -0.291 C  
BRANCH  19  20
HETATM   20  C   UNL     1     -10.691  13.383  64.623  1.00  0.00    -0.425 C  
BRANCH  20  21
HETATM   21  C   UNL     1     -10.939  14.888  64.654  1.00  0.00    -0.323 C  
BRANCH  21  22
HETATM   22  C   UNL     1     -10.018  15.579  65.656  1.00  0.00    -0.394 C  
BRANCH  22  23
HETATM   23  C   UNL     1     -10.454  17.024  65.885  1.00  0.00    -0.282 C  
BRANCH  23  24
HETATM   24  C   UNL     1      -9.985  17.546  67.240  1.00  0.00    -0.312 C  
HETATM   25  C   UNL     1      -8.787  18.457  67.100  1.00  0.00    -0.264 C  
HETATM   26  O   UNL     1      -8.374  18.941  68.295  1.00  0.00    -0.306 OA 
HETATM   27  O   UNL     1      -8.236  18.748  66.055  1.00  0.00    -0.458 OA 
ENDBRANCH  23  24
ENDBRANCH  22  23
ENDBRANCH  21  22
ENDBRANCH  20  21
ENDBRANCH  19  20
ENDBRANCH  18  19
ENDBRANCH  17  18
ENDBRANCH  15  16
ENDBRANCH  14  15
ENDBRANCH  13  14
ENDBRANCH  12  13
ENDBRANCH  11  12
ENDBRANCH  10  11
ENDBRANCH   6  10
TORSDOF 15
ENDMDL
MODEL      230
REMARK 921   NORMALIZED FREE ENERGY PREDICTED BY IDOCK:   -3.90 KCAL/MOL
REMARK 922        TOTAL FREE ENERGY PREDICTED BY IDOCK:   -9.26 KCAL/MOL
REMARK 923 INTER-LIGAND FREE ENERGY PREDICTED BY IDOCK:   -7.05 KCAL/MOL
REMARK 924 INTRA-LIGAND FREE ENERGY PREDICTED BY IDOCK:   -2.21 KCAL/MOL
REMARK 927      BINDING AFFINITY PREDICTED BY RF-SCORE:    0.00 PKD
ROOT
ATOM      1  N   GLY A   1      -7.622  14.618  67.379  1.00  0.00    -0.194 NA 
HETATM    2  C   UNL     1     -11.710  10.188  70.853  1.00  0.00    -0.468 C  
ATOM      3  H2  GLY A   1      -7.664  14.001  66.568  1.00  0.00     0.000 HD 
ATOM      4  H1  GLY A   1      -8.237  15.425  67.277  1.00  0.00     0.000 HD 
ATOM      5  CA  GLY A   1      -7.924  13.905  68.628  1.00  0.00    -0.109 C  
HETATM    6  C   UNL     1     -12.836  11.210  70.847  1.00  0.00    -0.374 C  
ENDROOT
BRANCH   5   7
ATOM      7  C   GLY A   1      -7.001  12.693  68.782  1.00  0.00    -0.096 C  
ATOM      8  H   GLY A   1      -7.209  10.750  68.925  1.00  0.00     0.000 HD 
ATOM      9  O   GLY A   1      -7.782  11.502  68.830  1.00  0.00    -0.134 OA 
ENDBRANCH   5   7
BRANCH   6  10
HETATM   10  C   UNL     1     -12.688  12.293  71.914  1.00  0.00    -0.197 C  
BRANCH  10  11
HETATM   11  C   UNL     1     -12.551  13.714  71.362  1.00  0.00    -0.415 C  
BRANCH  11  12
HETATM   12  C   UNL     1     -12.632  13.684  69.833  1.00  0.00    -0.116 C  
BRANCH  12  13
HETATM   13  C   UNL     1     -11.410  14.321  69.174  1.00  0.00    -0.312 C  
BRANCH  13  14
HETATM   14  C   UNL     1     -11.644  15.782  68.766  1.00  0.00    -0.401 C  
BRANCH  14  15
HETATM   15  C   UNL     1     -10.377  16.631  68.601  1.00  0.00    -0.304 C  
BRANCH  15  16
HETATM   16  C   UNL     1     -10.450  17.639  67.487  1.00  0.00    -0.365 C  
HETATM   17  C   UNL     1     -10.534  17.329  66.184  1.00  0.00    -0.279 C  
BRANCH  17  18
HETATM   18  C   UNL     1     -10.527  15.939  65.617  1.00  0.00    -0.411 C  
BRANCH  18  19
HETATM   19  C   UNL     1     -11.362  15.842  64.342  1.00  0.00    -0.274 C  
BRANCH  19  20
HETATM   20  C   UNL     1     -12.343  14.675  64.442  1.00  0.00    -0.420 C  
BRANCH  20  21
HETATM   21  C   UNL     1     -12.139  13.887  65.732  1.00  0.00    -0.449 C  
BRANCH  21  22
HETATM   22  C   UNL     1     -11.765  12.436  65.440  1.00  0.00    -0.452 C  
BRANCH  22  23
HETATM   23  C   UNL     1     -10.414  12.090  66.060  1.00  0.00    -0.284 C  
BRANCH  23  24
HETATM   24  C   UNL     1     -10.569  11.190  67.283  1.00  0.00    -0.279 C  
HETATM   25  C   UNL     1     -10.211   9.756  66.967  1.00  0.00    -0.229 C  
HETATM   26  O   UNL     1     -10.327   8.954  68.051  1.00  0.00    -0.204 OA 
HETATM   27  O   UNL     1      -9.851   9.338  65.883  1.00  0.00    -0.281 OA 
ENDBRANCH  23  24
ENDBRANCH  22  23
ENDBRANCH  21  22
ENDBRANCH  20  21
ENDBRANCH  19  20
ENDBRANCH  18  19
ENDBRANCH  17  18
ENDBRANCH  15  16
ENDBRANCH  14  15
ENDBRANCH  13  14
ENDBRANCH  12  13
ENDBRANCH  11  12
ENDBRANCH  10  11
ENDBRANCH   6  10
TORSDOF 15
ENDMDL
MODEL      231
REMARK 921   NORMALIZED FREE ENERGY PREDICTED BY IDOCK:   -3.89 KCAL/MOL
REMARK 922        TOTAL FREE ENERGY PREDICTED BY IDOCK:   -9.25 KCAL/MOL
REMARK 923 INTER-LIGAND FREE ENERGY PREDICTED BY IDOCK:   -8.35 KCAL/MOL
REMARK 924 INTRA-LIGAND FREE ENERGY PREDICTED BY IDOCK:   -0.90 KCAL/MOL
REMARK 927      BINDING AFFINITY PREDICTED BY RF-SCORE:    0.00 PKD
ROOT
ATOM      1  N   GLY A   1      -8.847  19.021  68.757  1.00  0.00    -0.342 NA 
HETATM    2  C   UNL     1     -12.763  14.169  65.669  1.00  0.00    -0.469 C  
ATOM      3  H2  GLY A   1      -9.527  19.068  69.516  1.00  0.00     0.000 HD 
ATOM      4  H1  GLY A   1      -8.022  18.481  69.019  1.00  0.00     0.000 HD 
ATOM      5  CA  GLY A   1      -9.437  18.482  67.525  1.00  0.00    -0.277 C  
HETATM    6  C   UNL     1     -11.691  13.124  65.935  1.00  0.00    -0.427 C  
ENDROOT
BRANCH   5   7
ATOM      7  C   GLY A   1     -10.675  19.292  67.132  1.00  0.00    -0.480 C  
ATOM      8  H   GLY A   1     -11.321  20.227  65.535  1.00  0.00     0.000 HD 
ATOM      9  O   GLY A   1     -10.553  19.724  65.779  1.00  0.00    -0.523 OA 
ENDBRANCH   5   7
BRANCH   6  10
HETATM   10  C   UNL     1     -10.530  13.168  64.942  1.00  0.00    -0.369 C  
BRANCH  10  11
HETATM   11  C   UNL     1     -10.762  12.368  63.658  1.00  0.00    -0.497 C  
BRANCH  11  12
HETATM   12  C   UNL     1     -10.363  10.907  63.880  1.00  0.00    -0.397 C  
BRANCH  12  13
HETATM   13  C   UNL     1      -9.514  10.722  65.137  1.00  0.00    -0.271 C  
BRANCH  13  14
HETATM   14  C   UNL     1     -10.088   9.672  66.098  1.00  0.00    -0.328 C  
BRANCH  14  15
HETATM   15  C   UNL     1     -10.902  10.228  67.272  1.00  0.00    -0.312 C  
BRANCH  15  16
HETATM   16  C   UNL     1     -10.176  10.212  68.590  1.00  0.00    -0.193 C  
HETATM   17  C   UNL     1     -10.685  10.670  69.744  1.00  0.00    -0.283 C  
BRANCH  17  18
HETATM   18  C   UNL     1     -12.033  11.309  69.910  1.00  0.00    -0.440 C  
BRANCH  18  19
HETATM   19  C   UNL     1     -12.706  10.884  71.213  1.00  0.00    -0.542 C  
BRANCH  19  20
HETATM   20  C   UNL     1     -13.046   9.395  71.169  1.00  0.00    -0.294 C  
BRANCH  20  21
HETATM   21  C   UNL     1     -12.254   8.613  72.213  1.00  0.00    -0.447 C  
BRANCH  21  22
HETATM   22  C   UNL     1     -12.326   7.111  71.949  1.00  0.00    -0.352 C  
BRANCH  22  23
HETATM   23  C   UNL     1     -10.940   6.479  72.042  1.00  0.00    -0.283 C  
BRANCH  23  24
HETATM   24  C   UNL     1     -11.013   4.955  72.021  1.00  0.00    -0.024 C  
HETATM   25  C   UNL     1     -11.045   4.381  73.419  1.00  0.00    -0.305 C  
HETATM   26  O   UNL     1     -11.129   3.030  73.412  1.00  0.00    -0.202 OA 
HETATM   27  O   UNL     1     -11.007   5.025  74.451  1.00  0.00    -0.289 OA 
ENDBRANCH  23  24
ENDBRANCH  22  23
ENDBRANCH  21  22
ENDBRANCH  20  21
ENDBRANCH  19  20
ENDBRANCH  18  19
ENDBRANCH  17  18
ENDBRANCH  15  16
ENDBRANCH  14  15
ENDBRANCH  13  14
ENDBRANCH  12  13
ENDBRANCH  11  12
ENDBRANCH  10  11
ENDBRANCH   6  10
TORSDOF 15
ENDMDL
MODEL      232
REMARK 921   NORMALIZED FREE ENERGY PREDICTED BY IDOCK:   -3.89 KCAL/MOL
REMARK 922        TOTAL FREE ENERGY PREDICTED BY IDOCK:   -9.24 KCAL/MOL
REMARK 923 INTER-LIGAND FREE ENERGY PREDICTED BY IDOCK:   -7.04 KCAL/MOL
REMARK 924 INTRA-LIGAND FREE ENERGY PREDICTED BY IDOCK:   -2.20 KCAL/MOL
REMARK 927      BINDING AFFINITY PREDICTED BY RF-SCORE:    0.00 PKD
ROOT
ATOM      1  N   GLY A   1     -11.066   7.902  69.600  1.00  0.00    -0.441 NA 
HETATM    2  C   UNL     1     -12.485  13.088  65.184  1.00  0.00    -0.552 C  
ATOM      3  H2  GLY A   1     -12.010   7.983  69.978  1.00  0.00     0.000 HD 
ATOM      4  H1  GLY A   1     -10.979   7.110  68.963  1.00  0.00     0.000 HD 
ATOM      5  CA  GLY A   1     -10.633   9.138  68.935  1.00  0.00    -0.191 C  
HETATM    6  C   UNL     1     -12.426  12.118  64.014  1.00  0.00    -0.541 C  
ENDROOT
BRANCH   5   7
ATOM      7  C   GLY A   1     -10.764  10.327  69.892  1.00  0.00    -0.294 C  
ATOM      8  H   GLY A   1     -11.963  10.861  71.348  1.00  0.00     0.000 HD 
ATOM      9  O   GLY A   1     -11.881  10.124  70.754  1.00  0.00    -0.297 OA 
ENDBRANCH   5   7
BRANCH   6  10
HETATM   10  C   UNL     1     -11.005  11.791  63.558  1.00  0.00    -0.499 C  
BRANCH  10  11
HETATM   11  C   UNL     1     -10.066  11.342  64.680  1.00  0.00    -0.330 C  
BRANCH  11  12
HETATM   12  C   UNL     1      -9.512   9.950  64.364  1.00  0.00    -0.304 C  
BRANCH  12  13
HETATM   13  C   UNL     1      -8.860   9.296  65.581  1.00  0.00    -0.216 C  
BRANCH  13  14
HETATM   14  C   UNL     1      -7.564   8.548  65.235  1.00  0.00    -0.089 C  
BRANCH  14  15
HETATM   15  C   UNL     1      -6.307   9.037  65.965  1.00  0.00    -0.064 C  
BRANCH  15  16
HETATM   16  C   UNL     1      -5.890  10.438  65.607  1.00  0.00    -0.114 C  
HETATM   17  C   UNL     1      -5.839  11.461  66.475  1.00  0.00    -0.138 C  
BRANCH  17  18
HETATM   18  C   UNL     1      -6.222  11.395  67.924  1.00  0.00    -0.051 C  
BRANCH  18  19
HETATM   19  C   UNL     1      -7.706  11.688  68.132  1.00  0.00    -0.122 C  
BRANCH  19  20
HETATM   20  C   UNL     1      -8.132  12.883  67.278  1.00  0.00    -0.164 C  
BRANCH  20  21
HETATM   21  C   UNL     1      -9.469  13.450  67.744  1.00  0.00    -0.210 C  
BRANCH  21  22
HETATM   22  C   UNL     1      -9.401  14.966  67.902  1.00  0.00    -0.191 C  
BRANCH  22  23
HETATM   23  C   UNL     1     -10.357  15.655  66.931  1.00  0.00    -0.293 C  
BRANCH  23  24
HETATM   24  C   UNL     1     -10.114  17.160  66.873  1.00  0.00    -0.298 C  
HETATM   25  C   UNL     1     -10.635  17.759  65.586  1.00  0.00    -0.123 C  
HETATM   26  O   UNL     1     -10.440  19.097  65.534  1.00  0.00    -0.521 OA 
HETATM   27  O   UNL     1     -11.175  17.144  64.687  1.00  0.00    -1.003 OA 
ENDBRANCH  23  24
ENDBRANCH  22  23
ENDBRANCH  21  22
ENDBRANCH  20  21
ENDBRANCH  19  20
ENDBRANCH  18  19
ENDBRANCH  17  18
ENDBRANCH  15  16
ENDBRANCH  14  15
ENDBRANCH  13  14
ENDBRANCH  12  13
ENDBRANCH  11  12
ENDBRANCH  10  11
ENDBRANCH   6  10
TORSDOF 15
ENDMDL
MODEL      233
REMARK 921   NORMALIZED FREE ENERGY PREDICTED BY IDOCK:   -3.88 KCAL/MOL
REMARK 922        TOTAL FREE ENERGY PREDICTED BY IDOCK:   -9.24 KCAL/MOL
REMARK 923 INTER-LIGAND FREE ENERGY PREDICTED BY IDOCK:   -7.31 KCAL/MOL
REMARK 924 INTRA-LIGAND FREE ENERGY PREDICTED BY IDOCK:   -1.92 KCAL/MOL
REMARK 927      BINDING AFFINITY PREDICTED BY RF-SCORE:    0.00 PKD
ROOT
ATOM      1  N   GLY A   1      -9.956   5.030  67.907  1.00  0.00    -0.153 NA 
HETATM    2  C   UNL     1      -8.657   9.011  62.351  1.00  0.00    -0.220 C  
ATOM      3  H2  GLY A   1      -9.035   4.605  67.802  1.00  0.00     0.000 HD 
ATOM      4  H1  GLY A   1      -9.972   5.723  68.655  1.00  0.00     0.000 HD 
ATOM      5  CA  GLY A   1     -10.432   5.626  66.652  1.00  0.00    -0.279 C  
HETATM    6  C   UNL     1      -8.613  10.246  63.236  1.00  0.00    -0.194 C  
ENDROOT
BRANCH   5   7
ATOM      7  C   GLY A   1     -10.408   4.586  65.529  1.00  0.00    -0.229 C  
ATOM      8  H   GLY A   1      -9.470   2.905  65.162  1.00  0.00     0.000 HD 
ATOM      9  O   GLY A   1      -9.485   3.550  65.858  1.00  0.00    -0.169 OA 
ENDBRANCH   5   7
BRANCH   6  10
HETATM   10  C   UNL     1      -9.993  10.787  63.606  1.00  0.00    -0.405 C  
BRANCH  10  11
HETATM   11  C   UNL     1     -10.239  10.925  65.111  1.00  0.00    -0.360 C  
BRANCH  11  12
HETATM   12  C   UNL     1      -9.927   9.598  65.809  1.00  0.00    -0.342 C  
BRANCH  12  13
HETATM   13  C   UNL     1      -8.853   9.747  66.885  1.00  0.00    -0.150 C  
BRANCH  13  14
HETATM   14  C   UNL     1      -9.241   9.084  68.214  1.00  0.00    -0.139 C  
BRANCH  14  15
HETATM   15  C   UNL     1      -9.188   9.996  69.446  1.00  0.00    -0.229 C  
BRANCH  15  16
HETATM   16  C   UNL     1     -10.408   9.921  70.323  1.00  0.00    -0.339 C  
HETATM   17  C   UNL     1     -11.585  10.499  70.039  1.00  0.00    -0.392 C  
BRANCH  17  18
HETATM   18  C   UNL     1     -11.872  11.346  68.833  1.00  0.00    -0.413 C  
BRANCH  18  19
HETATM   19  C   UNL     1     -11.574  12.821  69.091  1.00  0.00    -0.373 C  
BRANCH  19  20
HETATM   20  C   UNL     1     -10.405  13.282  68.222  1.00  0.00    -0.252 C  
BRANCH  20  21
HETATM   21  C   UNL     1     -10.894  13.916  66.924  1.00  0.00    -0.286 C  
BRANCH  21  22
HETATM   22  C   UNL     1      -9.747  14.580  66.167  1.00  0.00    -0.340 C  
BRANCH  22  23
HETATM   23  C   UNL     1     -10.150  15.972  65.686  1.00  0.00    -0.384 C  
BRANCH  23  24
HETATM   24  C   UNL     1     -10.275  16.956  66.845  1.00  0.00    -0.296 C  
HETATM   25  C   UNL     1     -10.661  18.336  66.364  1.00  0.00    -0.293 C  
HETATM   26  O   UNL     1     -10.793  19.212  67.388  1.00  0.00    -0.483 OA 
HETATM   27  O   UNL     1     -10.844  18.657  65.205  1.00  0.00    -0.591 OA 
ENDBRANCH  23  24
ENDBRANCH  22  23
ENDBRANCH  21  22
ENDBRANCH  20  21
ENDBRANCH  19  20
ENDBRANCH  18  19
ENDBRANCH  17  18
ENDBRANCH  15  16
ENDBRANCH  14  15
ENDBRANCH  13  14
ENDBRANCH  12  13
ENDBRANCH  11  12
ENDBRANCH  10  11
ENDBRANCH   6  10
TORSDOF 15
ENDMDL
MODEL      234
REMARK 921   NORMALIZED FREE ENERGY PREDICTED BY IDOCK:   -3.88 KCAL/MOL
REMARK 922        TOTAL FREE ENERGY PREDICTED BY IDOCK:   -9.23 KCAL/MOL
REMARK 923 INTER-LIGAND FREE ENERGY PREDICTED BY IDOCK:   -7.27 KCAL/MOL
REMARK 924 INTRA-LIGAND FREE ENERGY PREDICTED BY IDOCK:   -1.96 KCAL/MOL
REMARK 927      BINDING AFFINITY PREDICTED BY RF-SCORE:    0.00 PKD
ROOT
ATOM      1  N   GLY A   1      -8.226   7.478  71.930  1.00  0.00    -0.104 NA 
HETATM    2  C   UNL     1     -10.208  10.000  65.756  1.00  0.00    -0.270 C  
ATOM      3  H2  GLY A   1      -7.340   7.190  71.514  1.00  0.00     0.000 HD 
ATOM      4  H1  GLY A   1      -8.129   8.332  72.478  1.00  0.00     0.000 HD 
ATOM      5  CA  GLY A   1      -9.280   7.638  70.920  1.00  0.00    -0.149 C  
HETATM    6  C   UNL     1     -10.142  11.416  66.305  1.00  0.00    -0.263 C  
ENDROOT
BRANCH   5   7
ATOM      7  C   GLY A   1      -9.425   6.355  70.097  1.00  0.00    -0.160 C  
ATOM      8  H   GLY A   1     -10.642   5.672  68.722  1.00  0.00     0.000 HD 
ATOM      9  O   GLY A   1     -10.552   6.468  69.232  1.00  0.00    -0.205 OA 
ENDBRANCH   5   7
BRANCH   6  10
HETATM   10  C   UNL     1     -11.363  11.812  67.133  1.00  0.00    -0.387 C  
BRANCH  10  11
HETATM   11  C   UNL     1     -11.063  12.112  68.604  1.00  0.00    -0.297 C  
BRANCH  11  12
HETATM   12  C   UNL     1     -10.816  10.804  69.359  1.00  0.00    -0.289 C  
BRANCH  12  13
HETATM   13  C   UNL     1     -11.794  10.608  70.516  1.00  0.00    -0.453 C  
BRANCH  13  14
HETATM   14  C   UNL     1     -12.786  11.770  70.663  1.00  0.00    -0.193 C  
BRANCH  14  15
HETATM   15  C   UNL     1     -13.036  12.245  72.100  1.00  0.00    -0.406 C  
BRANCH  15  16
HETATM   16  C   UNL     1     -13.993  13.401  72.210  1.00  0.00    -0.605 C  
HETATM   17  C   UNL     1     -13.623  14.680  72.380  1.00  0.00    -0.555 C  
BRANCH  17  18
HETATM   18  C   UNL     1     -12.211  15.168  72.528  1.00  0.00    -0.474 C  
BRANCH  18  19
HETATM   19  C   UNL     1     -11.764  15.987  71.320  1.00  0.00    -0.516 C  
BRANCH  19  20
HETATM   20  C   UNL     1     -12.109  15.249  70.027  1.00  0.00    -0.386 C  
BRANCH  20  21
HETATM   21  C   UNL     1     -11.453  15.910  68.818  1.00  0.00    -0.393 C  
BRANCH  21  22
HETATM   22  C   UNL     1     -10.535  17.053  69.245  1.00  0.00    -0.293 C  
BRANCH  22  23
HETATM   23  C   UNL     1      -9.154  16.904  68.611  1.00  0.00    -0.265 C  
BRANCH  23  24
HETATM   24  C   UNL     1      -9.052  15.631  67.776  1.00  0.00    -0.181 C  
HETATM   25  C   UNL     1      -7.990  14.698  68.312  1.00  0.00    -0.133 C  
HETATM   26  O   UNL     1      -7.904  13.557  67.589  1.00  0.00    -0.147 OA 
HETATM   27  O   UNL     1      -7.283  14.911  69.279  1.00  0.00    -0.147 OA 
ENDBRANCH  23  24
ENDBRANCH  22  23
ENDBRANCH  21  22
ENDBRANCH  20  21
ENDBRANCH  19  20
ENDBRANCH  18  19
ENDBRANCH  17  18
ENDBRANCH  15  16
ENDBRANCH  14  15
ENDBRANCH  13  14
ENDBRANCH  12  13
ENDBRANCH  11  12
ENDBRANCH  10  11
ENDBRANCH   6  10
TORSDOF 15
ENDMDL
MODEL      235
REMARK 921   NORMALIZED FREE ENERGY PREDICTED BY IDOCK:   -3.88 KCAL/MOL
REMARK 922        TOTAL FREE ENERGY PREDICTED BY IDOCK:   -9.23 KCAL/MOL
REMARK 923 INTER-LIGAND FREE ENERGY PREDICTED BY IDOCK:   -7.77 KCAL/MOL
REMARK 924 INTRA-LIGAND FREE ENERGY PREDICTED BY IDOCK:   -1.46 KCAL/MOL
REMARK 927      BINDING AFFINITY PREDICTED BY RF-SCORE:    0.00 PKD
ROOT
ATOM      1  N   GLY A   1     -13.834   8.944  73.220  1.00  0.00    -1.162 NA 
HETATM    2  C   UNL     1     -10.820   6.772  67.337  1.00  0.00    -0.417 C  
ATOM      3  H2  GLY A   1     -14.747   8.791  72.793  1.00  0.00     0.000 HD 
ATOM      4  H1  GLY A   1     -13.586   8.194  73.865  1.00  0.00     0.000 HD 
ATOM      5  CA  GLY A   1     -12.779   9.117  72.212  1.00  0.00    -0.377 C  
HETATM    6  C   UNL     1     -10.312   5.527  68.048  1.00  0.00    -0.237 C  
ENDROOT
BRANCH   5   7
ATOM      7  C   GLY A   1     -13.152  10.243  71.244  1.00  0.00    -0.398 C  
ATOM      8  H   GLY A   1     -13.264  12.198  71.304  1.00  0.00     0.000 HD 
ATOM      9  O   GLY A   1     -13.033  11.500  71.905  1.00  0.00    -0.440 OA 
ENDBRANCH   5   7
BRANCH   6  10
HETATM   10  C   UNL     1      -9.060   5.767  68.889  1.00  0.00    -0.121 C  
BRANCH  10  11
HETATM   11  C   UNL     1      -7.836   6.223  68.090  1.00  0.00    -0.104 C  
BRANCH  11  12
HETATM   12  C   UNL     1      -7.333   7.563  68.633  1.00  0.00    -0.095 C  
BRANCH  12  13
HETATM   13  C   UNL     1      -7.844   8.749  67.816  1.00  0.00    -0.102 C  
BRANCH  13  14
HETATM   14  C   UNL     1      -7.275   8.781  66.390  1.00  0.00    -0.084 C  
BRANCH  14  15
HETATM   15  C   UNL     1      -8.201   8.229  65.299  1.00  0.00    -0.149 C  
BRANCH  15  16
HETATM   16  C   UNL     1      -8.900   9.287  64.489  1.00  0.00    -0.203 C  
HETATM   17  C   UNL     1      -9.864  10.093  64.962  1.00  0.00    -0.392 C  
BRANCH  17  18
HETATM   18  C   UNL     1     -10.432  10.052  66.350  1.00  0.00    -0.199 C  
BRANCH  18  19
HETATM   19  C   UNL     1     -10.982  11.411  66.779  1.00  0.00    -0.347 C  
BRANCH  19  20
HETATM   20  C   UNL     1      -9.849  12.299  67.293  1.00  0.00    -0.208 C  
BRANCH  20  21
HETATM   21  C   UNL     1      -9.692  13.551  66.437  1.00  0.00    -0.296 C  
BRANCH  21  22
HETATM   22  C   UNL     1     -10.271  14.776  67.140  1.00  0.00    -0.245 C  
BRANCH  22  23
HETATM   23  C   UNL     1     -11.502  15.293  66.401  1.00  0.00    -0.087 C  
BRANCH  23  24
HETATM   24  C   UNL     1     -11.444  14.968  64.912  1.00  0.00    -0.399 C  
HETATM   25  C   UNL     1     -12.523  13.986  64.514  1.00  0.00    -0.308 C  
HETATM   26  O   UNL     1     -12.491  13.706  63.190  1.00  0.00    -0.786 OA 
HETATM   27  O   UNL     1     -13.342  13.492  65.265  1.00  0.00    -0.618 OA 
ENDBRANCH  23  24
ENDBRANCH  22  23
ENDBRANCH  21  22
ENDBRANCH  20  21
ENDBRANCH  19  20
ENDBRANCH  18  19
ENDBRANCH  17  18
ENDBRANCH  15  16
ENDBRANCH  14  15
ENDBRANCH  13  14
ENDBRANCH  12  13
ENDBRANCH  11  12
ENDBRANCH  10  11
ENDBRANCH   6  10
TORSDOF 15
ENDMDL
MODEL      236
REMARK 921   NORMALIZED FREE ENERGY PREDICTED BY IDOCK:   -3.87 KCAL/MOL
REMARK 922        TOTAL FREE ENERGY PREDICTED BY IDOCK:   -9.22 KCAL/MOL
REMARK 923 INTER-LIGAND FREE ENERGY PREDICTED BY IDOCK:   -8.14 KCAL/MOL
REMARK 924 INTRA-LIGAND FREE ENERGY PREDICTED BY IDOCK:   -1.08 KCAL/MOL
REMARK 927      BINDING AFFINITY PREDICTED BY RF-SCORE:    0.00 PKD
ROOT
ATOM      1  N   GLY A   1     -13.158  11.443  71.821  1.00  0.00    -0.471 NA 
HETATM    2  C   UNL     1      -9.711   5.873  69.474  1.00  0.00    -0.190 C  
ATOM      3  H2  GLY A   1     -12.544  11.464  72.636  1.00  0.00     0.000 HD 
ATOM      4  H1  GLY A   1     -12.899  12.148  71.132  1.00  0.00     0.000 HD 
ATOM      5  CA  GLY A   1     -13.198  10.114  71.198  1.00  0.00    -0.355 C  
HETATM    6  C   UNL     1      -9.153   6.695  68.323  1.00  0.00    -0.123 C  
ENDROOT
BRANCH   5   7
ATOM      7  C   GLY A   1     -13.586   9.055  72.234  1.00  0.00    -0.484 C  
ATOM      8  H   GLY A   1     -13.987   7.137  72.232  1.00  0.00     0.000 HD 
ATOM      9  O   GLY A   1     -13.746   7.793  71.589  1.00  0.00    -0.356 OA 
ENDBRANCH   5   7
BRANCH   6  10
HETATM   10  C   UNL     1     -10.135   6.879  67.167  1.00  0.00    -0.272 C  
BRANCH  10  11
HETATM   11  C   UNL     1     -10.381   8.337  66.770  1.00  0.00    -0.361 C  
BRANCH  11  12
HETATM   12  C   UNL     1      -9.140   8.899  66.071  1.00  0.00    -0.265 C  
BRANCH  12  13
HETATM   13  C   UNL     1      -9.478   9.572  64.742  1.00  0.00    -0.178 C  
BRANCH  13  14
HETATM   14  C   UNL     1     -10.359  10.817  64.908  1.00  0.00    -0.369 C  
BRANCH  14  15
HETATM   15  C   UNL     1     -10.757  11.522  63.605  1.00  0.00    -0.491 C  
BRANCH  15  16
HETATM   16  C   UNL     1     -11.972  12.401  63.724  1.00  0.00    -0.600 C  
HETATM   17  C   UNL     1     -11.956  13.666  64.173  1.00  0.00    -0.488 C  
BRANCH  17  18
HETATM   18  C   UNL     1     -10.744  14.400  64.666  1.00  0.00    -0.357 C  
BRANCH  18  19
HETATM   19  C   UNL     1     -10.517  14.182  66.160  1.00  0.00    -0.297 C  
BRANCH  19  20
HETATM   20  C   UNL     1     -11.258  15.247  66.966  1.00  0.00    -0.275 C  
BRANCH  20  21
HETATM   21  C   UNL     1     -10.514  15.588  68.254  1.00  0.00    -0.242 C  
BRANCH  21  22
HETATM   22  C   UNL     1     -10.230  17.084  68.348  1.00  0.00    -0.331 C  
BRANCH  22  23
HETATM   23  C   UNL     1     -10.414  17.757  66.990  1.00  0.00    -0.324 C  
BRANCH  23  24
HETATM   24  C   UNL     1      -9.076  18.139  66.365  1.00  0.00    -0.255 C  
HETATM   25  C   UNL     1      -8.750  19.597  66.596  1.00  0.00    -0.349 C  
HETATM   26  O   UNL     1      -7.556  19.941  66.061  1.00  0.00    -0.308 OA 
HETATM   27  O   UNL     1      -9.451  20.393  67.192  1.00  0.00    -0.401 OA 
ENDBRANCH  23  24
ENDBRANCH  22  23
ENDBRANCH  21  22
ENDBRANCH  20  21
ENDBRANCH  19  20
ENDBRANCH  18  19
ENDBRANCH  17  18
ENDBRANCH  15  16
ENDBRANCH  14  15
ENDBRANCH  13  14
ENDBRANCH  12  13
ENDBRANCH  11  12
ENDBRANCH  10  11
ENDBRANCH   6  10
TORSDOF 15
ENDMDL
MODEL      237
REMARK 921   NORMALIZED FREE ENERGY PREDICTED BY IDOCK:   -3.87 KCAL/MOL
REMARK 922        TOTAL FREE ENERGY PREDICTED BY IDOCK:   -9.21 KCAL/MOL
REMARK 923 INTER-LIGAND FREE ENERGY PREDICTED BY IDOCK:   -7.29 KCAL/MOL
REMARK 924 INTRA-LIGAND FREE ENERGY PREDICTED BY IDOCK:   -1.92 KCAL/MOL
REMARK 927      BINDING AFFINITY PREDICTED BY RF-SCORE:    0.00 PKD
ROOT
ATOM      1  N   GLY A   1     -12.622   7.010  70.874  1.00  0.00    -0.553 NA 
HETATM    2  C   UNL     1      -8.474  12.099  68.570  1.00  0.00    -0.083 C  
ATOM      3  H2  GLY A   1     -13.417   7.644  70.803  1.00  0.00     0.000 HD 
ATOM      4  H1  GLY A   1     -12.589   6.352  70.096  1.00  0.00     0.000 HD 
ATOM      5  CA  GLY A   1     -11.349   7.736  70.980  1.00  0.00    -0.271 C  
HETATM    6  C   UNL     1      -8.242  11.334  67.276  1.00  0.00    -0.140 C  
ENDROOT
BRANCH   5   7
ATOM      7  C   GLY A   1     -11.399   8.725  72.148  1.00  0.00    -0.341 C  
ATOM      8  H   GLY A   1     -12.685   9.226  73.539  1.00  0.00     0.000 HD 
ATOM      9  O   GLY A   1     -12.654   8.613  72.814  1.00  0.00    -0.319 OA 
ENDBRANCH   5   7
BRANCH   6  10
HETATM   10  C   UNL     1      -7.209  10.215  67.400  1.00  0.00    -0.088 C  
BRANCH  10  11
HETATM   11  C   UNL     1      -7.789   8.802  67.304  1.00  0.00    -0.097 C  
BRANCH  11  12
HETATM   12  C   UNL     1      -8.796   8.734  66.153  1.00  0.00    -0.201 C  
BRANCH  12  13
HETATM   13  C   UNL     1      -8.181   8.158  64.878  1.00  0.00    -0.150 C  
BRANCH  13  14
HETATM   14  C   UNL     1      -8.372   9.069  63.658  1.00  0.00    -0.178 C  
BRANCH  14  15
HETATM   15  C   UNL     1      -8.812  10.505  63.970  1.00  0.00    -0.206 C  
BRANCH  15  16
HETATM   16  C   UNL     1     -10.034  10.954  63.217  1.00  0.00    -0.399 C  
HETATM   17  C   UNL     1     -11.042  11.660  63.754  1.00  0.00    -0.499 C  
BRANCH  17  18
HETATM   18  C   UNL     1     -11.142  12.081  65.191  1.00  0.00    -0.369 C  
BRANCH  18  19
HETATM   19  C   UNL     1     -12.398  12.908  65.454  1.00  0.00    -0.538 C  
BRANCH  19  20
HETATM   20  C   UNL     1     -12.218  14.326  64.913  1.00  0.00    -0.449 C  
BRANCH  20  21
HETATM   21  C   UNL     1     -10.756  14.759  64.966  1.00  0.00    -0.452 C  
BRANCH  21  22
HETATM   22  C   UNL     1     -10.552  15.893  65.966  1.00  0.00    -0.331 C  
BRANCH  22  23
HETATM   23  C   UNL     1     -10.251  15.341  67.357  1.00  0.00    -0.243 C  
BRANCH  23  24
HETATM   24  C   UNL     1     -11.071  16.047  68.433  1.00  0.00    -0.351 C  
HETATM   25  C   UNL     1     -11.845  15.061  69.279  1.00  0.00    -0.315 C  
HETATM   26  O   UNL     1     -12.561  15.677  70.248  1.00  0.00    -0.407 OA 
HETATM   27  O   UNL     1     -11.844  13.853  69.137  1.00  0.00    -0.313 OA 
ENDBRANCH  23  24
ENDBRANCH  22  23
ENDBRANCH  21  22
ENDBRANCH  20  21
ENDBRANCH  19  20
ENDBRANCH  18  19
ENDBRANCH  17  18
ENDBRANCH  15  16
ENDBRANCH  14  15
ENDBRANCH  13  14
ENDBRANCH  12  13
ENDBRANCH  11  12
ENDBRANCH  10  11
ENDBRANCH   6  10
TORSDOF 15
ENDMDL
MODEL      238
REMARK 921   NORMALIZED FREE ENERGY PREDICTED BY IDOCK:   -3.87 KCAL/MOL
REMARK 922        TOTAL FREE ENERGY PREDICTED BY IDOCK:   -9.21 KCAL/MOL
REMARK 923 INTER-LIGAND FREE ENERGY PREDICTED BY IDOCK:   -7.00 KCAL/MOL
REMARK 924 INTRA-LIGAND FREE ENERGY PREDICTED BY IDOCK:   -2.21 KCAL/MOL
REMARK 927      BINDING AFFINITY PREDICTED BY RF-SCORE:    0.00 PKD
ROOT
ATOM      1  N   GLY A   1     -12.987  13.384  64.833  1.00  0.00    -0.730 NA 
HETATM    2  C   UNL     1      -8.196  10.754  69.138  1.00  0.00    -0.124 C  
ATOM      3  H2  GLY A   1     -12.334  13.270  64.057  1.00  0.00     0.000 HD 
ATOM      4  H1  GLY A   1     -13.695  12.650  64.843  1.00  0.00     0.000 HD 
ATOM      5  CA  GLY A   1     -12.297  13.442  66.128  1.00  0.00    -0.380 C  
HETATM    6  C   UNL     1      -9.051   9.513  69.344  1.00  0.00    -0.172 C  
ENDROOT
BRANCH   5   7
ATOM      7  C   GLY A   1     -11.233  14.544  66.111  1.00  0.00    -0.339 C  
ATOM      8  H   GLY A   1      -9.329  14.695  66.550  1.00  0.00     0.000 HD 
ATOM      9  O   GLY A   1      -9.989  14.012  66.560  1.00  0.00    -0.268 OA 
ENDBRANCH   5   7
BRANCH   6  10
HETATM   10  C   UNL     1     -10.192   9.712  70.341  1.00  0.00    -0.348 C  
BRANCH  10  11
HETATM   11  C   UNL     1     -11.368  10.531  69.804  1.00  0.00    -0.367 C  
BRANCH  11  12
HETATM   12  C   UNL     1     -12.286  10.937  70.960  1.00  0.00    -0.464 C  
BRANCH  12  13
HETATM   13  C   UNL     1     -13.507  10.026  71.080  1.00  0.00    -0.299 C  
BRANCH  13  14
HETATM   14  C   UNL     1     -13.318   8.906  72.113  1.00  0.00    -0.489 C  
BRANCH  14  15
HETATM   15  C   UNL     1     -13.023   7.517  71.532  1.00  0.00    -0.400 C  
BRANCH  15  16
HETATM   16  C   UNL     1     -11.780   6.870  72.079  1.00  0.00    -0.336 C  
HETATM   17  C   UNL     1     -10.861   6.237  71.333  1.00  0.00    -0.312 C  
BRANCH  17  18
HETATM   18  C   UNL     1     -10.935   6.031  69.849  1.00  0.00    -0.458 C  
BRANCH  18  19
HETATM   19  C   UNL     1      -9.647   5.425  69.295  1.00  0.00    -0.198 C  
BRANCH  19  20
HETATM   20  C   UNL     1      -9.476   5.807  67.825  1.00  0.00    -0.116 C  
BRANCH  20  21
HETATM   21  C   UNL     1      -8.015   6.094  67.493  1.00  0.00    -0.106 C  
BRANCH  21  22
HETATM   22  C   UNL     1      -7.841   7.508  66.947  1.00  0.00    -0.111 C  
BRANCH  22  23
HETATM   23  C   UNL     1      -8.690   7.714  65.694  1.00  0.00    -0.119 C  
BRANCH  23  24
HETATM   24  C   UNL     1      -9.499   9.005  65.767  1.00  0.00    -0.305 C  
HETATM   25  C   UNL     1      -8.910  10.081  64.883  1.00  0.00    -0.192 C  
HETATM   26  O   UNL     1      -9.632  11.225  64.926  1.00  0.00    -0.228 OA 
HETATM   27  O   UNL     1      -7.912   9.966  64.196  1.00  0.00    -0.137 OA 
ENDBRANCH  23  24
ENDBRANCH  22  23
ENDBRANCH  21  22
ENDBRANCH  20  21
ENDBRANCH  19  20
ENDBRANCH  18  19
ENDBRANCH  17  18
ENDBRANCH  15  16
ENDBRANCH  14  15
ENDBRANCH  13  14
ENDBRANCH  12  13
ENDBRANCH  11  12
ENDBRANCH  10  11
ENDBRANCH   6  10
TORSDOF 15
ENDMDL
MODEL      239
REMARK 921   NORMALIZED FREE ENERGY PREDICTED BY IDOCK:   -3.87 KCAL/MOL
REMARK 922        TOTAL FREE ENERGY PREDICTED BY IDOCK:   -9.21 KCAL/MOL
REMARK 923 INTER-LIGAND FREE ENERGY PREDICTED BY IDOCK:   -7.38 KCAL/MOL
REMARK 924 INTRA-LIGAND FREE ENERGY PREDICTED BY IDOCK:   -1.82 KCAL/MOL
REMARK 927      BINDING AFFINITY PREDICTED BY RF-SCORE:    0.00 PKD
ROOT
ATOM      1  N   GLY A   1     -10.767  19.267  66.500  1.00  0.00    -0.420 NA 
HETATM    2  C   UNL     1      -7.907  13.235  68.463  1.00  0.00    -0.110 C  
ATOM      3  H2  GLY A   1      -9.911  19.493  65.994  1.00  0.00     0.000 HD 
ATOM      4  H1  GLY A   1     -11.506  18.948  65.874  1.00  0.00     0.000 HD 
ATOM      5  CA  GLY A   1     -10.533  18.274  67.557  1.00  0.00    -0.411 C  
HETATM    6  C   UNL     1      -8.895  12.475  67.593  1.00  0.00    -0.179 C  
ENDROOT
BRANCH   5   7
ATOM      7  C   GLY A   1      -9.423  18.754  68.497  1.00  0.00    -0.358 C  
ATOM      8  H   GLY A   1      -9.236  20.086  69.922  1.00  0.00     0.000 HD 
ATOM      9  O   GLY A   1      -9.924  19.789  69.339  1.00  0.00    -0.384 OA 
ENDBRANCH   5   7
BRANCH   6  10
HETATM   10  C   UNL     1     -10.275  12.310  68.230  1.00  0.00    -0.221 C  
BRANCH  10  11
HETATM   11  C   UNL     1     -11.417  12.117  67.230  1.00  0.00    -0.413 C  
BRANCH  11  12
HETATM   12  C   UNL     1     -12.204  13.422  67.086  1.00  0.00    -0.306 C  
BRANCH  12  13
HETATM   13  C   UNL     1     -12.613  13.697  65.640  1.00  0.00    -0.531 C  
BRANCH  13  14
HETATM   14  C   UNL     1     -12.176  12.587  64.674  1.00  0.00    -0.524 C  
BRANCH  14  15
HETATM   15  C   UNL     1     -10.781  12.759  64.061  1.00  0.00    -0.457 C  
BRANCH  15  16
HETATM   16  C   UNL     1     -10.387  11.667  63.104  1.00  0.00    -0.383 C  
HETATM   17  C   UNL     1      -9.896  10.474  63.472  1.00  0.00    -0.339 C  
BRANCH  17  18
HETATM   18  C   UNL     1      -9.618  10.043  64.883  1.00  0.00    -0.375 C  
BRANCH  18  19
HETATM   19  C   UNL     1      -8.491   9.015  64.951  1.00  0.00    -0.195 C  
BRANCH  19  20
HETATM   20  C   UNL     1      -8.762   8.009  66.069  1.00  0.00    -0.183 C  
BRANCH  20  21
HETATM   21  C   UNL     1     -10.183   8.147  66.608  1.00  0.00    -0.329 C  
BRANCH  21  22
HETATM   22  C   UNL     1     -10.649   6.855  67.272  1.00  0.00    -0.393 C  
BRANCH  22  23
HETATM   23  C   UNL     1     -10.967   7.088  68.747  1.00  0.00    -0.150 C  
BRANCH  23  24
HETATM   24  C   UNL     1     -10.522   8.473  69.208  1.00  0.00    -0.224 C  
HETATM   25  C   UNL     1      -9.161   8.430  69.863  1.00  0.00    -0.146 C  
HETATM   26  O   UNL     1      -8.749   9.658  70.259  1.00  0.00    -0.218 OA 
HETATM   27  O   UNL     1      -8.485   7.432  70.028  1.00  0.00    -0.135 OA 
ENDBRANCH  23  24
ENDBRANCH  22  23
ENDBRANCH  21  22
ENDBRANCH  20  21
ENDBRANCH  19  20
ENDBRANCH  18  19
ENDBRANCH  17  18
ENDBRANCH  15  16
ENDBRANCH  14  15
ENDBRANCH  13  14
ENDBRANCH  12  13
ENDBRANCH  11  12
ENDBRANCH  10  11
ENDBRANCH   6  10
TORSDOF 15
ENDMDL
MODEL      240
REMARK 921   NORMALIZED FREE ENERGY PREDICTED BY IDOCK:   -3.87 KCAL/MOL
REMARK 922        TOTAL FREE ENERGY PREDICTED BY IDOCK:   -9.20 KCAL/MOL
REMARK 923 INTER-LIGAND FREE ENERGY PREDICTED BY IDOCK:   -6.99 KCAL/MOL
REMARK 924 INTRA-LIGAND FREE ENERGY PREDICTED BY IDOCK:   -2.21 KCAL/MOL
REMARK 927      BINDING AFFINITY PREDICTED BY RF-SCORE:    0.00 PKD
ROOT
ATOM      1  N   GLY A   1      -9.592   9.981  62.644  1.00  0.00    -0.499 NA 
HETATM    2  C   UNL     1      -7.425  12.409  68.794  1.00  0.00    -0.056 C  
ATOM      3  H2  GLY A   1      -8.873  10.540  62.185  1.00  0.00     0.000 HD 
ATOM      4  H1  GLY A   1      -9.326   8.998  62.708  1.00  0.00     0.000 HD 
ATOM      5  CA  GLY A   1      -9.927  10.504  63.975  1.00  0.00    -0.297 C  
HETATM    6  C   UNL     1      -6.914  11.026  69.168  1.00  0.00    -0.104 C  
ENDROOT
BRANCH   5   7
ATOM      7  C   GLY A   1     -10.325  11.979  63.879  1.00  0.00    -0.402 C  
ATOM      8  H   GLY A   1     -11.920  12.996  63.368  1.00  0.00     0.000 HD 
ATOM      9  O   GLY A   1     -11.673  12.081  63.427  1.00  0.00    -0.444 OA 
ENDBRANCH   5   7
BRANCH   6  10
HETATM   10  C   UNL     1      -8.008  10.077  69.653  1.00  0.00    -0.176 C  
BRANCH  10  11
HETATM   11  C   UNL     1      -7.492   8.763  70.246  1.00  0.00    -0.067 C  
BRANCH  11  12
HETATM   12  C   UNL     1      -7.515   8.841  71.774  1.00  0.00    -0.080 C  
BRANCH  12  13
HETATM   13  C   UNL     1      -8.324   7.707  72.401  1.00  0.00    -0.147 C  
BRANCH  13  14
HETATM   14  C   UNL     1      -9.389   8.206  73.387  1.00  0.00    -0.267 C  
BRANCH  14  15
HETATM   15  C   UNL     1     -10.842   7.938  72.978  1.00  0.00    -0.408 C  
BRANCH  15  16
HETATM   16  C   UNL     1     -11.076   7.942  71.492  1.00  0.00    -0.278 C  
HETATM   17  C   UNL     1     -11.601   8.971  70.807  1.00  0.00    -0.313 C  
BRANCH  17  18
HETATM   18  C   UNL     1     -12.077  10.263  71.404  1.00  0.00    -0.457 C  
BRANCH  18  19
HETATM   19  C   UNL     1     -12.150  11.377  70.362  1.00  0.00    -0.473 C  
BRANCH  19  20
HETATM   20  C   UNL     1     -11.682  10.858  69.003  1.00  0.00    -0.391 C  
BRANCH  20  21
HETATM   21  C   UNL     1     -11.438  12.003  68.025  1.00  0.00    -0.392 C  
BRANCH  21  22
HETATM   22  C   UNL     1     -11.789  13.349  68.653  1.00  0.00    -0.397 C  
BRANCH  22  23
HETATM   23  C   UNL     1     -11.709  14.467  67.616  1.00  0.00    -0.421 C  
BRANCH  23  24
HETATM   24  C   UNL     1     -10.400  14.418  66.833  1.00  0.00    -0.265 C  
HETATM   25  C   UNL     1      -9.411  15.442  67.340  1.00  0.00    -0.201 C  
HETATM   26  O   UNL     1      -8.239  15.394  66.664  1.00  0.00    -0.248 OA 
HETATM   27  O   UNL     1      -9.607  16.228  68.247  1.00  0.00    -0.212 OA 
ENDBRANCH  23  24
ENDBRANCH  22  23
ENDBRANCH  21  22
ENDBRANCH  20  21
ENDBRANCH  19  20
ENDBRANCH  18  19
ENDBRANCH  17  18
ENDBRANCH  15  16
ENDBRANCH  14  15
ENDBRANCH  13  14
ENDBRANCH  12  13
ENDBRANCH  11  12
ENDBRANCH  10  11
ENDBRANCH   6  10
TORSDOF 15
ENDMDL
MODEL      241
REMARK 921   NORMALIZED FREE ENERGY PREDICTED BY IDOCK:   -3.86 KCAL/MOL
REMARK 922        TOTAL FREE ENERGY PREDICTED BY IDOCK:   -9.19 KCAL/MOL
REMARK 923 INTER-LIGAND FREE ENERGY PREDICTED BY IDOCK:   -7.15 KCAL/MOL
REMARK 924 INTRA-LIGAND FREE ENERGY PREDICTED BY IDOCK:   -2.05 KCAL/MOL
REMARK 927      BINDING AFFINITY PREDICTED BY RF-SCORE:    0.00 PKD
ROOT
ATOM      1  N   GLY A   1      -6.786  19.545  64.932  1.00  0.00    -0.405 NA 
HETATM    2  C   UNL     1      -6.498  14.332  69.532  1.00  0.00    -0.132 C  
ATOM      3  H2  GLY A   1      -5.766  19.570  64.917  1.00  0.00     0.000 HD 
ATOM      4  H1  GLY A   1      -7.166  19.073  64.112  1.00  0.00     0.000 HD 
ATOM      5  CA  GLY A   1      -7.301  18.925  66.160  1.00  0.00    -0.266 C  
HETATM    6  C   UNL     1      -7.056  13.374  68.492  1.00  0.00    -0.108 C  
ENDROOT
BRANCH   5   7
ATOM      7  C   GLY A   1      -6.729  19.634  67.391  1.00  0.00    -0.208 C  
ATOM      8  H   GLY A   1      -7.305  19.988  69.230  1.00  0.00     0.000 HD 
ATOM      9  O   GLY A   1      -7.660  19.549  68.467  1.00  0.00    -0.320 OA 
ENDBRANCH   5   7
BRANCH   6  10
HETATM   10  C   UNL     1      -8.572  13.465  68.321  1.00  0.00    -0.169 C  
BRANCH  10  11
HETATM   11  C   UNL     1      -9.029  13.879  66.920  1.00  0.00    -0.236 C  
BRANCH  11  12
HETATM   12  C   UNL     1      -8.566  15.308  66.626  1.00  0.00    -0.305 C  
BRANCH  12  13
HETATM   13  C   UNL     1      -9.712  16.316  66.701  1.00  0.00    -0.266 C  
BRANCH  13  14
HETATM   14  C   UNL     1     -11.021  15.697  67.208  1.00  0.00    -0.275 C  
BRANCH  14  15
HETATM   15  C   UNL     1     -11.589  16.315  68.491  1.00  0.00    -0.188 C  
BRANCH  15  16
HETATM   16  C   UNL     1     -10.724  16.118  69.707  1.00  0.00    -0.336 C  
HETATM   17  C   UNL     1     -11.085  15.414  70.791  1.00  0.00    -0.371 C  
BRANCH  17  18
HETATM   18  C   UNL     1     -12.414  14.745  70.993  1.00  0.00    -0.400 C  
BRANCH  18  19
HETATM   19  C   UNL     1     -12.298  13.224  70.928  1.00  0.00    -0.413 C  
BRANCH  19  20
HETATM   20  C   UNL     1     -11.995  12.779  69.498  1.00  0.00    -0.338 C  
BRANCH  20  21
HETATM   21  C   UNL     1     -11.282  11.431  69.474  1.00  0.00    -0.322 C  
BRANCH  21  22
HETATM   22  C   UNL     1     -11.676  10.577  70.675  1.00  0.00    -0.453 C  
BRANCH  22  23
HETATM   23  C   UNL     1     -10.988   9.215  70.621  1.00  0.00    -0.319 C  
BRANCH  23  24
HETATM   24  C   UNL     1     -10.936   8.554  71.995  1.00  0.00    -0.410 C  
HETATM   25  C   UNL     1      -9.520   8.459  72.514  1.00  0.00    -0.289 C  
HETATM   26  O   UNL     1      -9.466   7.890  73.741  1.00  0.00    -0.268 OA 
HETATM   27  O   UNL     1      -8.524   8.842  71.929  1.00  0.00    -0.348 OA 
ENDBRANCH  23  24
ENDBRANCH  22  23
ENDBRANCH  21  22
ENDBRANCH  20  21
ENDBRANCH  19  20
ENDBRANCH  18  19
ENDBRANCH  17  18
ENDBRANCH  15  16
ENDBRANCH  14  15
ENDBRANCH  13  14
ENDBRANCH  12  13
ENDBRANCH  11  12
ENDBRANCH  10  11
ENDBRANCH   6  10
TORSDOF 15
ENDMDL
MODEL      242
REMARK 921   NORMALIZED FREE ENERGY PREDICTED BY IDOCK:   -3.86 KCAL/MOL
REMARK 922        TOTAL FREE ENERGY PREDICTED BY IDOCK:   -9.19 KCAL/MOL
REMARK 923 INTER-LIGAND FREE ENERGY PREDICTED BY IDOCK:   -6.96 KCAL/MOL
REMARK 924 INTRA-LIGAND FREE ENERGY PREDICTED BY IDOCK:   -2.23 KCAL/MOL
REMARK 927      BINDING AFFINITY PREDICTED BY RF-SCORE:    0.00 PKD
ROOT
ATOM      1  N   GLY A   1      -6.335  14.780  68.847  1.00  0.00    -0.085 NA 
HETATM    2  C   UNL     1      -9.399   8.748  70.472  1.00  0.00    -0.219 C  
ATOM      3  H2  GLY A   1      -5.811  14.302  68.115  1.00  0.00     0.000 HD 
ATOM      4  H1  GLY A   1      -7.119  15.312  68.469  1.00  0.00     0.000 HD 
ATOM      5  CA  GLY A   1      -6.805  13.851  69.883  1.00  0.00     0.116 C  
HETATM    6  C   UNL     1     -10.730   9.278  69.961  1.00  0.00    -0.259 C  
ENDROOT
BRANCH   5   7
ATOM      7  C   GLY A   1      -5.628  13.053  70.452  1.00  0.00    -0.159 C  
ATOM      8  H   GLY A   1      -5.333  11.244  71.146  1.00  0.00     0.000 HD 
ATOM      9  O   GLY A   1      -6.063  11.739  70.793  1.00  0.00    -0.337 OA 
ENDBRANCH   5   7
BRANCH   6  10
HETATM   10  C   UNL     1     -11.449  10.191  70.952  1.00  0.00    -0.444 C  
BRANCH  10  11
HETATM   11  C   UNL     1     -12.223  11.343  70.307  1.00  0.00    -0.433 C  
BRANCH  11  12
HETATM   12  C   UNL     1     -11.789  11.505  68.847  1.00  0.00    -0.406 C  
BRANCH  12  13
HETATM   13  C   UNL     1     -10.843  12.688  68.651  1.00  0.00    -0.281 C  
BRANCH  13  14
HETATM   14  C   UNL     1     -11.460  14.025  69.083  1.00  0.00    -0.340 C  
BRANCH  14  15
HETATM   15  C   UNL     1     -10.458  15.106  69.507  1.00  0.00    -0.268 C  
BRANCH  15  16
HETATM   16  C   UNL     1     -10.976  16.513  69.378  1.00  0.00    -0.288 C  
HETATM   17  C   UNL     1     -10.570  17.390  68.447  1.00  0.00    -0.355 C  
BRANCH  17  18
HETATM   18  C   UNL     1      -9.512  17.137  67.413  1.00  0.00    -0.247 C  
BRANCH  18  19
HETATM   19  C   UNL     1     -10.117  16.745  66.067  1.00  0.00    -0.350 C  
BRANCH  19  20
HETATM   20  C   UNL     1      -9.971  15.241  65.842  1.00  0.00    -0.368 C  
BRANCH  20  21
HETATM   21  C   UNL     1     -11.296  14.611  65.422  1.00  0.00    -0.344 C  
BRANCH  21  22
HETATM   22  C   UNL     1     -11.089  13.571  64.325  1.00  0.00    -0.371 C  
BRANCH  22  23
HETATM   23  C   UNL     1     -11.637  12.212  64.757  1.00  0.00    -0.380 C  
BRANCH  23  24
HETATM   24  C   UNL     1     -10.536  11.306  65.298  1.00  0.00    -0.341 C  
HETATM   25  C   UNL     1      -9.813  10.583  64.184  1.00  0.00    -0.337 C  
HETATM   26  O   UNL     1      -8.821   9.790  64.653  1.00  0.00    -0.181 OA 
HETATM   27  O   UNL     1     -10.061  10.682  62.997  1.00  0.00    -0.280 OA 
ENDBRANCH  23  24
ENDBRANCH  22  23
ENDBRANCH  21  22
ENDBRANCH  20  21
ENDBRANCH  19  20
ENDBRANCH  18  19
ENDBRANCH  17  18
ENDBRANCH  15  16
ENDBRANCH  14  15
ENDBRANCH  13  14
ENDBRANCH  12  13
ENDBRANCH  11  12
ENDBRANCH  10  11
ENDBRANCH   6  10
TORSDOF 15
ENDMDL
MODEL      243
REMARK 921   NORMALIZED FREE ENERGY PREDICTED BY IDOCK:   -3.86 KCAL/MOL
REMARK 922        TOTAL FREE ENERGY PREDICTED BY IDOCK:   -9.18 KCAL/MOL
REMARK 923 INTER-LIGAND FREE ENERGY PREDICTED BY IDOCK:   -7.16 KCAL/MOL
REMARK 924 INTRA-LIGAND FREE ENERGY PREDICTED BY IDOCK:   -2.02 KCAL/MOL
REMARK 927      BINDING AFFINITY PREDICTED BY RF-SCORE:    0.00 PKD
ROOT
ATOM      1  N   GLY A   1     -13.483  10.927  72.175  1.00  0.00    -0.527 NA 
HETATM    2  C   UNL     1      -8.595   6.978  69.188  1.00  0.00    -0.133 C  
ATOM      3  H2  GLY A   1     -13.003  10.823  73.068  1.00  0.00     0.000 HD 
ATOM      4  H1  GLY A   1     -13.301  11.835  71.748  1.00  0.00     0.000 HD 
ATOM      5  CA  GLY A   1     -13.141   9.848  71.239  1.00  0.00    -0.400 C  
HETATM    6  C   UNL     1      -8.088   8.182  68.409  1.00  0.00    -0.128 C  
ENDROOT
BRANCH   5   7
ATOM      7  C   GLY A   1     -13.414   8.484  71.880  1.00  0.00    -0.383 C  
ATOM      8  H   GLY A   1     -12.775   6.646  71.652  1.00  0.00     0.000 HD 
ATOM      9  O   GLY A   1     -12.606   7.492  71.254  1.00  0.00    -0.333 OA 
ENDBRANCH   5   7
BRANCH   6  10
HETATM   10  C   UNL     1      -8.924   8.510  67.173  1.00  0.00    -0.145 C  
BRANCH  10  11
HETATM   11  C   UNL     1      -9.530   9.916  67.173  1.00  0.00    -0.190 C  
BRANCH  11  12
HETATM   12  C   UNL     1      -9.173  10.634  68.477  1.00  0.00    -0.170 C  
BRANCH  12  13
HETATM   13  C   UNL     1     -10.403  11.207  69.179  1.00  0.00    -0.186 C  
BRANCH  13  14
HETATM   14  C   UNL     1     -11.594  11.403  68.232  1.00  0.00    -0.376 C  
BRANCH  14  15
HETATM   15  C   UNL     1     -11.993  12.861  67.968  1.00  0.00    -0.323 C  
BRANCH  15  16
HETATM   16  C   UNL     1     -11.776  13.782  69.138  1.00  0.00    -0.379 C  
HETATM   17  C   UNL     1     -11.429  15.074  69.034  1.00  0.00    -0.322 C  
BRANCH  17  18
HETATM   18  C   UNL     1     -11.160  15.804  67.751  1.00  0.00    -0.313 C  
BRANCH  18  19
HETATM   19  C   UNL     1      -9.775  15.481  67.194  1.00  0.00    -0.226 C  
BRANCH  19  20
HETATM   20  C   UNL     1      -9.709  15.834  65.708  1.00  0.00    -0.372 C  
BRANCH  20  21
HETATM   21  C   UNL     1     -11.026  16.430  65.220  1.00  0.00    -0.203 C  
BRANCH  21  22
HETATM   22  C   UNL     1     -11.627  15.594  64.094  1.00  0.00    -0.082 C  
BRANCH  22  23
HETATM   23  C   UNL     1     -12.106  14.242  64.619  1.00  0.00    -0.478 C  
BRANCH  23  24
HETATM   24  C   UNL     1     -11.830  13.121  63.623  1.00  0.00    -0.549 C  
HETATM   25  C   UNL     1     -10.604  12.324  64.007  1.00  0.00    -0.400 C  
HETATM   26  O   UNL     1     -10.362  11.314  63.138  1.00  0.00    -0.342 OA 
HETATM   27  O   UNL     1      -9.898  12.533  64.975  1.00  0.00    -0.204 OA 
ENDBRANCH  23  24
ENDBRANCH  22  23
ENDBRANCH  21  22
ENDBRANCH  20  21
ENDBRANCH  19  20
ENDBRANCH  18  19
ENDBRANCH  17  18
ENDBRANCH  15  16
ENDBRANCH  14  15
ENDBRANCH  13  14
ENDBRANCH  12  13
ENDBRANCH  11  12
ENDBRANCH  10  11
ENDBRANCH   6  10
TORSDOF 15
ENDMDL
MODEL      244
REMARK 921   NORMALIZED FREE ENERGY PREDICTED BY IDOCK:   -3.85 KCAL/MOL
REMARK 922        TOTAL FREE ENERGY PREDICTED BY IDOCK:   -9.18 KCAL/MOL
REMARK 923 INTER-LIGAND FREE ENERGY PREDICTED BY IDOCK:   -7.14 KCAL/MOL
REMARK 924 INTRA-LIGAND FREE ENERGY PREDICTED BY IDOCK:   -2.04 KCAL/MOL
REMARK 927      BINDING AFFINITY PREDICTED BY RF-SCORE:    0.00 PKD
ROOT
ATOM      1  N   GLY A   1      -7.179   9.601  67.651  1.00  0.00    -0.088 NA 
HETATM    2  C   UNL     1     -11.920  12.807  63.695  1.00  0.00    -0.616 C  
ATOM      3  H2  GLY A   1      -6.501   9.698  66.895  1.00  0.00     0.000 HD 
ATOM      4  H1  GLY A   1      -7.028  10.290  68.388  1.00  0.00     0.000 HD 
ATOM      5  CA  GLY A   1      -8.562   9.675  67.162  1.00  0.00    -0.132 C  
HETATM    6  C   UNL     1     -11.901  14.006  64.630  1.00  0.00    -0.433 C  
ENDROOT
BRANCH   5   7
ATOM      7  C   GLY A   1      -8.788   8.640  66.056  1.00  0.00    -0.178 C  
ATOM      8  H   GLY A   1      -9.560   8.623  64.255  1.00  0.00     0.000 HD 
ATOM      9  O   GLY A   1      -9.420   9.264  64.941  1.00  0.00    -0.178 OA 
ENDBRANCH   5   7
BRANCH   6  10
HETATM   10  C   UNL     1     -12.732  13.811  65.897  1.00  0.00    -0.452 C  
BRANCH  10  11
HETATM   11  C   UNL     1     -11.919  13.797  67.194  1.00  0.00    -0.442 C  
BRANCH  11  12
HETATM   12  C   UNL     1     -11.730  12.355  67.671  1.00  0.00    -0.412 C  
BRANCH  12  13
HETATM   13  C   UNL     1     -10.698  12.245  68.792  1.00  0.00    -0.247 C  
BRANCH  13  14
HETATM   14  C   UNL     1     -10.934  11.034  69.705  1.00  0.00    -0.286 C  
BRANCH  14  15
HETATM   15  C   UNL     1     -12.398  10.609  69.871  1.00  0.00    -0.304 C  
BRANCH  15  16
HETATM   16  C   UNL     1     -12.957  10.842  71.249  1.00  0.00    -0.502 C  
HETATM   17  C   UNL     1     -13.157   9.878  72.161  1.00  0.00    -0.497 C  
BRANCH  17  18
HETATM   18  C   UNL     1     -12.901   8.414  71.953  1.00  0.00    -0.384 C  
BRANCH  18  19
HETATM   19  C   UNL     1     -11.560   7.983  72.542  1.00  0.00    -0.464 C  
BRANCH  19  20
HETATM   20  C   UNL     1     -10.997   6.797  71.759  1.00  0.00    -0.266 C  
BRANCH  20  21
HETATM   21  C   UNL     1     -11.817   6.523  70.501  1.00  0.00    -0.393 C  
BRANCH  21  22
HETATM   22  C   UNL     1     -10.942   6.570  69.252  1.00  0.00    -0.389 C  
BRANCH  22  23
HETATM   23  C   UNL     1      -9.533   7.047  69.595  1.00  0.00    -0.147 C  
BRANCH  23  24
HETATM   24  C   UNL     1      -8.467   6.143  68.983  1.00  0.00    -0.118 C  
HETATM   25  C   UNL     1      -7.555   5.564  70.040  1.00  0.00    -0.077 C  
HETATM   26  O   UNL     1      -6.617   4.745  69.509  1.00  0.00    -0.034 OA 
HETATM   27  O   UNL     1      -7.629   5.780  71.235  1.00  0.00    -0.098 OA 
ENDBRANCH  23  24
ENDBRANCH  22  23
ENDBRANCH  21  22
ENDBRANCH  20  21
ENDBRANCH  19  20
ENDBRANCH  18  19
ENDBRANCH  17  18
ENDBRANCH  15  16
ENDBRANCH  14  15
ENDBRANCH  13  14
ENDBRANCH  12  13
ENDBRANCH  11  12
ENDBRANCH  10  11
ENDBRANCH   6  10
TORSDOF 15
ENDMDL
MODEL      245
REMARK 921   NORMALIZED FREE ENERGY PREDICTED BY IDOCK:   -3.84 KCAL/MOL
REMARK 922        TOTAL FREE ENERGY PREDICTED BY IDOCK:   -9.16 KCAL/MOL
REMARK 923 INTER-LIGAND FREE ENERGY PREDICTED BY IDOCK:   -6.66 KCAL/MOL
REMARK 924 INTRA-LIGAND FREE ENERGY PREDICTED BY IDOCK:   -2.50 KCAL/MOL
REMARK 927      BINDING AFFINITY PREDICTED BY RF-SCORE:    0.00 PKD
ROOT
ATOM      1  N   GLY A   1      -7.212   9.293  64.883  1.00  0.00    -0.100 NA 
HETATM    2  C   UNL     1     -12.053  13.162  68.047  1.00  0.00    -0.240 C  
ATOM      3  H2  GLY A   1      -6.713  10.146  64.632  1.00  0.00     0.000 HD 
ATOM      4  H1  GLY A   1      -6.779   8.819  65.676  1.00  0.00     0.000 HD 
ATOM      5  CA  GLY A   1      -8.632   9.549  65.157  1.00  0.00    -0.162 C  
HETATM    6  C   UNL     1     -11.610  12.624  69.398  1.00  0.00    -0.369 C  
ENDROOT
BRANCH   5   7
ATOM      7  C   GLY A   1      -9.281  10.260  63.967  1.00  0.00    -0.271 C  
ATOM      8  H   GLY A   1     -10.311  11.902  63.674  1.00  0.00     0.000 HD 
ATOM      9  O   GLY A   1      -9.908  11.460  64.412  1.00  0.00    -0.242 OA 
ENDBRANCH   5   7
BRANCH   6  10
HETATM   10  C   UNL     1     -12.161  11.235  69.718  1.00  0.00    -0.394 C  
BRANCH  10  11
HETATM   11  C   UNL     1     -12.505  11.013  71.193  1.00  0.00    -0.502 C  
BRANCH  11  12
HETATM   12  C   UNL     1     -11.923   9.678  71.664  1.00  0.00    -0.470 C  
BRANCH  12  13
HETATM   13  C   UNL     1     -12.977   8.784  72.317  1.00  0.00    -0.462 C  
BRANCH  13  14
HETATM   14  C   UNL     1     -13.309   7.542  71.480  1.00  0.00    -0.409 C  
BRANCH  14  15
HETATM   15  C   UNL     1     -12.100   6.739  70.983  1.00  0.00    -0.426 C  
BRANCH  15  16
HETATM   16  C   UNL     1     -11.454   5.880  72.036  1.00  0.00    -0.311 C  
HETATM   17  C   UNL     1     -10.246   5.308  71.915  1.00  0.00    -0.264 C  
BRANCH  17  18
HETATM   18  C   UNL     1      -9.360   5.390  70.707  1.00  0.00    -0.200 C  
BRANCH  18  19
HETATM   19  C   UNL     1      -9.583   4.214  69.759  1.00  0.00    -0.281 C  
BRANCH  19  20
HETATM   20  C   UNL     1      -9.996   4.722  68.378  1.00  0.00    -0.156 C  
BRANCH  20  21
HETATM   21  C   UNL     1      -9.417   6.105  68.098  1.00  0.00    -0.113 C  
BRANCH  21  22
HETATM   22  C   UNL     1     -10.478   7.043  67.530  1.00  0.00    -0.320 C  
BRANCH  22  23
HETATM   23  C   UNL     1     -10.271   8.467  68.041  1.00  0.00    -0.263 C  
BRANCH  23  24
HETATM   24  C   UNL     1      -9.379   8.498  69.278  1.00  0.00    -0.154 C  
HETATM   25  C   UNL     1      -8.640   9.811  69.398  1.00  0.00    -0.165 C  
HETATM   26  O   UNL     1      -7.860   9.855  70.503  1.00  0.00    -0.246 OA 
HETATM   27  O   UNL     1      -8.716  10.741  68.617  1.00  0.00    -0.138 OA 
ENDBRANCH  23  24
ENDBRANCH  22  23
ENDBRANCH  21  22
ENDBRANCH  20  21
ENDBRANCH  19  20
ENDBRANCH  18  19
ENDBRANCH  17  18
ENDBRANCH  15  16
ENDBRANCH  14  15
ENDBRANCH  13  14
ENDBRANCH  12  13
ENDBRANCH  11  12
ENDBRANCH  10  11
ENDBRANCH   6  10
TORSDOF 15
ENDMDL
MODEL      246
REMARK 921   NORMALIZED FREE ENERGY PREDICTED BY IDOCK:   -3.83 KCAL/MOL
REMARK 922        TOTAL FREE ENERGY PREDICTED BY IDOCK:   -9.14 KCAL/MOL
REMARK 923 INTER-LIGAND FREE ENERGY PREDICTED BY IDOCK:   -6.83 KCAL/MOL
REMARK 924 INTRA-LIGAND FREE ENERGY PREDICTED BY IDOCK:   -2.32 KCAL/MOL
REMARK 927      BINDING AFFINITY PREDICTED BY RF-SCORE:    0.00 PKD
ROOT
ATOM      1  N   GLY A   1     -10.989   8.151  69.355  1.00  0.00    -0.431 NA 
HETATM    2  C   UNL     1     -12.901  13.110  64.865  1.00  0.00    -0.349 C  
ATOM      3  H2  GLY A   1     -11.963   8.053  69.642  1.00  0.00     0.000 HD 
ATOM      4  H1  GLY A   1     -10.702   7.404  68.723  1.00  0.00     0.000 HD 
ATOM      5  CA  GLY A   1     -10.725   9.461  68.746  1.00  0.00    -0.171 C  
HETATM    6  C   UNL     1     -12.559  12.196  63.699  1.00  0.00    -0.616 C  
ENDROOT
BRANCH   5   7
ATOM      7  C   GLY A   1     -11.157  10.583  69.694  1.00  0.00    -0.283 C  
ATOM      8  H   GLY A   1     -11.778  10.724  71.548  1.00  0.00     0.000 HD 
ATOM      9  O   GLY A   1     -11.510  10.028  70.959  1.00  0.00    -0.348 OA 
ENDBRANCH   5   7
BRANCH   6  10
HETATM   10  C   UNL     1     -11.066  12.140  63.378  1.00  0.00    -0.495 C  
BRANCH  10  11
HETATM   11  C   UNL     1     -10.156  12.632  64.507  1.00  0.00    -0.271 C  
BRANCH  11  12
HETATM   12  C   UNL     1      -9.841  11.475  65.459  1.00  0.00    -0.269 C  
BRANCH  12  13
HETATM   13  C   UNL     1      -9.225  11.955  66.771  1.00  0.00    -0.194 C  
BRANCH  13  14
HETATM   14  C   UNL     1      -7.752  11.551  66.924  1.00  0.00    -0.157 C  
BRANCH  14  15
HETATM   15  C   UNL     1      -6.968  12.310  68.002  1.00  0.00    -0.093 C  
BRANCH  15  16
HETATM   16  C   UNL     1      -6.386  13.617  67.537  1.00  0.00    -0.076 C  
HETATM   17  C   UNL     1      -6.556  14.791  68.166  1.00  0.00    -0.138 C  
BRANCH  17  18
HETATM   18  C   UNL     1      -7.379  15.007  69.402  1.00  0.00    -0.194 C  
BRANCH  18  19
HETATM   19  C   UNL     1      -8.468  16.054  69.182  1.00  0.00    -0.247 C  
BRANCH  19  20
HETATM   20  C   UNL     1      -9.821  15.509  69.639  1.00  0.00    -0.281 C  
BRANCH  20  21
HETATM   21  C   UNL     1     -10.931  15.888  68.663  1.00  0.00    -0.320 C  
BRANCH  21  22
HETATM   22  C   UNL     1     -10.926  14.974  67.441  1.00  0.00    -0.315 C  
BRANCH  22  23
HETATM   23  C   UNL     1     -10.836  15.792  66.154  1.00  0.00    -0.240 C  
BRANCH  23  24
HETATM   24  C   UNL     1      -9.430  16.340  65.931  1.00  0.00    -0.318 C  
HETATM   25  C   UNL     1      -9.384  17.841  66.104  1.00  0.00    -0.132 C  
HETATM   26  O   UNL     1      -8.136  18.334  65.927  1.00  0.00    -0.504 OA 
HETATM   27  O   UNL     1     -10.333  18.552  66.376  1.00  0.00    -0.386 OA 
ENDBRANCH  23  24
ENDBRANCH  22  23
ENDBRANCH  21  22
ENDBRANCH  20  21
ENDBRANCH  19  20
ENDBRANCH  18  19
ENDBRANCH  17  18
ENDBRANCH  15  16
ENDBRANCH  14  15
ENDBRANCH  13  14
ENDBRANCH  12  13
ENDBRANCH  11  12
ENDBRANCH  10  11
ENDBRANCH   6  10
TORSDOF 15
ENDMDL
MODEL      247
REMARK 921   NORMALIZED FREE ENERGY PREDICTED BY IDOCK:   -3.83 KCAL/MOL
REMARK 922        TOTAL FREE ENERGY PREDICTED BY IDOCK:   -9.13 KCAL/MOL
REMARK 923 INTER-LIGAND FREE ENERGY PREDICTED BY IDOCK:   -7.08 KCAL/MOL
REMARK 924 INTRA-LIGAND FREE ENERGY PREDICTED BY IDOCK:   -2.05 KCAL/MOL
REMARK 927      BINDING AFFINITY PREDICTED BY RF-SCORE:    0.00 PKD
ROOT
ATOM      1  N   GLY A   1      -9.917   4.926  68.379  1.00  0.00    -0.142 NA 
HETATM    2  C   UNL     1      -9.550  10.097  63.738  1.00  0.00    -0.285 C  
ATOM      3  H2  GLY A   1      -8.966   4.652  68.130  1.00  0.00     0.000 HD 
ATOM      4  H1  GLY A   1      -9.947   5.442  69.257  1.00  0.00     0.000 HD 
ATOM      5  CA  GLY A   1     -10.562   5.702  67.311  1.00  0.00    -0.254 C  
HETATM    6  C   UNL     1      -9.569  11.119  64.864  1.00  0.00    -0.279 C  
ENDROOT
BRANCH   5   7
ATOM      7  C   GLY A   1     -10.517   4.926  65.992  1.00  0.00    -0.283 C  
ATOM      8  H   GLY A   1      -9.642   3.308  65.317  1.00  0.00     0.000 HD 
ATOM      9  O   GLY A   1      -9.670   3.789  66.135  1.00  0.00    -0.186 OA 
ENDBRANCH   5   7
BRANCH   6  10
HETATM   10  C   UNL     1     -10.964  11.392  65.423  1.00  0.00    -0.249 C  
BRANCH  10  11
HETATM   11  C   UNL     1     -11.049  11.382  66.952  1.00  0.00    -0.356 C  
BRANCH  11  12
HETATM   12  C   UNL     1     -10.643  10.005  67.483  1.00  0.00    -0.336 C  
BRANCH  12  13
HETATM   13  C   UNL     1      -9.453  10.079  68.439  1.00  0.00    -0.146 C  
BRANCH  13  14
HETATM   14  C   UNL     1      -9.209   8.765  69.193  1.00  0.00    -0.149 C  
BRANCH  14  15
HETATM   15  C   UNL     1      -9.243   8.867  70.723  1.00  0.00    -0.272 C  
BRANCH  15  16
HETATM   16  C   UNL     1      -9.723   7.620  71.415  1.00  0.00    -0.183 C  
HETATM   17  C   UNL     1     -11.011   7.267  71.540  1.00  0.00    -0.259 C  
BRANCH  17  18
HETATM   18  C   UNL     1     -12.185   8.066  71.054  1.00  0.00    -0.199 C  
BRANCH  18  19
HETATM   19  C   UNL     1     -12.934   8.733  72.206  1.00  0.00    -0.462 C  
BRANCH  19  20
HETATM   20  C   UNL     1     -13.219  10.197  71.871  1.00  0.00    -0.557 C  
BRANCH  20  21
HETATM   21  C   UNL     1     -12.113  10.794  71.006  1.00  0.00    -0.452 C  
BRANCH  21  22
HETATM   22  C   UNL     1     -12.651  11.913  70.118  1.00  0.00    -0.035 C  
BRANCH  22  23
HETATM   23  C   UNL     1     -12.133  13.271  70.585  1.00  0.00    -0.361 C  
BRANCH  23  24
HETATM   24  C   UNL     1     -13.195  14.045  71.359  1.00  0.00    -0.404 C  
HETATM   25  C   UNL     1     -12.641  15.328  71.935  1.00  0.00    -0.353 C  
HETATM   26  O   UNL     1     -13.581  16.031  72.608  1.00  0.00    -0.474 OA 
HETATM   27  O   UNL     1     -11.493  15.717  71.823  1.00  0.00    -0.398 OA 
ENDBRANCH  23  24
ENDBRANCH  22  23
ENDBRANCH  21  22
ENDBRANCH  20  21
ENDBRANCH  19  20
ENDBRANCH  18  19
ENDBRANCH  17  18
ENDBRANCH  15  16
ENDBRANCH  14  15
ENDBRANCH  13  14
ENDBRANCH  12  13
ENDBRANCH  11  12
ENDBRANCH  10  11
ENDBRANCH   6  10
TORSDOF 15
ENDMDL
MODEL      248
REMARK 921   NORMALIZED FREE ENERGY PREDICTED BY IDOCK:   -3.82 KCAL/MOL
REMARK 922        TOTAL FREE ENERGY PREDICTED BY IDOCK:   -9.12 KCAL/MOL
REMARK 923 INTER-LIGAND FREE ENERGY PREDICTED BY IDOCK:   -6.76 KCAL/MOL
REMARK 924 INTRA-LIGAND FREE ENERGY PREDICTED BY IDOCK:   -2.36 KCAL/MOL
REMARK 927      BINDING AFFINITY PREDICTED BY RF-SCORE:    0.00 PKD
ROOT
ATOM      1  N   GLY A   1      -8.803  20.261  66.113  1.00  0.00    -0.584 NA 
HETATM    2  C   UNL     1      -6.558  14.974  70.039  1.00  0.00    -0.158 C  
ATOM      3  H2  GLY A   1      -8.207  20.893  66.647  1.00  0.00     0.000 HD 
ATOM      4  H1  GLY A   1      -8.396  20.029  65.207  1.00  0.00     0.000 HD 
ATOM      5  CA  GLY A   1      -9.110  19.034  66.860  1.00  0.00    -0.303 C  
HETATM    6  C   UNL     1      -5.828  14.385  68.842  1.00  0.00    -0.086 C  
ENDROOT
BRANCH   5   7
ATOM      7  C   GLY A   1      -9.721  19.382  68.220  1.00  0.00    -0.397 C  
ATOM      8  H   GLY A   1     -10.742  18.447  69.607  1.00  0.00     0.000 HD 
ATOM      9  O   GLY A   1     -10.363  18.231  68.763  1.00  0.00    -0.354 OA 
ENDBRANCH   5   7
BRANCH   6  10
HETATM   10  C   UNL     1      -6.737  13.611  67.888  1.00  0.00    -0.156 C  
BRANCH  10  11
HETATM   11  C   UNL     1      -6.309  12.163  67.638  1.00  0.00    -0.109 C  
BRANCH  11  12
HETATM   12  C   UNL     1      -7.490  11.223  67.895  1.00  0.00    -0.094 C  
BRANCH  12  13
HETATM   13  C   UNL     1      -7.451  10.611  69.294  1.00  0.00    -0.130 C  
BRANCH  13  14
HETATM   14  C   UNL     1      -7.977   9.170  69.332  1.00  0.00    -0.097 C  
BRANCH  14  15
HETATM   15  C   UNL     1      -8.400   8.587  67.977  1.00  0.00    -0.127 C  
BRANCH  15  16
HETATM   16  C   UNL     1      -9.816   8.079  67.939  1.00  0.00    -0.204 C  
HETATM   17  C   UNL     1     -10.887   8.833  67.646  1.00  0.00    -0.092 C  
BRANCH  17  18
HETATM   18  C   UNL     1     -10.863  10.304  67.352  1.00  0.00    -0.336 C  
BRANCH  18  19
HETATM   19  C   UNL     1     -11.772  11.086  68.298  1.00  0.00    -0.301 C  
BRANCH  19  20
HETATM   20  C   UNL     1     -10.965  12.148  69.044  1.00  0.00    -0.255 C  
BRANCH  20  21
HETATM   21  C   UNL     1     -10.530  13.274  68.111  1.00  0.00    -0.251 C  
BRANCH  21  22
HETATM   22  C   UNL     1     -11.737  14.008  67.532  1.00  0.00    -0.421 C  
BRANCH  22  23
HETATM   23  C   UNL     1     -11.414  14.574  66.152  1.00  0.00    -0.357 C  
BRANCH  23  24
HETATM   24  C   UNL     1     -10.837  13.508  65.226  1.00  0.00    -0.316 C  
HETATM   25  C   UNL     1     -11.922  12.638  64.635  1.00  0.00    -0.402 C  
HETATM   26  O   UNL     1     -11.421  11.700  63.797  1.00  0.00    -0.403 OA 
HETATM   27  O   UNL     1     -13.114  12.741  64.858  1.00  0.00    -0.833 OA 
ENDBRANCH  23  24
ENDBRANCH  22  23
ENDBRANCH  21  22
ENDBRANCH  20  21
ENDBRANCH  19  20
ENDBRANCH  18  19
ENDBRANCH  17  18
ENDBRANCH  15  16
ENDBRANCH  14  15
ENDBRANCH  13  14
ENDBRANCH  12  13
ENDBRANCH  11  12
ENDBRANCH  10  11
ENDBRANCH   6  10
TORSDOF 15
ENDMDL
MODEL      249
REMARK 921   NORMALIZED FREE ENERGY PREDICTED BY IDOCK:   -3.82 KCAL/MOL
REMARK 922        TOTAL FREE ENERGY PREDICTED BY IDOCK:   -9.12 KCAL/MOL
REMARK 923 INTER-LIGAND FREE ENERGY PREDICTED BY IDOCK:   -5.98 KCAL/MOL
REMARK 924 INTRA-LIGAND FREE ENERGY PREDICTED BY IDOCK:   -3.14 KCAL/MOL
REMARK 927      BINDING AFFINITY PREDICTED BY RF-SCORE:    0.00 PKD
ROOT
ATOM      1  N   GLY A   1     -13.161  11.235  71.850  1.00  0.00    -0.461 NA 
HETATM    2  C   UNL     1     -10.217   5.511  69.208  1.00  0.00    -0.315 C  
ATOM      3  H2  GLY A   1     -12.786  10.989  72.766  1.00  0.00     0.000 HD 
ATOM      4  H1  GLY A   1     -12.617  11.970  71.400  1.00  0.00     0.000 HD 
ATOM      5  CA  GLY A   1     -13.262  10.065  70.967  1.00  0.00    -0.325 C  
HETATM    6  C   UNL     1      -9.247   6.369  68.411  1.00  0.00    -0.120 C  
ENDROOT
BRANCH   5   7
ATOM      7  C   GLY A   1     -14.080   8.961  71.642  1.00  0.00    -0.330 C  
ATOM      8  H   GLY A   1     -14.571   8.467  73.474  1.00  0.00     0.000 HD 
ATOM      9  O   GLY A   1     -14.064   9.152  73.055  1.00  0.00    -0.406 OA 
ENDBRANCH   5   7
BRANCH   6  10
HETATM   10  C   UNL     1      -9.848   6.947  67.130  1.00  0.00    -0.214 C  
BRANCH  10  11
HETATM   11  C   UNL     1      -8.824   7.549  66.164  1.00  0.00    -0.185 C  
BRANCH  11  12
HETATM   12  C   UNL     1      -7.606   8.048  66.946  1.00  0.00    -0.095 C  
BRANCH  12  13
HETATM   13  C   UNL     1      -7.331   9.531  66.707  1.00  0.00    -0.090 C  
BRANCH  13  14
HETATM   14  C   UNL     1      -8.093  10.094  65.499  1.00  0.00    -0.147 C  
BRANCH  14  15
HETATM   15  C   UNL     1      -9.052  11.251  65.806  1.00  0.00    -0.216 C  
BRANCH  15  16
HETATM   16  C   UNL     1     -10.432  10.817  66.219  1.00  0.00    -0.287 C  
HETATM   17  C   UNL     1     -10.859  10.750  67.490  1.00  0.00    -0.342 C  
BRANCH  17  18
HETATM   18  C   UNL     1     -10.032  11.053  68.705  1.00  0.00    -0.215 C  
BRANCH  18  19
HETATM   19  C   UNL     1     -10.083   9.917  69.724  1.00  0.00    -0.274 C  
BRANCH  19  20
HETATM   20  C   UNL     1      -8.676   9.598  70.228  1.00  0.00    -0.248 C  
BRANCH  20  21
HETATM   21  C   UNL     1      -8.718   8.753  71.497  1.00  0.00    -0.274 C  
BRANCH  21  22
HETATM   22  C   UNL     1     -10.148   8.340  71.837  1.00  0.00    -0.314 C  
BRANCH  22  23
HETATM   23  C   UNL     1     -10.184   7.533  73.133  1.00  0.00    -0.382 C  
BRANCH  23  24
HETATM   24  C   UNL     1     -10.911   6.204  72.950  1.00  0.00    -0.290 C  
HETATM   25  C   UNL     1      -9.947   5.040  72.941  1.00  0.00    -0.160 C  
HETATM   26  O   UNL     1     -10.584   3.854  72.797  1.00  0.00    -0.171 OA 
HETATM   27  O   UNL     1      -8.738   5.120  73.052  1.00  0.00    -0.114 OA 
ENDBRANCH  23  24
ENDBRANCH  22  23
ENDBRANCH  21  22
ENDBRANCH  20  21
ENDBRANCH  19  20
ENDBRANCH  18  19
ENDBRANCH  17  18
ENDBRANCH  15  16
ENDBRANCH  14  15
ENDBRANCH  13  14
ENDBRANCH  12  13
ENDBRANCH  11  12
ENDBRANCH  10  11
ENDBRANCH   6  10
TORSDOF 15
ENDMDL
MODEL      250
REMARK 921   NORMALIZED FREE ENERGY PREDICTED BY IDOCK:   -3.82 KCAL/MOL
REMARK 922        TOTAL FREE ENERGY PREDICTED BY IDOCK:   -9.11 KCAL/MOL
REMARK 923 INTER-LIGAND FREE ENERGY PREDICTED BY IDOCK:   -7.35 KCAL/MOL
REMARK 924 INTRA-LIGAND FREE ENERGY PREDICTED BY IDOCK:   -1.77 KCAL/MOL
REMARK 927      BINDING AFFINITY PREDICTED BY RF-SCORE:    0.00 PKD
ROOT
ATOM      1  N   GLY A   1      -6.000  10.632  64.734  1.00  0.00    -0.340 NA 
HETATM    2  C   UNL     1     -12.716  12.322  64.066  1.00  0.00    -0.457 C  
ATOM      3  H2  GLY A   1      -5.909  10.646  63.718  1.00  0.00     0.000 HD 
ATOM      4  H1  GLY A   1      -5.619  11.475  65.162  1.00  0.00     0.000 HD 
ATOM      5  CA  GLY A   1      -7.392  10.432  65.157  1.00  0.00    -0.088 C  
HETATM    6  C   UNL     1     -12.441  13.687  64.678  1.00  0.00    -0.359 C  
ENDROOT
BRANCH   5   7
ATOM      7  C   GLY A   1      -7.964   9.165  64.514  1.00  0.00    -0.127 C  
ATOM      8  H   GLY A   1      -7.286   7.694  63.411  1.00  0.00     0.000 HD 
ATOM      9  O   GLY A   1      -6.931   8.479  63.810  1.00  0.00    -0.085 OA 
ENDBRANCH   5   7
BRANCH   6  10
HETATM   10  C   UNL     1     -12.345  13.668  66.203  1.00  0.00    -0.476 C  
BRANCH  10  11
HETATM   11  C   UNL     1     -11.035  13.096  66.749  1.00  0.00    -0.298 C  
BRANCH  11  12
HETATM   12  C   UNL     1      -9.904  14.109  66.548  1.00  0.00    -0.298 C  
BRANCH  12  13
HETATM   13  C   UNL     1     -10.241  15.478  67.136  1.00  0.00    -0.260 C  
BRANCH  13  14
HETATM   14  C   UNL     1     -10.223  15.490  68.671  1.00  0.00    -0.216 C  
BRANCH  14  15
HETATM   15  C   UNL     1     -11.566  15.799  69.343  1.00  0.00    -0.371 C  
BRANCH  15  16
HETATM   16  C   UNL     1     -11.539  15.716  70.845  1.00  0.00    -0.424 C  
HETATM   17  C   UNL     1     -11.967  14.662  71.557  1.00  0.00    -0.400 C  
BRANCH  17  18
HETATM   18  C   UNL     1     -12.578  13.415  70.986  1.00  0.00    -0.425 C  
BRANCH  18  19
HETATM   19  C   UNL     1     -13.300  12.597  72.054  1.00  0.00    -0.555 C  
BRANCH  19  20
HETATM   20  C   UNL     1     -13.059  11.105  71.826  1.00  0.00    -0.536 C  
BRANCH  20  21
HETATM   21  C   UNL     1     -12.517  10.837  70.426  1.00  0.00    -0.430 C  
BRANCH  21  22
HETATM   22  C   UNL     1     -11.305   9.910  70.471  1.00  0.00    -0.399 C  
BRANCH  22  23
HETATM   23  C   UNL     1     -10.650   9.808  69.096  1.00  0.00    -0.237 C  
BRANCH  23  24
HETATM   24  C   UNL     1      -9.420  10.704  68.989  1.00  0.00    -0.202 C  
HETATM   25  C   UNL     1      -8.175  10.001  69.481  1.00  0.00    -0.167 C  
HETATM   26  O   UNL     1      -7.075  10.782  69.373  1.00  0.00    -0.096 OA 
HETATM   27  O   UNL     1      -8.129   8.869  69.923  1.00  0.00    -0.099 OA 
ENDBRANCH  23  24
ENDBRANCH  22  23
ENDBRANCH  21  22
ENDBRANCH  20  21
ENDBRANCH  19  20
ENDBRANCH  18  19
ENDBRANCH  17  18
ENDBRANCH  15  16
ENDBRANCH  14  15
ENDBRANCH  13  14
ENDBRANCH  12  13
ENDBRANCH  11  12
ENDBRANCH  10  11
ENDBRANCH   6  10
TORSDOF 15
ENDMDL
MODEL      251
REMARK 921   NORMALIZED FREE ENERGY PREDICTED BY IDOCK:   -3.81 KCAL/MOL
REMARK 922        TOTAL FREE ENERGY PREDICTED BY IDOCK:   -9.10 KCAL/MOL
REMARK 923 INTER-LIGAND FREE ENERGY PREDICTED BY IDOCK:   -8.01 KCAL/MOL
REMARK 924 INTRA-LIGAND FREE ENERGY PREDICTED BY IDOCK:   -1.09 KCAL/MOL
REMARK 927      BINDING AFFINITY PREDICTED BY RF-SCORE:    0.00 PKD
ROOT
ATOM      1  N   GLY A   1     -10.122  10.444  65.021  1.00  0.00    -0.323 NA 
HETATM    2  C   UNL     1     -12.263   8.941  71.469  1.00  0.00    -0.388 C  
ATOM      3  H2  GLY A   1     -10.557   9.584  64.690  1.00  0.00     0.000 HD 
ATOM      4  H1  GLY A   1     -10.687  11.265  64.805  1.00  0.00     0.000 HD 
ATOM      5  CA  GLY A   1      -9.831  10.393  66.460  1.00  0.00    -0.206 C  
HETATM    6  C   UNL     1     -13.228  10.116  71.430  1.00  0.00    -0.474 C  
ENDROOT
BRANCH   5   7
ATOM      7  C   GLY A   1      -8.982   9.161  66.785  1.00  0.00    -0.128 C  
ATOM      8  H   GLY A   1      -8.456   7.509  65.871  1.00  0.00     0.000 HD 
ATOM      9  O   GLY A   1      -8.983   8.274  65.670  1.00  0.00    -0.171 OA 
ENDBRANCH   5   7
BRANCH   6  10
HETATM   10  C   UNL     1     -12.565  11.466  71.702  1.00  0.00    -0.338 C  
BRANCH  10  11
HETATM   11  C   UNL     1     -12.271  12.292  70.448  1.00  0.00    -0.371 C  
BRANCH  11  12
HETATM   12  C   UNL     1     -12.773  13.725  70.643  1.00  0.00    -0.330 C  
BRANCH  12  13
HETATM   13  C   UNL     1     -12.080  14.716  69.709  1.00  0.00    -0.371 C  
BRANCH  13  14
HETATM   14  C   UNL     1     -10.814  14.139  69.059  1.00  0.00    -0.273 C  
BRANCH  14  15
HETATM   15  C   UNL     1     -11.039  13.356  67.760  1.00  0.00    -0.292 C  
BRANCH  15  16
HETATM   16  C   UNL     1     -12.208  13.836  66.944  1.00  0.00    -0.408 C  
HETATM   17  C   UNL     1     -12.146  14.159  65.643  1.00  0.00    -0.425 C  
BRANCH  17  18
HETATM   18  C   UNL     1     -10.906  14.138  64.798  1.00  0.00    -0.426 C  
BRANCH  18  19
HETATM   19  C   UNL     1      -9.973  15.300  65.130  1.00  0.00    -0.260 C  
BRANCH  19  20
HETATM   20  C   UNL     1     -10.724  16.627  65.015  1.00  0.00    -0.171 C  
BRANCH  20  21
HETATM   21  C   UNL     1     -10.420  17.541  66.197  1.00  0.00    -0.288 C  
BRANCH  21  22
HETATM   22  C   UNL     1     -10.659  19.005  65.839  1.00  0.00    -0.466 C  
BRANCH  22  23
HETATM   23  C   UNL     1     -10.232  19.920  66.984  1.00  0.00    -0.588 C  
BRANCH  23  24
HETATM   24  C   UNL     1      -9.500  19.149  68.078  1.00  0.00    -0.390 C  
HETATM   25  C   UNL     1      -8.066  19.607  68.217  1.00  0.00    -0.321 C  
HETATM   26  O   UNL     1      -7.414  18.941  69.199  1.00  0.00    -0.297 OA 
HETATM   27  O   UNL     1      -7.530  20.470  67.548  1.00  0.00    -0.306 OA 
ENDBRANCH  23  24
ENDBRANCH  22  23
ENDBRANCH  21  22
ENDBRANCH  20  21
ENDBRANCH  19  20
ENDBRANCH  18  19
ENDBRANCH  17  18
ENDBRANCH  15  16
ENDBRANCH  14  15
ENDBRANCH  13  14
ENDBRANCH  12  13
ENDBRANCH  11  12
ENDBRANCH  10  11
ENDBRANCH   6  10
TORSDOF 15
ENDMDL
MODEL      252
REMARK 921   NORMALIZED FREE ENERGY PREDICTED BY IDOCK:   -3.81 KCAL/MOL
REMARK 922        TOTAL FREE ENERGY PREDICTED BY IDOCK:   -9.10 KCAL/MOL
REMARK 923 INTER-LIGAND FREE ENERGY PREDICTED BY IDOCK:   -7.22 KCAL/MOL
REMARK 924 INTRA-LIGAND FREE ENERGY PREDICTED BY IDOCK:   -1.87 KCAL/MOL
REMARK 927      BINDING AFFINITY PREDICTED BY RF-SCORE:    0.00 PKD
ROOT
ATOM      1  N   GLY A   1     -13.446  14.173  65.378  1.00  0.00    -0.541 NA 
HETATM    2  C   UNL     1      -9.441   8.543  66.202  1.00  0.00    -0.286 C  
ATOM      3  H2  GLY A   1     -13.886  13.726  64.574  1.00  0.00     0.000 HD 
ATOM      4  H1  GLY A   1     -14.035  14.127  66.209  1.00  0.00     0.000 HD 
ATOM      5  CA  GLY A   1     -12.121  13.606  65.663  1.00  0.00    -0.425 C  
HETATM    6  C   UNL     1     -10.162   8.211  67.500  1.00  0.00    -0.309 C  
ENDROOT
BRANCH   5   7
ATOM      7  C   GLY A   1     -11.236  13.675  64.415  1.00  0.00    -0.367 C  
ATOM      8  H   GLY A   1      -9.734  12.658  63.674  1.00  0.00     0.000 HD 
ATOM      9  O   GLY A   1     -10.283  12.616  64.448  1.00  0.00    -0.338 OA 
ENDBRANCH   5   7
BRANCH   6  10
HETATM   10  C   UNL     1      -9.680   9.030  68.697  1.00  0.00    -0.168 C  
BRANCH  10  11
HETATM   11  C   UNL     1      -9.823  10.545  68.528  1.00  0.00    -0.175 C  
BRANCH  11  12
HETATM   12  C   UNL     1      -8.456  11.215  68.692  1.00  0.00    -0.153 C  
BRANCH  12  13
HETATM   13  C   UNL     1      -7.790  11.512  67.350  1.00  0.00    -0.143 C  
BRANCH  13  14
HETATM   14  C   UNL     1      -7.232  12.939  67.262  1.00  0.00    -0.075 C  
BRANCH  14  15
HETATM   15  C   UNL     1      -8.149  14.040  67.809  1.00  0.00    -0.170 C  
BRANCH  15  16
HETATM   16  C   UNL     1      -8.599  15.038  66.777  1.00  0.00    -0.279 C  
HETATM   17  C   UNL     1      -7.933  16.160  66.463  1.00  0.00    -0.294 C  
BRANCH  17  18
HETATM   18  C   UNL     1      -6.660  16.628  67.107  1.00  0.00    -0.222 C  
BRANCH  18  19
HETATM   19  C   UNL     1      -6.637  18.144  67.283  1.00  0.00    -0.193 C  
BRANCH  19  20
HETATM   20  C   UNL     1      -6.638  18.832  65.918  1.00  0.00    -0.282 C  
BRANCH  20  21
HETATM   21  C   UNL     1      -7.662  19.962  65.865  1.00  0.00    -0.327 C  
BRANCH  21  22
HETATM   22  C   UNL     1      -8.061  20.411  67.268  1.00  0.00    -0.384 C  
BRANCH  22  23
HETATM   23  C   UNL     1      -9.580  20.419  67.423  1.00  0.00    -0.584 C  
BRANCH  23  24
HETATM   24  C   UNL     1     -10.075  19.198  68.190  1.00  0.00    -0.486 C  
HETATM   25  C   UNL     1     -10.660  18.157  67.262  1.00  0.00    -0.367 C  
HETATM   26  O   UNL     1     -11.085  17.061  67.932  1.00  0.00    -0.300 OA 
HETATM   27  O   UNL     1     -10.749  18.257  66.053  1.00  0.00    -0.355 OA 
ENDBRANCH  23  24
ENDBRANCH  22  23
ENDBRANCH  21  22
ENDBRANCH  20  21
ENDBRANCH  19  20
ENDBRANCH  18  19
ENDBRANCH  17  18
ENDBRANCH  15  16
ENDBRANCH  14  15
ENDBRANCH  13  14
ENDBRANCH  12  13
ENDBRANCH  11  12
ENDBRANCH  10  11
ENDBRANCH   6  10
TORSDOF 15
ENDMDL
MODEL      253
REMARK 921   NORMALIZED FREE ENERGY PREDICTED BY IDOCK:   -3.81 KCAL/MOL
REMARK 922        TOTAL FREE ENERGY PREDICTED BY IDOCK:   -9.09 KCAL/MOL
REMARK 923 INTER-LIGAND FREE ENERGY PREDICTED BY IDOCK:   -7.59 KCAL/MOL
REMARK 924 INTRA-LIGAND FREE ENERGY PREDICTED BY IDOCK:   -1.51 KCAL/MOL
REMARK 927      BINDING AFFINITY PREDICTED BY RF-SCORE:    0.00 PKD
ROOT
ATOM      1  N   GLY A   1      -7.231  18.334  65.779  1.00  0.00    -0.503 NA 
HETATM    2  C   UNL     1     -11.719  13.526  68.049  1.00  0.00    -0.394 C  
ATOM      3  H2  GLY A   1      -6.510  17.923  66.373  1.00  0.00     0.000 HD 
ATOM      4  H1  GLY A   1      -7.118  18.063  64.802  1.00  0.00     0.000 HD 
ATOM      5  CA  GLY A   1      -8.583  18.001  66.246  1.00  0.00    -0.176 C  
HETATM    6  C   UNL     1     -11.745  12.888  66.668  1.00  0.00    -0.452 C  
ENDROOT
BRANCH   5   7
ATOM      7  C   GLY A   1      -8.752  18.408  67.712  1.00  0.00    -0.267 C  
ATOM      8  H   GLY A   1      -9.349  19.996  68.693  1.00  0.00     0.000 HD 
ATOM      9  O   GLY A   1      -9.244  19.744  67.783  1.00  0.00    -0.321 OA 
ENDBRANCH   5   7
BRANCH   6  10
HETATM   10  C   UNL     1     -12.649  13.615  65.673  1.00  0.00    -0.531 C  
BRANCH  10  11
HETATM   11  C   UNL     1     -12.149  13.589  64.226  1.00  0.00    -0.482 C  
BRANCH  11  12
HETATM   12  C   UNL     1     -10.793  12.881  64.161  1.00  0.00    -0.445 C  
BRANCH  12  13
HETATM   13  C   UNL     1     -10.886  11.510  63.494  1.00  0.00    -0.473 C  
BRANCH  13  14
HETATM   14  C   UNL     1      -9.519  10.956  63.070  1.00  0.00    -0.369 C  
BRANCH  14  15
HETATM   15  C   UNL     1      -8.590  10.544  64.219  1.00  0.00    -0.156 C  
BRANCH  15  16
HETATM   16  C   UNL     1      -8.557   9.063  64.485  1.00  0.00    -0.181 C  
HETATM   17  C   UNL     1      -8.846   8.496  65.667  1.00  0.00    -0.214 C  
BRANCH  17  18
HETATM   18  C   UNL     1      -9.208   9.233  66.923  1.00  0.00    -0.178 C  
BRANCH  18  19
HETATM   19  C   UNL     1     -10.355   8.556  67.668  1.00  0.00    -0.317 C  
BRANCH  19  20
HETATM   20  C   UNL     1     -10.564   7.138  67.136  1.00  0.00    -0.417 C  
BRANCH  20  21
HETATM   21  C   UNL     1     -11.025   6.192  68.240  1.00  0.00    -0.397 C  
BRANCH  21  22
HETATM   22  C   UNL     1      -9.839   5.650  69.033  1.00  0.00    -0.210 C  
BRANCH  22  23
HETATM   23  C   UNL     1      -9.982   5.981  70.516  1.00  0.00    -0.233 C  
BRANCH  23  24
HETATM   24  C   UNL     1      -9.079   7.140  70.925  1.00  0.00    -0.152 C  
HETATM   25  C   UNL     1      -9.878   8.305  71.464  1.00  0.00    -0.189 C  
HETATM   26  O   UNL     1      -9.084   9.332  71.847  1.00  0.00    -0.290 OA 
HETATM   27  O   UNL     1     -11.090   8.348  71.561  1.00  0.00    -0.242 OA 
ENDBRANCH  23  24
ENDBRANCH  22  23
ENDBRANCH  21  22
ENDBRANCH  20  21
ENDBRANCH  19  20
ENDBRANCH  18  19
ENDBRANCH  17  18
ENDBRANCH  15  16
ENDBRANCH  14  15
ENDBRANCH  13  14
ENDBRANCH  12  13
ENDBRANCH  11  12
ENDBRANCH  10  11
ENDBRANCH   6  10
TORSDOF 15
ENDMDL
MODEL      254
REMARK 921   NORMALIZED FREE ENERGY PREDICTED BY IDOCK:   -3.80 KCAL/MOL
REMARK 922        TOTAL FREE ENERGY PREDICTED BY IDOCK:   -9.08 KCAL/MOL
REMARK 923 INTER-LIGAND FREE ENERGY PREDICTED BY IDOCK:   -7.14 KCAL/MOL
REMARK 924 INTRA-LIGAND FREE ENERGY PREDICTED BY IDOCK:   -1.94 KCAL/MOL
REMARK 927      BINDING AFFINITY PREDICTED BY RF-SCORE:    0.00 PKD
ROOT
ATOM      1  N   GLY A   1     -12.944  11.591  71.618  1.00  0.00    -0.437 NA 
HETATM    2  C   UNL     1     -10.487   5.280  70.020  1.00  0.00    -0.351 C  
ATOM      3  H2  GLY A   1     -12.318  11.616  72.423  1.00  0.00     0.000 HD 
ATOM      4  H1  GLY A   1     -12.589  12.150  70.842  1.00  0.00     0.000 HD 
ATOM      5  CA  GLY A   1     -13.210  10.216  71.173  1.00  0.00    -0.355 C  
HETATM    6  C   UNL     1      -9.827   5.844  68.772  1.00  0.00    -0.177 C  
ENDROOT
BRANCH   5   7
ATOM      7  C   GLY A   1     -13.742   9.377  72.337  1.00  0.00    -0.400 C  
ATOM      8  H   GLY A   1     -14.672   7.665  72.555  1.00  0.00     0.000 HD 
ATOM      9  O   GLY A   1     -14.341   8.186  71.832  1.00  0.00    -0.425 OA 
ENDBRANCH   5   7
BRANCH   6  10
HETATM   10  C   UNL     1     -10.790   6.035  67.601  1.00  0.00    -0.386 C  
BRANCH  10  11
HETATM   11  C   UNL     1     -10.506   5.137  66.394  1.00  0.00    -0.356 C  
BRANCH  11  12
HETATM   12  C   UNL     1      -9.228   4.331  66.639  1.00  0.00    -0.152 C  
BRANCH  12  13
HETATM   13  C   UNL     1      -8.080   4.774  65.733  1.00  0.00    -0.111 C  
BRANCH  13  14
HETATM   14  C   UNL     1      -8.486   5.881  64.751  1.00  0.00    -0.054 C  
BRANCH  14  15
HETATM   15  C   UNL     1      -7.621   7.146  64.789  1.00  0.00    -0.105 C  
BRANCH  15  16
HETATM   16  C   UNL     1      -7.996   8.183  63.766  1.00  0.00    -0.137 C  
HETATM   17  C   UNL     1      -8.442   9.414  64.058  1.00  0.00    -0.203 C  
BRANCH  17  18
HETATM   18  C   UNL     1      -8.681   9.950  65.440  1.00  0.00    -0.175 C  
BRANCH  18  19
HETATM   19  C   UNL     1     -10.063   9.570  65.964  1.00  0.00    -0.319 C  
BRANCH  19  20
HETATM   20  C   UNL     1     -10.070   9.587  67.493  1.00  0.00    -0.257 C  
BRANCH  20  21
HETATM   21  C   UNL     1     -11.144  10.526  68.033  1.00  0.00    -0.361 C  
BRANCH  21  22
HETATM   22  C   UNL     1     -10.523  11.749  68.701  1.00  0.00    -0.242 C  
BRANCH  22  23
HETATM   23  C   UNL     1     -10.699  12.990  67.830  1.00  0.00    -0.249 C  
BRANCH  23  24
HETATM   24  C   UNL     1     -12.021  12.961  67.069  1.00  0.00    -0.390 C  
HETATM   25  C   UNL     1     -12.023  13.944  65.920  1.00  0.00    -0.407 C  
HETATM   26  O   UNL     1     -13.185  13.912  65.227  1.00  0.00    -0.774 OA 
HETATM   27  O   UNL     1     -11.107  14.687  65.622  1.00  0.00    -0.319 OA 
ENDBRANCH  23  24
ENDBRANCH  22  23
ENDBRANCH  21  22
ENDBRANCH  20  21
ENDBRANCH  19  20
ENDBRANCH  18  19
ENDBRANCH  17  18
ENDBRANCH  15  16
ENDBRANCH  14  15
ENDBRANCH  13  14
ENDBRANCH  12  13
ENDBRANCH  11  12
ENDBRANCH  10  11
ENDBRANCH   6  10
TORSDOF 15
ENDMDL
MODEL      255
REMARK 921   NORMALIZED FREE ENERGY PREDICTED BY IDOCK:   -3.80 KCAL/MOL
REMARK 922        TOTAL FREE ENERGY PREDICTED BY IDOCK:   -9.08 KCAL/MOL
REMARK 923 INTER-LIGAND FREE ENERGY PREDICTED BY IDOCK:   -6.66 KCAL/MOL
REMARK 924 INTRA-LIGAND FREE ENERGY PREDICTED BY IDOCK:   -2.41 KCAL/MOL
REMARK 927      BINDING AFFINITY PREDICTED BY RF-SCORE:    0.00 PKD
ROOT
ATOM      1  N   GLY A   1     -11.132   8.041  69.573  1.00  0.00    -0.446 NA 
HETATM    2  C   UNL     1     -12.694  12.746  64.692  1.00  0.00    -0.439 C  
ATOM      3  H2  GLY A   1     -12.125   7.954  69.789  1.00  0.00     0.000 HD 
ATOM      4  H1  GLY A   1     -10.797   7.263  69.006  1.00  0.00     0.000 HD 
ATOM      5  CA  GLY A   1     -10.823   9.318  68.917  1.00  0.00    -0.099 C  
HETATM    6  C   UNL     1     -12.264  11.773  63.605  1.00  0.00    -0.489 C  
ENDROOT
BRANCH   5   7
ATOM      7  C   GLY A   1     -11.327  10.487  69.768  1.00  0.00    -0.300 C  
ATOM      8  H   GLY A   1     -11.836  10.773  71.639  1.00  0.00     0.000 HD 
ATOM      9  O   GLY A   1     -11.523  10.049  71.110  1.00  0.00    -0.357 OA 
ENDBRANCH   5   7
BRANCH   6  10
HETATM   10  C   UNL     1     -10.751  11.707  63.404  1.00  0.00    -0.460 C  
BRANCH  10  11
HETATM   11  C   UNL     1      -9.970  11.205  64.622  1.00  0.00    -0.345 C  
BRANCH  11  12
HETATM   12  C   UNL     1      -9.139   9.980  64.234  1.00  0.00    -0.296 C  
BRANCH  12  13
HETATM   13  C   UNL     1      -8.954   9.011  65.401  1.00  0.00    -0.249 C  
BRANCH  13  14
HETATM   14  C   UNL     1      -7.616   9.200  66.130  1.00  0.00    -0.095 C  
BRANCH  14  15
HETATM   15  C   UNL     1      -7.632  10.208  67.285  1.00  0.00    -0.095 C  
BRANCH  15  16
HETATM   16  C   UNL     1      -7.031  11.545  66.946  1.00  0.00    -0.134 C  
HETATM   17  C   UNL     1      -7.492  12.722  67.396  1.00  0.00    -0.145 C  
BRANCH  17  18
HETATM   18  C   UNL     1      -8.698  12.910  68.271  1.00  0.00    -0.168 C  
BRANCH  18  19
HETATM   19  C   UNL     1      -9.953  13.203  67.452  1.00  0.00    -0.229 C  
BRANCH  19  20
HETATM   20  C   UNL     1      -9.634  14.200  66.339  1.00  0.00    -0.310 C  
BRANCH  20  21
HETATM   21  C   UNL     1     -10.640  15.347  66.317  1.00  0.00    -0.311 C  
BRANCH  21  22
HETATM   22  C   UNL     1     -11.193  15.624  67.712  1.00  0.00    -0.297 C  
BRANCH  22  23
HETATM   23  C   UNL     1     -10.742  16.994  68.212  1.00  0.00    -0.372 C  
BRANCH  23  24
HETATM   24  C   UNL     1      -9.342  16.942  68.814  1.00  0.00    -0.260 C  
HETATM   25  C   UNL     1      -8.389  17.865  68.089  1.00  0.00    -0.267 C  
HETATM   26  O   UNL     1      -7.148  17.839  68.629  1.00  0.00    -0.237 OA 
HETATM   27  O   UNL     1      -8.670  18.565  67.135  1.00  0.00    -0.261 OA 
ENDBRANCH  23  24
ENDBRANCH  22  23
ENDBRANCH  21  22
ENDBRANCH  20  21
ENDBRANCH  19  20
ENDBRANCH  18  19
ENDBRANCH  17  18
ENDBRANCH  15  16
ENDBRANCH  14  15
ENDBRANCH  13  14
ENDBRANCH  12  13
ENDBRANCH  11  12
ENDBRANCH  10  11
ENDBRANCH   6  10
TORSDOF 15
ENDMDL
MODEL      256
REMARK 921   NORMALIZED FREE ENERGY PREDICTED BY IDOCK:   -3.79 KCAL/MOL
REMARK 922        TOTAL FREE ENERGY PREDICTED BY IDOCK:   -9.06 KCAL/MOL
REMARK 923 INTER-LIGAND FREE ENERGY PREDICTED BY IDOCK:   -7.02 KCAL/MOL
REMARK 924 INTRA-LIGAND FREE ENERGY PREDICTED BY IDOCK:   -2.04 KCAL/MOL
REMARK 927      BINDING AFFINITY PREDICTED BY RF-SCORE:    0.00 PKD
ROOT
ATOM      1  N   GLY A   1      -7.566  11.227  67.854  1.00  0.00    -0.097 NA 
HETATM    2  C   UNL     1     -11.663   6.717  71.212  1.00  0.00    -0.384 C  
ATOM      3  H2  GLY A   1      -7.650  10.657  67.012  1.00  0.00     0.000 HD 
ATOM      4  H1  GLY A   1      -8.161  12.054  67.815  1.00  0.00     0.000 HD 
ATOM      5  CA  GLY A   1      -7.848  10.454  69.071  1.00  0.00    -0.120 C  
HETATM    6  C   UNL     1     -12.761   7.766  71.297  1.00  0.00    -0.277 C  
ENDROOT
BRANCH   5   7
ATOM      7  C   GLY A   1      -6.954   9.213  69.129  1.00  0.00    -0.058 C  
ATOM      8  H   GLY A   1      -7.104   7.322  68.637  1.00  0.00     0.000 HD 
ATOM      9  O   GLY A   1      -7.658   8.092  68.601  1.00  0.00    -0.098 OA 
ENDBRANCH   5   7
BRANCH   6  10
HETATM   10  C   UNL     1     -12.551   8.785  72.417  1.00  0.00    -0.430 C  
BRANCH  10  11
HETATM   11  C   UNL     1     -13.098  10.182  72.113  1.00  0.00    -0.463 C  
BRANCH  11  12
HETATM   12  C   UNL     1     -13.007  10.458  70.610  1.00  0.00    -0.357 C  
BRANCH  12  13
HETATM   13  C   UNL     1     -11.918  11.474  70.271  1.00  0.00    -0.455 C  
BRANCH  13  14
HETATM   14  C   UNL     1     -12.328  12.918  70.590  1.00  0.00    -0.385 C  
BRANCH  14  15
HETATM   15  C   UNL     1     -11.953  13.960  69.528  1.00  0.00    -0.396 C  
BRANCH  15  16
HETATM   16  C   UNL     1     -11.140  15.112  70.052  1.00  0.00    -0.297 C  
HETATM   17  C   UNL     1      -9.980  15.529  69.520  1.00  0.00    -0.280 C  
BRANCH  17  18
HETATM   18  C   UNL     1      -9.282  14.900  68.350  1.00  0.00    -0.189 C  
BRANCH  18  19
HETATM   19  C   UNL     1      -8.515  15.931  67.525  1.00  0.00    -0.181 C  
BRANCH  19  20
HETATM   20  C   UNL     1      -9.003  15.915  66.077  1.00  0.00    -0.337 C  
BRANCH  20  21
HETATM   21  C   UNL     1     -10.506  16.160  65.994  1.00  0.00    -0.349 C  
BRANCH  21  22
HETATM   22  C   UNL     1     -11.163  15.223  64.984  1.00  0.00    -0.409 C  
BRANCH  22  23
HETATM   23  C   UNL     1     -11.799  14.027  65.689  1.00  0.00    -0.384 C  
BRANCH  23  24
HETATM   24  C   UNL     1     -11.488  12.718  64.970  1.00  0.00    -0.356 C  
HETATM   25  C   UNL     1     -10.874  11.702  65.906  1.00  0.00    -0.287 C  
HETATM   26  O   UNL     1     -10.611  10.530  65.281  1.00  0.00    -0.213 OA 
HETATM   27  O   UNL     1     -10.635  11.879  67.085  1.00  0.00    -0.219 OA 
ENDBRANCH  23  24
ENDBRANCH  22  23
ENDBRANCH  21  22
ENDBRANCH  20  21
ENDBRANCH  19  20
ENDBRANCH  18  19
ENDBRANCH  17  18
ENDBRANCH  15  16
ENDBRANCH  14  15
ENDBRANCH  13  14
ENDBRANCH  12  13
ENDBRANCH  11  12
ENDBRANCH  10  11
ENDBRANCH   6  10
TORSDOF 15
ENDMDL
MODEL      257
REMARK 921   NORMALIZED FREE ENERGY PREDICTED BY IDOCK:   -3.78 KCAL/MOL
REMARK 922        TOTAL FREE ENERGY PREDICTED BY IDOCK:   -9.05 KCAL/MOL
REMARK 923 INTER-LIGAND FREE ENERGY PREDICTED BY IDOCK:   -8.15 KCAL/MOL
REMARK 924 INTRA-LIGAND FREE ENERGY PREDICTED BY IDOCK:   -0.90 KCAL/MOL
REMARK 927      BINDING AFFINITY PREDICTED BY RF-SCORE:    0.00 PKD
ROOT
ATOM      1  N   GLY A   1     -10.115  10.496  66.118  1.00  0.00    -0.237 NA 
HETATM    2  C   UNL     1      -8.881   7.626  72.335  1.00  0.00    -0.176 C  
ATOM      3  H2  GLY A   1      -9.444   9.851  65.701  1.00  0.00     0.000 HD 
ATOM      4  H1  GLY A   1     -11.077  10.206  65.947  1.00  0.00     0.000 HD 
ATOM      5  CA  GLY A   1      -9.886  10.672  67.558  1.00  0.00    -0.168 C  
HETATM    6  C   UNL     1     -10.286   7.046  72.354  1.00  0.00    -0.210 C  
ENDROOT
BRANCH   5   7
ATOM      7  C   GLY A   1      -8.440  11.108  67.815  1.00  0.00    -0.124 C  
ATOM      8  H   GLY A   1      -6.816  10.298  68.555  1.00  0.00     0.000 HD 
ATOM      9  O   GLY A   1      -7.713  10.028  68.396  1.00  0.00    -0.083 OA 
ENDBRANCH   5   7
BRANCH   6  10
HETATM   10  C   UNL     1     -11.361   8.053  72.760  1.00  0.00    -0.439 C  
BRANCH  10  11
HETATM   11  C   UNL     1     -12.256   8.523  71.611  1.00  0.00    -0.371 C  
BRANCH  11  12
HETATM   12  C   UNL     1     -13.361   9.433  72.154  1.00  0.00    -0.545 C  
BRANCH  12  13
HETATM   13  C   UNL     1     -13.159  10.894  71.754  1.00  0.00    -0.564 C  
BRANCH  13  14
HETATM   14  C   UNL     1     -11.991  11.090  70.777  1.00  0.00    -0.436 C  
BRANCH  14  15
HETATM   15  C   UNL     1     -12.109  12.302  69.844  1.00  0.00    -0.319 C  
BRANCH  15  16
HETATM   16  C   UNL     1     -12.358  13.605  70.553  1.00  0.00    -0.425 C  
HETATM   17  C   UNL     1     -12.261  14.814  69.978  1.00  0.00    -0.383 C  
BRANCH  17  18
HETATM   18  C   UNL     1     -11.853  15.073  68.557  1.00  0.00    -0.319 C  
BRANCH  18  19
HETATM   19  C   UNL     1     -10.382  15.468  68.452  1.00  0.00    -0.230 C  
BRANCH  19  20
HETATM   20  C   UNL     1     -10.167  16.862  69.039  1.00  0.00    -0.308 C  
BRANCH  20  21
HETATM   21  C   UNL     1      -9.504  17.794  68.030  1.00  0.00    -0.281 C  
BRANCH  21  22
HETATM   22  C   UNL     1     -10.374  17.972  66.789  1.00  0.00    -0.373 C  
BRANCH  22  23
HETATM   23  C   UNL     1     -10.312  19.413  66.286  1.00  0.00    -0.584 C  
BRANCH  23  24
HETATM   24  C   UNL     1      -9.312  20.245  67.083  1.00  0.00    -0.536 C  
HETATM   25  C   UNL     1      -7.930  20.189  66.472  1.00  0.00    -0.278 C  
HETATM   26  O   UNL     1      -7.040  20.940  67.162  1.00  0.00    -0.335 OA 
HETATM   27  O   UNL     1      -7.620  19.559  65.479  1.00  0.00    -0.425 OA 
ENDBRANCH  23  24
ENDBRANCH  22  23
ENDBRANCH  21  22
ENDBRANCH  20  21
ENDBRANCH  19  20
ENDBRANCH  18  19
ENDBRANCH  17  18
ENDBRANCH  15  16
ENDBRANCH  14  15
ENDBRANCH  13  14
ENDBRANCH  12  13
ENDBRANCH  11  12
ENDBRANCH  10  11
ENDBRANCH   6  10
TORSDOF 15
ENDMDL
MODEL      258
REMARK 921   NORMALIZED FREE ENERGY PREDICTED BY IDOCK:   -3.78 KCAL/MOL
REMARK 922        TOTAL FREE ENERGY PREDICTED BY IDOCK:   -9.04 KCAL/MOL
REMARK 923 INTER-LIGAND FREE ENERGY PREDICTED BY IDOCK:   -7.02 KCAL/MOL
REMARK 924 INTRA-LIGAND FREE ENERGY PREDICTED BY IDOCK:   -2.02 KCAL/MOL
REMARK 927      BINDING AFFINITY PREDICTED BY RF-SCORE:    0.00 PKD
ROOT
ATOM      1  N   GLY A   1     -13.314  11.039  72.226  1.00  0.00    -0.562 NA 
HETATM    2  C   UNL     1     -10.444   5.494  69.156  1.00  0.00    -0.315 C  
ATOM      3  H2  GLY A   1     -12.827  10.797  73.089  1.00  0.00     0.000 HD 
ATOM      4  H1  GLY A   1     -12.856  11.805  71.733  1.00  0.00     0.000 HD 
ATOM      5  CA  GLY A   1     -13.464   9.879  71.337  1.00  0.00    -0.302 C  
HETATM    6  C   UNL     1      -9.609   6.406  68.271  1.00  0.00    -0.123 C  
ENDROOT
BRANCH   5   7
ATOM      7  C   GLY A   1     -14.151   8.729  72.078  1.00  0.00    -0.441 C  
ATOM      8  H   GLY A   1     -14.636   6.870  71.691  1.00  0.00     0.000 HD 
ATOM      9  O   GLY A   1     -14.210   7.584  71.231  1.00  0.00    -0.397 OA 
ENDBRANCH   5   7
BRANCH   6  10
HETATM   10  C   UNL     1     -10.376   6.976  67.078  1.00  0.00    -0.360 C  
BRANCH  10  11
HETATM   11  C   UNL     1     -10.314   8.500  66.953  1.00  0.00    -0.367 C  
BRANCH  11  12
HETATM   12  C   UNL     1      -9.469   9.078  68.092  1.00  0.00    -0.155 C  
BRANCH  12  13
HETATM   13  C   UNL     1     -10.123  10.298  68.738  1.00  0.00    -0.198 C  
BRANCH  13  14
HETATM   14  C   UNL     1     -11.373  10.776  67.986  1.00  0.00    -0.378 C  
BRANCH  14  15
HETATM   15  C   UNL     1     -11.568  12.296  67.929  1.00  0.00    -0.416 C  
BRANCH  15  16
HETATM   16  C   UNL     1     -11.683  12.954  69.277  1.00  0.00    -0.378 C  
HETATM   17  C   UNL     1     -11.804  14.277  69.470  1.00  0.00    -0.378 C  
BRANCH  17  18
HETATM   18  C   UNL     1     -11.804  15.319  68.390  1.00  0.00    -0.283 C  
BRANCH  18  19
HETATM   19  C   UNL     1     -10.940  16.522  68.761  1.00  0.00    -0.330 C  
BRANCH  19  20
HETATM   20  C   UNL     1     -10.414  17.203  67.498  1.00  0.00    -0.348 C  
BRANCH  20  21
HETATM   21  C   UNL     1      -9.849  16.185  66.512  1.00  0.00    -0.283 C  
BRANCH  21  22
HETATM   22  C   UNL     1      -8.361  15.948  66.756  1.00  0.00    -0.306 C  
BRANCH  22  23
HETATM   23  C   UNL     1      -8.102  14.497  67.155  1.00  0.00    -0.196 C  
BRANCH  23  24
HETATM   24  C   UNL     1      -7.936  14.349  68.665  1.00  0.00    -0.145 C  
HETATM   25  C   UNL     1      -6.479  14.301  69.062  1.00  0.00    -0.100 C  
HETATM   26  O   UNL     1      -6.321  14.189  70.402  1.00  0.00    -0.163 OA 
HETATM   27  O   UNL     1      -5.534  14.359  68.298  1.00  0.00    -0.098 OA 
ENDBRANCH  23  24
ENDBRANCH  22  23
ENDBRANCH  21  22
ENDBRANCH  20  21
ENDBRANCH  19  20
ENDBRANCH  18  19
ENDBRANCH  17  18
ENDBRANCH  15  16
ENDBRANCH  14  15
ENDBRANCH  13  14
ENDBRANCH  12  13
ENDBRANCH  11  12
ENDBRANCH  10  11
ENDBRANCH   6  10
TORSDOF 15
ENDMDL
MODEL      259
REMARK 921   NORMALIZED FREE ENERGY PREDICTED BY IDOCK:   -3.78 KCAL/MOL
REMARK 922        TOTAL FREE ENERGY PREDICTED BY IDOCK:   -9.04 KCAL/MOL
REMARK 923 INTER-LIGAND FREE ENERGY PREDICTED BY IDOCK:   -7.26 KCAL/MOL
REMARK 924 INTRA-LIGAND FREE ENERGY PREDICTED BY IDOCK:   -1.78 KCAL/MOL
REMARK 927      BINDING AFFINITY PREDICTED BY RF-SCORE:    0.00 PKD
ROOT
ATOM      1  N   GLY A   1      -6.773   2.827  66.058  1.00  0.00    -0.042 NA 
HETATM    2  C   UNL     1     -10.048   8.683  67.901  1.00  0.00    -0.254 C  
ATOM      3  H2  GLY A   1      -6.805   3.131  65.085  1.00  0.00     0.000 HD 
ATOM      4  H1  GLY A   1      -5.852   2.970  66.471  1.00  0.00     0.000 HD 
ATOM      5  CA  GLY A   1      -7.803   3.486  66.872  1.00  0.00    -0.080 C  
HETATM    6  C   UNL     1      -8.793   9.172  68.606  1.00  0.00    -0.133 C  
ENDROOT
BRANCH   5   7
ATOM      7  C   GLY A   1      -9.186   3.271  66.251  1.00  0.00    -0.145 C  
ATOM      8  H   GLY A   1     -10.029   1.961  65.063  1.00  0.00     0.000 HD 
ATOM      9  O   GLY A   1      -9.171   2.094  65.448  1.00  0.00    -0.122 OA 
ENDBRANCH   5   7
BRANCH   6  10
HETATM   10  C   UNL     1      -8.588   8.560  69.992  1.00  0.00    -0.134 C  
BRANCH  10  11
HETATM   11  C   UNL     1      -8.100   7.110  69.979  1.00  0.00    -0.127 C  
BRANCH  11  12
HETATM   12  C   UNL     1      -9.057   6.235  70.792  1.00  0.00    -0.150 C  
BRANCH  12  13
HETATM   13  C   UNL     1     -10.128   5.581  69.920  1.00  0.00    -0.305 C  
BRANCH  13  14
HETATM   14  C   UNL     1     -11.455   6.352  69.925  1.00  0.00    -0.483 C  
BRANCH  14  15
HETATM   15  C   UNL     1     -11.844   6.987  71.266  1.00  0.00    -0.371 C  
BRANCH  15  16
HETATM   16  C   UNL     1     -13.325   7.170  71.456  1.00  0.00    -0.413 C  
HETATM   17  C   UNL     1     -13.911   8.330  71.790  1.00  0.00    -0.476 C  
BRANCH  17  18
HETATM   18  C   UNL     1     -13.196   9.620  72.068  1.00  0.00    -0.546 C  
BRANCH  18  19
HETATM   19  C   UNL     1     -13.156  10.524  70.838  1.00  0.00    -0.390 C  
BRANCH  19  20
HETATM   20  C   UNL     1     -11.714  10.918  70.521  1.00  0.00    -0.441 C  
BRANCH  20  21
HETATM   21  C   UNL     1     -11.613  12.392  70.138  1.00  0.00    -0.159 C  
BRANCH  21  22
HETATM   22  C   UNL     1     -12.869  13.156  70.546  1.00  0.00    -0.027 C  
BRANCH  22  23
HETATM   23  C   UNL     1     -12.533  14.604  70.895  1.00  0.00    -0.406 C  
BRANCH  23  24
HETATM   24  C   UNL     1     -11.939  14.723  72.295  1.00  0.00    -0.323 C  
HETATM   25  C   UNL     1     -12.828  15.536  73.209  1.00  0.00    -0.517 C  
HETATM   26  O   UNL     1     -12.318  15.632  74.459  1.00  0.00    -0.647 OA 
HETATM   27  O   UNL     1     -13.883  16.053  72.895  1.00  0.00    -0.572 OA 
ENDBRANCH  23  24
ENDBRANCH  22  23
ENDBRANCH  21  22
ENDBRANCH  20  21
ENDBRANCH  19  20
ENDBRANCH  18  19
ENDBRANCH  17  18
ENDBRANCH  15  16
ENDBRANCH  14  15
ENDBRANCH  13  14
ENDBRANCH  12  13
ENDBRANCH  11  12
ENDBRANCH  10  11
ENDBRANCH   6  10
TORSDOF 15
ENDMDL
MODEL      260
REMARK 921   NORMALIZED FREE ENERGY PREDICTED BY IDOCK:   -3.76 KCAL/MOL
REMARK 922        TOTAL FREE ENERGY PREDICTED BY IDOCK:   -9.01 KCAL/MOL
REMARK 923 INTER-LIGAND FREE ENERGY PREDICTED BY IDOCK:   -7.15 KCAL/MOL
REMARK 924 INTRA-LIGAND FREE ENERGY PREDICTED BY IDOCK:   -1.85 KCAL/MOL
REMARK 927      BINDING AFFINITY PREDICTED BY RF-SCORE:    0.00 PKD
ROOT
ATOM      1  N   GLY A   1     -10.071  10.230  62.473  1.00  0.00    -0.645 NA 
HETATM    2  C   UNL     1      -7.474  12.633  68.463  1.00  0.00    -0.121 C  
ATOM      3  H2  GLY A   1     -10.455   9.430  62.975  1.00  0.00     0.000 HD 
ATOM      4  H1  GLY A   1     -10.786  10.928  62.266  1.00  0.00     0.000 HD 
ATOM      5  CA  GLY A   1      -8.953  10.848  63.197  1.00  0.00    -0.225 C  
HETATM    6  C   UNL     1      -8.449  13.799  68.427  1.00  0.00    -0.154 C  
ENDROOT
BRANCH   5   7
ATOM      7  C   GLY A   1      -7.880   9.801  63.507  1.00  0.00    -0.140 C  
ATOM      8  H   GLY A   1      -5.948   9.614  63.237  1.00  0.00     0.000 HD 
ATOM      9  O   GLY A   1      -6.614  10.263  63.045  1.00  0.00    -0.133 OA 
ENDBRANCH   5   7
BRANCH   6  10
HETATM   10  C   UNL     1      -8.016  14.935  67.501  1.00  0.00    -0.198 C  
BRANCH  10  11
HETATM   11  C   UNL     1      -8.290  16.338  68.046  1.00  0.00    -0.165 C  
BRANCH  11  12
HETATM   12  C   UNL     1      -9.075  17.150  67.012  1.00  0.00    -0.242 C  
BRANCH  12  13
HETATM   13  C   UNL     1     -10.442  16.538  66.710  1.00  0.00    -0.269 C  
BRANCH  13  14
HETATM   14  C   UNL     1     -10.604  16.135  65.237  1.00  0.00    -0.390 C  
BRANCH  14  15
HETATM   15  C   UNL     1     -10.707  14.628  64.974  1.00  0.00    -0.448 C  
BRANCH  15  16
HETATM   16  C   UNL     1     -12.002  14.009  65.424  1.00  0.00    -0.386 C  
HETATM   17  C   UNL     1     -12.099  12.854  66.101  1.00  0.00    -0.458 C  
BRANCH  17  18
HETATM   18  C   UNL     1     -10.948  11.970  66.484  1.00  0.00    -0.337 C  
BRANCH  18  19
HETATM   19  C   UNL     1     -11.371  10.887  67.475  1.00  0.00    -0.309 C  
BRANCH  19  20
HETATM   20  C   UNL     1     -10.242   9.873  67.659  1.00  0.00    -0.255 C  
BRANCH  20  21
HETATM   21  C   UNL     1     -10.440   9.047  68.926  1.00  0.00    -0.231 C  
BRANCH  21  22
HETATM   22  C   UNL     1      -9.226   9.147  69.845  1.00  0.00    -0.194 C  
BRANCH  22  23
HETATM   23  C   UNL     1      -9.656   9.167  71.310  1.00  0.00    -0.331 C  
BRANCH  23  24
HETATM   24  C   UNL     1     -11.166   9.328  71.452  1.00  0.00    -0.433 C  
HETATM   25  C   UNL     1     -11.717   8.454  72.556  1.00  0.00    -0.359 C  
HETATM   26  O   UNL     1     -13.055   8.603  72.702  1.00  0.00    -0.348 OA 
HETATM   27  O   UNL     1     -11.067   7.699  73.253  1.00  0.00    -0.382 OA 
ENDBRANCH  23  24
ENDBRANCH  22  23
ENDBRANCH  21  22
ENDBRANCH  20  21
ENDBRANCH  19  20
ENDBRANCH  18  19
ENDBRANCH  17  18
ENDBRANCH  15  16
ENDBRANCH  14  15
ENDBRANCH  13  14
ENDBRANCH  12  13
ENDBRANCH  11  12
ENDBRANCH  10  11
ENDBRANCH   6  10
TORSDOF 15
ENDMDL
MODEL      261
REMARK 921   NORMALIZED FREE ENERGY PREDICTED BY IDOCK:   -3.76 KCAL/MOL
REMARK 922        TOTAL FREE ENERGY PREDICTED BY IDOCK:   -9.01 KCAL/MOL
REMARK 923 INTER-LIGAND FREE ENERGY PREDICTED BY IDOCK:   -6.73 KCAL/MOL
REMARK 924 INTRA-LIGAND FREE ENERGY PREDICTED BY IDOCK:   -2.27 KCAL/MOL
REMARK 927      BINDING AFFINITY PREDICTED BY RF-SCORE:    0.00 PKD
ROOT
ATOM      1  N   GLY A   1     -13.758  13.128  72.306  1.00  0.00    -0.572 NA 
HETATM    2  C   UNL     1     -12.624  14.329  65.547  1.00  0.00    -0.429 C  
ATOM      3  H2  GLY A   1     -14.746  13.335  72.164  1.00  0.00     0.000 HD 
ATOM      4  H1  GLY A   1     -13.585  12.125  72.367  1.00  0.00     0.000 HD 
ATOM      5  CA  GLY A   1     -12.916  13.727  71.262  1.00  0.00    -0.334 C  
HETATM    6  C   UNL     1     -12.317  12.856  65.329  1.00  0.00    -0.544 C  
ENDROOT
BRANCH   5   7
ATOM      7  C   GLY A   1     -13.177  15.233  71.171  1.00  0.00    -0.498 C  
ATOM      8  H   GLY A   1     -13.812  16.647  72.371  1.00  0.00     0.000 HD 
ATOM      9  O   GLY A   1     -13.650  15.712  72.427  1.00  0.00    -0.475 OA 
ENDBRANCH   5   7
BRANCH   6  10
HETATM   10  C   UNL     1     -10.903  12.454  65.746  1.00  0.00    -0.312 C  
BRANCH  10  11
HETATM   11  C   UNL     1     -10.775  11.015  66.251  1.00  0.00    -0.273 C  
BRANCH  11  12
HETATM   12  C   UNL     1     -11.105  10.959  67.745  1.00  0.00    -0.371 C  
BRANCH  12  13
HETATM   13  C   UNL     1     -10.045  11.652  68.599  1.00  0.00    -0.206 C  
BRANCH  13  14
HETATM   14  C   UNL     1      -8.909  10.711  69.022  1.00  0.00    -0.154 C  
BRANCH  14  15
HETATM   15  C   UNL     1      -7.690  10.692  68.092  1.00  0.00    -0.101 C  
BRANCH  15  16
HETATM   16  C   UNL     1      -6.841   9.455  68.212  1.00  0.00    -0.063 C  
HETATM   17  C   UNL     1      -6.871   8.425  67.352  1.00  0.00    -0.070 C  
BRANCH  17  18
HETATM   18  C   UNL     1      -7.776   8.312  66.159  1.00  0.00    -0.097 C  
BRANCH  18  19
HETATM   19  C   UNL     1      -8.731   7.127  66.282  1.00  0.00    -0.156 C  
BRANCH  19  20
HETATM   20  C   UNL     1     -10.074   7.589  66.844  1.00  0.00    -0.336 C  
BRANCH  20  21
HETATM   21  C   UNL     1     -10.954   6.403  67.228  1.00  0.00    -0.474 C  
BRANCH  21  22
HETATM   22  C   UNL     1     -11.185   6.353  68.736  1.00  0.00    -0.358 C  
BRANCH  22  23
HETATM   23  C   UNL     1      -9.870   6.529  69.492  1.00  0.00    -0.167 C  
BRANCH  23  24
HETATM   24  C   UNL     1      -9.982   7.597  70.575  1.00  0.00    -0.184 C  
HETATM   25  C   UNL     1      -8.651   7.852  71.244  1.00  0.00    -0.125 C  
HETATM   26  O   UNL     1      -8.736   8.812  72.195  1.00  0.00    -0.352 OA 
HETATM   27  O   UNL     1      -7.606   7.286  70.983  1.00  0.00    -0.082 OA 
ENDBRANCH  23  24
ENDBRANCH  22  23
ENDBRANCH  21  22
ENDBRANCH  20  21
ENDBRANCH  19  20
ENDBRANCH  18  19
ENDBRANCH  17  18
ENDBRANCH  15  16
ENDBRANCH  14  15
ENDBRANCH  13  14
ENDBRANCH  12  13
ENDBRANCH  11  12
ENDBRANCH  10  11
ENDBRANCH   6  10
TORSDOF 15
ENDMDL
MODEL      262
REMARK 921   NORMALIZED FREE ENERGY PREDICTED BY IDOCK:   -3.76 KCAL/MOL
REMARK 922        TOTAL FREE ENERGY PREDICTED BY IDOCK:   -9.00 KCAL/MOL
REMARK 923 INTER-LIGAND FREE ENERGY PREDICTED BY IDOCK:   -7.05 KCAL/MOL
REMARK 924 INTRA-LIGAND FREE ENERGY PREDICTED BY IDOCK:   -1.95 KCAL/MOL
REMARK 927      BINDING AFFINITY PREDICTED BY RF-SCORE:    0.00 PKD
ROOT
ATOM      1  N   GLY A   1     -12.572  15.777  73.757  1.00  0.00    -0.550 NA 
HETATM    2  C   UNL     1     -11.579  11.982  68.010  1.00  0.00    -0.407 C  
ATOM      3  H2  GLY A   1     -12.803  14.923  74.265  1.00  0.00     0.000 HD 
ATOM      4  H1  GLY A   1     -11.625  16.095  73.957  1.00  0.00     0.000 HD 
ATOM      5  CA  GLY A   1     -12.760  15.621  72.308  1.00  0.00    -0.430 C  
HETATM    6  C   UNL     1     -10.090  12.285  68.058  1.00  0.00    -0.206 C  
ENDROOT
BRANCH   5   7
ATOM      7  C   GLY A   1     -14.183  15.143  72.007  1.00  0.00    -0.577 C  
ATOM      8  H   GLY A   1     -15.226  13.507  72.279  1.00  0.00     0.000 HD 
ATOM      9  O   GLY A   1     -14.344  13.803  72.466  1.00  0.00    -0.696 OA 
ENDBRANCH   5   7
BRANCH   6  10
HETATM   10  C   UNL     1      -9.725  13.663  67.507  1.00  0.00    -0.227 C  
BRANCH  10  11
HETATM   11  C   UNL     1     -10.685  14.784  67.913  1.00  0.00    -0.259 C  
BRANCH  11  12
HETATM   12  C   UNL     1     -10.885  15.744  66.737  1.00  0.00    -0.254 C  
BRANCH  12  13
HETATM   13  C   UNL     1     -10.343  15.177  65.426  1.00  0.00    -0.415 C  
BRANCH  13  14
HETATM   14  C   UNL     1     -11.438  14.949  64.375  1.00  0.00    -0.255 C  
BRANCH  14  15
HETATM   15  C   UNL     1     -12.399  13.790  64.666  1.00  0.00    -0.410 C  
BRANCH  15  16
HETATM   16  C   UNL     1     -12.340  12.671  63.661  1.00  0.00    -0.584 C  
HETATM   17  C   UNL     1     -11.428  11.686  63.672  1.00  0.00    -0.458 C  
BRANCH  17  18
HETATM   18  C   UNL     1     -10.299  11.555  64.652  1.00  0.00    -0.349 C  
BRANCH  18  19
HETATM   19  C   UNL     1      -9.478  10.291  64.406  1.00  0.00    -0.360 C  
BRANCH  19  20
HETATM   20  C   UNL     1      -8.225  10.299  65.281  1.00  0.00    -0.161 C  
BRANCH  20  21
HETATM   21  C   UNL     1      -8.324   9.269  66.402  1.00  0.00    -0.120 C  
BRANCH  21  22
HETATM   22  C   UNL     1      -7.175   9.422  67.395  1.00  0.00    -0.087 C  
BRANCH  22  23
HETATM   23  C   UNL     1      -6.446   8.095  67.588  1.00  0.00    -0.057 C  
BRANCH  23  24
HETATM   24  C   UNL     1      -5.872   7.966  68.996  1.00  0.00    -0.034 C  
HETATM   25  C   UNL     1      -6.478   6.798  69.739  1.00  0.00    -0.044 C  
HETATM   26  O   UNL     1      -5.962   6.664  70.983  1.00  0.00    -0.027 OA 
HETATM   27  O   UNL     1      -7.326   6.043  69.302  1.00  0.00    -0.079 OA 
ENDBRANCH  23  24
ENDBRANCH  22  23
ENDBRANCH  21  22
ENDBRANCH  20  21
ENDBRANCH  19  20
ENDBRANCH  18  19
ENDBRANCH  17  18
ENDBRANCH  15  16
ENDBRANCH  14  15
ENDBRANCH  13  14
ENDBRANCH  12  13
ENDBRANCH  11  12
ENDBRANCH  10  11
ENDBRANCH   6  10
TORSDOF 15
ENDMDL
MODEL      263
REMARK 921   NORMALIZED FREE ENERGY PREDICTED BY IDOCK:   -3.76 KCAL/MOL
REMARK 922        TOTAL FREE ENERGY PREDICTED BY IDOCK:   -9.00 KCAL/MOL
REMARK 923 INTER-LIGAND FREE ENERGY PREDICTED BY IDOCK:   -6.74 KCAL/MOL
REMARK 924 INTRA-LIGAND FREE ENERGY PREDICTED BY IDOCK:   -2.26 KCAL/MOL
REMARK 927      BINDING AFFINITY PREDICTED BY RF-SCORE:    0.00 PKD
ROOT
ATOM      1  N   GLY A   1      -9.040  16.590  66.741  1.00  0.00    -0.223 NA 
HETATM    2  C   UNL     1     -12.494  11.124  69.312  1.00  0.00    -0.008 C  
ATOM      3  H2  GLY A   1      -9.791  17.200  67.063  1.00  0.00     0.000 HD 
ATOM      4  H1  GLY A   1      -8.229  16.627  67.357  1.00  0.00     0.000 HD 
ATOM      5  CA  GLY A   1      -9.492  15.201  66.578  1.00  0.00    -0.283 C  
HETATM    6  C   UNL     1     -11.421  10.937  70.374  1.00  0.00    -0.367 C  
ENDROOT
BRANCH   5   7
ATOM      7  C   GLY A   1     -10.710  15.146  65.652  1.00  0.00    -0.363 C  
ATOM      8  H   GLY A   1     -11.468  16.253  64.224  1.00  0.00     0.000 HD 
ATOM      9  O   GLY A   1     -10.713  16.287  64.798  1.00  0.00    -0.680 OA 
ENDBRANCH   5   7
BRANCH   6  10
HETATM   10  C   UNL     1     -10.172  10.218  69.865  1.00  0.00    -0.250 C  
BRANCH  10  11
HETATM   11  C   UNL     1      -9.761   8.998  70.692  1.00  0.00    -0.287 C  
BRANCH  11  12
HETATM   12  C   UNL     1     -10.834   8.701  71.744  1.00  0.00    -0.395 C  
BRANCH  12  13
HETATM   13  C   UNL     1     -11.766   7.568  71.318  1.00  0.00    -0.312 C  
BRANCH  13  14
HETATM   14  C   UNL     1     -11.119   6.607  70.312  1.00  0.00    -0.379 C  
BRANCH  14  15
HETATM   15  C   UNL     1     -10.332   5.442  70.926  1.00  0.00    -0.312 C  
BRANCH  15  16
HETATM   16  C   UNL     1      -8.937   5.286  70.385  1.00  0.00    -0.154 C  
HETATM   17  C   UNL     1      -8.608   4.509  69.341  1.00  0.00    -0.105 C  
BRANCH  17  18
HETATM   18  C   UNL     1      -9.557   3.640  68.569  1.00  0.00    -0.163 C  
BRANCH  18  19
HETATM   19  C   UNL     1      -9.607   4.026  67.093  1.00  0.00    -0.231 C  
BRANCH  19  20
HETATM   20  C   UNL     1     -10.468   5.275  66.904  1.00  0.00    -0.313 C  
BRANCH  20  21
HETATM   21  C   UNL     1      -9.608   6.507  66.636  1.00  0.00    -0.201 C  
BRANCH  21  22
HETATM   22  C   UNL     1     -10.409   7.791  66.831  1.00  0.00    -0.396 C  
BRANCH  22  23
HETATM   23  C   UNL     1      -9.510   9.017  66.687  1.00  0.00    -0.251 C  
BRANCH  23  24
HETATM   24  C   UNL     1      -9.831   9.806  65.422  1.00  0.00    -0.365 C  
HETATM   25  C   UNL     1      -9.883  11.293  65.692  1.00  0.00    -0.234 C  
HETATM   26  O   UNL     1     -10.149  12.003  64.572  1.00  0.00    -0.271 OA 
HETATM   27  O   UNL     1      -9.707  11.823  66.773  1.00  0.00    -0.192 OA 
ENDBRANCH  23  24
ENDBRANCH  22  23
ENDBRANCH  21  22
ENDBRANCH  20  21
ENDBRANCH  19  20
ENDBRANCH  18  19
ENDBRANCH  17  18
ENDBRANCH  15  16
ENDBRANCH  14  15
ENDBRANCH  13  14
ENDBRANCH  12  13
ENDBRANCH  11  12
ENDBRANCH  10  11
ENDBRANCH   6  10
TORSDOF 15
ENDMDL
MODEL      264
REMARK 921   NORMALIZED FREE ENERGY PREDICTED BY IDOCK:   -3.74 KCAL/MOL
REMARK 922        TOTAL FREE ENERGY PREDICTED BY IDOCK:   -8.97 KCAL/MOL
REMARK 923 INTER-LIGAND FREE ENERGY PREDICTED BY IDOCK:   -7.04 KCAL/MOL
REMARK 924 INTRA-LIGAND FREE ENERGY PREDICTED BY IDOCK:   -1.94 KCAL/MOL
REMARK 927      BINDING AFFINITY PREDICTED BY RF-SCORE:    0.00 PKD
ROOT
ATOM      1  N   GLY A   1      -7.111   9.793  67.765  1.00  0.00    -0.086 NA 
HETATM    2  C   UNL     1     -12.193  12.048  63.582  1.00  0.00    -0.642 C  
ATOM      3  H2  GLY A   1      -6.544   9.587  66.943  1.00  0.00     0.000 HD 
ATOM      4  H1  GLY A   1      -6.822  10.659  68.219  1.00  0.00     0.000 HD 
ATOM      5  CA  GLY A   1      -8.544   9.842  67.445  1.00  0.00    -0.125 C  
HETATM    6  C   UNL     1     -11.979  13.470  64.075  1.00  0.00    -0.501 C  
ENDROOT
BRANCH   5   7
ATOM      7  C   GLY A   1      -8.978   8.542  66.763  1.00  0.00    -0.146 C  
ATOM      8  H   GLY A   1     -10.613   7.467  66.650  1.00  0.00     0.000 HD 
ATOM      9  O   GLY A   1     -10.343   8.273  67.073  1.00  0.00    -0.280 OA 
ENDBRANCH   5   7
BRANCH   6  10
HETATM   10  C   UNL     1     -12.631  13.757  65.427  1.00  0.00    -0.534 C  
BRANCH  10  11
HETATM   11  C   UNL     1     -11.654  13.802  66.605  1.00  0.00    -0.392 C  
BRANCH  11  12
HETATM   12  C   UNL     1     -11.760  12.506  67.414  1.00  0.00    -0.432 C  
BRANCH  12  13
HETATM   13  C   UNL     1     -10.827  12.500  68.624  1.00  0.00    -0.280 C  
BRANCH  13  14
HETATM   14  C   UNL     1     -11.033  11.279  69.531  1.00  0.00    -0.249 C  
BRANCH  14  15
HETATM   15  C   UNL     1     -12.492  10.944  69.863  1.00  0.00    -0.292 C  
BRANCH  15  16
HETATM   16  C   UNL     1     -12.798  10.908  71.335  1.00  0.00    -0.554 C  
HETATM   17  C   UNL     1     -13.260   9.831  71.991  1.00  0.00    -0.557 C  
BRANCH  17  18
HETATM   18  C   UNL     1     -13.586   8.505  71.367  1.00  0.00    -0.268 C  
BRANCH  18  19
HETATM   19  C   UNL     1     -13.013   7.343  72.175  1.00  0.00    -0.087 C  
BRANCH  19  20
HETATM   20  C   UNL     1     -12.016   6.553  71.328  1.00  0.00    -0.364 C  
BRANCH  20  21
HETATM   21  C   UNL     1     -11.442   7.410  70.203  1.00  0.00    -0.154 C  
BRANCH  21  22
HETATM   22  C   UNL     1      -9.962   7.702  70.432  1.00  0.00    -0.188 C  
BRANCH  22  23
HETATM   23  C   UNL     1      -9.744   8.358  71.794  1.00  0.00    -0.306 C  
BRANCH  23  24
HETATM   24  C   UNL     1      -8.262   8.554  72.094  1.00  0.00    -0.175 C  
HETATM   25  C   UNL     1      -7.870   7.913  73.406  1.00  0.00    -0.162 C  
HETATM   26  O   UNL     1      -6.552   8.066  73.672  1.00  0.00    -0.092 OA 
HETATM   27  O   UNL     1      -8.621   7.318  74.156  1.00  0.00    -0.168 OA 
ENDBRANCH  23  24
ENDBRANCH  22  23
ENDBRANCH  21  22
ENDBRANCH  20  21
ENDBRANCH  19  20
ENDBRANCH  18  19
ENDBRANCH  17  18
ENDBRANCH  15  16
ENDBRANCH  14  15
ENDBRANCH  13  14
ENDBRANCH  12  13
ENDBRANCH  11  12
ENDBRANCH  10  11
ENDBRANCH   6  10
TORSDOF 15
ENDMDL
MODEL      265
REMARK 921   NORMALIZED FREE ENERGY PREDICTED BY IDOCK:   -3.74 KCAL/MOL
REMARK 922        TOTAL FREE ENERGY PREDICTED BY IDOCK:   -8.97 KCAL/MOL
REMARK 923 INTER-LIGAND FREE ENERGY PREDICTED BY IDOCK:   -7.53 KCAL/MOL
REMARK 924 INTRA-LIGAND FREE ENERGY PREDICTED BY IDOCK:   -1.44 KCAL/MOL
REMARK 927      BINDING AFFINITY PREDICTED BY RF-SCORE:    0.00 PKD
ROOT
ATOM      1  N   GLY A   1      -8.439   7.166  72.826  1.00  0.00    -0.106 NA 
HETATM    2  C   UNL     1     -10.007   9.118  66.335  1.00  0.00    -0.358 C  
ATOM      3  H2  GLY A   1      -7.518   6.872  72.502  1.00  0.00     0.000 HD 
ATOM      4  H1  GLY A   1      -8.404   8.065  73.307  1.00  0.00     0.000 HD 
ATOM      5  CA  GLY A   1      -9.418   7.213  71.732  1.00  0.00    -0.151 C  
HETATM    6  C   UNL     1     -10.016  10.576  66.767  1.00  0.00    -0.252 C  
ENDROOT
BRANCH   5   7
ATOM      7  C   GLY A   1      -9.471   5.863  71.011  1.00  0.00    -0.165 C  
ATOM      8  H   GLY A   1      -8.756   4.062  71.301  1.00  0.00     0.000 HD 
ATOM      9  O   GLY A   1      -8.723   4.899  71.748  1.00  0.00    -0.124 OA 
ENDBRANCH   5   7
BRANCH   6  10
HETATM   10  C   UNL     1     -11.305  11.002  67.468  1.00  0.00    -0.332 C  
BRANCH  10  11
HETATM   11  C   UNL     1     -11.116  11.476  68.910  1.00  0.00    -0.288 C  
BRANCH  11  12
HETATM   12  C   UNL     1     -10.954  10.267  69.836  1.00  0.00    -0.358 C  
BRANCH  12  13
HETATM   13  C   UNL     1     -12.025  10.222  70.924  1.00  0.00    -0.473 C  
BRANCH  13  14
HETATM   14  C   UNL     1     -12.950  11.446  70.904  1.00  0.00    -0.210 C  
BRANCH  14  15
HETATM   15  C   UNL     1     -12.990  12.264  72.201  1.00  0.00    -0.291 C  
BRANCH  15  16
HETATM   16  C   UNL     1     -13.996  13.382  72.196  1.00  0.00    -0.531 C  
HETATM   17  C   UNL     1     -13.683  14.686  72.258  1.00  0.00    -0.565 C  
BRANCH  17  18
HETATM   18  C   UNL     1     -12.296  15.245  72.384  1.00  0.00    -0.458 C  
BRANCH  18  19
HETATM   19  C   UNL     1     -11.870  15.995  71.125  1.00  0.00    -0.465 C  
BRANCH  19  20
HETATM   20  C   UNL     1     -11.818  15.038  69.934  1.00  0.00    -0.362 C  
BRANCH  20  21
HETATM   21  C   UNL     1     -11.188  15.703  68.714  1.00  0.00    -0.332 C  
BRANCH  21  22
HETATM   22  C   UNL     1     -10.646  17.087  69.058  1.00  0.00    -0.314 C  
BRANCH  22  23
HETATM   23  C   UNL     1      -9.398  17.399  68.236  1.00  0.00    -0.278 C  
BRANCH  23  24
HETATM   24  C   UNL     1      -9.209  18.901  68.045  1.00  0.00    -0.346 C  
HETATM   25  C   UNL     1      -7.856  19.221  67.452  1.00  0.00    -0.255 C  
HETATM   26  O   UNL     1      -7.687  20.550  67.261  1.00  0.00    -0.316 OA 
HETATM   27  O   UNL     1      -6.999  18.408  67.163  1.00  0.00    -0.195 OA 
ENDBRANCH  23  24
ENDBRANCH  22  23
ENDBRANCH  21  22
ENDBRANCH  20  21
ENDBRANCH  19  20
ENDBRANCH  18  19
ENDBRANCH  17  18
ENDBRANCH  15  16
ENDBRANCH  14  15
ENDBRANCH  13  14
ENDBRANCH  12  13
ENDBRANCH  11  12
ENDBRANCH  10  11
ENDBRANCH   6  10
TORSDOF 15
ENDMDL
MODEL      266
REMARK 921   NORMALIZED FREE ENERGY PREDICTED BY IDOCK:   -3.74 KCAL/MOL
REMARK 922        TOTAL FREE ENERGY PREDICTED BY IDOCK:   -8.96 KCAL/MOL
REMARK 923 INTER-LIGAND FREE ENERGY PREDICTED BY IDOCK:   -7.12 KCAL/MOL
REMARK 924 INTRA-LIGAND FREE ENERGY PREDICTED BY IDOCK:   -1.84 KCAL/MOL
REMARK 927      BINDING AFFINITY PREDICTED BY RF-SCORE:    0.00 PKD
ROOT
ATOM      1  N   GLY A   1      -9.813   9.174  65.707  1.00  0.00    -0.444 NA 
HETATM    2  C   UNL     1      -7.278  14.456  69.459  1.00  0.00    -0.051 C  
ATOM      3  H2  GLY A   1     -10.100   8.715  66.571  1.00  0.00     0.000 HD 
ATOM      4  H1  GLY A   1     -10.599   9.619  65.233  1.00  0.00     0.000 HD 
ATOM      5  CA  GLY A   1      -8.739  10.149  65.934  1.00  0.00    -0.146 C  
HETATM    6  C   UNL     1      -8.364  15.372  68.917  1.00  0.00    -0.203 C  
ENDROOT
BRANCH   5   7
ATOM      7  C   GLY A   1      -7.559   9.481  66.646  1.00  0.00    -0.097 C  
ATOM      8  H   GLY A   1      -7.308   8.283  68.176  1.00  0.00     0.000 HD 
ATOM      9  O   GLY A   1      -8.040   8.697  67.735  1.00  0.00    -0.106 OA 
ENDBRANCH   5   7
BRANCH   6  10
HETATM   10  C   UNL     1      -8.074  15.908  67.516  1.00  0.00    -0.171 C  
BRANCH  10  11
HETATM   11  C   UNL     1      -8.470  17.370  67.300  1.00  0.00    -0.220 C  
BRANCH  11  12
HETATM   12  C   UNL     1      -9.467  17.471  66.143  1.00  0.00    -0.182 C  
BRANCH  12  13
HETATM   13  C   UNL     1     -10.567  16.414  66.230  1.00  0.00    -0.243 C  
BRANCH  13  14
HETATM   14  C   UNL     1     -10.728  15.610  64.933  1.00  0.00    -0.406 C  
BRANCH  14  15
HETATM   15  C   UNL     1     -10.250  14.154  64.997  1.00  0.00    -0.399 C  
BRANCH  15  16
HETATM   16  C   UNL     1     -11.350  13.151  65.214  1.00  0.00    -0.321 C  
HETATM   17  C   UNL     1     -11.819  12.784  66.417  1.00  0.00    -0.472 C  
BRANCH  17  18
HETATM   18  C   UNL     1     -11.305  13.274  67.739  1.00  0.00    -0.327 C  
BRANCH  18  19
HETATM   19  C   UNL     1     -11.726  12.358  68.886  1.00  0.00    -0.372 C  
BRANCH  19  20
HETATM   20  C   UNL     1     -10.605  11.371  69.209  1.00  0.00    -0.148 C  
BRANCH  20  21
HETATM   21  C   UNL     1     -11.057  10.332  70.231  1.00  0.00    -0.388 C  
BRANCH  21  22
HETATM   22  C   UNL     1     -12.466  10.631  70.736  1.00  0.00    -0.480 C  
BRANCH  22  23
HETATM   23  C   UNL     1     -12.789   9.791  71.969  1.00  0.00    -0.491 C  
BRANCH  23  24
HETATM   24  C   UNL     1     -11.940   8.525  72.027  1.00  0.00    -0.427 C  
HETATM   25  C   UNL     1     -12.768   7.288  71.764  1.00  0.00    -0.335 C  
HETATM   26  O   UNL     1     -12.020   6.160  71.795  1.00  0.00    -0.289 OA 
HETATM   27  O   UNL     1     -13.964   7.270  71.543  1.00  0.00    -0.404 OA 
ENDBRANCH  23  24
ENDBRANCH  22  23
ENDBRANCH  21  22
ENDBRANCH  20  21
ENDBRANCH  19  20
ENDBRANCH  18  19
ENDBRANCH  17  18
ENDBRANCH  15  16
ENDBRANCH  14  15
ENDBRANCH  13  14
ENDBRANCH  12  13
ENDBRANCH  11  12
ENDBRANCH  10  11
ENDBRANCH   6  10
TORSDOF 15
ENDMDL
MODEL      267
REMARK 921   NORMALIZED FREE ENERGY PREDICTED BY IDOCK:   -3.74 KCAL/MOL
REMARK 922        TOTAL FREE ENERGY PREDICTED BY IDOCK:   -8.96 KCAL/MOL
REMARK 923 INTER-LIGAND FREE ENERGY PREDICTED BY IDOCK:   -6.97 KCAL/MOL
REMARK 924 INTRA-LIGAND FREE ENERGY PREDICTED BY IDOCK:   -1.99 KCAL/MOL
REMARK 927      BINDING AFFINITY PREDICTED BY RF-SCORE:    0.00 PKD
ROOT
ATOM      1  N   GLY A   1     -11.045  11.338  63.911  1.00  0.00    -0.498 NA 
HETATM    2  C   UNL     1      -6.763  12.573  69.254  1.00  0.00    -0.060 C  
ATOM      3  H2  GLY A   1     -11.750  11.008  64.569  1.00  0.00     0.000 HD 
ATOM      4  H1  GLY A   1     -11.242  12.284  63.584  1.00  0.00     0.000 HD 
ATOM      5  CA  GLY A   1      -9.691  11.267  64.476  1.00  0.00    -0.253 C  
HETATM    6  C   UNL     1      -6.875  14.069  69.008  1.00  0.00    -0.111 C  
ENDROOT
BRANCH   5   7
ATOM      7  C   GLY A   1      -9.395   9.847  64.966  1.00  0.00    -0.264 C  
ATOM      8  H   GLY A   1      -9.509   8.870  66.660  1.00  0.00     0.000 HD 
ATOM      9  O   GLY A   1      -9.693   9.750  66.356  1.00  0.00    -0.186 OA 
ENDBRANCH   5   7
BRANCH   6  10
HETATM   10  C   UNL     1      -5.992  14.572  67.866  1.00  0.00    -0.150 C  
BRANCH  10  11
HETATM   11  C   UNL     1      -5.904  16.096  67.756  1.00  0.00    -0.157 C  
BRANCH  11  12
HETATM   12  C   UNL     1      -6.948  16.604  66.757  1.00  0.00    -0.264 C  
BRANCH  12  13
HETATM   13  C   UNL     1      -7.105  18.123  66.803  1.00  0.00    -0.235 C  
BRANCH  13  14
HETATM   14  C   UNL     1      -7.109  18.681  68.233  1.00  0.00    -0.271 C  
BRANCH  14  15
HETATM   15  C   UNL     1      -8.481  19.111  68.767  1.00  0.00    -0.376 C  
BRANCH  15  16
HETATM   16  C   UNL     1      -9.362  19.776  67.745  1.00  0.00    -0.443 C  
HETATM   17  C   UNL     1     -10.315  19.148  67.039  1.00  0.00    -0.503 C  
BRANCH  17  18
HETATM   18  C   UNL     1     -10.636  17.684  67.117  1.00  0.00    -0.277 C  
BRANCH  18  19
HETATM   19  C   UNL     1     -10.594  17.020  65.743  1.00  0.00    -0.218 C  
BRANCH  19  20
HETATM   20  C   UNL     1     -10.300  15.527  65.888  1.00  0.00    -0.365 C  
BRANCH  20  21
HETATM   21  C   UNL     1     -11.339  14.683  65.155  1.00  0.00    -0.375 C  
BRANCH  21  22
HETATM   22  C   UNL     1     -12.265  13.972  66.138  1.00  0.00    -0.494 C  
BRANCH  22  23
HETATM   23  C   UNL     1     -11.503  13.548  67.391  1.00  0.00    -0.366 C  
BRANCH  23  24
HETATM   24  C   UNL     1     -12.151  14.097  68.658  1.00  0.00    -0.320 C  
HETATM   25  C   UNL     1     -11.163  14.875  69.496  1.00  0.00    -0.277 C  
HETATM   26  O   UNL     1     -11.734  15.382  70.614  1.00  0.00    -0.280 OA 
HETATM   27  O   UNL     1      -9.990  15.050  69.228  1.00  0.00    -0.225 OA 
ENDBRANCH  23  24
ENDBRANCH  22  23
ENDBRANCH  21  22
ENDBRANCH  20  21
ENDBRANCH  19  20
ENDBRANCH  18  19
ENDBRANCH  17  18
ENDBRANCH  15  16
ENDBRANCH  14  15
ENDBRANCH  13  14
ENDBRANCH  12  13
ENDBRANCH  11  12
ENDBRANCH  10  11
ENDBRANCH   6  10
TORSDOF 15
ENDMDL
MODEL      268
REMARK 921   NORMALIZED FREE ENERGY PREDICTED BY IDOCK:   -3.74 KCAL/MOL
REMARK 922        TOTAL FREE ENERGY PREDICTED BY IDOCK:   -8.96 KCAL/MOL
REMARK 923 INTER-LIGAND FREE ENERGY PREDICTED BY IDOCK:   -7.61 KCAL/MOL
REMARK 924 INTRA-LIGAND FREE ENERGY PREDICTED BY IDOCK:   -1.34 KCAL/MOL
REMARK 927      BINDING AFFINITY PREDICTED BY RF-SCORE:    0.00 PKD
ROOT
ATOM      1  N   GLY A   1     -10.317  13.550  64.254  1.00  0.00    -0.671 NA 
HETATM    2  C   UNL     1     -11.495  16.413  70.485  1.00  0.00    -0.163 C  
ATOM      3  H2  GLY A   1      -9.355  13.888  64.294  1.00  0.00     0.000 HD 
ATOM      4  H1  GLY A   1     -10.380  12.556  64.471  1.00  0.00     0.000 HD 
ATOM      5  CA  GLY A   1     -11.207  14.320  65.133  1.00  0.00    -0.345 C  
HETATM    6  C   UNL     1     -11.636  15.031  71.102  1.00  0.00    -0.377 C  
ENDROOT
BRANCH   5   7
ATOM      7  C   GLY A   1     -11.112  15.813  64.807  1.00  0.00    -0.400 C  
ATOM      8  H   GLY A   1     -12.054  17.083  63.650  1.00  0.00     0.000 HD 
ATOM      9  O   GLY A   1     -12.113  16.157  63.852  1.00  0.00    -0.956 OA 
ENDBRANCH   5   7
BRANCH   6  10
HETATM   10  C   UNL     1     -13.002  14.388  70.866  1.00  0.00    -0.413 C  
BRANCH  10  11
HETATM   11  C   UNL     1     -13.211  13.057  71.592  1.00  0.00    -0.426 C  
BRANCH  11  12
HETATM   12  C   UNL     1     -12.454  11.945  70.860  1.00  0.00    -0.397 C  
BRANCH  12  13
HETATM   13  C   UNL     1     -12.619  10.587  71.540  1.00  0.00    -0.529 C  
BRANCH  13  14
HETATM   14  C   UNL     1     -11.454   9.629  71.253  1.00  0.00    -0.463 C  
BRANCH  14  15
HETATM   15  C   UNL     1     -11.330   8.437  72.210  1.00  0.00    -0.448 C  
BRANCH  15  16
HETATM   16  C   UNL     1     -12.300   7.321  71.936  1.00  0.00    -0.346 C  
HETATM   17  C   UNL     1     -12.125   6.049  72.326  1.00  0.00    -0.196 C  
BRANCH  17  18
HETATM   18  C   UNL     1     -10.928   5.518  73.060  1.00  0.00    -0.336 C  
BRANCH  18  19
HETATM   19  C   UNL     1     -10.161   4.494  72.227  1.00  0.00    -0.253 C  
BRANCH  19  20
HETATM   20  C   UNL     1      -8.673   4.540  72.575  1.00  0.00    -0.119 C  
BRANCH  20  21
HETATM   21  C   UNL     1      -7.807   4.475  71.322  1.00  0.00    -0.085 C  
BRANCH  21  22
HETATM   22  C   UNL     1      -7.429   5.873  70.838  1.00  0.00    -0.091 C  
BRANCH  22  23
HETATM   23  C   UNL     1      -8.237   6.254  69.600  1.00  0.00    -0.124 C  
BRANCH  23  24
HETATM   24  C   UNL     1      -8.871   7.633  69.743  1.00  0.00    -0.140 C  
HETATM   25  C   UNL     1      -8.070   8.692  69.021  1.00  0.00    -0.121 C  
HETATM   26  O   UNL     1      -8.636   9.917  69.127  1.00  0.00    -0.135 OA 
HETATM   27  O   UNL     1      -7.039   8.502  68.403  1.00  0.00    -0.080 OA 
ENDBRANCH  23  24
ENDBRANCH  22  23
ENDBRANCH  21  22
ENDBRANCH  20  21
ENDBRANCH  19  20
ENDBRANCH  18  19
ENDBRANCH  17  18
ENDBRANCH  15  16
ENDBRANCH  14  15
ENDBRANCH  13  14
ENDBRANCH  12  13
ENDBRANCH  11  12
ENDBRANCH  10  11
ENDBRANCH   6  10
TORSDOF 15
ENDMDL
MODEL      269
REMARK 921   NORMALIZED FREE ENERGY PREDICTED BY IDOCK:   -3.73 KCAL/MOL
REMARK 922        TOTAL FREE ENERGY PREDICTED BY IDOCK:   -8.94 KCAL/MOL
REMARK 923 INTER-LIGAND FREE ENERGY PREDICTED BY IDOCK:   -6.95 KCAL/MOL
REMARK 924 INTRA-LIGAND FREE ENERGY PREDICTED BY IDOCK:   -1.99 KCAL/MOL
REMARK 927      BINDING AFFINITY PREDICTED BY RF-SCORE:    0.00 PKD
ROOT
ATOM      1  N   GLY A   1     -10.985  19.364  66.825  1.00  0.00    -0.368 NA 
HETATM    2  C   UNL     1      -6.635  13.999  67.663  1.00  0.00    -0.175 C  
ATOM      3  H2  GLY A   1     -10.414  19.689  66.045  1.00  0.00     0.000 HD 
ATOM      4  H1  GLY A   1     -11.831  18.893  66.507  1.00  0.00     0.000 HD 
ATOM      5  CA  GLY A   1     -10.229  18.492  67.734  1.00  0.00    -0.382 C  
HETATM    6  C   UNL     1      -7.721  13.037  67.208  1.00  0.00    -0.112 C  
ENDROOT
BRANCH   5   7
ATOM      7  C   GLY A   1      -8.958  19.200  68.212  1.00  0.00    -0.336 C  
ATOM      8  H   GLY A   1      -7.288  18.688  69.101  1.00  0.00     0.000 HD 
ATOM      9  O   GLY A   1      -8.076  18.249  68.805  1.00  0.00    -0.304 OA 
ENDBRANCH   5   7
BRANCH   6  10
HETATM   10  C   UNL     1      -8.739  12.699  68.297  1.00  0.00    -0.169 C  
BRANCH  10  11
HETATM   11  C   UNL     1     -10.200  12.792  67.851  1.00  0.00    -0.229 C  
BRANCH  11  12
HETATM   12  C   UNL     1     -10.784  14.143  68.275  1.00  0.00    -0.256 C  
BRANCH  12  13
HETATM   13  C   UNL     1     -11.582  14.807  67.154  1.00  0.00    -0.373 C  
BRANCH  13  14
HETATM   14  C   UNL     1     -12.095  13.804  66.111  1.00  0.00    -0.477 C  
BRANCH  14  15
HETATM   15  C   UNL     1     -11.655  14.073  64.666  1.00  0.00    -0.400 C  
BRANCH  15  16
HETATM   16  C   UNL     1     -12.298  13.173  63.647  1.00  0.00    -0.482 C  
HETATM   17  C   UNL     1     -11.912  11.913  63.393  1.00  0.00    -0.528 C  
BRANCH  17  18
HETATM   18  C   UNL     1     -10.759  11.207  64.044  1.00  0.00    -0.409 C  
BRANCH  18  19
HETATM   19  C   UNL     1      -9.598  11.001  63.073  1.00  0.00    -0.386 C  
BRANCH  19  20
HETATM   20  C   UNL     1      -8.398  10.402  63.807  1.00  0.00    -0.149 C  
BRANCH  20  21
HETATM   21  C   UNL     1      -8.842   9.431  64.896  1.00  0.00    -0.240 C  
BRANCH  21  22
HETATM   22  C   UNL     1      -8.136   9.724  66.217  1.00  0.00    -0.113 C  
BRANCH  22  23
HETATM   23  C   UNL     1      -8.723   8.878  67.345  1.00  0.00    -0.128 C  
BRANCH  23  24
HETATM   24  C   UNL     1     -10.092   8.315  66.973  1.00  0.00    -0.353 C  
HETATM   25  C   UNL     1     -10.192   6.841  67.292  1.00  0.00    -0.210 C  
HETATM   26  O   UNL     1     -11.409   6.337  66.983  1.00  0.00    -0.263 OA 
HETATM   27  O   UNL     1      -9.308   6.159  67.774  1.00  0.00    -0.112 OA 
ENDBRANCH  23  24
ENDBRANCH  22  23
ENDBRANCH  21  22
ENDBRANCH  20  21
ENDBRANCH  19  20
ENDBRANCH  18  19
ENDBRANCH  17  18
ENDBRANCH  15  16
ENDBRANCH  14  15
ENDBRANCH  13  14
ENDBRANCH  12  13
ENDBRANCH  11  12
ENDBRANCH  10  11
ENDBRANCH   6  10
TORSDOF 15
ENDMDL
MODEL      270
REMARK 921   NORMALIZED FREE ENERGY PREDICTED BY IDOCK:   -3.73 KCAL/MOL
REMARK 922        TOTAL FREE ENERGY PREDICTED BY IDOCK:   -8.94 KCAL/MOL
REMARK 923 INTER-LIGAND FREE ENERGY PREDICTED BY IDOCK:   -7.04 KCAL/MOL
REMARK 924 INTRA-LIGAND FREE ENERGY PREDICTED BY IDOCK:   -1.90 KCAL/MOL
REMARK 927      BINDING AFFINITY PREDICTED BY RF-SCORE:    0.00 PKD
ROOT
ATOM      1  N   GLY A   1      -9.852   3.678  66.936  1.00  0.00    -0.363 NA 
HETATM    2  C   UNL     1      -8.359   8.945  62.641  1.00  0.00    -0.203 C  
ATOM      3  H2  GLY A   1      -8.939   3.271  66.733  1.00  0.00     0.000 HD 
ATOM      4  H1  GLY A   1      -9.866   4.150  67.840  1.00  0.00     0.000 HD 
ATOM      5  CA  GLY A   1     -10.291   4.596  65.877  1.00  0.00    -0.283 C  
HETATM    6  C   UNL     1      -8.303   9.901  63.821  1.00  0.00    -0.168 C  
ENDROOT
BRANCH   5   7
ATOM      7  C   GLY A   1     -10.269   3.888  64.519  1.00  0.00    -0.223 C  
ATOM      8  H   GLY A   1      -8.965   2.888  63.452  1.00  0.00     0.000 HD 
ATOM      9  O   GLY A   1      -8.978   3.328  64.294  1.00  0.00    -0.103 OA 
ENDBRANCH   5   7
BRANCH   6  10
HETATM   10  C   UNL     1      -9.678  10.363  64.304  1.00  0.00    -0.389 C  
BRANCH  10  11
HETATM   11  C   UNL     1     -10.277  11.520  63.502  1.00  0.00    -0.462 C  
BRANCH  11  12
HETATM   12  C   UNL     1     -11.597  11.962  64.139  1.00  0.00    -0.434 C  
BRANCH  12  13
HETATM   13  C   UNL     1     -12.249  13.118  63.381  1.00  0.00    -0.521 C  
BRANCH  13  14
HETATM   14  C   UNL     1     -12.343  14.403  64.215  1.00  0.00    -0.402 C  
BRANCH  14  15
HETATM   15  C   UNL     1     -11.046  14.831  64.913  1.00  0.00    -0.416 C  
BRANCH  15  16
HETATM   16  C   UNL     1     -11.139  14.880  66.414  1.00  0.00    -0.342 C  
HETATM   17  C   UNL     1     -10.368  14.164  67.247  1.00  0.00    -0.267 C  
BRANCH  17  18
HETATM   18  C   UNL     1      -9.321  13.173  66.831  1.00  0.00    -0.246 C  
BRANCH  18  19
HETATM   19  C   UNL     1      -8.796  12.369  68.018  1.00  0.00    -0.187 C  
BRANCH  19  20
HETATM   20  C   UNL     1      -9.016  10.875  67.781  1.00  0.00    -0.139 C  
BRANCH  20  21
HETATM   21  C   UNL     1     -10.455  10.470  68.084  1.00  0.00    -0.217 C  
BRANCH  21  22
HETATM   22  C   UNL     1     -10.877  10.932  69.476  1.00  0.00    -0.286 C  
BRANCH  22  23
HETATM   23  C   UNL     1     -11.759   9.884  70.150  1.00  0.00    -0.239 C  
BRANCH  23  24
HETATM   24  C   UNL     1     -11.280   9.569  71.564  1.00  0.00    -0.437 C  
HETATM   25  C   UNL     1     -10.108   8.614  71.553  1.00  0.00    -0.274 C  
HETATM   26  O   UNL     1      -9.664   8.342  72.803  1.00  0.00    -0.273 OA 
HETATM   27  O   UNL     1      -9.596   8.131  70.561  1.00  0.00    -0.169 OA 
ENDBRANCH  23  24
ENDBRANCH  22  23
ENDBRANCH  21  22
ENDBRANCH  20  21
ENDBRANCH  19  20
ENDBRANCH  18  19
ENDBRANCH  17  18
ENDBRANCH  15  16
ENDBRANCH  14  15
ENDBRANCH  13  14
ENDBRANCH  12  13
ENDBRANCH  11  12
ENDBRANCH  10  11
ENDBRANCH   6  10
TORSDOF 15
ENDMDL
MODEL      271
REMARK 921   NORMALIZED FREE ENERGY PREDICTED BY IDOCK:   -3.71 KCAL/MOL
REMARK 922        TOTAL FREE ENERGY PREDICTED BY IDOCK:   -8.91 KCAL/MOL
REMARK 923 INTER-LIGAND FREE ENERGY PREDICTED BY IDOCK:   -7.55 KCAL/MOL
REMARK 924 INTRA-LIGAND FREE ENERGY PREDICTED BY IDOCK:   -1.36 KCAL/MOL
REMARK 927      BINDING AFFINITY PREDICTED BY RF-SCORE:    0.00 PKD
ROOT
ATOM      1  N   GLY A   1      -9.846  20.484  65.925  1.00  0.00    -0.591 NA 
HETATM    2  C   UNL     1      -8.679  14.104  68.444  1.00  0.00    -0.178 C  
ATOM      3  H2  GLY A   1      -8.850  20.687  66.012  1.00  0.00     0.000 HD 
ATOM      4  H1  GLY A   1     -10.110  20.278  64.962  1.00  0.00     0.000 HD 
ATOM      5  CA  GLY A   1     -10.263  19.389  66.811  1.00  0.00    -0.420 C  
HETATM    6  C   UNL     1      -9.018  13.500  67.090  1.00  0.00    -0.230 C  
ENDROOT
BRANCH   5   7
ATOM      7  C   GLY A   1      -9.867  19.699  68.258  1.00  0.00    -0.419 C  
ATOM      8  H   GLY A   1      -8.977  18.755  69.727  1.00  0.00     0.000 HD 
ATOM      9  O   GLY A   1      -9.223  18.563  68.829  1.00  0.00    -0.319 OA 
ENDBRANCH   5   7
BRANCH   6  10
HETATM   10  C   UNL     1     -10.519  13.387  66.825  1.00  0.00    -0.275 C  
BRANCH  10  11
HETATM   11  C   UNL     1     -11.074  11.963  66.919  1.00  0.00    -0.356 C  
BRANCH  11  12
HETATM   12  C   UNL     1     -10.965  11.275  65.555  1.00  0.00    -0.199 C  
BRANCH  12  13
HETATM   13  C   UNL     1      -9.898  10.182  65.540  1.00  0.00    -0.365 C  
BRANCH  13  14
HETATM   14  C   UNL     1      -9.949   9.280  66.781  1.00  0.00    -0.312 C  
BRANCH  14  15
HETATM   15  C   UNL     1      -9.974   7.773  66.499  1.00  0.00    -0.244 C  
BRANCH  15  16
HETATM   16  C   UNL     1     -10.901   6.992  67.390  1.00  0.00    -0.371 C  
HETATM   17  C   UNL     1     -10.502   6.205  68.401  1.00  0.00    -0.280 C  
BRANCH  17  18
HETATM   18  C   UNL     1      -9.076   5.938  68.787  1.00  0.00    -0.116 C  
BRANCH  18  19
HETATM   19  C   UNL     1      -8.741   6.519  70.158  1.00  0.00    -0.140 C  
BRANCH  19  20
HETATM   20  C   UNL     1     -10.019   6.726  70.969  1.00  0.00    -0.196 C  
BRANCH  20  21
HETATM   21  C   UNL     1      -9.706   7.080  72.420  1.00  0.00    -0.171 C  
BRANCH  21  22
HETATM   22  C   UNL     1     -10.926   7.672  73.119  1.00  0.00    -0.411 C  
BRANCH  22  23
HETATM   23  C   UNL     1     -12.002   8.051  72.104  1.00  0.00    -0.399 C  
BRANCH  23  24
HETATM   24  C   UNL     1     -12.821   9.250  72.572  1.00  0.00    -0.351 C  
HETATM   25  C   UNL     1     -12.601  10.455  71.686  1.00  0.00    -0.417 C  
HETATM   26  O   UNL     1     -13.338  11.518  72.083  1.00  0.00    -0.477 OA 
HETATM   27  O   UNL     1     -11.861  10.499  70.722  1.00  0.00    -0.316 OA 
ENDBRANCH  23  24
ENDBRANCH  22  23
ENDBRANCH  21  22
ENDBRANCH  20  21
ENDBRANCH  19  20
ENDBRANCH  18  19
ENDBRANCH  17  18
ENDBRANCH  15  16
ENDBRANCH  14  15
ENDBRANCH  13  14
ENDBRANCH  12  13
ENDBRANCH  11  12
ENDBRANCH  10  11
ENDBRANCH   6  10
TORSDOF 15
ENDMDL
MODEL      272
REMARK 921   NORMALIZED FREE ENERGY PREDICTED BY IDOCK:   -3.70 KCAL/MOL
REMARK 922        TOTAL FREE ENERGY PREDICTED BY IDOCK:   -8.89 KCAL/MOL
REMARK 923 INTER-LIGAND FREE ENERGY PREDICTED BY IDOCK:   -7.00 KCAL/MOL
REMARK 924 INTRA-LIGAND FREE ENERGY PREDICTED BY IDOCK:   -1.89 KCAL/MOL
REMARK 927      BINDING AFFINITY PREDICTED BY RF-SCORE:    0.00 PKD
ROOT
ATOM      1  N   GLY A   1     -11.061  13.518  63.789  1.00  0.00    -0.517 NA 
HETATM    2  C   UNL     1     -10.888  19.618  67.131  1.00  0.00    -0.526 C  
ATOM      3  H2  GLY A   1     -11.883  13.837  63.276  1.00  0.00     0.000 HD 
ATOM      4  H1  GLY A   1     -10.215  13.572  63.223  1.00  0.00     0.000 HD 
ATOM      5  CA  GLY A   1     -10.879  14.255  65.047  1.00  0.00    -0.403 C  
HETATM    6  C   UNL     1      -9.597  19.983  66.415  1.00  0.00    -0.536 C  
ENDROOT
BRANCH   5   7
ATOM      7  C   GLY A   1     -12.150  14.175  65.897  1.00  0.00    -0.426 C  
ATOM      8  H   GLY A   1     -14.029  13.698  65.611  1.00  0.00     0.000 HD 
ATOM      9  O   GLY A   1     -13.241  13.748  65.084  1.00  0.00    -0.757 OA 
ENDBRANCH   5   7
BRANCH   6  10
HETATM   10  C   UNL     1      -8.353  19.336  67.024  1.00  0.00    -0.300 C  
BRANCH  10  11
HETATM   11  C   UNL     1      -7.363  18.778  65.999  1.00  0.00    -0.283 C  
BRANCH  11  12
HETATM   12  C   UNL     1      -7.162  17.279  66.237  1.00  0.00    -0.335 C  
BRANCH  12  13
HETATM   13  C   UNL     1      -8.486  16.517  66.284  1.00  0.00    -0.363 C  
BRANCH  13  14
HETATM   14  C   UNL     1      -8.709  15.789  67.617  1.00  0.00    -0.178 C  
BRANCH  14  15
HETATM   15  C   UNL     1      -8.146  14.364  67.691  1.00  0.00    -0.188 C  
BRANCH  15  16
HETATM   16  C   UNL     1      -7.386  14.065  68.954  1.00  0.00    -0.113 C  
HETATM   17  C   UNL     1      -6.360  13.204  69.039  1.00  0.00    -0.099 C  
BRANCH  17  18
HETATM   18  C   UNL     1      -5.827  12.370  67.912  1.00  0.00    -0.086 C  
BRANCH  18  19
HETATM   19  C   UNL     1      -6.051  10.879  68.153  1.00  0.00    -0.049 C  
BRANCH  19  20
HETATM   20  C   UNL     1      -7.314  10.412  67.429  1.00  0.00    -0.093 C  
BRANCH  20  21
HETATM   21  C   UNL     1      -8.542  10.520  68.328  1.00  0.00    -0.127 C  
BRANCH  21  22
HETATM   22  C   UNL     1      -9.829  10.340  67.528  1.00  0.00    -0.204 C  
BRANCH  22  23
HETATM   23  C   UNL     1      -9.538   9.710  66.168  1.00  0.00    -0.295 C  
BRANCH  23  24
HETATM   24  C   UNL     1     -10.085  10.559  65.025  1.00  0.00    -0.390 C  
HETATM   25  C   UNL     1      -9.329  10.314  63.739  1.00  0.00    -0.295 C  
HETATM   26  O   UNL     1      -9.820  11.049  62.714  1.00  0.00    -0.286 OA 
HETATM   27  O   UNL     1      -8.391   9.551  63.603  1.00  0.00    -0.151 OA 
ENDBRANCH  23  24
ENDBRANCH  22  23
ENDBRANCH  21  22
ENDBRANCH  20  21
ENDBRANCH  19  20
ENDBRANCH  18  19
ENDBRANCH  17  18
ENDBRANCH  15  16
ENDBRANCH  14  15
ENDBRANCH  13  14
ENDBRANCH  12  13
ENDBRANCH  11  12
ENDBRANCH  10  11
ENDBRANCH   6  10
TORSDOF 15
ENDMDL
MODEL      273
REMARK 921   NORMALIZED FREE ENERGY PREDICTED BY IDOCK:   -3.70 KCAL/MOL
REMARK 922        TOTAL FREE ENERGY PREDICTED BY IDOCK:   -8.89 KCAL/MOL
REMARK 923 INTER-LIGAND FREE ENERGY PREDICTED BY IDOCK:   -7.19 KCAL/MOL
REMARK 924 INTRA-LIGAND FREE ENERGY PREDICTED BY IDOCK:   -1.70 KCAL/MOL
REMARK 927      BINDING AFFINITY PREDICTED BY RF-SCORE:    0.00 PKD
ROOT
ATOM      1  N   GLY A   1      -9.912  11.445  69.425  1.00  0.00    -0.413 NA 
HETATM    2  C   UNL     1      -7.710   8.420  63.559  1.00  0.00    -0.144 C  
ATOM      3  H2  GLY A   1      -8.983  11.315  69.826  1.00  0.00     0.000 HD 
ATOM      4  H1  GLY A   1     -10.062  12.405  69.116  1.00  0.00     0.000 HD 
ATOM      5  CA  GLY A   1     -10.170  10.509  68.323  1.00  0.00    -0.163 C  
HETATM    6  C   UNL     1      -7.829   9.744  62.822  1.00  0.00    -0.128 C  
ENDROOT
BRANCH   5   7
ATOM      7  C   GLY A   1      -9.944   9.068  68.788  1.00  0.00    -0.182 C  
ATOM      8  H   GLY A   1      -8.645   8.116  69.905  1.00  0.00     0.000 HD 
ATOM      9  O   GLY A   1      -8.786   9.010  69.616  1.00  0.00    -0.132 OA 
ENDBRANCH   5   7
BRANCH   6  10
HETATM   10  C   UNL     1      -9.257  10.086  62.399  1.00  0.00    -0.319 C  
BRANCH  10  11
HETATM   11  C   UNL     1      -9.756  11.447  62.891  1.00  0.00    -0.344 C  
BRANCH  11  12
HETATM   12  C   UNL     1     -10.815  11.247  63.978  1.00  0.00    -0.414 C  
BRANCH  12  13
HETATM   13  C   UNL     1     -12.165  11.849  63.591  1.00  0.00    -0.586 C  
BRANCH  13  14
HETATM   14  C   UNL     1     -12.623  12.957  64.551  1.00  0.00    -0.420 C  
BRANCH  14  15
HETATM   15  C   UNL     1     -11.923  12.977  65.915  1.00  0.00    -0.491 C  
BRANCH  15  16
HETATM   16  C   UNL     1     -11.812  14.344  66.532  1.00  0.00    -0.406 C  
HETATM   17  C   UNL     1     -10.658  15.005  66.716  1.00  0.00    -0.301 C  
BRANCH  17  18
HETATM   18  C   UNL     1      -9.292  14.483  66.379  1.00  0.00    -0.300 C  
BRANCH  18  19
HETATM   19  C   UNL     1      -8.347  14.552  67.576  1.00  0.00    -0.201 C  
BRANCH  19  20
HETATM   20  C   UNL     1      -8.903  15.507  68.632  1.00  0.00    -0.193 C  
BRANCH  20  21
HETATM   21  C   UNL     1      -7.949  16.670  68.887  1.00  0.00    -0.236 C  
BRANCH  21  22
HETATM   22  C   UNL     1      -7.144  17.008  67.636  1.00  0.00    -0.163 C  
BRANCH  22  23
HETATM   23  C   UNL     1      -7.558  18.366  67.075  1.00  0.00    -0.233 C  
BRANCH  23  24
HETATM   24  C   UNL     1      -8.979  18.339  66.521  1.00  0.00    -0.285 C  
HETATM   25  C   UNL     1      -9.702  19.641  66.779  1.00  0.00    -0.378 C  
HETATM   26  O   UNL     1     -10.958  19.632  66.275  1.00  0.00    -0.372 OA 
HETATM   27  O   UNL     1      -9.241  20.604  67.362  1.00  0.00    -0.382 OA 
ENDBRANCH  23  24
ENDBRANCH  22  23
ENDBRANCH  21  22
ENDBRANCH  20  21
ENDBRANCH  19  20
ENDBRANCH  18  19
ENDBRANCH  17  18
ENDBRANCH  15  16
ENDBRANCH  14  15
ENDBRANCH  13  14
ENDBRANCH  12  13
ENDBRANCH  11  12
ENDBRANCH  10  11
ENDBRANCH   6  10
TORSDOF 15
ENDMDL
MODEL      274
REMARK 921   NORMALIZED FREE ENERGY PREDICTED BY IDOCK:   -3.69 KCAL/MOL
REMARK 922        TOTAL FREE ENERGY PREDICTED BY IDOCK:   -8.87 KCAL/MOL
REMARK 923 INTER-LIGAND FREE ENERGY PREDICTED BY IDOCK:   -7.10 KCAL/MOL
REMARK 924 INTRA-LIGAND FREE ENERGY PREDICTED BY IDOCK:   -1.77 KCAL/MOL
REMARK 927      BINDING AFFINITY PREDICTED BY RF-SCORE:    0.00 PKD
ROOT
ATOM      1  N   GLY A   1      -6.216   2.341  66.071  1.00  0.00    -0.023 NA 
HETATM    2  C   UNL     1      -8.416   8.315  68.877  1.00  0.00    -0.128 C  
ATOM      3  H2  GLY A   1      -5.878   2.861  65.261  1.00  0.00     0.000 HD 
ATOM      4  H1  GLY A   1      -5.457   2.086  66.703  1.00  0.00     0.000 HD 
ATOM      5  CA  GLY A   1      -7.258   3.076  66.799  1.00  0.00    -0.058 C  
HETATM    6  C   UNL     1      -7.356   8.205  69.962  1.00  0.00    -0.061 C  
ENDROOT
BRANCH   5   7
ATOM      7  C   GLY A   1      -8.397   3.459  65.850  1.00  0.00    -0.103 C  
ATOM      8  H   GLY A   1      -8.668   4.737  64.389  1.00  0.00     0.000 HD 
ATOM      9  O   GLY A   1      -7.962   4.500  64.978  1.00  0.00    -0.094 OA 
ENDBRANCH   5   7
BRANCH   6  10
HETATM   10  C   UNL     1      -7.732   7.250  71.094  1.00  0.00    -0.092 C  
BRANCH  10  11
HETATM   11  C   UNL     1      -8.126   5.845  70.635  1.00  0.00    -0.118 C  
BRANCH  11  12
HETATM   12  C   UNL     1      -9.542   5.520  71.119  1.00  0.00    -0.207 C  
BRANCH  12  13
HETATM   13  C   UNL     1     -10.562   5.538  69.981  1.00  0.00    -0.384 C  
BRANCH  13  14
HETATM   14  C   UNL     1     -11.536   6.721  70.070  1.00  0.00    -0.390 C  
BRANCH  14  15
HETATM   15  C   UNL     1     -11.502   7.506  71.387  1.00  0.00    -0.291 C  
BRANCH  15  16
HETATM   16  C   UNL     1     -12.698   8.390  71.611  1.00  0.00    -0.358 C  
HETATM   17  C   UNL     1     -12.759   9.687  71.271  1.00  0.00    -0.443 C  
BRANCH  17  18
HETATM   18  C   UNL     1     -11.644  10.480  70.654  1.00  0.00    -0.445 C  
BRANCH  18  19
HETATM   19  C   UNL     1     -12.021  11.010  69.273  1.00  0.00    -0.410 C  
BRANCH  19  20
HETATM   20  C   UNL     1     -11.137  10.370  68.204  1.00  0.00    -0.344 C  
BRANCH  20  21
HETATM   21  C   UNL     1     -11.149  11.182  66.913  1.00  0.00    -0.313 C  
BRANCH  21  22
HETATM   22  C   UNL     1     -10.681  12.613  67.157  1.00  0.00    -0.264 C  
BRANCH  22  23
HETATM   23  C   UNL     1     -11.782  13.611  66.804  1.00  0.00    -0.426 C  
BRANCH  23  24
HETATM   24  C   UNL     1     -12.438  13.278  65.468  1.00  0.00    -0.531 C  
HETATM   25  C   UNL     1     -12.174  14.350  64.435  1.00  0.00    -0.458 C  
HETATM   26  O   UNL     1     -12.737  14.054  63.241  1.00  0.00    -0.750 OA 
HETATM   27  O   UNL     1     -11.533  15.368  64.619  1.00  0.00    -0.408 OA 
ENDBRANCH  23  24
ENDBRANCH  22  23
ENDBRANCH  21  22
ENDBRANCH  20  21
ENDBRANCH  19  20
ENDBRANCH  18  19
ENDBRANCH  17  18
ENDBRANCH  15  16
ENDBRANCH  14  15
ENDBRANCH  13  14
ENDBRANCH  12  13
ENDBRANCH  11  12
ENDBRANCH  10  11
ENDBRANCH   6  10
TORSDOF 15
ENDMDL
MODEL      275
REMARK 921   NORMALIZED FREE ENERGY PREDICTED BY IDOCK:   -3.68 KCAL/MOL
REMARK 922        TOTAL FREE ENERGY PREDICTED BY IDOCK:   -8.86 KCAL/MOL
REMARK 923 INTER-LIGAND FREE ENERGY PREDICTED BY IDOCK:   -6.80 KCAL/MOL
REMARK 924 INTRA-LIGAND FREE ENERGY PREDICTED BY IDOCK:   -2.06 KCAL/MOL
REMARK 927      BINDING AFFINITY PREDICTED BY RF-SCORE:    0.00 PKD
ROOT
ATOM      1  N   GLY A   1      -6.509   5.355  72.431  1.00  0.00    -0.050 NA 
HETATM    2  C   UNL     1     -10.690  10.274  69.837  1.00  0.00    -0.344 C  
ATOM      3  H2  GLY A   1      -5.734   6.017  72.403  1.00  0.00     0.000 HD 
ATOM      4  H1  GLY A   1      -6.882   5.246  73.374  1.00  0.00     0.000 HD 
ATOM      5  CA  GLY A   1      -7.582   5.726  71.499  1.00  0.00    -0.099 C  
HETATM    6  C   UNL     1     -11.443  10.340  71.156  1.00  0.00    -0.319 C  
ENDROOT
BRANCH   5   7
ATOM      7  C   GLY A   1      -7.020   5.890  70.084  1.00  0.00    -0.069 C  
ATOM      8  H   GLY A   1      -6.957   7.304  68.729  1.00  0.00     0.000 HD 
ATOM      9  O   GLY A   1      -7.305   7.202  69.607  1.00  0.00    -0.080 OA 
ENDBRANCH   5   7
BRANCH   6  10
HETATM   10  C   UNL     1     -12.467   9.220  71.335  1.00  0.00    -0.418 C  
BRANCH  10  11
HETATM   11  C   UNL     1     -12.125   8.219  72.442  1.00  0.00    -0.430 C  
BRANCH  11  12
HETATM   12  C   UNL     1     -11.348   7.040  71.851  1.00  0.00    -0.291 C  
BRANCH  12  13
HETATM   13  C   UNL     1     -11.779   6.720  70.421  1.00  0.00    -0.418 C  
BRANCH  13  14
HETATM   14  C   UNL     1     -10.595   6.601  69.451  1.00  0.00    -0.279 C  
BRANCH  14  15
HETATM   15  C   UNL     1     -10.893   6.985  67.997  1.00  0.00    -0.229 C  
BRANCH  15  16
HETATM   16  C   UNL     1      -9.669   7.128  67.133  1.00  0.00    -0.212 C  
HETATM   17  C   UNL     1      -9.389   8.205  66.383  1.00  0.00    -0.269 C  
BRANCH  17  18
HETATM   18  C   UNL     1     -10.256   9.422  66.247  1.00  0.00    -0.284 C  
BRANCH  18  19
HETATM   19  C   UNL     1      -9.545  10.545  65.496  1.00  0.00    -0.282 C  
BRANCH  19  20
HETATM   20  C   UNL     1     -10.023  11.905  66.005  1.00  0.00    -0.258 C  
BRANCH  20  21
HETATM   21  C   UNL     1     -11.420  12.232  65.487  1.00  0.00    -0.408 C  
BRANCH  21  22
HETATM   22  C   UNL     1     -12.133  13.218  66.408  1.00  0.00    -0.454 C  
BRANCH  22  23
HETATM   23  C   UNL     1     -11.482  13.238  67.788  1.00  0.00    -0.354 C  
BRANCH  23  24
HETATM   24  C   UNL     1     -11.193  14.661  68.255  1.00  0.00    -0.301 C  
HETATM   25  C   UNL     1     -11.553  14.854  69.710  1.00  0.00    -0.303 C  
HETATM   26  O   UNL     1     -11.282  16.109  70.139  1.00  0.00    -0.343 OA 
HETATM   27  O   UNL     1     -12.026  14.004  70.441  1.00  0.00    -0.305 OA 
ENDBRANCH  23  24
ENDBRANCH  22  23
ENDBRANCH  21  22
ENDBRANCH  20  21
ENDBRANCH  19  20
ENDBRANCH  18  19
ENDBRANCH  17  18
ENDBRANCH  15  16
ENDBRANCH  14  15
ENDBRANCH  13  14
ENDBRANCH  12  13
ENDBRANCH  11  12
ENDBRANCH  10  11
ENDBRANCH   6  10
TORSDOF 15
ENDMDL
MODEL      276
REMARK 921   NORMALIZED FREE ENERGY PREDICTED BY IDOCK:   -3.67 KCAL/MOL
REMARK 922        TOTAL FREE ENERGY PREDICTED BY IDOCK:   -8.84 KCAL/MOL
REMARK 923 INTER-LIGAND FREE ENERGY PREDICTED BY IDOCK:   -7.02 KCAL/MOL
REMARK 924 INTRA-LIGAND FREE ENERGY PREDICTED BY IDOCK:   -1.82 KCAL/MOL
REMARK 927      BINDING AFFINITY PREDICTED BY RF-SCORE:    0.00 PKD
ROOT
ATOM      1  N   GLY A   1      -9.781  11.534  62.896  1.00  0.00    -0.556 NA 
HETATM    2  C   UNL     1     -12.492  13.479  69.001  1.00  0.00     0.170 C  
ATOM      3  H2  GLY A   1      -9.406  12.475  62.777  1.00  0.00     0.000 HD 
ATOM      4  H1  GLY A   1      -9.063  10.873  63.192  1.00  0.00     0.000 HD 
ATOM      5  CA  GLY A   1     -10.913  11.508  63.831  1.00  0.00    -0.401 C  
HETATM    6  C   UNL     1     -11.517  12.570  69.732  1.00  0.00    -0.211 C  
ENDROOT
BRANCH   5   7
ATOM      7  C   GLY A   1     -11.991  12.500  63.385  1.00  0.00    -0.514 C  
ATOM      8  H   GLY A   1     -13.877  12.838  63.795  1.00  0.00     0.000 HD 
ATOM      9  O   GLY A   1     -13.208  12.222  64.072  1.00  0.00    -0.757 OA 
ENDBRANCH   5   7
BRANCH   6  10
HETATM   10  C   UNL     1     -11.934  11.099  69.738  1.00  0.00    -0.428 C  
BRANCH  10  11
HETATM   11  C   UNL     1     -12.784  10.686  70.941  1.00  0.00    -0.498 C  
BRANCH  11  12
HETATM   12  C   UNL     1     -12.095   9.544  71.693  1.00  0.00    -0.474 C  
BRANCH  12  13
HETATM   13  C   UNL     1     -10.833   9.059  70.982  1.00  0.00    -0.345 C  
BRANCH  13  14
HETATM   14  C   UNL     1      -9.660   8.819  71.942  1.00  0.00    -0.372 C  
BRANCH  14  15
HETATM   15  C   UNL     1      -9.914   7.787  73.048  1.00  0.00    -0.356 C  
BRANCH  15  16
HETATM   16  C   UNL     1      -8.749   6.874  73.320  1.00  0.00    -0.145 C  
HETATM   17  C   UNL     1      -8.759   5.548  73.116  1.00  0.00    -0.120 C  
BRANCH  17  18
HETATM   18  C   UNL     1      -9.932   4.749  72.628  1.00  0.00    -0.211 C  
BRANCH  18  19
HETATM   19  C   UNL     1      -9.631   4.049  71.305  1.00  0.00    -0.245 C  
BRANCH  19  20
HETATM   20  C   UNL     1      -9.450   5.081  70.193  1.00  0.00    -0.234 C  
BRANCH  20  21
HETATM   21  C   UNL     1     -10.647   5.095  69.247  1.00  0.00    -0.089 C  
BRANCH  21  22
HETATM   22  C   UNL     1     -10.922   6.502  68.725  1.00  0.00    -0.371 C  
BRANCH  22  23
HETATM   23  C   UNL     1      -9.805   6.963  67.793  1.00  0.00    -0.161 C  
BRANCH  23  24
HETATM   24  C   UNL     1     -10.114   8.320  67.169  1.00  0.00    -0.334 C  
HETATM   25  C   UNL     1      -8.860   9.141  66.973  1.00  0.00    -0.123 C  
HETATM   26  O   UNL     1      -9.123  10.340  66.403  1.00  0.00    -0.149 OA 
HETATM   27  O   UNL     1      -7.733   8.796  67.274  1.00  0.00    -0.095 OA 
ENDBRANCH  23  24
ENDBRANCH  22  23
ENDBRANCH  21  22
ENDBRANCH  20  21
ENDBRANCH  19  20
ENDBRANCH  18  19
ENDBRANCH  17  18
ENDBRANCH  15  16
ENDBRANCH  14  15
ENDBRANCH  13  14
ENDBRANCH  12  13
ENDBRANCH  11  12
ENDBRANCH  10  11
ENDBRANCH   6  10
TORSDOF 15
ENDMDL
MODEL      277
REMARK 921   NORMALIZED FREE ENERGY PREDICTED BY IDOCK:   -3.67 KCAL/MOL
REMARK 922        TOTAL FREE ENERGY PREDICTED BY IDOCK:   -8.83 KCAL/MOL
REMARK 923 INTER-LIGAND FREE ENERGY PREDICTED BY IDOCK:   -7.53 KCAL/MOL
REMARK 924 INTRA-LIGAND FREE ENERGY PREDICTED BY IDOCK:   -1.30 KCAL/MOL
REMARK 927      BINDING AFFINITY PREDICTED BY RF-SCORE:    0.00 PKD
ROOT
ATOM      1  N   GLY A   1     -10.300  13.824  64.216  1.00  0.00    -0.697 NA 
HETATM    2  C   UNL     1     -11.179  16.403  70.618  1.00  0.00    -0.211 C  
ATOM      3  H2  GLY A   1      -9.298  13.998  64.298  1.00  0.00     0.000 HD 
ATOM      4  H1  GLY A   1     -10.528  12.841  64.360  1.00  0.00     0.000 HD 
ATOM      5  CA  GLY A   1     -11.079  14.666  65.134  1.00  0.00    -0.377 C  
HETATM    6  C   UNL     1     -11.558  15.023  71.131  1.00  0.00    -0.377 C  
ENDROOT
BRANCH   5   7
ATOM      7  C   GLY A   1     -10.736  16.142  64.919  1.00  0.00    -0.274 C  
ATOM      8  H   GLY A   1     -11.364  17.601  63.771  1.00  0.00     0.000 HD 
ATOM      9  O   GLY A   1     -11.577  16.685  63.904  1.00  0.00    -1.204 OA 
ENDBRANCH   5   7
BRANCH   6  10
HETATM   10  C   UNL     1     -13.003  14.629  70.826  1.00  0.00    -0.405 C  
BRANCH  10  11
HETATM   11  C   UNL     1     -13.249  13.120  70.760  1.00  0.00     0.173 C  
BRANCH  11  12
HETATM   12  C   UNL     1     -12.024  12.422  70.164  1.00  0.00    -0.376 C  
BRANCH  12  13
HETATM   13  C   UNL     1     -11.908  10.966  70.615  1.00  0.00    -0.453 C  
BRANCH  13  14
HETATM   14  C   UNL     1     -10.725  10.232  69.969  1.00  0.00    -0.345 C  
BRANCH  14  15
HETATM   15  C   UNL     1     -10.240   8.982  70.712  1.00  0.00    -0.305 C  
BRANCH  15  16
HETATM   16  C   UNL     1     -10.885   8.773  72.055  1.00  0.00    -0.428 C  
HETATM   17  C   UNL     1     -10.632   7.735  72.868  1.00  0.00    -0.428 C  
BRANCH  17  18
HETATM   18  C   UNL     1      -9.703   6.596  72.563  1.00  0.00    -0.166 C  
BRANCH  18  19
HETATM   19  C   UNL     1     -10.360   5.243  72.825  1.00  0.00    -0.239 C  
BRANCH  19  20
HETATM   20  C   UNL     1      -9.352   4.116  72.604  1.00  0.00    -0.155 C  
BRANCH  20  21
HETATM   21  C   UNL     1      -9.777   3.206  71.456  1.00  0.00    -0.226 C  
BRANCH  21  22
HETATM   22  C   UNL     1      -9.155   3.655  70.137  1.00  0.00    -0.199 C  
BRANCH  22  23
HETATM   23  C   UNL     1     -10.118   4.551  69.361  1.00  0.00    -0.124 C  
BRANCH  23  24
HETATM   24  C   UNL     1      -9.412   5.779  68.794  1.00  0.00    -0.147 C  
HETATM   25  C   UNL     1      -9.936   6.138  67.423  1.00  0.00    -0.141 C  
HETATM   26  O   UNL     1      -9.329   7.238  66.919  1.00  0.00    -0.142 OA 
HETATM   27  O   UNL     1     -10.803   5.538  66.816  1.00  0.00    -0.281 OA 
ENDBRANCH  23  24
ENDBRANCH  22  23
ENDBRANCH  21  22
ENDBRANCH  20  21
ENDBRANCH  19  20
ENDBRANCH  18  19
ENDBRANCH  17  18
ENDBRANCH  15  16
ENDBRANCH  14  15
ENDBRANCH  13  14
ENDBRANCH  12  13
ENDBRANCH  11  12
ENDBRANCH  10  11
ENDBRANCH   6  10
TORSDOF 15
ENDMDL
MODEL      278
REMARK 921   NORMALIZED FREE ENERGY PREDICTED BY IDOCK:   -3.67 KCAL/MOL
REMARK 922        TOTAL FREE ENERGY PREDICTED BY IDOCK:   -8.83 KCAL/MOL
REMARK 923 INTER-LIGAND FREE ENERGY PREDICTED BY IDOCK:   -6.43 KCAL/MOL
REMARK 924 INTRA-LIGAND FREE ENERGY PREDICTED BY IDOCK:   -2.40 KCAL/MOL
REMARK 927      BINDING AFFINITY PREDICTED BY RF-SCORE:    0.00 PKD
ROOT
ATOM      1  N   GLY A   1     -11.730   9.289  70.326  1.00  0.00    -0.461 NA 
HETATM    2  C   UNL     1     -13.018  14.007  65.377  1.00  0.00    -0.346 C  
ATOM      3  H2  GLY A   1     -12.708   9.002  70.288  1.00  0.00     0.000 HD 
ATOM      4  H1  GLY A   1     -11.123   8.636  69.832  1.00  0.00     0.000 HD 
ATOM      5  CA  GLY A   1     -11.538  10.651  69.810  1.00  0.00    -0.309 C  
HETATM    6  C   UNL     1     -12.160  13.224  64.396  1.00  0.00    -0.471 C  
ENDROOT
BRANCH   5   7
ATOM      7  C   GLY A   1     -12.451  11.631  70.552  1.00  0.00    -0.257 C  
ATOM      8  H   GLY A   1     -13.390  11.685  72.272  1.00  0.00     0.000 HD 
ATOM      9  O   GLY A   1     -12.824  11.077  71.811  1.00  0.00    -0.430 OA 
ENDBRANCH   5   7
BRANCH   6  10
HETATM   10  C   UNL     1     -10.659  13.456  64.571  1.00  0.00    -0.441 C  
BRANCH  10  11
HETATM   11  C   UNL     1     -10.261  14.036  65.930  1.00  0.00    -0.332 C  
BRANCH  11  12
HETATM   12  C   UNL     1      -9.884  15.512  65.772  1.00  0.00    -0.392 C  
BRANCH  12  13
HETATM   13  C   UNL     1     -10.402  16.369  66.926  1.00  0.00    -0.300 C  
BRANCH  13  14
HETATM   14  C   UNL     1      -9.491  17.564  67.239  1.00  0.00    -0.253 C  
BRANCH  14  15
HETATM   15  C   UNL     1      -7.991  17.322  67.027  1.00  0.00    -0.242 C  
BRANCH  15  16
HETATM   16  C   UNL     1      -7.256  16.882  68.264  1.00  0.00    -0.186 C  
HETATM   17  C   UNL     1      -6.758  15.651  68.455  1.00  0.00    -0.114 C  
BRANCH  17  18
HETATM   18  C   UNL     1      -6.883  14.501  67.498  1.00  0.00    -0.168 C  
BRANCH  18  19
HETATM   19  C   UNL     1      -7.567  13.298  68.143  1.00  0.00    -0.141 C  
BRANCH  19  20
HETATM   20  C   UNL     1      -7.406  12.064  67.256  1.00  0.00    -0.151 C  
BRANCH  20  21
HETATM   21  C   UNL     1      -8.357  10.948  67.679  1.00  0.00    -0.116 C  
BRANCH  21  22
HETATM   22  C   UNL     1      -9.343  10.611  66.564  1.00  0.00    -0.192 C  
BRANCH  22  23
HETATM   23  C   UNL     1      -9.308   9.119  66.242  1.00  0.00    -0.274 C  
BRANCH  23  24
HETATM   24  C   UNL     1     -10.330   8.340  67.063  1.00  0.00    -0.393 C  
HETATM   25  C   UNL     1      -9.660   7.419  68.057  1.00  0.00    -0.141 C  
HETATM   26  O   UNL     1     -10.560   6.737  68.803  1.00  0.00    -0.198 OA 
HETATM   27  O   UNL     1      -8.459   7.284  68.199  1.00  0.00    -0.123 OA 
ENDBRANCH  23  24
ENDBRANCH  22  23
ENDBRANCH  21  22
ENDBRANCH  20  21
ENDBRANCH  19  20
ENDBRANCH  18  19
ENDBRANCH  17  18
ENDBRANCH  15  16
ENDBRANCH  14  15
ENDBRANCH  13  14
ENDBRANCH  12  13
ENDBRANCH  11  12
ENDBRANCH  10  11
ENDBRANCH   6  10
TORSDOF 15
ENDMDL
MODEL      279
REMARK 921   NORMALIZED FREE ENERGY PREDICTED BY IDOCK:   -3.67 KCAL/MOL
REMARK 922        TOTAL FREE ENERGY PREDICTED BY IDOCK:   -8.83 KCAL/MOL
REMARK 923 INTER-LIGAND FREE ENERGY PREDICTED BY IDOCK:   -6.95 KCAL/MOL
REMARK 924 INTRA-LIGAND FREE ENERGY PREDICTED BY IDOCK:   -1.88 KCAL/MOL
REMARK 927      BINDING AFFINITY PREDICTED BY RF-SCORE:    0.00 PKD
ROOT
ATOM      1  N   GLY A   1     -12.933  13.341  64.883  1.00  0.00    -0.740 NA 
HETATM    2  C   UNL     1      -8.270  10.335  69.081  1.00  0.00    -0.152 C  
ATOM      3  H2  GLY A   1     -12.313  13.168  64.091  1.00  0.00     0.000 HD 
ATOM      4  H1  GLY A   1     -13.701  12.671  64.918  1.00  0.00     0.000 HD 
ATOM      5  CA  GLY A   1     -12.205  13.348  66.159  1.00  0.00    -0.415 C  
HETATM    6  C   UNL     1      -9.221   9.174  69.319  1.00  0.00    -0.146 C  
ENDROOT
BRANCH   5   7
ATOM      7  C   GLY A   1     -11.052  14.354  66.105  1.00  0.00    -0.330 C  
ATOM      8  H   GLY A   1      -9.126  14.337  66.467  1.00  0.00     0.000 HD 
ATOM      9  O   GLY A   1      -9.841  13.713  66.500  1.00  0.00    -0.276 OA 
ENDBRANCH   5   7
BRANCH   6  10
HETATM   10  C   UNL     1     -10.314   9.475  70.345  1.00  0.00    -0.334 C  
BRANCH  10  11
HETATM   11  C   UNL     1     -11.390  10.448  69.857  1.00  0.00    -0.370 C  
BRANCH  11  12
HETATM   12  C   UNL     1     -12.287  10.857  71.029  1.00  0.00    -0.498 C  
BRANCH  12  13
HETATM   13  C   UNL     1     -13.622  10.114  71.025  1.00  0.00    -0.084 C  
BRANCH  13  14
HETATM   14  C   UNL     1     -13.643   8.917  71.987  1.00  0.00    -0.489 C  
BRANCH  14  15
HETATM   15  C   UNL     1     -13.346   7.554  71.349  1.00  0.00    -0.370 C  
BRANCH  15  16
HETATM   16  C   UNL     1     -12.265   6.771  72.042  1.00  0.00    -0.331 C  
HETATM   17  C   UNL     1     -11.285   6.105  71.412  1.00  0.00    -0.346 C  
BRANCH  17  18
HETATM   18  C   UNL     1     -11.123   5.994  69.924  1.00  0.00    -0.469 C  
BRANCH  18  19
HETATM   19  C   UNL     1      -9.800   5.333  69.544  1.00  0.00    -0.270 C  
BRANCH  19  20
HETATM   20  C   UNL     1      -9.418   5.705  68.112  1.00  0.00    -0.125 C  
BRANCH  20  21
HETATM   21  C   UNL     1     -10.650   6.040  67.277  1.00  0.00    -0.367 C  
BRANCH  21  22
HETATM   22  C   UNL     1     -10.864   5.011  66.171  1.00  0.00    -0.160 C  
BRANCH  22  23
HETATM   23  C   UNL     1      -9.582   4.806  65.367  1.00  0.00    -0.152 C  
BRANCH  23  24
HETATM   24  C   UNL     1      -9.325   3.330  65.083  1.00  0.00    -0.149 C  
HETATM   25  C   UNL     1      -9.746   2.951  63.682  1.00  0.00    -0.128 C  
HETATM   26  O   UNL     1      -9.504   1.646  63.414  1.00  0.00    -0.092 OA 
HETATM   27  O   UNL     1     -10.242   3.702  62.864  1.00  0.00    -0.156 OA 
ENDBRANCH  23  24
ENDBRANCH  22  23
ENDBRANCH  21  22
ENDBRANCH  20  21
ENDBRANCH  19  20
ENDBRANCH  18  19
ENDBRANCH  17  18
ENDBRANCH  15  16
ENDBRANCH  14  15
ENDBRANCH  13  14
ENDBRANCH  12  13
ENDBRANCH  11  12
ENDBRANCH  10  11
ENDBRANCH   6  10
TORSDOF 15
ENDMDL
MODEL      280
REMARK 921   NORMALIZED FREE ENERGY PREDICTED BY IDOCK:   -3.65 KCAL/MOL
REMARK 922        TOTAL FREE ENERGY PREDICTED BY IDOCK:   -8.80 KCAL/MOL
REMARK 923 INTER-LIGAND FREE ENERGY PREDICTED BY IDOCK:   -7.65 KCAL/MOL
REMARK 924 INTRA-LIGAND FREE ENERGY PREDICTED BY IDOCK:   -1.14 KCAL/MOL
REMARK 927      BINDING AFFINITY PREDICTED BY RF-SCORE:    0.00 PKD
ROOT
ATOM      1  N   GLY A   1     -10.295  10.465  66.043  1.00  0.00    -0.223 NA 
HETATM    2  C   UNL     1      -8.406   6.093  71.116  1.00  0.00    -0.124 C  
ATOM      3  H2  GLY A   1      -9.548  10.090  65.459  1.00  0.00     0.000 HD 
ATOM      4  H1  GLY A   1     -11.207  10.091  65.780  1.00  0.00     0.000 HD 
ATOM      5  CA  GLY A   1     -10.044  10.234  67.472  1.00  0.00    -0.198 C  
HETATM    6  C   UNL     1      -9.702   5.319  70.941  1.00  0.00    -0.244 C  
ENDROOT
BRANCH   5   7
ATOM      7  C   GLY A   1      -8.675  10.796  67.866  1.00  0.00    -0.129 C  
ATOM      8  H   GLY A   1      -7.928  12.552  68.313  1.00  0.00     0.000 HD 
ATOM      9  O   GLY A   1      -8.777  12.203  68.069  1.00  0.00    -0.165 OA 
ENDBRANCH   5   7
BRANCH   6  10
HETATM   10  C   UNL     1     -10.905   5.973  71.619  1.00  0.00    -0.314 C  
BRANCH  10  11
HETATM   11  C   UNL     1     -11.151   7.428  71.210  1.00  0.00    -0.269 C  
BRANCH  11  12
HETATM   12  C   UNL     1     -12.633   7.770  71.380  1.00  0.00    -0.339 C  
BRANCH  12  13
HETATM   13  C   UNL     1     -12.843   9.150  72.000  1.00  0.00    -0.483 C  
BRANCH  13  14
HETATM   14  C   UNL     1     -12.252  10.284  71.150  1.00  0.00    -0.500 C  
BRANCH  14  15
HETATM   15  C   UNL     1     -13.141  11.523  70.995  1.00  0.00    -0.102 C  
BRANCH  15  16
HETATM   16  C   UNL     1     -13.374  12.281  72.274  1.00  0.00    -0.375 C  
HETATM   17  C   UNL     1     -13.576  13.606  72.347  1.00  0.00    -0.703 C  
BRANCH  17  18
HETATM   18  C   UNL     1     -13.564  14.555  71.184  1.00  0.00    -0.368 C  
BRANCH  18  19
HETATM   19  C   UNL     1     -12.151  15.029  70.854  1.00  0.00    -0.380 C  
BRANCH  19  20
HETATM   20  C   UNL     1     -11.743  14.542  69.464  1.00  0.00    -0.361 C  
BRANCH  20  21
HETATM   21  C   UNL     1     -11.502  15.711  68.514  1.00  0.00    -0.380 C  
BRANCH  21  22
HETATM   22  C   UNL     1     -10.111  15.639  67.892  1.00  0.00    -0.225 C  
BRANCH  22  23
HETATM   23  C   UNL     1      -9.783  16.931  67.147  1.00  0.00    -0.253 C  
BRANCH  23  24
HETATM   24  C   UNL     1     -10.567  18.116  67.702  1.00  0.00    -0.424 C  
HETATM   25  C   UNL     1      -9.654  19.136  68.343  1.00  0.00    -0.378 C  
HETATM   26  O   UNL     1     -10.338  20.201  68.822  1.00  0.00    -0.395 OA 
HETATM   27  O   UNL     1      -8.444  19.046  68.432  1.00  0.00    -0.322 OA 
ENDBRANCH  23  24
ENDBRANCH  22  23
ENDBRANCH  21  22
ENDBRANCH  20  21
ENDBRANCH  19  20
ENDBRANCH  18  19
ENDBRANCH  17  18
ENDBRANCH  15  16
ENDBRANCH  14  15
ENDBRANCH  13  14
ENDBRANCH  12  13
ENDBRANCH  11  12
ENDBRANCH  10  11
ENDBRANCH   6  10
TORSDOF 15
ENDMDL
MODEL      281
REMARK 921   NORMALIZED FREE ENERGY PREDICTED BY IDOCK:   -3.65 KCAL/MOL
REMARK 922        TOTAL FREE ENERGY PREDICTED BY IDOCK:   -8.79 KCAL/MOL
REMARK 923 INTER-LIGAND FREE ENERGY PREDICTED BY IDOCK:   -7.06 KCAL/MOL
REMARK 924 INTRA-LIGAND FREE ENERGY PREDICTED BY IDOCK:   -1.73 KCAL/MOL
REMARK 927      BINDING AFFINITY PREDICTED BY RF-SCORE:    0.00 PKD
ROOT
ATOM      1  N   GLY A   1     -10.541  12.650  64.683  1.00  0.00    -0.315 NA 
HETATM    2  C   UNL     1     -10.174  19.356  66.498  1.00  0.00    -0.544 C  
ATOM      3  H2  GLY A   1     -10.573  12.930  63.703  1.00  0.00     0.000 HD 
ATOM      4  H1  GLY A   1      -9.616  12.315  64.952  1.00  0.00     0.000 HD 
ATOM      5  CA  GLY A   1     -10.969  13.733  65.578  1.00  0.00    -0.299 C  
HETATM    6  C   UNL     1      -8.747  19.155  66.983  1.00  0.00    -0.313 C  
ENDROOT
BRANCH   5   7
ATOM      7  C   GLY A   1     -12.358  14.236  65.173  1.00  0.00    -0.424 C  
ATOM      8  H   GLY A   1     -13.169  15.071  63.597  1.00  0.00     0.000 HD 
ATOM      9  O   GLY A   1     -12.308  14.759  63.848  1.00  0.00    -0.728 OA 
ENDBRANCH   5   7
BRANCH   6  10
HETATM   10  C   UNL     1      -8.652  18.521  68.370  1.00  0.00    -0.355 C  
BRANCH  10  11
HETATM   11  C   UNL     1      -7.890  17.195  68.411  1.00  0.00    -0.244 C  
BRANCH  11  12
HETATM   12  C   UNL     1      -8.795  16.095  68.972  1.00  0.00    -0.251 C  
BRANCH  12  13
HETATM   13  C   UNL     1      -9.958  15.768  68.036  1.00  0.00    -0.222 C  
BRANCH  13  14
HETATM   14  C   UNL     1     -11.329  16.068  68.659  1.00  0.00    -0.383 C  
BRANCH  14  15
HETATM   15  C   UNL     1     -12.191  14.840  68.977  1.00  0.00    -0.180 C  
BRANCH  15  16
HETATM   16  C   UNL     1     -11.505  13.807  69.829  1.00  0.00    -0.267 C  
HETATM   17  C   UNL     1     -11.444  12.498  69.537  1.00  0.00    -0.299 C  
BRANCH  17  18
HETATM   18  C   UNL     1     -12.078  11.840  68.347  1.00  0.00    -0.098 C  
BRANCH  18  19
HETATM   19  C   UNL     1     -11.249  10.661  67.842  1.00  0.00    -0.376 C  
BRANCH  19  20
HETATM   20  C   UNL     1      -9.767  11.032  67.818  1.00  0.00    -0.183 C  
BRANCH  20  21
HETATM   21  C   UNL     1      -8.903   9.842  67.409  1.00  0.00    -0.137 C  
BRANCH  21  22
HETATM   22  C   UNL     1      -9.707   8.830  66.596  1.00  0.00    -0.309 C  
BRANCH  22  23
HETATM   23  C   UNL     1      -9.671   7.455  67.257  1.00  0.00    -0.205 C  
BRANCH  23  24
HETATM   24  C   UNL     1      -9.301   7.548  68.734  1.00  0.00    -0.147 C  
HETATM   25  C   UNL     1     -10.354   6.912  69.613  1.00  0.00    -0.206 C  
HETATM   26  O   UNL     1     -10.026   6.974  70.924  1.00  0.00    -0.192 OA 
HETATM   27  O   UNL     1     -11.383   6.394  69.223  1.00  0.00    -0.379 OA 
ENDBRANCH  23  24
ENDBRANCH  22  23
ENDBRANCH  21  22
ENDBRANCH  20  21
ENDBRANCH  19  20
ENDBRANCH  18  19
ENDBRANCH  17  18
ENDBRANCH  15  16
ENDBRANCH  14  15
ENDBRANCH  13  14
ENDBRANCH  12  13
ENDBRANCH  11  12
ENDBRANCH  10  11
ENDBRANCH   6  10
TORSDOF 15
ENDMDL
MODEL      282
REMARK 921   NORMALIZED FREE ENERGY PREDICTED BY IDOCK:   -3.64 KCAL/MOL
REMARK 922        TOTAL FREE ENERGY PREDICTED BY IDOCK:   -8.78 KCAL/MOL
REMARK 923 INTER-LIGAND FREE ENERGY PREDICTED BY IDOCK:   -6.63 KCAL/MOL
REMARK 924 INTRA-LIGAND FREE ENERGY PREDICTED BY IDOCK:   -2.15 KCAL/MOL
REMARK 927      BINDING AFFINITY PREDICTED BY RF-SCORE:    0.00 PKD
ROOT
ATOM      1  N   GLY A   1      -8.620   8.396  64.776  1.00  0.00    -0.368 NA 
HETATM    2  C   UNL     1      -9.190  15.042  66.754  1.00  0.00    -0.280 C  
ATOM      3  H2  GLY A   1      -7.656   8.575  64.496  1.00  0.00     0.000 HD 
ATOM      4  H1  GLY A   1      -8.672   7.911  65.672  1.00  0.00     0.000 HD 
ATOM      5  CA  GLY A   1      -9.418   9.628  64.818  1.00  0.00    -0.188 C  
HETATM    6  C   UNL     1      -9.286  14.608  68.209  1.00  0.00    -0.198 C  
ENDROOT
BRANCH   5   7
ATOM      7  C   GLY A   1      -9.339  10.356  63.473  1.00  0.00    -0.297 C  
ATOM      8  H   GLY A   1     -10.586  11.276  62.273  1.00  0.00     0.000 HD 
ATOM      9  O   GLY A   1     -10.635  10.824  63.108  1.00  0.00    -0.104 OA 
ENDBRANCH   5   7
BRANCH   6  10
HETATM   10  C   UNL     1     -10.674  14.114  68.612  1.00  0.00    -0.263 C  
BRANCH  10  11
HETATM   11  C   UNL     1     -11.421  13.353  67.514  1.00  0.00    -0.357 C  
BRANCH  11  12
HETATM   12  C   UNL     1     -11.736  11.933  67.991  1.00  0.00    -0.382 C  
BRANCH  12  13
HETATM   13  C   UNL     1     -11.950  11.863  69.502  1.00  0.00    -0.355 C  
BRANCH  13  14
HETATM   14  C   UNL     1     -11.540  10.511  70.102  1.00  0.00    -0.408 C  
BRANCH  14  15
HETATM   15  C   UNL     1     -10.479   9.734  69.312  1.00  0.00    -0.236 C  
BRANCH  15  16
HETATM   16  C   UNL     1      -9.072   9.937  69.803  1.00  0.00    -0.249 C  
HETATM   17  C   UNL     1      -8.063   9.075  69.599  1.00  0.00    -0.103 C  
BRANCH  17  18
HETATM   18  C   UNL     1      -8.174   7.756  68.891  1.00  0.00    -0.127 C  
BRANCH  18  19
HETATM   19  C   UNL     1      -8.310   6.595  69.873  1.00  0.00    -0.132 C  
BRANCH  19  20
HETATM   20  C   UNL     1      -9.135   5.470  69.247  1.00  0.00    -0.132 C  
BRANCH  20  21
HETATM   21  C   UNL     1     -10.421   5.222  70.030  1.00  0.00    -0.351 C  
BRANCH  21  22
HETATM   22  C   UNL     1     -11.463   6.296  69.734  1.00  0.00    -0.449 C  
BRANCH  22  23
HETATM   23  C   UNL     1     -11.902   6.994  71.019  1.00  0.00    -0.395 C  
BRANCH  23  24
HETATM   24  C   UNL     1     -11.384   6.271  72.258  1.00  0.00    -0.337 C  
HETATM   25  C   UNL     1     -10.511   7.171  73.103  1.00  0.00    -0.321 C  
HETATM   26  O   UNL     1     -10.062   6.544  74.215  1.00  0.00    -0.306 OA 
HETATM   27  O   UNL     1     -10.229   8.327  72.849  1.00  0.00    -0.295 OA 
ENDBRANCH  23  24
ENDBRANCH  22  23
ENDBRANCH  21  22
ENDBRANCH  20  21
ENDBRANCH  19  20
ENDBRANCH  18  19
ENDBRANCH  17  18
ENDBRANCH  15  16
ENDBRANCH  14  15
ENDBRANCH  13  14
ENDBRANCH  12  13
ENDBRANCH  11  12
ENDBRANCH  10  11
ENDBRANCH   6  10
TORSDOF 15
ENDMDL
MODEL      283
REMARK 921   NORMALIZED FREE ENERGY PREDICTED BY IDOCK:   -3.64 KCAL/MOL
REMARK 922        TOTAL FREE ENERGY PREDICTED BY IDOCK:   -8.78 KCAL/MOL
REMARK 923 INTER-LIGAND FREE ENERGY PREDICTED BY IDOCK:   -7.26 KCAL/MOL
REMARK 924 INTRA-LIGAND FREE ENERGY PREDICTED BY IDOCK:   -1.52 KCAL/MOL
REMARK 927      BINDING AFFINITY PREDICTED BY RF-SCORE:    0.00 PKD
ROOT
ATOM      1  N   GLY A   1      -7.314  16.907  66.736  1.00  0.00    -0.210 NA 
HETATM    2  C   UNL     1     -10.118  10.814  64.887  1.00  0.00    -0.387 C  
ATOM      3  H2  GLY A   1      -6.393  16.468  66.741  1.00  0.00     0.000 HD 
ATOM      4  H1  GLY A   1      -7.464  17.464  65.895  1.00  0.00     0.000 HD 
ATOM      5  CA  GLY A   1      -8.393  15.923  66.893  1.00  0.00    -0.246 C  
HETATM    6  C   UNL     1     -10.467  11.380  63.520  1.00  0.00    -0.477 C  
ENDROOT
BRANCH   5   7
ATOM      7  C   GLY A   1      -8.166  15.087  68.156  1.00  0.00    -0.140 C  
ATOM      8  H   GLY A   1      -8.252  15.374  70.092  1.00  0.00     0.000 HD 
ATOM      9  O   GLY A   1      -8.393  15.892  69.309  1.00  0.00    -0.237 OA 
ENDBRANCH   5   7
BRANCH   6  10
HETATM   10  C   UNL     1     -11.730  12.241  63.516  1.00  0.00    -0.584 C  
BRANCH  10  11
HETATM   11  C   UNL     1     -12.430  12.347  64.873  1.00  0.00    -0.439 C  
BRANCH  11  12
HETATM   12  C   UNL     1     -12.441  13.807  65.336  1.00  0.00    -0.532 C  
BRANCH  12  13
HETATM   13  C   UNL     1     -12.285  13.936  66.851  1.00  0.00    -0.415 C  
BRANCH  13  14
HETATM   14  C   UNL     1     -11.650  12.695  67.494  1.00  0.00    -0.418 C  
BRANCH  14  15
HETATM   15  C   UNL     1     -11.537  12.731  69.023  1.00  0.00    -0.366 C  
BRANCH  15  16
HETATM   16  C   UNL     1     -12.079  11.508  69.712  1.00  0.00    -0.374 C  
HETATM   17  C   UNL     1     -11.386  10.376  69.908  1.00  0.00    -0.370 C  
BRANCH  17  18
HETATM   18  C   UNL     1      -9.982  10.122  69.444  1.00  0.00    -0.247 C  
BRANCH  18  19
HETATM   19  C   UNL     1      -9.702   8.631  69.271  1.00  0.00    -0.173 C  
BRANCH  19  20
HETATM   20  C   UNL     1     -10.907   7.940  68.633  1.00  0.00     0.025 C  
BRANCH  20  21
HETATM   21  C   UNL     1     -11.218   6.615  69.323  1.00  0.00    -0.326 C  
BRANCH  21  22
HETATM   22  C   UNL     1      -9.978   5.729  69.401  1.00  0.00    -0.244 C  
BRANCH  22  23
HETATM   23  C   UNL     1      -9.795   5.176  70.812  1.00  0.00    -0.270 C  
BRANCH  23  24
HETATM   24  C   UNL     1      -9.112   6.186  71.730  1.00  0.00    -0.145 C  
HETATM   25  C   UNL     1     -10.088   6.799  72.707  1.00  0.00    -0.178 C  
HETATM   26  O   UNL     1      -9.488   7.683  73.538  1.00  0.00    -0.248 OA 
HETATM   27  O   UNL     1     -11.277   6.549  72.772  1.00  0.00    -0.257 OA 
ENDBRANCH  23  24
ENDBRANCH  22  23
ENDBRANCH  21  22
ENDBRANCH  20  21
ENDBRANCH  19  20
ENDBRANCH  18  19
ENDBRANCH  17  18
ENDBRANCH  15  16
ENDBRANCH  14  15
ENDBRANCH  13  14
ENDBRANCH  12  13
ENDBRANCH  11  12
ENDBRANCH  10  11
ENDBRANCH   6  10
TORSDOF 15
ENDMDL
MODEL      284
REMARK 921   NORMALIZED FREE ENERGY PREDICTED BY IDOCK:   -3.64 KCAL/MOL
REMARK 922        TOTAL FREE ENERGY PREDICTED BY IDOCK:   -8.77 KCAL/MOL
REMARK 923 INTER-LIGAND FREE ENERGY PREDICTED BY IDOCK:   -7.28 KCAL/MOL
REMARK 924 INTRA-LIGAND FREE ENERGY PREDICTED BY IDOCK:   -1.50 KCAL/MOL
REMARK 927      BINDING AFFINITY PREDICTED BY RF-SCORE:    0.00 PKD
ROOT
ATOM      1  N   GLY A   1     -10.862   4.792  66.439  1.00  0.00    -0.471 NA 
HETATM    2  C   UNL     1      -8.422   7.824  72.207  1.00  0.00    -0.165 C  
ATOM      3  H2  GLY A   1     -10.030   4.203  66.412  1.00  0.00     0.000 HD 
ATOM      4  H1  GLY A   1     -11.673   4.289  66.800  1.00  0.00     0.000 HD 
ATOM      5  CA  GLY A   1     -10.640   6.020  67.213  1.00  0.00    -0.294 C  
HETATM    6  C   UNL     1      -9.539   7.190  73.021  1.00  0.00    -0.199 C  
ENDROOT
BRANCH   5   7
ATOM      7  C   GLY A   1      -9.423   6.775  66.671  1.00  0.00    -0.165 C  
ATOM      8  H   GLY A   1      -7.552   7.029  67.195  1.00  0.00     0.000 HD 
ATOM      9  O   GLY A   1      -8.307   6.561  67.532  1.00  0.00    -0.119 OA 
ENDBRANCH   5   7
BRANCH   6  10
HETATM   10  C   UNL     1     -10.875   7.922  72.907  1.00  0.00    -0.451 C  
BRANCH  10  11
HETATM   11  C   UNL     1     -11.898   7.238  71.997  1.00  0.00    -0.332 C  
BRANCH  11  12
HETATM   12  C   UNL     1     -11.661   7.659  70.544  1.00  0.00    -0.195 C  
BRANCH  12  13
HETATM   13  C   UNL     1     -11.276   9.133  70.423  1.00  0.00    -0.279 C  
BRANCH  13  14
HETATM   14  C   UNL     1     -10.376   9.419  69.213  1.00  0.00    -0.217 C  
BRANCH  14  15
HETATM   15  C   UNL     1     -10.065  10.899  68.958  1.00  0.00    -0.212 C  
BRANCH  15  16
HETATM   16  C   UNL     1     -11.273  11.795  68.976  1.00  0.00    -0.324 C  
HETATM   17  C   UNL     1     -11.884  12.272  67.880  1.00  0.00    -0.358 C  
BRANCH  17  18
HETATM   18  C   UNL     1     -11.448  12.030  66.465  1.00  0.00    -0.413 C  
BRANCH  18  19
HETATM   19  C   UNL     1     -12.355  12.740  65.462  1.00  0.00    -0.495 C  
BRANCH  19  20
HETATM   20  C   UNL     1     -11.797  14.125  65.136  1.00  0.00    -0.372 C  
BRANCH  20  21
HETATM   21  C   UNL     1     -10.272  14.137  65.192  1.00  0.00    -0.411 C  
BRANCH  21  22
HETATM   22  C   UNL     1      -9.737  15.558  65.342  1.00  0.00    -0.232 C  
BRANCH  22  23
HETATM   23  C   UNL     1     -10.657  16.393  66.230  1.00  0.00    -0.243 C  
BRANCH  23  24
HETATM   24  C   UNL     1     -10.662  15.887  67.669  1.00  0.00    -0.312 C  
HETATM   25  C   UNL     1     -10.569  17.026  68.659  1.00  0.00    -0.362 C  
HETATM   26  O   UNL     1     -10.591  16.589  69.940  1.00  0.00    -0.294 OA 
HETATM   27  O   UNL     1     -10.489  18.206  68.375  1.00  0.00    -0.359 OA 
ENDBRANCH  23  24
ENDBRANCH  22  23
ENDBRANCH  21  22
ENDBRANCH  20  21
ENDBRANCH  19  20
ENDBRANCH  18  19
ENDBRANCH  17  18
ENDBRANCH  15  16
ENDBRANCH  14  15
ENDBRANCH  13  14
ENDBRANCH  12  13
ENDBRANCH  11  12
ENDBRANCH  10  11
ENDBRANCH   6  10
TORSDOF 15
ENDMDL
MODEL      285
REMARK 921   NORMALIZED FREE ENERGY PREDICTED BY IDOCK:   -3.63 KCAL/MOL
REMARK 922        TOTAL FREE ENERGY PREDICTED BY IDOCK:   -8.77 KCAL/MOL
REMARK 923 INTER-LIGAND FREE ENERGY PREDICTED BY IDOCK:   -6.61 KCAL/MOL
REMARK 924 INTRA-LIGAND FREE ENERGY PREDICTED BY IDOCK:   -2.15 KCAL/MOL
REMARK 927      BINDING AFFINITY PREDICTED BY RF-SCORE:    0.00 PKD
ROOT
ATOM      1  N   GLY A   1      -8.629   7.839  66.400  1.00  0.00    -0.137 NA 
HETATM    2  C   UNL     1      -9.441  14.732  65.908  1.00  0.00    -0.266 C  
ATOM      3  H2  GLY A   1      -7.628   7.980  66.537  1.00  0.00     0.000 HD 
ATOM      4  H1  GLY A   1      -9.109   7.639  67.277  1.00  0.00     0.000 HD 
ATOM      5  CA  GLY A   1      -9.257   8.984  65.727  1.00  0.00    -0.232 C  
HETATM    6  C   UNL     1     -10.200  14.744  67.225  1.00  0.00    -0.241 C  
ENDROOT
BRANCH   5   7
ATOM      7  C   GLY A   1      -8.536   9.284  64.409  1.00  0.00    -0.195 C  
ATOM      8  H   GLY A   1      -8.548  10.714  63.070  1.00  0.00     0.000 HD 
ATOM      9  O   GLY A   1      -8.995  10.528  63.887  1.00  0.00    -0.190 OA 
ENDBRANCH   5   7
BRANCH   6  10
HETATM   10  C   UNL     1     -11.662  14.317  67.097  1.00  0.00    -0.430 C  
BRANCH  10  11
HETATM   11  C   UNL     1     -11.903  12.817  67.286  1.00  0.00    -0.414 C  
BRANCH  11  12
HETATM   12  C   UNL     1     -11.479  12.399  68.697  1.00  0.00    -0.348 C  
BRANCH  12  13
HETATM   13  C   UNL     1     -11.582  10.890  68.910  1.00  0.00    -0.378 C  
BRANCH  13  14
HETATM   14  C   UNL     1     -11.090  10.447  70.295  1.00  0.00    -0.379 C  
BRANCH  14  15
HETATM   15  C   UNL     1     -12.179  10.292  71.364  1.00  0.00    -0.481 C  
BRANCH  15  16
HETATM   16  C   UNL     1     -12.723   8.896  71.493  1.00  0.00    -0.386 C  
HETATM   17  C   UNL     1     -12.121   7.904  72.168  1.00  0.00    -0.371 C  
BRANCH  17  18
HETATM   18  C   UNL     1     -10.797   8.004  72.867  1.00  0.00    -0.399 C  
BRANCH  18  19
HETATM   19  C   UNL     1     -10.406   6.687  73.533  1.00  0.00    -0.318 C  
BRANCH  19  20
HETATM   20  C   UNL     1      -8.899   6.463  73.414  1.00  0.00    -0.130 C  
BRANCH  20  21
HETATM   21  C   UNL     1      -8.586   5.104  72.797  1.00  0.00    -0.120 C  
BRANCH  21  22
HETATM   22  C   UNL     1      -9.815   4.512  72.113  1.00  0.00    -0.237 C  
BRANCH  22  23
HETATM   23  C   UNL     1      -9.609   4.436  70.602  1.00  0.00    -0.262 C  
BRANCH  23  24
HETATM   24  C   UNL     1     -10.632   5.284  69.851  1.00  0.00    -0.292 C  
HETATM   25  C   UNL     1     -10.027   6.580  69.360  1.00  0.00    -0.158 C  
HETATM   26  O   UNL     1     -10.922   7.330  68.676  1.00  0.00    -0.116 OA 
HETATM   27  O   UNL     1      -8.878   6.936  69.536  1.00  0.00    -0.133 OA 
ENDBRANCH  23  24
ENDBRANCH  22  23
ENDBRANCH  21  22
ENDBRANCH  20  21
ENDBRANCH  19  20
ENDBRANCH  18  19
ENDBRANCH  17  18
ENDBRANCH  15  16
ENDBRANCH  14  15
ENDBRANCH  13  14
ENDBRANCH  12  13
ENDBRANCH  11  12
ENDBRANCH  10  11
ENDBRANCH   6  10
TORSDOF 15
ENDMDL
MODEL      286
REMARK 921   NORMALIZED FREE ENERGY PREDICTED BY IDOCK:   -3.63 KCAL/MOL
REMARK 922        TOTAL FREE ENERGY PREDICTED BY IDOCK:   -8.76 KCAL/MOL
REMARK 923 INTER-LIGAND FREE ENERGY PREDICTED BY IDOCK:   -6.27 KCAL/MOL
REMARK 924 INTRA-LIGAND FREE ENERGY PREDICTED BY IDOCK:   -2.49 KCAL/MOL
REMARK 927      BINDING AFFINITY PREDICTED BY RF-SCORE:    0.00 PKD
ROOT
ATOM      1  N   GLY A   1      -9.997  12.511  64.330  1.00  0.00    -0.545 NA 
HETATM    2  C   UNL     1     -12.810  13.539  70.611  1.00  0.00    -0.189 C  
ATOM      3  H2  GLY A   1      -9.385  13.311  64.487  1.00  0.00     0.000 HD 
ATOM      4  H1  GLY A   1      -9.509  11.626  64.468  1.00  0.00     0.000 HD 
ATOM      5  CA  GLY A   1     -11.199  12.564  65.173  1.00  0.00    -0.304 C  
HETATM    6  C   UNL     1     -12.188  12.244  71.110  1.00  0.00    -0.102 C  
ENDROOT
BRANCH   5   7
ATOM      7  C   GLY A   1     -11.932  13.893  64.967  1.00  0.00    -0.390 C  
ATOM      8  H   GLY A   1     -13.757  14.567  65.200  1.00  0.00     0.000 HD 
ATOM      9  O   GLY A   1     -13.302  13.743  65.329  1.00  0.00    -0.710 OA 
ENDBRANCH   5   7
BRANCH   6  10
HETATM   10  C   UNL     1     -12.961  10.992  70.698  1.00  0.00    -0.213 C  
BRANCH  10  11
HETATM   11  C   UNL     1     -12.093   9.747  70.497  1.00  0.00    -0.244 C  
BRANCH  11  12
HETATM   12  C   UNL     1     -10.642  10.164  70.244  1.00  0.00    -0.324 C  
BRANCH  12  13
HETATM   13  C   UNL     1      -9.644   9.270  70.978  1.00  0.00    -0.329 C  
BRANCH  13  14
HETATM   14  C   UNL     1      -8.405   8.938  70.135  1.00  0.00    -0.142 C  
BRANCH  14  15
HETATM   15  C   UNL     1      -8.063   7.447  70.026  1.00  0.00    -0.129 C  
BRANCH  15  16
HETATM   16  C   UNL     1      -8.756   6.578  71.039  1.00  0.00    -0.138 C  
HETATM   17  C   UNL     1      -9.584   5.566  70.735  1.00  0.00    -0.220 C  
BRANCH  17  18
HETATM   18  C   UNL     1      -9.989   5.158  69.348  1.00  0.00    -0.292 C  
BRANCH  18  19
HETATM   19  C   UNL     1     -11.140   6.011  68.819  1.00  0.00    -0.329 C  
BRANCH  19  20
HETATM   20  C   UNL     1     -10.884   6.397  67.363  1.00  0.00    -0.457 C  
BRANCH  20  21
HETATM   21  C   UNL     1     -10.507   7.870  67.237  1.00  0.00    -0.390 C  
BRANCH  21  22
HETATM   22  C   UNL     1      -9.214   8.043  66.446  1.00  0.00    -0.245 C  
BRANCH  22  23
HETATM   23  C   UNL     1      -8.733   9.491  66.504  1.00  0.00    -0.147 C  
BRANCH  23  24
HETATM   24  C   UNL     1      -7.925   9.867  65.266  1.00  0.00    -0.137 C  
HETATM   25  C   UNL     1      -6.481  10.153  65.610  1.00  0.00    -0.107 C  
HETATM   26  O   UNL     1      -5.752  10.470  64.514  1.00  0.00    -0.137 OA 
HETATM   27  O   UNL     1      -5.996  10.108  66.724  1.00  0.00    -0.053 OA 
ENDBRANCH  23  24
ENDBRANCH  22  23
ENDBRANCH  21  22
ENDBRANCH  20  21
ENDBRANCH  19  20
ENDBRANCH  18  19
ENDBRANCH  17  18
ENDBRANCH  15  16
ENDBRANCH  14  15
ENDBRANCH  13  14
ENDBRANCH  12  13
ENDBRANCH  11  12
ENDBRANCH  10  11
ENDBRANCH   6  10
TORSDOF 15
ENDMDL
MODEL      287
REMARK 921   NORMALIZED FREE ENERGY PREDICTED BY IDOCK:   -3.62 KCAL/MOL
REMARK 922        TOTAL FREE ENERGY PREDICTED BY IDOCK:   -8.74 KCAL/MOL
REMARK 923 INTER-LIGAND FREE ENERGY PREDICTED BY IDOCK:   -6.86 KCAL/MOL
REMARK 924 INTRA-LIGAND FREE ENERGY PREDICTED BY IDOCK:   -1.88 KCAL/MOL
REMARK 927      BINDING AFFINITY PREDICTED BY RF-SCORE:    0.00 PKD
ROOT
ATOM      1  N   GLY A   1     -11.035  19.162  67.422  1.00  0.00    -0.427 NA 
HETATM    2  C   UNL     1      -5.480  14.997  67.871  1.00  0.00    -0.120 C  
ATOM      3  H2  GLY A   1     -10.650  19.562  66.566  1.00  0.00     0.000 HD 
ATOM      4  H1  GLY A   1     -11.778  18.491  67.227  1.00  0.00     0.000 HD 
ATOM      5  CA  GLY A   1      -9.996  18.542  68.254  1.00  0.00    -0.376 C  
HETATM    6  C   UNL     1      -6.355  13.787  67.586  1.00  0.00    -0.141 C  
ENDROOT
BRANCH   5   7
ATOM      7  C   GLY A   1      -8.880  19.550  68.546  1.00  0.00    -0.342 C  
ATOM      8  H   GLY A   1      -8.068  21.082  67.634  1.00  0.00     0.000 HD 
ATOM      9  O   GLY A   1      -8.760  20.457  67.453  1.00  0.00    -0.343 OA 
ENDBRANCH   5   7
BRANCH   6  10
HETATM   10  C   UNL     1      -7.131  13.289  68.804  1.00  0.00    -0.100 C  
BRANCH  10  11
HETATM   11  C   UNL     1      -8.650  13.448  68.697  1.00  0.00     0.010 C  
BRANCH  11  12
HETATM   12  C   UNL     1      -9.036  14.908  68.947  1.00  0.00    -0.191 C  
BRANCH  12  13
HETATM   13  C   UNL     1      -9.414  15.637  67.659  1.00  0.00    -0.211 C  
BRANCH  13  14
HETATM   14  C   UNL     1     -10.569  14.962  66.906  1.00  0.00    -0.300 C  
BRANCH  14  15
HETATM   15  C   UNL     1     -10.344  14.756  65.403  1.00  0.00    -0.410 C  
BRANCH  15  16
HETATM   16  C   UNL     1     -11.572  14.966  64.560  1.00  0.00    -0.356 C  
HETATM   17  C   UNL     1     -12.370  13.981  64.118  1.00  0.00    -0.374 C  
BRANCH  17  18
HETATM   18  C   UNL     1     -12.154  12.514  64.351  1.00  0.00    -0.500 C  
BRANCH  18  19
HETATM   19  C   UNL     1     -11.326  11.879  63.236  1.00  0.00    -0.373 C  
BRANCH  19  20
HETATM   20  C   UNL     1     -10.028  11.307  63.805  1.00  0.00    -0.388 C  
BRANCH  20  21
HETATM   21  C   UNL     1     -10.289  10.468  65.052  1.00  0.00    -0.310 C  
BRANCH  21  22
HETATM   22  C   UNL     1      -9.282  10.787  66.153  1.00  0.00    -0.202 C  
BRANCH  22  23
HETATM   23  C   UNL     1      -9.721  10.176  67.482  1.00  0.00    -0.190 C  
BRANCH  23  24
HETATM   24  C   UNL     1     -11.097  10.680  67.907  1.00  0.00    -0.371 C  
HETATM   25  C   UNL     1     -11.321  10.498  69.391  1.00  0.00    -0.269 C  
HETATM   26  O   UNL     1     -12.532  10.960  69.781  1.00  0.00    -0.311 OA 
HETATM   27  O   UNL     1     -10.530  10.006  70.172  1.00  0.00    -0.264 OA 
ENDBRANCH  23  24
ENDBRANCH  22  23
ENDBRANCH  21  22
ENDBRANCH  20  21
ENDBRANCH  19  20
ENDBRANCH  18  19
ENDBRANCH  17  18
ENDBRANCH  15  16
ENDBRANCH  14  15
ENDBRANCH  13  14
ENDBRANCH  12  13
ENDBRANCH  11  12
ENDBRANCH  10  11
ENDBRANCH   6  10
TORSDOF 15
ENDMDL
MODEL      288
REMARK 921   NORMALIZED FREE ENERGY PREDICTED BY IDOCK:   -3.61 KCAL/MOL
REMARK 922        TOTAL FREE ENERGY PREDICTED BY IDOCK:   -8.72 KCAL/MOL
REMARK 923 INTER-LIGAND FREE ENERGY PREDICTED BY IDOCK:   -6.37 KCAL/MOL
REMARK 924 INTRA-LIGAND FREE ENERGY PREDICTED BY IDOCK:   -2.36 KCAL/MOL
REMARK 927      BINDING AFFINITY PREDICTED BY RF-SCORE:    0.00 PKD
ROOT
ATOM      1  N   GLY A   1      -9.875  12.778  64.907  1.00  0.00    -0.511 NA 
HETATM    2  C   UNL     1     -13.035  12.698  71.105  1.00  0.00    -0.239 C  
ATOM      3  H2  GLY A   1      -9.319  13.576  65.214  1.00  0.00     0.000 HD 
ATOM      4  H1  GLY A   1      -9.342  11.909  64.938  1.00  0.00     0.000 HD 
ATOM      5  CA  GLY A   1     -11.116  12.641  65.681  1.00  0.00    -0.292 C  
HETATM    6  C   UNL     1     -12.361  11.376  71.440  1.00  0.00    -0.270 C  
ENDROOT
BRANCH   5   7
ATOM      7  C   GLY A   1     -11.915  13.946  65.634  1.00  0.00    -0.392 C  
ATOM      8  H   GLY A   1     -12.617  15.140  64.247  1.00  0.00     0.000 HD 
ATOM      9  O   GLY A   1     -12.121  14.331  64.277  1.00  0.00    -0.464 OA 
ENDBRANCH   5   7
BRANCH   6  10
HETATM   10  C   UNL     1     -13.039  10.163  70.805  1.00  0.00    -0.351 C  
BRANCH  10  11
HETATM   11  C   UNL     1     -12.213   8.875  70.859  1.00  0.00    -0.177 C  
BRANCH  11  12
HETATM   12  C   UNL     1     -11.136   8.996  71.940  1.00  0.00    -0.433 C  
BRANCH  12  13
HETATM   13  C   UNL     1     -11.053   7.748  72.818  1.00  0.00    -0.457 C  
BRANCH  13  14
HETATM   14  C   UNL     1      -9.661   7.541  73.432  1.00  0.00    -0.346 C  
BRANCH  14  15
HETATM   15  C   UNL     1      -9.318   6.095  73.814  1.00  0.00    -0.136 C  
BRANCH  15  16
HETATM   16  C   UNL     1     -10.511   5.186  73.925  1.00  0.00    -0.316 C  
HETATM   17  C   UNL     1     -10.797   4.197  73.063  1.00  0.00    -0.252 C  
BRANCH  17  18
HETATM   18  C   UNL     1     -10.008   3.858  71.832  1.00  0.00    -0.238 C  
BRANCH  18  19
HETATM   19  C   UNL     1     -10.211   4.891  70.726  1.00  0.00    -0.276 C  
BRANCH  19  20
HETATM   20  C   UNL     1      -8.967   4.966  69.841  1.00  0.00    -0.138 C  
BRANCH  20  21
HETATM   21  C   UNL     1      -8.868   6.316  69.137  1.00  0.00    -0.128 C  
BRANCH  21  22
HETATM   22  C   UNL     1      -8.290   7.381  70.064  1.00  0.00    -0.137 C  
BRANCH  22  23
HETATM   23  C   UNL     1      -7.830   8.600  69.268  1.00  0.00    -0.101 C  
BRANCH  23  24
HETATM   24  C   UNL     1      -8.624   9.849  69.640  1.00  0.00    -0.207 C  
HETATM   25  C   UNL     1      -9.397  10.389  68.459  1.00  0.00    -0.160 C  
HETATM   26  O   UNL     1     -10.120  11.486  68.784  1.00  0.00    -0.213 OA 
HETATM   27  O   UNL     1      -9.399   9.917  67.337  1.00  0.00    -0.136 OA 
ENDBRANCH  23  24
ENDBRANCH  22  23
ENDBRANCH  21  22
ENDBRANCH  20  21
ENDBRANCH  19  20
ENDBRANCH  18  19
ENDBRANCH  17  18
ENDBRANCH  15  16
ENDBRANCH  14  15
ENDBRANCH  13  14
ENDBRANCH  12  13
ENDBRANCH  11  12
ENDBRANCH  10  11
ENDBRANCH   6  10
TORSDOF 15
ENDMDL
MODEL      289
REMARK 921   NORMALIZED FREE ENERGY PREDICTED BY IDOCK:   -3.61 KCAL/MOL
REMARK 922        TOTAL FREE ENERGY PREDICTED BY IDOCK:   -8.72 KCAL/MOL
REMARK 923 INTER-LIGAND FREE ENERGY PREDICTED BY IDOCK:   -6.70 KCAL/MOL
REMARK 924 INTRA-LIGAND FREE ENERGY PREDICTED BY IDOCK:   -2.03 KCAL/MOL
REMARK 927      BINDING AFFINITY PREDICTED BY RF-SCORE:    0.00 PKD
ROOT
ATOM      1  N   GLY A   1      -5.535  10.107  64.324  1.00  0.00    -0.102 NA 
HETATM    2  C   UNL     1     -12.233  11.853  63.616  1.00  0.00    -0.586 C  
ATOM      3  H2  GLY A   1      -5.504   9.875  63.331  1.00  0.00     0.000 HD 
ATOM      4  H1  GLY A   1      -5.107  11.013  64.516  1.00  0.00     0.000 HD 
ATOM      5  CA  GLY A   1      -6.904  10.069  64.854  1.00  0.00    -0.133 C  
HETATM    6  C   UNL     1     -11.887  13.312  63.867  1.00  0.00    -0.522 C  
ENDROOT
BRANCH   5   7
ATOM      7  C   GLY A   1      -7.546   8.709  64.565  1.00  0.00    -0.113 C  
ATOM      8  H   GLY A   1      -7.523   6.921  65.368  1.00  0.00     0.000 HD 
ATOM      9  O   GLY A   1      -7.125   7.765  65.547  1.00  0.00    -0.061 OA 
ENDBRANCH   5   7
BRANCH   6  10
HETATM   10  C   UNL     1     -11.700  13.654  65.345  1.00  0.00    -0.347 C  
BRANCH  10  11
HETATM   11  C   UNL     1     -10.317  14.206  65.699  1.00  0.00    -0.348 C  
BRANCH  11  12
HETATM   12  C   UNL     1      -9.862  13.636  67.044  1.00  0.00    -0.251 C  
BRANCH  12  13
HETATM   13  C   UNL     1      -8.987  12.393  66.882  1.00  0.00    -0.212 C  
BRANCH  13  14
HETATM   14  C   UNL     1      -9.762  11.085  67.093  1.00  0.00    -0.198 C  
BRANCH  14  15
HETATM   15  C   UNL     1     -10.412  10.920  68.473  1.00  0.00    -0.209 C  
BRANCH  15  16
HETATM   16  C   UNL     1     -11.910  11.062  68.471  1.00  0.00    -0.286 C  
HETATM   17  C   UNL     1     -12.650  11.328  69.558  1.00  0.00     0.027 C  
BRANCH  17  18
HETATM   18  C   UNL     1     -12.123  11.487  70.954  1.00  0.00    -0.352 C  
BRANCH  18  19
HETATM   19  C   UNL     1     -13.064  12.316  71.825  1.00  0.00    -0.449 C  
BRANCH  19  20
HETATM   20  C   UNL     1     -13.185  13.733  71.268  1.00  0.00    -0.331 C  
BRANCH  20  21
HETATM   21  C   UNL     1     -12.036  14.618  71.743  1.00  0.00    -0.391 C  
BRANCH  21  22
HETATM   22  C   UNL     1     -11.980  15.922  70.953  1.00  0.00    -0.432 C  
BRANCH  22  23
HETATM   23  C   UNL     1     -11.582  15.659  69.502  1.00  0.00    -0.366 C  
BRANCH  23  24
HETATM   24  C   UNL     1     -10.783  16.819  68.918  1.00  0.00    -0.333 C  
HETATM   25  C   UNL     1      -9.295  16.613  69.090  1.00  0.00    -0.177 C  
HETATM   26  O   UNL     1      -8.577  17.629  68.558  1.00  0.00    -0.279 OA 
HETATM   27  O   UNL     1      -8.771  15.658  69.632  1.00  0.00    -0.245 OA 
ENDBRANCH  23  24
ENDBRANCH  22  23
ENDBRANCH  21  22
ENDBRANCH  20  21
ENDBRANCH  19  20
ENDBRANCH  18  19
ENDBRANCH  17  18
ENDBRANCH  15  16
ENDBRANCH  14  15
ENDBRANCH  13  14
ENDBRANCH  12  13
ENDBRANCH  11  12
ENDBRANCH  10  11
ENDBRANCH   6  10
TORSDOF 15
ENDMDL
MODEL      290
REMARK 921   NORMALIZED FREE ENERGY PREDICTED BY IDOCK:   -3.60 KCAL/MOL
REMARK 922        TOTAL FREE ENERGY PREDICTED BY IDOCK:   -8.71 KCAL/MOL
REMARK 923 INTER-LIGAND FREE ENERGY PREDICTED BY IDOCK:   -7.21 KCAL/MOL
REMARK 924 INTRA-LIGAND FREE ENERGY PREDICTED BY IDOCK:   -1.50 KCAL/MOL
REMARK 927      BINDING AFFINITY PREDICTED BY RF-SCORE:    0.00 PKD
ROOT
ATOM      1  N   GLY A   1      -8.708   9.381  66.163  1.00  0.00    -0.142 NA 
HETATM    2  C   UNL     1      -5.292  15.066  68.268  1.00  0.00    -0.114 C  
ATOM      3  H2  GLY A   1      -8.429   8.910  67.024  1.00  0.00     0.000 HD 
ATOM      4  H1  GLY A   1      -9.676   9.699  66.200  1.00  0.00     0.000 HD 
ATOM      5  CA  GLY A   1      -7.817  10.502  65.837  1.00  0.00    -0.151 C  
HETATM    6  C   UNL     1      -6.610  15.807  68.430  1.00  0.00    -0.116 C  
ENDROOT
BRANCH   5   7
ATOM      7  C   GLY A   1      -6.363  10.024  65.781  1.00  0.00    -0.094 C  
ATOM      8  H   GLY A   1      -5.172   8.947  66.903  1.00  0.00     0.000 HD 
ATOM      9  O   GLY A   1      -6.073   9.243  66.938  1.00  0.00    -0.061 OA 
ENDBRANCH   5   7
BRANCH   6  10
HETATM   10  C   UNL     1      -7.182  16.338  67.116  1.00  0.00    -0.243 C  
BRANCH  10  11
HETATM   11  C   UNL     1      -7.735  17.763  67.195  1.00  0.00    -0.224 C  
BRANCH  11  12
HETATM   12  C   UNL     1      -9.193  17.778  66.728  1.00  0.00    -0.281 C  
BRANCH  12  13
HETATM   13  C   UNL     1      -9.802  16.378  66.681  1.00  0.00    -0.272 C  
BRANCH  13  14
HETATM   14  C   UNL     1     -10.533  16.087  65.363  1.00  0.00    -0.415 C  
BRANCH  14  15
HETATM   15  C   UNL     1     -10.472  14.631  64.883  1.00  0.00    -0.415 C  
BRANCH  15  16
HETATM   16  C   UNL     1     -11.813  14.028  64.567  1.00  0.00    -0.452 C  
HETATM   17  C   UNL     1     -12.589  13.390  65.457  1.00  0.00    -0.520 C  
BRANCH  17  18
HETATM   18  C   UNL     1     -12.238  13.133  66.893  1.00  0.00    -0.284 C  
BRANCH  18  19
HETATM   19  C   UNL     1     -11.326  11.918  67.046  1.00  0.00    -0.392 C  
BRANCH  19  20
HETATM   20  C   UNL     1     -11.733  11.105  68.275  1.00  0.00    -0.323 C  
BRANCH  20  21
HETATM   21  C   UNL     1     -11.143  11.696  69.552  1.00  0.00    -0.230 C  
BRANCH  21  22
HETATM   22  C   UNL     1     -12.219  11.901  70.614  1.00  0.00    -0.424 C  
BRANCH  22  23
HETATM   23  C   UNL     1     -12.740  13.336  70.587  1.00  0.00    -0.227 C  
BRANCH  23  24
HETATM   24  C   UNL     1     -12.631  14.001  71.956  1.00  0.00    -0.314 C  
HETATM   25  C   UNL     1     -13.564  15.185  72.075  1.00  0.00    -0.446 C  
HETATM   26  O   UNL     1     -13.487  15.771  73.293  1.00  0.00    -0.551 OA 
HETATM   27  O   UNL     1     -14.312  15.587  71.205  1.00  0.00    -0.516 OA 
ENDBRANCH  23  24
ENDBRANCH  22  23
ENDBRANCH  21  22
ENDBRANCH  20  21
ENDBRANCH  19  20
ENDBRANCH  18  19
ENDBRANCH  17  18
ENDBRANCH  15  16
ENDBRANCH  14  15
ENDBRANCH  13  14
ENDBRANCH  12  13
ENDBRANCH  11  12
ENDBRANCH  10  11
ENDBRANCH   6  10
TORSDOF 15
ENDMDL
MODEL      291
REMARK 921   NORMALIZED FREE ENERGY PREDICTED BY IDOCK:   -3.60 KCAL/MOL
REMARK 922        TOTAL FREE ENERGY PREDICTED BY IDOCK:   -8.70 KCAL/MOL
REMARK 923 INTER-LIGAND FREE ENERGY PREDICTED BY IDOCK:   -7.26 KCAL/MOL
REMARK 924 INTRA-LIGAND FREE ENERGY PREDICTED BY IDOCK:   -1.44 KCAL/MOL
REMARK 927      BINDING AFFINITY PREDICTED BY RF-SCORE:    0.00 PKD
ROOT
ATOM      1  N   GLY A   1     -12.735  16.161  69.677  1.00  0.00    -0.430 NA 
HETATM    2  C   UNL     1      -5.800  16.504  70.126  1.00  0.00    -0.171 C  
ATOM      3  H2  GLY A   1     -12.799  17.030  70.206  1.00  0.00     0.000 HD 
ATOM      4  H1  GLY A   1     -12.882  16.311  68.679  1.00  0.00     0.000 HD 
ATOM      5  CA  GLY A   1     -11.456  15.474  69.904  1.00  0.00    -0.327 C  
HETATM    6  C   UNL     1      -5.708  16.758  68.629  1.00  0.00    -0.124 C  
ENDROOT
BRANCH   5   7
ATOM      7  C   GLY A   1     -11.235  15.248  71.402  1.00  0.00    -0.308 C  
ATOM      8  H   GLY A   1     -11.887  16.034  73.074  1.00  0.00     0.000 HD 
ATOM      9  O   GLY A   1     -12.024  16.174  72.145  1.00  0.00    -0.480 OA 
ENDBRANCH   5   7
BRANCH   6  10
HETATM   10  C   UNL     1      -5.835  15.493  67.782  1.00  0.00    -0.157 C  
BRANCH  10  11
HETATM   11  C   UNL     1      -6.718  14.404  68.397  1.00  0.00    -0.103 C  
BRANCH  11  12
HETATM   12  C   UNL     1      -8.074  14.377  67.687  1.00  0.00    -0.188 C  
BRANCH  12  13
HETATM   13  C   UNL     1      -8.755  15.744  67.683  1.00  0.00    -0.178 C  
BRANCH  13  14
HETATM   14  C   UNL     1      -9.349  16.113  66.317  1.00  0.00    -0.351 C  
BRANCH  14  15
HETATM   15  C   UNL     1     -10.108  14.987  65.603  1.00  0.00    -0.390 C  
BRANCH  15  16
HETATM   16  C   UNL     1     -11.238  15.461  64.731  1.00  0.00    -0.404 C  
HETATM   17  C   UNL     1     -12.184  14.663  64.210  1.00  0.00    -0.432 C  
BRANCH  17  18
HETATM   18  C   UNL     1     -12.252  13.173  64.373  1.00  0.00    -0.462 C  
BRANCH  18  19
HETATM   19  C   UNL     1     -10.957  12.494  63.935  1.00  0.00    -0.471 C  
BRANCH  19  20
HETATM   20  C   UNL     1     -10.771  11.178  64.689  1.00  0.00    -0.350 C  
BRANCH  20  21
HETATM   21  C   UNL     1      -9.594  11.253  65.657  1.00  0.00    -0.260 C  
BRANCH  21  22
HETATM   22  C   UNL     1      -9.889  10.488  66.944  1.00  0.00    -0.235 C  
BRANCH  22  23
HETATM   23  C   UNL     1     -10.227  11.450  68.081  1.00  0.00    -0.200 C  
BRANCH  23  24
HETATM   24  C   UNL     1     -11.645  11.233  68.600  1.00  0.00    -0.384 C  
HETATM   25  C   UNL     1     -11.645  10.600  69.973  1.00  0.00    -0.325 C  
HETATM   26  O   UNL     1     -12.899  10.421  70.449  1.00  0.00    -0.314 OA 
HETATM   27  O   UNL     1     -10.656  10.282  70.606  1.00  0.00    -0.214 OA 
ENDBRANCH  23  24
ENDBRANCH  22  23
ENDBRANCH  21  22
ENDBRANCH  20  21
ENDBRANCH  19  20
ENDBRANCH  18  19
ENDBRANCH  17  18
ENDBRANCH  15  16
ENDBRANCH  14  15
ENDBRANCH  13  14
ENDBRANCH  12  13
ENDBRANCH  11  12
ENDBRANCH  10  11
ENDBRANCH   6  10
TORSDOF 15
ENDMDL
MODEL      292
REMARK 921   NORMALIZED FREE ENERGY PREDICTED BY IDOCK:   -3.59 KCAL/MOL
REMARK 922        TOTAL FREE ENERGY PREDICTED BY IDOCK:   -8.69 KCAL/MOL
REMARK 923 INTER-LIGAND FREE ENERGY PREDICTED BY IDOCK:   -6.71 KCAL/MOL
REMARK 924 INTRA-LIGAND FREE ENERGY PREDICTED BY IDOCK:   -1.99 KCAL/MOL
REMARK 927      BINDING AFFINITY PREDICTED BY RF-SCORE:    0.00 PKD
ROOT
ATOM      1  N   GLY A   1      -6.914  18.413  65.674  1.00  0.00    -0.484 NA 
HETATM    2  C   UNL     1     -12.245  14.633  68.063  1.00  0.00    -0.089 C  
ATOM      3  H2  GLY A   1      -6.329  18.034  66.418  1.00  0.00     0.000 HD 
ATOM      4  H1  GLY A   1      -6.730  17.962  64.778  1.00  0.00     0.000 HD 
ATOM      5  CA  GLY A   1      -8.343  18.326  66.002  1.00  0.00    -0.024 C  
HETATM    6  C   UNL     1     -12.202  13.768  66.813  1.00  0.00    -0.440 C  
ENDROOT
BRANCH   5   7
ATOM      7  C   GLY A   1      -8.620  19.003  67.347  1.00  0.00    -0.278 C  
ATOM      8  H   GLY A   1      -9.434  20.676  67.962  1.00  0.00     0.000 HD 
ATOM      9  O   GLY A   1      -9.263  20.256  67.128  1.00  0.00    -0.359 OA 
ENDBRANCH   5   7
BRANCH   6  10
HETATM   10  C   UNL     1     -12.879  14.407  65.601  1.00  0.00    -0.224 C  
BRANCH  10  11
HETATM   11  C   UNL     1     -12.177  14.140  64.268  1.00  0.00    -0.449 C  
BRANCH  11  12
HETATM   12  C   UNL     1     -10.951  13.251  64.498  1.00  0.00    -0.398 C  
BRANCH  12  13
HETATM   13  C   UNL     1     -11.133  11.850  63.917  1.00  0.00    -0.483 C  
BRANCH  13  14
HETATM   14  C   UNL     1      -9.837  11.274  63.328  1.00  0.00    -0.418 C  
BRANCH  14  15
HETATM   15  C   UNL     1      -8.865  10.666  64.345  1.00  0.00    -0.185 C  
BRANCH  15  16
HETATM   16  C   UNL     1      -9.519   9.786  65.376  1.00  0.00    -0.333 C  
HETATM   17  C   UNL     1      -9.561  10.056  66.690  1.00  0.00    -0.234 C  
BRANCH  17  18
HETATM   18  C   UNL     1      -8.934  11.246  67.356  1.00  0.00    -0.144 C  
BRANCH  18  19
HETATM   19  C   UNL     1      -9.813  11.799  68.475  1.00  0.00    -0.192 C  
BRANCH  19  20
HETATM   20  C   UNL     1     -11.033  10.900  68.679  1.00  0.00    -0.274 C  
BRANCH  20  21
HETATM   21  C   UNL     1     -11.176  10.480  70.139  1.00  0.00    -0.389 C  
BRANCH  21  22
HETATM   22  C   UNL     1     -10.065   9.517  70.547  1.00  0.00    -0.347 C  
BRANCH  22  23
HETATM   23  C   UNL     1     -10.142   8.226  69.735  1.00  0.00    -0.197 C  
BRANCH  23  24
HETATM   24  C   UNL     1     -10.594   7.047  70.591  1.00  0.00    -0.246 C  
HETATM   25  C   UNL     1      -9.788   5.803  70.294  1.00  0.00    -0.189 C  
HETATM   26  O   UNL     1     -10.169   4.756  71.062  1.00  0.00    -0.214 OA 
HETATM   27  O   UNL     1      -8.893   5.718  69.475  1.00  0.00    -0.116 OA 
ENDBRANCH  23  24
ENDBRANCH  22  23
ENDBRANCH  21  22
ENDBRANCH  20  21
ENDBRANCH  19  20
ENDBRANCH  18  19
ENDBRANCH  17  18
ENDBRANCH  15  16
ENDBRANCH  14  15
ENDBRANCH  13  14
ENDBRANCH  12  13
ENDBRANCH  11  12
ENDBRANCH  10  11
ENDBRANCH   6  10
TORSDOF 15
ENDMDL
MODEL      293
REMARK 921   NORMALIZED FREE ENERGY PREDICTED BY IDOCK:   -3.59 KCAL/MOL
REMARK 922        TOTAL FREE ENERGY PREDICTED BY IDOCK:   -8.69 KCAL/MOL
REMARK 923 INTER-LIGAND FREE ENERGY PREDICTED BY IDOCK:   -6.65 KCAL/MOL
REMARK 924 INTRA-LIGAND FREE ENERGY PREDICTED BY IDOCK:   -2.04 KCAL/MOL
REMARK 927      BINDING AFFINITY PREDICTED BY RF-SCORE:    0.00 PKD
ROOT
ATOM      1  N   GLY A   1      -5.924   3.570  64.717  1.00  0.00    -0.022 NA 
HETATM    2  C   UNL     1     -10.108   8.832  66.513  1.00  0.00    -0.349 C  
ATOM      3  H2  GLY A   1      -6.055   3.818  63.736  1.00  0.00     0.000 HD 
ATOM      4  H1  GLY A   1      -5.025   3.894  65.073  1.00  0.00     0.000 HD 
ATOM      5  CA  GLY A   1      -7.016   4.073  65.560  1.00  0.00    -0.062 C  
HETATM    6  C   UNL     1      -8.929   9.568  67.130  1.00  0.00    -0.148 C  
ENDROOT
BRANCH   5   7
ATOM      7  C   GLY A   1      -8.366   3.588  65.024  1.00  0.00    -0.097 C  
ATOM      8  H   GLY A   1      -9.866   4.360  64.027  1.00  0.00     0.000 HD 
ATOM      9  O   GLY A   1      -9.029   4.661  64.360  1.00  0.00    -0.151 OA 
ENDBRANCH   5   7
BRANCH   6  10
HETATM   10  C   UNL     1      -8.554   9.068  68.524  1.00  0.00    -0.129 C  
BRANCH  10  11
HETATM   11  C   UNL     1      -7.871   7.698  68.545  1.00  0.00    -0.121 C  
BRANCH  11  12
HETATM   12  C   UNL     1      -8.661   6.741  69.442  1.00  0.00    -0.132 C  
BRANCH  12  13
HETATM   13  C   UNL     1      -9.793   6.043  68.690  1.00  0.00    -0.166 C  
BRANCH  13  14
HETATM   14  C   UNL     1     -11.180   6.369  69.261  1.00  0.00    -0.440 C  
BRANCH  14  15
HETATM   15  C   UNL     1     -11.183   7.069  70.625  1.00  0.00    -0.327 C  
BRANCH  15  16
HETATM   16  C   UNL     1     -12.543   7.179  71.260  1.00  0.00    -0.421 C  
HETATM   17  C   UNL     1     -13.060   8.312  71.759  1.00  0.00    -0.366 C  
BRANCH  17  18
HETATM   18  C   UNL     1     -12.363   9.641  71.808  1.00  0.00    -0.474 C  
BRANCH  18  19
HETATM   19  C   UNL     1     -12.768  10.537  70.639  1.00  0.00    -0.441 C  
BRANCH  19  20
HETATM   20  C   UNL     1     -11.623  10.635  69.631  1.00  0.00    -0.368 C  
BRANCH  20  21
HETATM   21  C   UNL     1     -11.977  11.571  68.479  1.00  0.00    -0.293 C  
BRANCH  21  22
HETATM   22  C   UNL     1     -10.939  12.680  68.330  1.00  0.00    -0.284 C  
BRANCH  22  23
HETATM   23  C   UNL     1     -11.020  13.316  66.945  1.00  0.00    -0.298 C  
BRANCH  23  24
HETATM   24  C   UNL     1     -10.218  14.611  66.870  1.00  0.00    -0.262 C  
HETATM   25  C   UNL     1     -10.512  15.375  65.600  1.00  0.00    -0.372 C  
HETATM   26  O   UNL     1      -9.818  16.535  65.534  1.00  0.00    -0.537 OA 
HETATM   27  O   UNL     1     -11.278  15.024  64.723  1.00  0.00    -0.390 OA 
ENDBRANCH  23  24
ENDBRANCH  22  23
ENDBRANCH  21  22
ENDBRANCH  20  21
ENDBRANCH  19  20
ENDBRANCH  18  19
ENDBRANCH  17  18
ENDBRANCH  15  16
ENDBRANCH  14  15
ENDBRANCH  13  14
ENDBRANCH  12  13
ENDBRANCH  11  12
ENDBRANCH  10  11
ENDBRANCH   6  10
TORSDOF 15
ENDMDL
MODEL      294
REMARK 921   NORMALIZED FREE ENERGY PREDICTED BY IDOCK:   -3.59 KCAL/MOL
REMARK 922        TOTAL FREE ENERGY PREDICTED BY IDOCK:   -8.69 KCAL/MOL
REMARK 923 INTER-LIGAND FREE ENERGY PREDICTED BY IDOCK:   -6.36 KCAL/MOL
REMARK 924 INTRA-LIGAND FREE ENERGY PREDICTED BY IDOCK:   -2.33 KCAL/MOL
REMARK 927      BINDING AFFINITY PREDICTED BY RF-SCORE:    0.00 PKD
ROOT
ATOM      1  N   GLY A   1     -12.202  11.852  63.081  1.00  0.00    -0.886 NA 
HETATM    2  C   UNL     1      -7.826  11.111  68.439  1.00  0.00    -0.133 C  
ATOM      3  H2  GLY A   1     -11.462  12.321  62.558  1.00  0.00     0.000 HD 
ATOM      4  H1  GLY A   1     -12.324  10.884  62.782  1.00  0.00     0.000 HD 
ATOM      5  CA  GLY A   1     -11.972  11.910  64.530  1.00  0.00    -0.196 C  
HETATM    6  C   UNL     1      -7.804   9.606  68.224  1.00  0.00    -0.085 C  
ENDROOT
BRANCH   5   7
ATOM      7  C   GLY A   1     -11.788  13.363  64.979  1.00  0.00    -0.352 C  
ATOM      8  H   GLY A   1     -12.943  14.827  65.583  1.00  0.00     0.000 HD 
ATOM      9  O   GLY A   1     -13.057  13.926  65.305  1.00  0.00    -0.777 OA 
ENDBRANCH   5   7
BRANCH   6  10
HETATM   10  C   UNL     1      -9.022   8.885  68.801  1.00  0.00    -0.134 C  
BRANCH  10  11
HETATM   11  C   UNL     1     -10.257   8.902  67.898  1.00  0.00    -0.274 C  
BRANCH  11  12
HETATM   12  C   UNL     1     -10.104   7.854  66.793  1.00  0.00    -0.352 C  
BRANCH  12  13
HETATM   13  C   UNL     1     -10.877   6.572  67.098  1.00  0.00    -0.472 C  
BRANCH  13  14
HETATM   14  C   UNL     1     -10.188   5.313  66.553  1.00  0.00    -0.293 C  
BRANCH  14  15
HETATM   15  C   UNL     1      -8.655   5.330  66.599  1.00  0.00    -0.110 C  
BRANCH  15  16
HETATM   16  C   UNL     1      -8.017   3.980  66.417  1.00  0.00    -0.097 C  
HETATM   17  C   UNL     1      -7.471   3.256  67.406  1.00  0.00    -0.062 C  
BRANCH  17  18
HETATM   18  C   UNL     1      -7.366   3.681  68.842  1.00  0.00    -0.053 C  
BRANCH  18  19
HETATM   19  C   UNL     1      -8.341   2.915  69.733  1.00  0.00    -0.083 C  
BRANCH  19  20
HETATM   20  C   UNL     1      -9.665   3.670  69.837  1.00  0.00    -0.166 C  
BRANCH  20  21
HETATM   21  C   UNL     1      -9.447   5.117  70.269  1.00  0.00    -0.233 C  
BRANCH  21  22
HETATM   22  C   UNL     1     -10.776   5.842  70.460  1.00  0.00    -0.363 C  
BRANCH  22  23
HETATM   23  C   UNL     1     -10.941   6.299  71.907  1.00  0.00    -0.302 C  
BRANCH  23  24
HETATM   24  C   UNL     1     -10.310   7.667  72.143  1.00  0.00    -0.270 C  
HETATM   25  C   UNL     1      -9.022   7.558  72.928  1.00  0.00    -0.158 C  
HETATM   26  O   UNL     1      -8.445   8.766  73.125  1.00  0.00    -0.386 OA 
HETATM   27  O   UNL     1      -8.531   6.526  73.343  1.00  0.00    -0.119 OA 
ENDBRANCH  23  24
ENDBRANCH  22  23
ENDBRANCH  21  22
ENDBRANCH  20  21
ENDBRANCH  19  20
ENDBRANCH  18  19
ENDBRANCH  17  18
ENDBRANCH  15  16
ENDBRANCH  14  15
ENDBRANCH  13  14
ENDBRANCH  12  13
ENDBRANCH  11  12
ENDBRANCH  10  11
ENDBRANCH   6  10
TORSDOF 15
ENDMDL
MODEL      295
REMARK 921   NORMALIZED FREE ENERGY PREDICTED BY IDOCK:   -3.59 KCAL/MOL
REMARK 922        TOTAL FREE ENERGY PREDICTED BY IDOCK:   -8.68 KCAL/MOL
REMARK 923 INTER-LIGAND FREE ENERGY PREDICTED BY IDOCK:   -6.22 KCAL/MOL
REMARK 924 INTRA-LIGAND FREE ENERGY PREDICTED BY IDOCK:   -2.45 KCAL/MOL
REMARK 927      BINDING AFFINITY PREDICTED BY RF-SCORE:    0.00 PKD
ROOT
ATOM      1  N   GLY A   1      -7.882  10.052  63.647  1.00  0.00    -0.147 NA 
HETATM    2  C   UNL     1      -5.595   7.633  69.757  1.00  0.00    -0.023 C  
ATOM      3  H2  GLY A   1      -7.527   9.210  63.195  1.00  0.00     0.000 HD 
ATOM      4  H1  GLY A   1      -8.892  10.016  63.779  1.00  0.00     0.000 HD 
ATOM      5  CA  GLY A   1      -7.212  10.312  64.928  1.00  0.00    -0.100 C  
HETATM    6  C   UNL     1      -7.029   7.459  70.233  1.00  0.00    -0.059 C  
ENDROOT
BRANCH   5   7
ATOM      7  C   GLY A   1      -5.694  10.366  64.730  1.00  0.00    -0.133 C  
ATOM      8  H   GLY A   1      -4.216   9.081  64.673  1.00  0.00     0.000 HD 
ATOM      9  O   GLY A   1      -5.157   9.048  64.796  1.00  0.00    -0.037 OA 
ENDBRANCH   5   7
BRANCH   6  10
HETATM   10  C   UNL     1      -7.679   8.756  70.712  1.00  0.00    -0.108 C  
BRANCH  10  11
HETATM   11  C   UNL     1      -8.741   8.569  71.799  1.00  0.00    -0.266 C  
BRANCH  11  12
HETATM   12  C   UNL     1     -10.122   8.917  71.238  1.00  0.00    -0.365 C  
BRANCH  12  13
HETATM   13  C   UNL     1     -11.183   7.890  71.632  1.00  0.00    -0.292 C  
BRANCH  13  14
HETATM   14  C   UNL     1     -10.610   6.479  71.820  1.00  0.00    -0.245 C  
BRANCH  14  15
HETATM   15  C   UNL     1     -10.319   5.708  70.526  1.00  0.00    -0.327 C  
BRANCH  15  16
HETATM   16  C   UNL     1     -11.278   6.000  69.405  1.00  0.00    -0.397 C  
HETATM   17  C   UNL     1     -10.962   6.677  68.290  1.00  0.00    -0.321 C  
BRANCH  17  18
HETATM   18  C   UNL     1      -9.624   7.289  67.992  1.00  0.00    -0.148 C  
BRANCH  18  19
HETATM   19  C   UNL     1      -9.548   7.820  66.563  1.00  0.00    -0.270 C  
BRANCH  19  20
HETATM   20  C   UNL     1     -10.278   9.159  66.458  1.00  0.00    -0.322 C  
BRANCH  20  21
HETATM   21  C   UNL     1      -9.917  10.080  67.619  1.00  0.00    -0.214 C  
BRANCH  21  22
HETATM   22  C   UNL     1     -10.521  11.469  67.430  1.00  0.00    -0.240 C  
BRANCH  22  23
HETATM   23  C   UNL     1     -10.319  11.956  65.997  1.00  0.00    -0.268 C  
BRANCH  23  24
HETATM   24  C   UNL     1     -11.642  12.335  65.339  1.00  0.00    -0.412 C  
HETATM   25  C   UNL     1     -11.598  12.129  63.842  1.00  0.00    -0.448 C  
HETATM   26  O   UNL     1     -12.774  12.444  63.251  1.00  0.00    -0.688 OA 
HETATM   27  O   UNL     1     -10.640  11.725  63.210  1.00  0.00    -0.390 OA 
ENDBRANCH  23  24
ENDBRANCH  22  23
ENDBRANCH  21  22
ENDBRANCH  20  21
ENDBRANCH  19  20
ENDBRANCH  18  19
ENDBRANCH  17  18
ENDBRANCH  15  16
ENDBRANCH  14  15
ENDBRANCH  13  14
ENDBRANCH  12  13
ENDBRANCH  11  12
ENDBRANCH  10  11
ENDBRANCH   6  10
TORSDOF 15
ENDMDL
MODEL      296
REMARK 921   NORMALIZED FREE ENERGY PREDICTED BY IDOCK:   -3.58 KCAL/MOL
REMARK 922        TOTAL FREE ENERGY PREDICTED BY IDOCK:   -8.67 KCAL/MOL
REMARK 923 INTER-LIGAND FREE ENERGY PREDICTED BY IDOCK:   -7.27 KCAL/MOL
REMARK 924 INTRA-LIGAND FREE ENERGY PREDICTED BY IDOCK:   -1.40 KCAL/MOL
REMARK 927      BINDING AFFINITY PREDICTED BY RF-SCORE:    0.00 PKD
ROOT
ATOM      1  N   GLY A   1     -11.456   4.285  65.021  1.00  0.00    -0.996 NA 
HETATM    2  C   UNL     1      -9.456   4.412  71.684  1.00  0.00    -0.214 C  
ATOM      3  H2  GLY A   1     -11.530   3.269  65.077  1.00  0.00     0.000 HD 
ATOM      4  H1  GLY A   1     -12.369   4.737  65.074  1.00  0.00     0.000 HD 
ATOM      5  CA  GLY A   1     -10.561   4.827  66.053  1.00  0.00    -0.254 C  
HETATM    6  C   UNL     1     -10.758   5.097  72.070  1.00  0.00    -0.236 C  
ENDROOT
BRANCH   5   7
ATOM      7  C   GLY A   1      -9.191   4.148  65.974  1.00  0.00    -0.149 C  
ATOM      8  H   GLY A   1      -8.299   2.629  66.834  1.00  0.00     0.000 HD 
ATOM      9  O   GLY A   1      -9.149   3.050  66.882  1.00  0.00    -0.152 OA 
ENDBRANCH   5   7
BRANCH   6  10
HETATM   10  C   UNL     1     -10.768   6.599  71.790  1.00  0.00    -0.257 C  
BRANCH  10  11
HETATM   11  C   UNL     1     -11.888   7.063  70.855  1.00  0.00    -0.401 C  
BRANCH  11  12
HETATM   12  C   UNL     1     -11.576   6.631  69.420  1.00  0.00    -0.210 C  
BRANCH  12  13
HETATM   13  C   UNL     1     -10.269   7.232  68.905  1.00  0.00    -0.196 C  
BRANCH  13  14
HETATM   14  C   UNL     1     -10.488   8.342  67.868  1.00  0.00    -0.255 C  
BRANCH  14  15
HETATM   15  C   UNL     1     -10.094   9.754  68.322  1.00  0.00    -0.189 C  
BRANCH  15  16
HETATM   16  C   UNL     1     -11.206  10.763  68.234  1.00  0.00    -0.358 C  
HETATM   17  C   UNL     1     -11.402  11.590  67.195  1.00  0.00    -0.354 C  
BRANCH  17  18
HETATM   18  C   UNL     1     -10.532  11.679  65.975  1.00  0.00    -0.294 C  
BRANCH  18  19
HETATM   19  C   UNL     1     -10.683  13.023  65.267  1.00  0.00    -0.317 C  
BRANCH  19  20
HETATM   20  C   UNL     1      -9.932  14.110  66.035  1.00  0.00    -0.340 C  
BRANCH  20  21
HETATM   21  C   UNL     1     -10.894  15.118  66.656  1.00  0.00    -0.318 C  
BRANCH  21  22
HETATM   22  C   UNL     1     -10.396  15.590  68.019  1.00  0.00    -0.247 C  
BRANCH  22  23
HETATM   23  C   UNL     1     -11.541  16.178  68.840  1.00  0.00    -0.298 C  
BRANCH  23  24
HETATM   24  C   UNL     1     -11.342  15.943  70.334  1.00  0.00    -0.399 C  
HETATM   25  C   UNL     1     -12.072  14.707  70.806  1.00  0.00    -0.320 C  
HETATM   26  O   UNL     1     -11.886  14.480  72.127  1.00  0.00    -0.213 OA 
HETATM   27  O   UNL     1     -12.751  13.976  70.109  1.00  0.00    -0.302 OA 
ENDBRANCH  23  24
ENDBRANCH  22  23
ENDBRANCH  21  22
ENDBRANCH  20  21
ENDBRANCH  19  20
ENDBRANCH  18  19
ENDBRANCH  17  18
ENDBRANCH  15  16
ENDBRANCH  14  15
ENDBRANCH  13  14
ENDBRANCH  12  13
ENDBRANCH  11  12
ENDBRANCH  10  11
ENDBRANCH   6  10
TORSDOF 15
ENDMDL
MODEL      297
REMARK 921   NORMALIZED FREE ENERGY PREDICTED BY IDOCK:   -3.58 KCAL/MOL
REMARK 922        TOTAL FREE ENERGY PREDICTED BY IDOCK:   -8.67 KCAL/MOL
REMARK 923 INTER-LIGAND FREE ENERGY PREDICTED BY IDOCK:   -6.62 KCAL/MOL
REMARK 924 INTRA-LIGAND FREE ENERGY PREDICTED BY IDOCK:   -2.05 KCAL/MOL
REMARK 927      BINDING AFFINITY PREDICTED BY RF-SCORE:    0.00 PKD
ROOT
ATOM      1  N   GLY A   1     -10.629  14.568  64.799  1.00  0.00    -0.552 NA 
HETATM    2  C   UNL     1     -12.976  10.916  70.237  1.00  0.00    -0.104 C  
ATOM      3  H2  GLY A   1     -11.125  15.386  65.151  1.00  0.00     0.000 HD 
ATOM      4  H1  GLY A   1      -9.630  14.612  65.000  1.00  0.00     0.000 HD 
ATOM      5  CA  GLY A   1     -11.196  13.317  65.320  1.00  0.00    -0.295 C  
HETATM    6  C   UNL     1     -11.565  10.826  70.795  1.00  0.00    -0.322 C  
ENDROOT
BRANCH   5   7
ATOM      7  C   GLY A   1     -12.696  13.250  65.019  1.00  0.00    -0.375 C  
ATOM      8  H   GLY A   1     -13.876  12.176  63.882  1.00  0.00     0.000 HD 
ATOM      9  O   GLY A   1     -12.946  12.217  64.068  1.00  0.00    -0.740 OA 
ENDBRANCH   5   7
BRANCH   6  10
HETATM   10  C   UNL     1     -10.709   9.749  70.130  1.00  0.00    -0.339 C  
BRANCH  10  11
HETATM   11  C   UNL     1      -9.937   8.859  71.107  1.00  0.00    -0.342 C  
BRANCH  11  12
HETATM   12  C   UNL     1     -10.814   8.540  72.320  1.00  0.00    -0.418 C  
BRANCH  12  13
HETATM   13  C   UNL     1     -11.933   7.555  71.984  1.00  0.00    -0.330 C  
BRANCH  13  14
HETATM   14  C   UNL     1     -11.409   6.168  71.588  1.00  0.00    -0.341 C  
BRANCH  14  15
HETATM   15  C   UNL     1     -11.184   5.192  72.749  1.00  0.00    -0.323 C  
BRANCH  15  16
HETATM   16  C   UNL     1      -9.743   4.826  72.978  1.00  0.00    -0.164 C  
HETATM   17  C   UNL     1      -9.079   3.882  72.292  1.00  0.00    -0.154 C  
BRANCH  17  18
HETATM   18  C   UNL     1      -9.665   3.010  71.220  1.00  0.00    -0.208 C  
BRANCH  18  19
HETATM   19  C   UNL     1      -8.894   3.129  69.908  1.00  0.00    -0.151 C  
BRANCH  19  20
HETATM   20  C   UNL     1      -9.499   4.233  69.040  1.00  0.00    -0.242 C  
BRANCH  20  21
HETATM   21  C   UNL     1      -8.625   5.483  69.043  1.00  0.00    -0.103 C  
BRANCH  21  22
HETATM   22  C   UNL     1      -9.399   6.698  68.539  1.00  0.00    -0.125 C  
BRANCH  22  23
HETATM   23  C   UNL     1      -8.600   7.444  67.472  1.00  0.00    -0.122 C  
BRANCH  23  24
HETATM   24  C   UNL     1      -9.513   8.110  66.447  1.00  0.00    -0.285 C  
HETATM   25  C   UNL     1      -9.202   9.582  66.298  1.00  0.00    -0.172 C  
HETATM   26  O   UNL     1      -9.994  10.178  65.377  1.00  0.00    -0.290 OA 
HETATM   27  O   UNL     1      -8.345  10.190  66.911  1.00  0.00    -0.121 OA 
ENDBRANCH  23  24
ENDBRANCH  22  23
ENDBRANCH  21  22
ENDBRANCH  20  21
ENDBRANCH  19  20
ENDBRANCH  18  19
ENDBRANCH  17  18
ENDBRANCH  15  16
ENDBRANCH  14  15
ENDBRANCH  13  14
ENDBRANCH  12  13
ENDBRANCH  11  12
ENDBRANCH  10  11
ENDBRANCH   6  10
TORSDOF 15
ENDMDL
MODEL      298
REMARK 921   NORMALIZED FREE ENERGY PREDICTED BY IDOCK:   -3.58 KCAL/MOL
REMARK 922        TOTAL FREE ENERGY PREDICTED BY IDOCK:   -8.66 KCAL/MOL
REMARK 923 INTER-LIGAND FREE ENERGY PREDICTED BY IDOCK:   -8.04 KCAL/MOL
REMARK 924 INTRA-LIGAND FREE ENERGY PREDICTED BY IDOCK:   -0.63 KCAL/MOL
REMARK 927      BINDING AFFINITY PREDICTED BY RF-SCORE:    0.00 PKD
ROOT
ATOM      1  N   GLY A   1     -11.603  11.153  67.699  1.00  0.00    -0.564 NA 
HETATM    2  C   UNL     1      -5.957  15.166  68.357  1.00  0.00    -0.105 C  
ATOM      3  H2  GLY A   1     -11.567  10.962  68.700  1.00  0.00     0.000 HD 
ATOM      4  H1  GLY A   1     -12.317  11.843  67.469  1.00  0.00     0.000 HD 
ATOM      5  CA  GLY A   1     -10.298  11.579  67.175  1.00  0.00    -0.216 C  
HETATM    6  C   UNL     1      -6.789  16.401  68.046  1.00  0.00    -0.147 C  
ENDROOT
BRANCH   5   7
ATOM      7  C   GLY A   1      -9.225  10.543  67.521  1.00  0.00    -0.142 C  
ATOM      8  H   GLY A   1      -7.768   9.630  66.581  1.00  0.00     0.000 HD 
ATOM      9  O   GLY A   1      -8.433  10.273  66.367  1.00  0.00    -0.126 OA 
ENDBRANCH   5   7
BRANCH   6  10
HETATM   10  C   UNL     1      -7.058  16.601  66.555  1.00  0.00    -0.212 C  
BRANCH  10  11
HETATM   11  C   UNL     1      -7.056  18.063  66.101  1.00  0.00    -0.330 C  
BRANCH  11  12
HETATM   12  C   UNL     1      -6.246  18.909  67.086  1.00  0.00    -0.175 C  
BRANCH  12  13
HETATM   13  C   UNL     1      -7.078  20.031  67.706  1.00  0.00    -0.316 C  
BRANCH  13  14
HETATM   14  C   UNL     1      -8.375  19.527  68.353  1.00  0.00    -0.384 C  
BRANCH  14  15
HETATM   15  C   UNL     1      -9.664  20.182  67.842  1.00  0.00    -0.499 C  
BRANCH  15  16
HETATM   16  C   UNL     1      -9.962  19.911  66.392  1.00  0.00    -0.593 C  
HETATM   17  C   UNL     1     -10.415  18.741  65.915  1.00  0.00    -0.424 C  
BRANCH  17  18
HETATM   18  C   UNL     1     -10.659  17.503  66.728  1.00  0.00    -0.201 C  
BRANCH  18  19
HETATM   19  C   UNL     1     -11.034  17.837  68.170  1.00  0.00    -0.057 C  
BRANCH  19  20
HETATM   20  C   UNL     1     -10.868  16.603  69.056  1.00  0.00    -0.314 C  
BRANCH  20  21
HETATM   21  C   UNL     1     -11.862  15.509  68.678  1.00  0.00    -0.318 C  
BRANCH  21  22
HETATM   22  C   UNL     1     -12.202  14.632  69.880  1.00  0.00    -0.365 C  
BRANCH  22  23
HETATM   23  C   UNL     1     -13.146  15.361  70.832  1.00  0.00    -0.528 C  
BRANCH  23  24
HETATM   24  C   UNL     1     -13.124  14.746  72.229  1.00  0.00    -0.441 C  
HETATM   25  C   UNL     1     -12.402  15.634  73.216  1.00  0.00    -0.497 C  
HETATM   26  O   UNL     1     -12.393  15.106  74.462  1.00  0.00    -0.590 OA 
HETATM   27  O   UNL     1     -11.884  16.704  72.959  1.00  0.00    -0.496 OA 
ENDBRANCH  23  24
ENDBRANCH  22  23
ENDBRANCH  21  22
ENDBRANCH  20  21
ENDBRANCH  19  20
ENDBRANCH  18  19
ENDBRANCH  17  18
ENDBRANCH  15  16
ENDBRANCH  14  15
ENDBRANCH  13  14
ENDBRANCH  12  13
ENDBRANCH  11  12
ENDBRANCH  10  11
ENDBRANCH   6  10
TORSDOF 15
ENDMDL
MODEL      299
REMARK 921   NORMALIZED FREE ENERGY PREDICTED BY IDOCK:   -3.58 KCAL/MOL
REMARK 922        TOTAL FREE ENERGY PREDICTED BY IDOCK:   -8.66 KCAL/MOL
REMARK 923 INTER-LIGAND FREE ENERGY PREDICTED BY IDOCK:   -6.57 KCAL/MOL
REMARK 924 INTRA-LIGAND FREE ENERGY PREDICTED BY IDOCK:   -2.09 KCAL/MOL
REMARK 927      BINDING AFFINITY PREDICTED BY RF-SCORE:    0.00 PKD
ROOT
ATOM      1  N   GLY A   1     -13.519   6.634  72.272  1.00  0.00    -0.464 NA 
HETATM    2  C   UNL     1     -10.328   8.821  66.489  1.00  0.00    -0.254 C  
ATOM      3  H2  GLY A   1     -14.230   6.186  71.695  1.00  0.00     0.000 HD 
ATOM      4  H1  GLY A   1     -12.844   5.961  72.636  1.00  0.00     0.000 HD 
ATOM      5  CA  GLY A   1     -12.826   7.711  71.552  1.00  0.00    -0.344 C  
HETATM    6  C   UNL     1      -9.159   7.890  66.773  1.00  0.00    -0.189 C  
ENDROOT
BRANCH   5   7
ATOM      7  C   GLY A   1     -13.840   8.720  71.007  1.00  0.00     0.076 C  
ATOM      8  H   GLY A   1     -14.019  10.671  70.945  1.00  0.00     0.000 HD 
ATOM      9  O   GLY A   1     -13.390  10.044  71.283  1.00  0.00    -0.376 OA 
ENDBRANCH   5   7
BRANCH   6  10
HETATM   10  C   UNL     1      -8.179   8.434  67.813  1.00  0.00    -0.126 C  
BRANCH  10  11
HETATM   11  C   UNL     1      -8.710   8.428  69.249  1.00  0.00    -0.138 C  
BRANCH  11  12
HETATM   12  C   UNL     1      -8.945   9.866  69.719  1.00  0.00    -0.242 C  
BRANCH  12  13
HETATM   13  C   UNL     1     -10.376  10.335  69.458  1.00  0.00    -0.267 C  
BRANCH  13  14
HETATM   14  C   UNL     1     -10.457  11.816  69.067  1.00  0.00    -0.131 C  
BRANCH  14  15
HETATM   15  C   UNL     1     -10.388  12.105  67.562  1.00  0.00    -0.219 C  
BRANCH  15  16
HETATM   16  C   UNL     1      -8.997  12.072  66.990  1.00  0.00    -0.198 C  
HETATM   17  C   UNL     1      -8.076  13.031  67.174  1.00  0.00    -0.114 C  
BRANCH  17  18
HETATM   18  C   UNL     1      -8.285  14.306  67.938  1.00  0.00    -0.156 C  
BRANCH  18  19
HETATM   19  C   UNL     1      -8.516  15.494  67.007  1.00  0.00    -0.266 C  
BRANCH  19  20
HETATM   20  C   UNL     1     -10.014  15.719  66.802  1.00  0.00    -0.260 C  
BRANCH  20  21
HETATM   21  C   UNL     1     -10.663  16.309  68.050  1.00  0.00    -0.331 C  
BRANCH  21  22
HETATM   22  C   UNL     1     -11.717  15.365  68.622  1.00  0.00    -0.371 C  
BRANCH  22  23
HETATM   23  C   UNL     1     -11.950  15.649  70.104  1.00  0.00    -0.387 C  
BRANCH  23  24
HETATM   24  C   UNL     1     -12.862  14.605  70.742  1.00  0.00    -0.418 C  
HETATM   25  C   UNL     1     -12.721  14.587  72.247  1.00  0.00    -0.328 C  
HETATM   26  O   UNL     1     -13.539  13.676  72.823  1.00  0.00    -0.672 OA 
HETATM   27  O   UNL     1     -11.975  15.295  72.896  1.00  0.00    -0.393 OA 
ENDBRANCH  23  24
ENDBRANCH  22  23
ENDBRANCH  21  22
ENDBRANCH  20  21
ENDBRANCH  19  20
ENDBRANCH  18  19
ENDBRANCH  17  18
ENDBRANCH  15  16
ENDBRANCH  14  15
ENDBRANCH  13  14
ENDBRANCH  12  13
ENDBRANCH  11  12
ENDBRANCH  10  11
ENDBRANCH   6  10
TORSDOF 15
ENDMDL
MODEL      300
REMARK 921   NORMALIZED FREE ENERGY PREDICTED BY IDOCK:   -3.57 KCAL/MOL
REMARK 922        TOTAL FREE ENERGY PREDICTED BY IDOCK:   -8.65 KCAL/MOL
REMARK 923 INTER-LIGAND FREE ENERGY PREDICTED BY IDOCK:   -7.29 KCAL/MOL
REMARK 924 INTRA-LIGAND FREE ENERGY PREDICTED BY IDOCK:   -1.36 KCAL/MOL
REMARK 927      BINDING AFFINITY PREDICTED BY RF-SCORE:    0.00 PKD
ROOT
ATOM      1  N   GLY A   1      -6.296  16.801  66.448  1.00  0.00    -0.237 NA 
HETATM    2  C   UNL     1     -10.330  11.404  64.713  1.00  0.00    -0.349 C  
ATOM      3  H2  GLY A   1      -5.472  16.232  66.250  1.00  0.00     0.000 HD 
ATOM      4  H1  GLY A   1      -6.496  17.456  65.693  1.00  0.00     0.000 HD 
ATOM      5  CA  GLY A   1      -7.477  15.975  66.731  1.00  0.00    -0.183 C  
HETATM    6  C   UNL     1     -10.812  12.152  63.479  1.00  0.00    -0.518 C  
ENDROOT
BRANCH   5   7
ATOM      7  C   GLY A   1      -7.177  14.991  67.865  1.00  0.00    -0.149 C  
ATOM      8  H   GLY A   1      -6.169  13.324  68.077  1.00  0.00     0.000 HD 
ATOM      9  O   GLY A   1      -6.355  13.935  67.374  1.00  0.00    -0.320 OA 
ENDBRANCH   5   7
BRANCH   6  10
HETATM   10  C   UNL     1     -11.899  13.185  63.772  1.00  0.00    -0.546 C  
BRANCH  10  11
HETATM   11  C   UNL     1     -12.538  13.059  65.157  1.00  0.00    -0.530 C  
BRANCH  11  12
HETATM   12  C   UNL     1     -11.974  14.137  66.087  1.00  0.00    -0.437 C  
BRANCH  12  13
HETATM   13  C   UNL     1     -12.227  13.822  67.560  1.00  0.00    -0.262 C  
BRANCH  13  14
HETATM   14  C   UNL     1     -11.680  12.451  67.981  1.00  0.00    -0.414 C  
BRANCH  14  15
HETATM   15  C   UNL     1     -11.592  12.213  69.494  1.00  0.00    -0.382 C  
BRANCH  15  16
HETATM   16  C   UNL     1     -12.378  11.025  69.978  1.00  0.00    -0.377 C  
HETATM   17  C   UNL     1     -11.832   9.881  70.421  1.00  0.00    -0.310 C  
BRANCH  17  18
HETATM   18  C   UNL     1     -10.363   9.578  70.470  1.00  0.00    -0.350 C  
BRANCH  18  19
HETATM   19  C   UNL     1      -9.952   8.588  69.382  1.00  0.00    -0.194 C  
BRANCH  19  20
HETATM   20  C   UNL     1     -10.367   9.113  68.008  1.00  0.00    -0.272 C  
BRANCH  20  21
HETATM   21  C   UNL     1     -10.351   8.003  66.961  1.00  0.00    -0.414 C  
BRANCH  21  22
HETATM   22  C   UNL     1      -9.550   6.798  67.447  1.00  0.00    -0.158 C  
BRANCH  22  23
HETATM   23  C   UNL     1     -10.362   5.514  67.299  1.00  0.00    -0.290 C  
BRANCH  23  24
HETATM   24  C   UNL     1      -9.706   4.345  68.028  1.00  0.00    -0.182 C  
HETATM   25  C   UNL     1      -9.165   3.318  67.060  1.00  0.00    -0.180 C  
HETATM   26  O   UNL     1      -8.564   2.286  67.697  1.00  0.00    -0.083 OA 
HETATM   27  O   UNL     1      -9.238   3.381  65.847  1.00  0.00    -0.149 OA 
ENDBRANCH  23  24
ENDBRANCH  22  23
ENDBRANCH  21  22
ENDBRANCH  20  21
ENDBRANCH  19  20
ENDBRANCH  18  19
ENDBRANCH  17  18
ENDBRANCH  15  16
ENDBRANCH  14  15
ENDBRANCH  13  14
ENDBRANCH  12  13
ENDBRANCH  11  12
ENDBRANCH  10  11
ENDBRANCH   6  10
TORSDOF 15
ENDMDL
MODEL      301
REMARK 921   NORMALIZED FREE ENERGY PREDICTED BY IDOCK:   -3.56 KCAL/MOL
REMARK 922        TOTAL FREE ENERGY PREDICTED BY IDOCK:   -8.64 KCAL/MOL
REMARK 923 INTER-LIGAND FREE ENERGY PREDICTED BY IDOCK:   -7.21 KCAL/MOL
REMARK 924 INTRA-LIGAND FREE ENERGY PREDICTED BY IDOCK:   -1.42 KCAL/MOL
REMARK 927      BINDING AFFINITY PREDICTED BY RF-SCORE:    0.00 PKD
ROOT
ATOM      1  N   GLY A   1     -12.335  13.666  63.125  1.00  0.00    -1.076 NA 
HETATM    2  C   UNL     1      -6.955  13.442  67.532  1.00  0.00    -0.153 C  
ATOM      3  H2  GLY A   1     -11.740  14.137  62.443  1.00  0.00     0.000 HD 
ATOM      4  H1  GLY A   1     -12.458  12.679  62.903  1.00  0.00     0.000 HD 
ATOM      5  CA  GLY A   1     -11.828  13.820  64.495  1.00  0.00    -0.417 C  
HETATM    6  C   UNL     1      -6.892  11.929  67.389  1.00  0.00    -0.130 C  
ENDROOT
BRANCH   5   7
ATOM      7  C   GLY A   1     -11.642  15.303  64.827  1.00  0.00    -0.322 C  
ATOM      8  H   GLY A   1     -12.069  17.019  63.982  1.00  0.00     0.000 HD 
ATOM      9  O   GLY A   1     -12.185  16.099  63.776  1.00  0.00    -0.934 OA 
ENDBRANCH   5   7
BRANCH   6  10
HETATM   10  C   UNL     1      -7.929  11.188  68.232  1.00  0.00    -0.127 C  
BRANCH  10  11
HETATM   11  C   UNL     1      -7.764   9.666  68.247  1.00  0.00    -0.082 C  
BRANCH  11  12
HETATM   12  C   UNL     1      -7.359   9.176  66.854  1.00  0.00    -0.090 C  
BRANCH  12  13
HETATM   13  C   UNL     1      -8.281   8.073  66.336  1.00  0.00    -0.113 C  
BRANCH  13  14
HETATM   14  C   UNL     1      -9.765   8.459  66.393  1.00  0.00    -0.312 C  
BRANCH  14  15
HETATM   15  C   UNL     1     -10.631   7.611  67.333  1.00  0.00    -0.356 C  
BRANCH  15  16
HETATM   16  C   UNL     1     -10.807   6.184  66.891  1.00  0.00    -0.411 C  
HETATM   17  C   UNL     1     -10.269   5.123  67.511  1.00  0.00    -0.210 C  
BRANCH  17  18
HETATM   18  C   UNL     1      -9.373   5.179  68.715  1.00  0.00    -0.166 C  
BRANCH  18  19
HETATM   19  C   UNL     1      -9.870   4.266  69.834  1.00  0.00    -0.267 C  
BRANCH  19  20
HETATM   20  C   UNL     1      -9.238   4.674  71.165  1.00  0.00    -0.193 C  
BRANCH  20  21
HETATM   21  C   UNL     1     -10.075   4.194  72.347  1.00  0.00    -0.243 C  
BRANCH  21  22
HETATM   22  C   UNL     1     -10.927   5.324  72.916  1.00  0.00    -0.343 C  
BRANCH  22  23
HETATM   23  C   UNL     1     -10.217   6.001  74.086  1.00  0.00    -0.307 C  
BRANCH  23  24
HETATM   24  C   UNL     1      -9.808   7.431  73.747  1.00  0.00    -0.331 C  
HETATM   25  C   UNL     1      -8.329   7.531  73.449  1.00  0.00    -0.138 C  
HETATM   26  O   UNL     1      -7.960   8.793  73.128  1.00  0.00    -0.405 OA 
HETATM   27  O   UNL     1      -7.537   6.608  73.479  1.00  0.00    -0.087 OA 
ENDBRANCH  23  24
ENDBRANCH  22  23
ENDBRANCH  21  22
ENDBRANCH  20  21
ENDBRANCH  19  20
ENDBRANCH  18  19
ENDBRANCH  17  18
ENDBRANCH  15  16
ENDBRANCH  14  15
ENDBRANCH  13  14
ENDBRANCH  12  13
ENDBRANCH  11  12
ENDBRANCH  10  11
ENDBRANCH   6  10
TORSDOF 15
ENDMDL
MODEL      302
REMARK 921   NORMALIZED FREE ENERGY PREDICTED BY IDOCK:   -3.56 KCAL/MOL
REMARK 922        TOTAL FREE ENERGY PREDICTED BY IDOCK:   -8.63 KCAL/MOL
REMARK 923 INTER-LIGAND FREE ENERGY PREDICTED BY IDOCK:   -6.66 KCAL/MOL
REMARK 924 INTRA-LIGAND FREE ENERGY PREDICTED BY IDOCK:   -1.97 KCAL/MOL
REMARK 927      BINDING AFFINITY PREDICTED BY RF-SCORE:    0.00 PKD
ROOT
ATOM      1  N   GLY A   1     -10.641  12.066  64.771  1.00  0.00    -0.283 NA 
HETATM    2  C   UNL     1     -10.543  18.908  66.032  1.00  0.00    -0.470 C  
ATOM      3  H2  GLY A   1     -10.680  12.264  63.772  1.00  0.00     0.000 HD 
ATOM      4  H1  GLY A   1      -9.706  11.791  65.069  1.00  0.00     0.000 HD 
ATOM      5  CA  GLY A   1     -11.116  13.201  65.574  1.00  0.00    -0.278 C  
HETATM    6  C   UNL     1      -9.111  18.803  66.534  1.00  0.00    -0.325 C  
ENDROOT
BRANCH   5   7
ATOM      7  C   GLY A   1     -12.521  13.615  65.127  1.00  0.00    -0.449 C  
ATOM      8  H   GLY A   1     -13.303  14.657  63.664  1.00  0.00     0.000 HD 
ATOM      9  O   GLY A   1     -12.432  14.401  63.941  1.00  0.00    -0.798 OA 
ENDBRANCH   5   7
BRANCH   6  10
HETATM   10  C   UNL     1      -8.999  18.289  67.968  1.00  0.00    -0.301 C  
BRANCH  10  11
HETATM   11  C   UNL     1      -8.195  16.995  68.118  1.00  0.00    -0.217 C  
BRANCH  11  12
HETATM   12  C   UNL     1      -8.886  16.071  69.125  1.00  0.00    -0.245 C  
BRANCH  12  13
HETATM   13  C   UNL     1      -9.912  15.154  68.462  1.00  0.00    -0.223 C  
BRANCH  13  14
HETATM   14  C   UNL     1     -11.361  15.584  68.733  1.00  0.00    -0.339 C  
BRANCH  14  15
HETATM   15  C   UNL     1     -12.355  14.439  68.962  1.00  0.00    -0.130 C  
BRANCH  15  16
HETATM   16  C   UNL     1     -11.954  13.480  70.050  1.00  0.00    -0.410 C  
HETATM   17  C   UNL     1     -11.790  12.159  69.878  1.00  0.00    -0.392 C  
BRANCH  17  18
HETATM   18  C   UNL     1     -12.016  11.413  68.595  1.00  0.00    -0.317 C  
BRANCH  18  19
HETATM   19  C   UNL     1     -10.871  10.451  68.289  1.00  0.00    -0.299 C  
BRANCH  19  20
HETATM   20  C   UNL     1      -9.531  11.103  68.626  1.00  0.00    -0.196 C  
BRANCH  20  21
HETATM   21  C   UNL     1      -8.373  10.130  68.428  1.00  0.00    -0.113 C  
BRANCH  21  22
HETATM   22  C   UNL     1      -7.577   9.949  69.717  1.00  0.00    -0.151 C  
BRANCH  22  23
HETATM   23  C   UNL     1      -6.563  11.078  69.889  1.00  0.00    -0.142 C  
BRANCH  23  24
HETATM   24  C   UNL     1      -6.071  11.604  68.545  1.00  0.00    -0.050 C  
HETATM   25  C   UNL     1      -6.003  13.115  68.530  1.00  0.00    -0.081 C  
HETATM   26  O   UNL     1      -5.549  13.590  67.346  1.00  0.00    -0.351 OA 
HETATM   27  O   UNL     1      -6.306  13.847  69.452  1.00  0.00    -0.099 OA 
ENDBRANCH  23  24
ENDBRANCH  22  23
ENDBRANCH  21  22
ENDBRANCH  20  21
ENDBRANCH  19  20
ENDBRANCH  18  19
ENDBRANCH  17  18
ENDBRANCH  15  16
ENDBRANCH  14  15
ENDBRANCH  13  14
ENDBRANCH  12  13
ENDBRANCH  11  12
ENDBRANCH  10  11
ENDBRANCH   6  10
TORSDOF 15
ENDMDL
MODEL      303
REMARK 921   NORMALIZED FREE ENERGY PREDICTED BY IDOCK:   -3.55 KCAL/MOL
REMARK 922        TOTAL FREE ENERGY PREDICTED BY IDOCK:   -8.61 KCAL/MOL
REMARK 923 INTER-LIGAND FREE ENERGY PREDICTED BY IDOCK:   -7.37 KCAL/MOL
REMARK 924 INTRA-LIGAND FREE ENERGY PREDICTED BY IDOCK:   -1.24 KCAL/MOL
REMARK 927      BINDING AFFINITY PREDICTED BY RF-SCORE:    0.00 PKD
ROOT
ATOM      1  N   GLY A   1      -5.481  19.904  63.914  1.00  0.00    -0.211 NA 
HETATM    2  C   UNL     1      -6.716  16.213  69.682  1.00  0.00    -0.165 C  
ATOM      3  H2  GLY A   1      -4.480  19.774  64.060  1.00  0.00     0.000 HD 
ATOM      4  H1  GLY A   1      -5.845  19.283  63.193  1.00  0.00     0.000 HD 
ATOM      5  CA  GLY A   1      -6.243  19.739  65.159  1.00  0.00    -0.258 C  
HETATM    6  C   UNL     1      -7.317  15.094  68.846  1.00  0.00    -0.142 C  
ENDROOT
BRANCH   5   7
ATOM      7  C   GLY A   1      -5.697  20.672  66.243  1.00  0.00    -0.194 C  
ATOM      8  H   GLY A   1      -6.441  21.808  67.656  1.00  0.00     0.000 HD 
ATOM      9  O   GLY A   1      -6.780  21.229  66.984  1.00  0.00    -0.439 OA 
ENDBRANCH   5   7
BRANCH   6  10
HETATM   10  C   UNL     1      -8.758  15.358  68.412  1.00  0.00    -0.171 C  
BRANCH  10  11
HETATM   11  C   UNL     1      -8.930  15.638  66.917  1.00  0.00    -0.267 C  
BRANCH  11  12
HETATM   12  C   UNL     1      -9.671  16.963  66.720  1.00  0.00    -0.274 C  
BRANCH  12  13
HETATM   13  C   UNL     1     -10.558  16.953  65.477  1.00  0.00    -0.215 C  
BRANCH  13  14
HETATM   14  C   UNL     1     -10.679  15.561  64.840  1.00  0.00    -0.415 C  
BRANCH  14  15
HETATM   15  C   UNL     1     -12.111  15.068  64.601  1.00  0.00    -0.330 C  
BRANCH  15  16
HETATM   16  C   UNL     1     -12.515  13.903  65.463  1.00  0.00    -0.541 C  
HETATM   17  C   UNL     1     -12.453  12.618  65.083  1.00  0.00    -0.531 C  
BRANCH  17  18
HETATM   18  C   UNL     1     -12.013  12.128  63.734  1.00  0.00    -0.607 C  
BRANCH  18  19
HETATM   19  C   UNL     1     -10.594  11.567  63.768  1.00  0.00    -0.465 C  
BRANCH  19  20
HETATM   20  C   UNL     1     -10.090  11.498  65.209  1.00  0.00    -0.314 C  
BRANCH  20  21
HETATM   21  C   UNL     1      -9.289  10.223  65.457  1.00  0.00    -0.250 C  
BRANCH  21  22
HETATM   22  C   UNL     1      -9.688   9.569  66.777  1.00  0.00    -0.254 C  
BRANCH  22  23
HETATM   23  C   UNL     1      -9.510   8.054  66.706  1.00  0.00    -0.259 C  
BRANCH  23  24
HETATM   24  C   UNL     1     -10.635   7.319  67.427  1.00  0.00    -0.370 C  
HETATM   25  C   UNL     1     -10.238   6.936  68.834  1.00  0.00    -0.177 C  
HETATM   26  O   UNL     1     -11.237   6.300  69.489  1.00  0.00    -0.380 OA 
HETATM   27  O   UNL     1      -9.160   7.161  69.352  1.00  0.00    -0.145 OA 
ENDBRANCH  23  24
ENDBRANCH  22  23
ENDBRANCH  21  22
ENDBRANCH  20  21
ENDBRANCH  19  20
ENDBRANCH  18  19
ENDBRANCH  17  18
ENDBRANCH  15  16
ENDBRANCH  14  15
ENDBRANCH  13  14
ENDBRANCH  12  13
ENDBRANCH  11  12
ENDBRANCH  10  11
ENDBRANCH   6  10
TORSDOF 15
ENDMDL
MODEL      304
REMARK 921   NORMALIZED FREE ENERGY PREDICTED BY IDOCK:   -3.55 KCAL/MOL
REMARK 922        TOTAL FREE ENERGY PREDICTED BY IDOCK:   -8.61 KCAL/MOL
REMARK 923 INTER-LIGAND FREE ENERGY PREDICTED BY IDOCK:   -7.55 KCAL/MOL
REMARK 924 INTRA-LIGAND FREE ENERGY PREDICTED BY IDOCK:   -1.06 KCAL/MOL
REMARK 927      BINDING AFFINITY PREDICTED BY RF-SCORE:    0.00 PKD
ROOT
ATOM      1  N   GLY A   1     -14.208  15.450  71.443  1.00  0.00    -0.647 NA 
HETATM    2  C   UNL     1      -9.309  16.502  66.616  1.00  0.00    -0.279 C  
ATOM      3  H2  GLY A   1     -14.052  16.397  71.790  1.00  0.00     0.000 HD 
ATOM      4  H1  GLY A   1     -15.050  15.390  70.870  1.00  0.00     0.000 HD 
ATOM      5  CA  GLY A   1     -13.049  14.939  70.699  1.00  0.00    -0.315 C  
HETATM    6  C   UNL     1     -10.367  16.467  65.524  1.00  0.00    -0.307 C  
ENDROOT
BRANCH   5   7
ATOM      7  C   GLY A   1     -11.786  15.030  71.560  1.00  0.00    -0.372 C  
ATOM      8  H   GLY A   1     -11.151  16.135  73.050  1.00  0.00     0.000 HD 
ATOM      9  O   GLY A   1     -11.935  16.078  72.516  1.00  0.00    -0.464 OA 
ENDBRANCH   5   7
BRANCH   6  10
HETATM   10  C   UNL     1     -10.798  15.055  65.130  1.00  0.00    -0.422 C  
BRANCH  10  11
HETATM   11  C   UNL     1     -11.799  14.406  66.090  1.00  0.00    -0.391 C  
BRANCH  11  12
HETATM   12  C   UNL     1     -12.745  13.491  65.308  1.00  0.00    -0.481 C  
BRANCH  12  13
HETATM   13  C   UNL     1     -12.364  13.386  63.832  1.00  0.00    -0.410 C  
BRANCH  13  14
HETATM   14  C   UNL     1     -11.724  12.037  63.474  1.00  0.00    -0.566 C  
BRANCH  14  15
HETATM   15  C   UNL     1     -10.191  12.015  63.472  1.00  0.00    -0.477 C  
BRANCH  15  16
HETATM   16  C   UNL     1      -9.593  10.650  63.266  1.00  0.00    -0.382 C  
HETATM   17  C   UNL     1      -9.249   9.813  64.257  1.00  0.00    -0.286 C  
BRANCH  17  18
HETATM   18  C   UNL     1      -9.362  10.107  65.725  1.00  0.00    -0.239 C  
BRANCH  18  19
HETATM   19  C   UNL     1      -9.725   8.859  66.527  1.00  0.00    -0.322 C  
BRANCH  19  20
HETATM   20  C   UNL     1     -10.691   9.221  67.655  1.00  0.00    -0.276 C  
BRANCH  20  21
HETATM   21  C   UNL     1     -10.484   8.325  68.872  1.00  0.00    -0.209 C  
BRANCH  21  22
HETATM   22  C   UNL     1      -9.145   7.597  68.800  1.00  0.00    -0.139 C  
BRANCH  22  23
HETATM   23  C   UNL     1      -9.354   6.092  68.656  1.00  0.00    -0.121 C  
BRANCH  23  24
HETATM   24  C   UNL     1      -8.561   5.521  67.484  1.00  0.00    -0.108 C  
HETATM   25  C   UNL     1      -8.654   4.013  67.431  1.00  0.00    -0.101 C  
HETATM   26  O   UNL     1      -7.968   3.500  66.383  1.00  0.00    -0.087 OA 
HETATM   27  O   UNL     1      -9.266   3.313  68.215  1.00  0.00    -0.150 OA 
ENDBRANCH  23  24
ENDBRANCH  22  23
ENDBRANCH  21  22
ENDBRANCH  20  21
ENDBRANCH  19  20
ENDBRANCH  18  19
ENDBRANCH  17  18
ENDBRANCH  15  16
ENDBRANCH  14  15
ENDBRANCH  13  14
ENDBRANCH  12  13
ENDBRANCH  11  12
ENDBRANCH  10  11
ENDBRANCH   6  10
TORSDOF 15
ENDMDL
MODEL      305
REMARK 921   NORMALIZED FREE ENERGY PREDICTED BY IDOCK:   -3.55 KCAL/MOL
REMARK 922        TOTAL FREE ENERGY PREDICTED BY IDOCK:   -8.61 KCAL/MOL
REMARK 923 INTER-LIGAND FREE ENERGY PREDICTED BY IDOCK:   -6.65 KCAL/MOL
REMARK 924 INTRA-LIGAND FREE ENERGY PREDICTED BY IDOCK:   -1.96 KCAL/MOL
REMARK 927      BINDING AFFINITY PREDICTED BY RF-SCORE:    0.00 PKD
ROOT
ATOM      1  N   GLY A   1     -10.494  19.516  65.921  1.00  0.00    -0.511 NA 
HETATM    2  C   UNL     1      -6.938  14.489  69.161  1.00  0.00    -0.131 C  
ATOM      3  H2  GLY A   1      -9.674  20.119  65.986  1.00  0.00     0.000 HD 
ATOM      4  H1  GLY A   1     -10.601  19.120  64.987  1.00  0.00     0.000 HD 
ATOM      5  CA  GLY A   1     -10.468  18.445  66.926  1.00  0.00    -0.389 C  
HETATM    6  C   UNL     1      -6.931  13.661  67.886  1.00  0.00    -0.155 C  
ENDROOT
BRANCH   5   7
ATOM      7  C   GLY A   1     -10.306  19.040  68.328  1.00  0.00    -0.339 C  
ATOM      8  H   GLY A   1      -8.820  19.516  69.513  1.00  0.00     0.000 HD 
ATOM      9  O   GLY A   1      -8.920  19.147  68.644  1.00  0.00    -0.354 OA 
ENDBRANCH   5   7
BRANCH   6  10
HETATM   10  C   UNL     1      -8.239  12.911  67.633  1.00  0.00    -0.177 C  
BRANCH  10  11
HETATM   11  C   UNL     1      -8.157  11.399  67.861  1.00  0.00    -0.126 C  
BRANCH  11  12
HETATM   12  C   UNL     1      -6.748  10.902  67.530  1.00  0.00    -0.074 C  
BRANCH  12  13
HETATM   13  C   UNL     1      -6.113  10.141  68.693  1.00  0.00    -0.044 C  
BRANCH  13  14
HETATM   14  C   UNL     1      -7.145   9.629  69.707  1.00  0.00    -0.084 C  
BRANCH  14  15
HETATM   15  C   UNL     1      -7.460   8.130  69.626  1.00  0.00    -0.086 C  
BRANCH  15  16
HETATM   16  C   UNL     1      -8.788   7.811  68.995  1.00  0.00    -0.138 C  
HETATM   17  C   UNL     1      -9.887   7.449  69.677  1.00  0.00    -0.175 C  
BRANCH  17  18
HETATM   18  C   UNL     1      -9.968   7.263  71.164  1.00  0.00    -0.186 C  
BRANCH  18  19
HETATM   19  C   UNL     1     -10.057   8.598  71.899  1.00  0.00    -0.398 C  
BRANCH  19  20
HETATM   20  C   UNL     1     -10.711   9.650  71.003  1.00  0.00    -0.393 C  
BRANCH  20  21
HETATM   21  C   UNL     1     -12.106  10.015  71.503  1.00  0.00    -0.475 C  
BRANCH  21  22
HETATM   22  C   UNL     1     -12.812  10.955  70.530  1.00  0.00    -0.301 C  
BRANCH  22  23
HETATM   23  C   UNL     1     -11.935  11.231  69.311  1.00  0.00    -0.411 C  
BRANCH  23  24
HETATM   24  C   UNL     1     -11.820  12.725  69.025  1.00  0.00    -0.344 C  
HETATM   25  C   UNL     1     -11.908  13.017  67.544  1.00  0.00    -0.355 C  
HETATM   26  O   UNL     1     -11.826  14.342  67.283  1.00  0.00    -0.384 OA 
HETATM   27  O   UNL     1     -12.043  12.186  66.666  1.00  0.00    -0.622 OA 
ENDBRANCH  23  24
ENDBRANCH  22  23
ENDBRANCH  21  22
ENDBRANCH  20  21
ENDBRANCH  19  20
ENDBRANCH  18  19
ENDBRANCH  17  18
ENDBRANCH  15  16
ENDBRANCH  14  15
ENDBRANCH  13  14
ENDBRANCH  12  13
ENDBRANCH  11  12
ENDBRANCH  10  11
ENDBRANCH   6  10
TORSDOF 15
ENDMDL
MODEL      306
REMARK 921   NORMALIZED FREE ENERGY PREDICTED BY IDOCK:   -3.55 KCAL/MOL
REMARK 922        TOTAL FREE ENERGY PREDICTED BY IDOCK:   -8.60 KCAL/MOL
REMARK 923 INTER-LIGAND FREE ENERGY PREDICTED BY IDOCK:   -7.18 KCAL/MOL
REMARK 924 INTRA-LIGAND FREE ENERGY PREDICTED BY IDOCK:   -1.42 KCAL/MOL
REMARK 927      BINDING AFFINITY PREDICTED BY RF-SCORE:    0.00 PKD
ROOT
ATOM      1  N   GLY A   1      -9.800   9.849  66.113  1.00  0.00    -0.241 NA 
HETATM    2  C   UNL     1      -8.999   5.914  71.796  1.00  0.00    -0.141 C  
ATOM      3  H2  GLY A   1      -9.078   9.299  65.647  1.00  0.00     0.000 HD 
ATOM      4  H1  GLY A   1     -10.736   9.582  65.811  1.00  0.00     0.000 HD 
ATOM      5  CA  GLY A   1      -9.694   9.763  67.576  1.00  0.00    -0.157 C  
HETATM    6  C   UNL     1     -10.384   5.321  71.590  1.00  0.00    -0.281 C  
ENDROOT
BRANCH   5   7
ATOM      7  C   GLY A   1      -8.287  10.163  68.030  1.00  0.00    -0.117 C  
ATOM      8  H   GLY A   1      -7.486  11.040  69.588  1.00  0.00     0.000 HD 
ATOM      9  O   GLY A   1      -8.359  10.792  69.307  1.00  0.00    -0.140 OA 
ENDBRANCH   5   7
BRANCH   6  10
HETATM   10  C   UNL     1     -11.517   6.224  72.076  1.00  0.00    -0.359 C  
BRANCH  10  11
HETATM   11  C   UNL     1     -11.921   7.323  71.090  1.00  0.00    -0.363 C  
BRANCH  11  12
HETATM   12  C   UNL     1     -13.410   7.643  71.253  1.00  0.00    -0.276 C  
BRANCH  12  13
HETATM   13  C   UNL     1     -13.643   9.027  71.855  1.00  0.00    -0.486 C  
BRANCH  13  14
HETATM   14  C   UNL     1     -12.535  10.028  71.500  1.00  0.00    -0.516 C  
BRANCH  14  15
HETATM   15  C   UNL     1     -13.007  11.458  71.208  1.00  0.00    -0.415 C  
BRANCH  15  16
HETATM   16  C   UNL     1     -13.409  12.238  72.430  1.00  0.00    -0.194 C  
HETATM   17  C   UNL     1     -13.603  13.566  72.455  1.00  0.00    -0.709 C  
BRANCH  17  18
HETATM   18  C   UNL     1     -13.414  14.496  71.293  1.00  0.00    -0.428 C  
BRANCH  18  19
HETATM   19  C   UNL     1     -11.962  14.531  70.823  1.00  0.00    -0.388 C  
BRANCH  19  20
HETATM   20  C   UNL     1     -11.503  15.977  70.639  1.00  0.00    -0.427 C  
BRANCH  20  21
HETATM   21  C   UNL     1     -10.778  16.165  69.309  1.00  0.00    -0.295 C  
BRANCH  21  22
HETATM   22  C   UNL     1     -11.635  15.684  68.142  1.00  0.00    -0.290 C  
BRANCH  22  23
HETATM   23  C   UNL     1     -10.758  15.253  66.968  1.00  0.00    -0.313 C  
BRANCH  23  24
HETATM   24  C   UNL     1      -9.332  14.944  67.413  1.00  0.00    -0.202 C  
HETATM   25  C   UNL     1      -8.823  13.662  66.797  1.00  0.00    -0.133 C  
HETATM   26  O   UNL     1      -7.551  13.389  67.172  1.00  0.00    -0.102 OA 
HETATM   27  O   UNL     1      -9.450  12.938  66.046  1.00  0.00    -0.210 OA 
ENDBRANCH  23  24
ENDBRANCH  22  23
ENDBRANCH  21  22
ENDBRANCH  20  21
ENDBRANCH  19  20
ENDBRANCH  18  19
ENDBRANCH  17  18
ENDBRANCH  15  16
ENDBRANCH  14  15
ENDBRANCH  13  14
ENDBRANCH  12  13
ENDBRANCH  11  12
ENDBRANCH  10  11
ENDBRANCH   6  10
TORSDOF 15
ENDMDL
MODEL      307
REMARK 921   NORMALIZED FREE ENERGY PREDICTED BY IDOCK:   -3.54 KCAL/MOL
REMARK 922        TOTAL FREE ENERGY PREDICTED BY IDOCK:   -8.59 KCAL/MOL
REMARK 923 INTER-LIGAND FREE ENERGY PREDICTED BY IDOCK:   -7.22 KCAL/MOL
REMARK 924 INTRA-LIGAND FREE ENERGY PREDICTED BY IDOCK:   -1.37 KCAL/MOL
REMARK 927      BINDING AFFINITY PREDICTED BY RF-SCORE:    0.00 PKD
ROOT
ATOM      1  N   GLY A   1      -6.361  16.685  69.742  1.00  0.00    -0.215 NA 
HETATM    2  C   UNL     1     -11.108  16.199  64.679  1.00  0.00    -0.310 C  
ATOM      3  H2  GLY A   1      -6.924  17.412  70.183  1.00  0.00     0.000 HD 
ATOM      4  H1  GLY A   1      -6.468  15.785  70.209  1.00  0.00     0.000 HD 
ATOM      5  CA  GLY A   1      -6.658  16.553  68.310  1.00  0.00    -0.136 C  
HETATM    6  C   UNL     1     -11.494  14.811  65.164  1.00  0.00    -0.371 C  
ENDROOT
BRANCH   5   7
ATOM      7  C   GLY A   1      -6.498  17.905  67.609  1.00  0.00    -0.179 C  
ATOM      8  H   GLY A   1      -6.529  19.794  68.129  1.00  0.00     0.000 HD 
ATOM      9  O   GLY A   1      -6.629  18.956  68.563  1.00  0.00    -0.232 OA 
ENDBRANCH   5   7
BRANCH   6  10
HETATM   10  C   UNL     1     -10.536  13.712  64.706  1.00  0.00    -0.436 C  
BRANCH  10  11
HETATM   11  C   UNL     1     -10.737  12.364  65.404  1.00  0.00    -0.317 C  
BRANCH  11  12
HETATM   12  C   UNL     1     -11.032  11.281  64.363  1.00  0.00    -0.331 C  
BRANCH  12  13
HETATM   13  C   UNL     1      -9.900  11.129  63.348  1.00  0.00    -0.397 C  
BRANCH  13  14
HETATM   14  C   UNL     1      -8.702  10.344  63.901  1.00  0.00    -0.202 C  
BRANCH  14  15
HETATM   15  C   UNL     1      -9.035   9.314  64.988  1.00  0.00    -0.245 C  
BRANCH  15  16
HETATM   16  C   UNL     1      -8.470   9.643  66.344  1.00  0.00    -0.128 C  
HETATM   17  C   UNL     1      -9.120   9.457  67.504  1.00  0.00    -0.136 C  
BRANCH  17  18
HETATM   18  C   UNL     1     -10.520   8.935  67.645  1.00  0.00    -0.320 C  
BRANCH  18  19
HETATM   19  C   UNL     1     -10.542   7.516  68.208  1.00  0.00    -0.185 C  
BRANCH  19  20
HETATM   20  C   UNL     1     -10.575   7.555  69.735  1.00  0.00    -0.245 C  
BRANCH  20  21
HETATM   21  C   UNL     1     -11.577   6.550  70.295  1.00  0.00    -0.473 C  
BRANCH  21  22
HETATM   22  C   UNL     1     -12.114   7.002  71.650  1.00  0.00    -0.384 C  
BRANCH  22  23
HETATM   23  C   UNL     1     -13.463   7.699  71.492  1.00  0.00    -0.394 C  
BRANCH  23  24
HETATM   24  C   UNL     1     -13.523   8.999  72.287  1.00  0.00    -0.529 C  
HETATM   25  C   UNL     1     -13.189  10.195  71.425  1.00  0.00    -0.380 C  
HETATM   26  O   UNL     1     -13.257  11.356  72.117  1.00  0.00    -0.490 OA 
HETATM   27  O   UNL     1     -12.894  10.157  70.245  1.00  0.00    -0.179 OA 
ENDBRANCH  23  24
ENDBRANCH  22  23
ENDBRANCH  21  22
ENDBRANCH  20  21
ENDBRANCH  19  20
ENDBRANCH  18  19
ENDBRANCH  17  18
ENDBRANCH  15  16
ENDBRANCH  14  15
ENDBRANCH  13  14
ENDBRANCH  12  13
ENDBRANCH  11  12
ENDBRANCH  10  11
ENDBRANCH   6  10
TORSDOF 15
ENDMDL
MODEL      308
REMARK 921   NORMALIZED FREE ENERGY PREDICTED BY IDOCK:   -3.53 KCAL/MOL
REMARK 922        TOTAL FREE ENERGY PREDICTED BY IDOCK:   -8.57 KCAL/MOL
REMARK 923 INTER-LIGAND FREE ENERGY PREDICTED BY IDOCK:   -6.45 KCAL/MOL
REMARK 924 INTRA-LIGAND FREE ENERGY PREDICTED BY IDOCK:   -2.13 KCAL/MOL
REMARK 927      BINDING AFFINITY PREDICTED BY RF-SCORE:    0.00 PKD
ROOT
ATOM      1  N   GLY A   1      -9.708  18.876  66.853  1.00  0.00    -0.305 NA 
HETATM    2  C   UNL     1     -10.647  12.928  63.368  1.00  0.00     0.174 C  
ATOM      3  H2  GLY A   1      -9.478  19.340  65.974  1.00  0.00     0.000 HD 
ATOM      4  H1  GLY A   1     -10.659  19.087  67.156  1.00  0.00     0.000 HD 
ATOM      5  CA  GLY A   1      -9.510  17.423  66.775  1.00  0.00    -0.273 C  
HETATM    6  C   UNL     1     -12.137  12.982  63.662  1.00  0.00    -0.604 C  
ENDROOT
BRANCH   5   7
ATOM      7  C   GLY A   1      -8.083  17.107  66.320  1.00  0.00    -0.290 C  
ATOM      8  H   GLY A   1      -6.335  17.991  66.386  1.00  0.00     0.000 HD 
ATOM      9  O   GLY A   1      -7.221  18.187  66.669  1.00  0.00    -0.193 OA 
ENDBRANCH   5   7
BRANCH   6  10
HETATM   10  C   UNL     1     -12.505  12.503  65.066  1.00  0.00    -0.494 C  
BRANCH  10  11
HETATM   11  C   UNL     1     -12.491  13.598  66.134  1.00  0.00    -0.449 C  
BRANCH  11  12
HETATM   12  C   UNL     1     -11.062  13.808  66.641  1.00  0.00    -0.316 C  
BRANCH  12  13
HETATM   13  C   UNL     1     -11.025  14.278  68.095  1.00  0.00    -0.259 C  
BRANCH  13  14
HETATM   14  C   UNL     1     -12.064  13.573  68.977  1.00  0.00    -0.330 C  
BRANCH  14  15
HETATM   15  C   UNL     1     -11.809  13.653  70.488  1.00  0.00    -0.277 C  
BRANCH  15  16
HETATM   16  C   UNL     1     -13.047  13.510  71.331  1.00  0.00    -0.385 C  
HETATM   17  C   UNL     1     -13.371  12.408  72.024  1.00  0.00    -0.511 C  
BRANCH  17  18
HETATM   18  C   UNL     1     -12.588  11.128  72.044  1.00  0.00     0.020 C  
BRANCH  18  19
HETATM   19  C   UNL     1     -13.169  10.092  71.085  1.00  0.00    -0.441 C  
BRANCH  19  20
HETATM   20  C   UNL     1     -12.058   9.487  70.227  1.00  0.00     0.031 C  
BRANCH  20  21
HETATM   21  C   UNL     1     -10.710  10.135  70.526  1.00  0.00    -0.295 C  
BRANCH  21  22
HETATM   22  C   UNL     1     -10.040  10.631  69.248  1.00  0.00    -0.227 C  
BRANCH  22  23
HETATM   23  C   UNL     1      -9.847   9.485  68.258  1.00  0.00    -0.174 C  
BRANCH  23  24
HETATM   24  C   UNL     1     -10.246   9.890  66.842  1.00  0.00    -0.302 C  
HETATM   25  C   UNL     1      -9.095   9.736  65.874  1.00  0.00    -0.168 C  
HETATM   26  O   UNL     1      -9.445  10.075  64.611  1.00  0.00    -0.270 OA 
HETATM   27  O   UNL     1      -7.977   9.350  66.159  1.00  0.00    -0.108 OA 
ENDBRANCH  23  24
ENDBRANCH  22  23
ENDBRANCH  21  22
ENDBRANCH  20  21
ENDBRANCH  19  20
ENDBRANCH  18  19
ENDBRANCH  17  18
ENDBRANCH  15  16
ENDBRANCH  14  15
ENDBRANCH  13  14
ENDBRANCH  12  13
ENDBRANCH  11  12
ENDBRANCH  10  11
ENDBRANCH   6  10
TORSDOF 15
ENDMDL
MODEL      309
REMARK 921   NORMALIZED FREE ENERGY PREDICTED BY IDOCK:   -3.53 KCAL/MOL
REMARK 922        TOTAL FREE ENERGY PREDICTED BY IDOCK:   -8.57 KCAL/MOL
REMARK 923 INTER-LIGAND FREE ENERGY PREDICTED BY IDOCK:   -6.44 KCAL/MOL
REMARK 924 INTRA-LIGAND FREE ENERGY PREDICTED BY IDOCK:   -2.13 KCAL/MOL
REMARK 927      BINDING AFFINITY PREDICTED BY RF-SCORE:    0.00 PKD
ROOT
ATOM      1  N   GLY A   1     -12.164  12.252  65.765  1.00  0.00    -0.603 NA 
HETATM    2  C   UNL     1     -10.542   6.182  68.754  1.00  0.00    -0.330 C  
ATOM      3  H2  GLY A   1     -12.525  11.744  64.958  1.00  0.00     0.000 HD 
ATOM      4  H1  GLY A   1     -12.913  12.585  66.372  1.00  0.00     0.000 HD 
ATOM      5  CA  GLY A   1     -11.204  11.449  66.535  1.00  0.00    -0.209 C  
HETATM    6  C   UNL     1     -11.614   6.406  69.809  1.00  0.00    -0.397 C  
ENDROOT
BRANCH   5   7
ATOM      7  C   GLY A   1     -10.080  10.950  65.623  1.00  0.00    -0.261 C  
ATOM      8  H   GLY A   1      -9.251   9.227  65.193  1.00  0.00     0.000 HD 
ATOM      9  O   GLY A   1      -9.948   9.537  65.759  1.00  0.00    -0.300 OA 
ENDBRANCH   5   7
BRANCH   6  10
HETATM   10  C   UNL     1     -11.185   7.352  70.929  1.00  0.00    -0.292 C  
BRANCH  10  11
HETATM   11  C   UNL     1     -11.651   8.799  70.751  1.00  0.00    -0.288 C  
BRANCH  11  12
HETATM   12  C   UNL     1     -10.443   9.739  70.785  1.00  0.00    -0.339 C  
BRANCH  12  13
HETATM   13  C   UNL     1      -9.164   9.025  71.220  1.00  0.00    -0.314 C  
BRANCH  13  14
HETATM   14  C   UNL     1      -7.954   9.379  70.344  1.00  0.00    -0.190 C  
BRANCH  14  15
HETATM   15  C   UNL     1      -8.194   9.310  68.831  1.00  0.00    -0.111 C  
BRANCH  15  16
HETATM   16  C   UNL     1      -7.107   9.942  68.004  1.00  0.00    -0.082 C  
HETATM   17  C   UNL     1      -7.003  11.258  67.762  1.00  0.00    -0.075 C  
BRANCH  17  18
HETATM   18  C   UNL     1      -7.963  12.310  68.235  1.00  0.00    -0.163 C  
BRANCH  18  19
HETATM   19  C   UNL     1      -7.243  13.591  68.650  1.00  0.00    -0.107 C  
BRANCH  19  20
HETATM   20  C   UNL     1      -7.535  14.707  67.648  1.00  0.00    -0.205 C  
BRANCH  20  21
HETATM   21  C   UNL     1      -8.990  14.676  67.189  1.00  0.00    -0.240 C  
BRANCH  21  22
HETATM   22  C   UNL     1      -9.882  15.486  68.127  1.00  0.00    -0.216 C  
BRANCH  22  23
HETATM   23  C   UNL     1     -11.160  14.718  68.455  1.00  0.00    -0.274 C  
BRANCH  23  24
HETATM   24  C   UNL     1     -12.030  15.474  69.455  1.00  0.00    -0.358 C  
HETATM   25  C   UNL     1     -12.484  14.578  70.585  1.00  0.00    -0.343 C  
HETATM   26  O   UNL     1     -13.242  15.244  71.487  1.00  0.00    -0.387 OA 
HETATM   27  O   UNL     1     -12.217  13.397  70.704  1.00  0.00    -0.356 OA 
ENDBRANCH  23  24
ENDBRANCH  22  23
ENDBRANCH  21  22
ENDBRANCH  20  21
ENDBRANCH  19  20
ENDBRANCH  18  19
ENDBRANCH  17  18
ENDBRANCH  15  16
ENDBRANCH  14  15
ENDBRANCH  13  14
ENDBRANCH  12  13
ENDBRANCH  11  12
ENDBRANCH  10  11
ENDBRANCH   6  10
TORSDOF 15
ENDMDL
MODEL      310
REMARK 921   NORMALIZED FREE ENERGY PREDICTED BY IDOCK:   -3.53 KCAL/MOL
REMARK 922        TOTAL FREE ENERGY PREDICTED BY IDOCK:   -8.56 KCAL/MOL
REMARK 923 INTER-LIGAND FREE ENERGY PREDICTED BY IDOCK:   -6.10 KCAL/MOL
REMARK 924 INTRA-LIGAND FREE ENERGY PREDICTED BY IDOCK:   -2.46 KCAL/MOL
REMARK 927      BINDING AFFINITY PREDICTED BY RF-SCORE:    0.00 PKD
ROOT
ATOM      1  N   GLY A   1     -10.021  10.032  62.443  1.00  0.00    -0.654 NA 
HETATM    2  C   UNL     1      -7.734  13.174  68.214  1.00  0.00    -0.141 C  
ATOM      3  H2  GLY A   1     -10.252   9.209  62.998  1.00  0.00     0.000 HD 
ATOM      4  H1  GLY A   1     -10.848  10.587  62.223  1.00  0.00     0.000 HD 
ATOM      5  CA  GLY A   1      -9.008  10.870  63.098  1.00  0.00    -0.225 C  
HETATM    6  C   UNL     1      -8.893  14.156  68.149  1.00  0.00    -0.183 C  
ENDROOT
BRANCH   5   7
ATOM      7  C   GLY A   1      -7.766  10.037  63.428  1.00  0.00    -0.148 C  
ATOM      8  H   GLY A   1      -7.335   8.136  63.631  1.00  0.00     0.000 HD 
ATOM      9  O   GLY A   1      -8.105   8.653  63.426  1.00  0.00    -0.157 OA 
ENDBRANCH   5   7
BRANCH   6  10
HETATM   10  C   UNL     1      -8.680  15.293  67.151  1.00  0.00    -0.234 C  
BRANCH  10  11
HETATM   11  C   UNL     1      -9.969  15.867  66.558  1.00  0.00    -0.286 C  
BRANCH  11  12
HETATM   12  C   UNL     1     -10.348  15.088  65.295  1.00  0.00    -0.424 C  
BRANCH  12  13
HETATM   13  C   UNL     1     -11.478  14.091  65.546  1.00  0.00    -0.318 C  
BRANCH  13  14
HETATM   14  C   UNL     1     -11.030  12.630  65.399  1.00  0.00    -0.320 C  
BRANCH  14  15
HETATM   15  C   UNL     1     -11.113  11.784  66.675  1.00  0.00    -0.364 C  
BRANCH  15  16
HETATM   16  C   UNL     1     -11.971  12.380  67.757  1.00  0.00    -0.252 C  
HETATM   17  C   UNL     1     -11.739  12.247  69.073  1.00  0.00    -0.376 C  
BRANCH  17  18
HETATM   18  C   UNL     1     -10.620  11.456  69.685  1.00  0.00     0.068 C  
BRANCH  18  19
HETATM   19  C   UNL     1     -11.141  10.293  70.525  1.00  0.00    -0.381 C  
BRANCH  19  20
HETATM   20  C   UNL     1     -10.028   9.272  70.757  1.00  0.00    -0.357 C  
BRANCH  20  21
HETATM   21  C   UNL     1      -8.745   9.674  70.036  1.00  0.00    -0.256 C  
BRANCH  21  22
HETATM   22  C   UNL     1      -8.315   8.604  69.037  1.00  0.00    -0.119 C  
BRANCH  22  23
HETATM   23  C   UNL     1      -9.118   8.718  67.743  1.00  0.00    -0.143 C  
BRANCH  23  24
HETATM   24  C   UNL     1      -9.245   7.371  67.038  1.00  0.00    -0.169 C  
HETATM   25  C   UNL     1     -10.331   6.519  67.655  1.00  0.00    -0.194 C  
HETATM   26  O   UNL     1     -10.463   5.329  67.024  1.00  0.00    -0.237 OA 
HETATM   27  O   UNL     1     -11.026   6.835  68.602  1.00  0.00    -0.234 OA 
ENDBRANCH  23  24
ENDBRANCH  22  23
ENDBRANCH  21  22
ENDBRANCH  20  21
ENDBRANCH  19  20
ENDBRANCH  18  19
ENDBRANCH  17  18
ENDBRANCH  15  16
ENDBRANCH  14  15
ENDBRANCH  13  14
ENDBRANCH  12  13
ENDBRANCH  11  12
ENDBRANCH  10  11
ENDBRANCH   6  10
TORSDOF 15
ENDMDL
MODEL      311
REMARK 921   NORMALIZED FREE ENERGY PREDICTED BY IDOCK:   -3.52 KCAL/MOL
REMARK 922        TOTAL FREE ENERGY PREDICTED BY IDOCK:   -8.56 KCAL/MOL
REMARK 923 INTER-LIGAND FREE ENERGY PREDICTED BY IDOCK:   -6.99 KCAL/MOL
REMARK 924 INTRA-LIGAND FREE ENERGY PREDICTED BY IDOCK:   -1.57 KCAL/MOL
REMARK 927      BINDING AFFINITY PREDICTED BY RF-SCORE:    0.00 PKD
ROOT
ATOM      1  N   GLY A   1      -5.581  18.551  65.181  1.00  0.00    -0.204 NA 
HETATM    2  C   UNL     1      -9.775  13.198  66.655  1.00  0.00    -0.261 C  
ATOM      3  H2  GLY A   1      -4.780  17.923  65.242  1.00  0.00     0.000 HD 
ATOM      4  H1  GLY A   1      -5.836  18.749  64.213  1.00  0.00     0.000 HD 
ATOM      5  CA  GLY A   1      -6.743  18.032  65.915  1.00  0.00    -0.288 C  
HETATM    6  C   UNL     1     -10.347  13.249  65.247  1.00  0.00    -0.324 C  
ENDROOT
BRANCH   5   7
ATOM      7  C   GLY A   1      -6.360  17.734  67.368  1.00  0.00    -0.154 C  
ATOM      8  H   GLY A   1      -5.711  16.190  68.385  1.00  0.00     0.000 HD 
ATOM      9  O   GLY A   1      -5.948  16.375  67.484  1.00  0.00    -0.131 OA 
ENDBRANCH   5   7
BRANCH   6  10
HETATM   10  C   UNL     1     -11.401  14.338  65.051  1.00  0.00    -0.365 C  
BRANCH  10  11
HETATM   11  C   UNL     1     -10.834  15.752  64.911  1.00  0.00    -0.433 C  
BRANCH  11  12
HETATM   12  C   UNL     1     -11.203  16.582  66.145  1.00  0.00     0.404 C  
BRANCH  12  13
HETATM   13  C   UNL     1     -10.234  17.740  66.376  1.00  0.00    -0.365 C  
BRANCH  13  14
HETATM   14  C   UNL     1     -10.367  18.360  67.774  1.00  0.00    -0.428 C  
BRANCH  14  15
HETATM   15  C   UNL     1      -9.610  17.633  68.892  1.00  0.00    -0.217 C  
BRANCH  15  16
HETATM   16  C   UNL     1      -9.954  16.174  69.023  1.00  0.00    -0.242 C  
HETATM   17  C   UNL     1     -10.710  15.656  70.003  1.00  0.00    -0.345 C  
BRANCH  17  18
HETATM   18  C   UNL     1     -11.301  16.426  71.148  1.00  0.00    -0.191 C  
BRANCH  18  19
HETATM   19  C   UNL     1     -12.146  15.535  72.055  1.00  0.00    -0.502 C  
BRANCH  19  20
HETATM   20  C   UNL     1     -13.580  15.459  71.531  1.00  0.00    -0.604 C  
BRANCH  20  21
HETATM   21  C   UNL     1     -13.986  14.019  71.232  1.00  0.00    -0.122 C  
BRANCH  21  22
HETATM   22  C   UNL     1     -13.622  13.092  72.388  1.00  0.00    -0.628 C  
BRANCH  22  23
HETATM   23  C   UNL     1     -12.982  11.806  71.870  1.00  0.00    -0.435 C  
BRANCH  23  24
HETATM   24  C   UNL     1     -12.343  12.007  70.500  1.00  0.00    -0.369 C  
HETATM   25  C   UNL     1     -11.874  10.697  69.908  1.00  0.00    -0.315 C  
HETATM   26  O   UNL     1     -11.322  10.863  68.683  1.00  0.00    -0.250 OA 
HETATM   27  O   UNL     1     -11.968   9.606  70.437  1.00  0.00    -0.216 OA 
ENDBRANCH  23  24
ENDBRANCH  22  23
ENDBRANCH  21  22
ENDBRANCH  20  21
ENDBRANCH  19  20
ENDBRANCH  18  19
ENDBRANCH  17  18
ENDBRANCH  15  16
ENDBRANCH  14  15
ENDBRANCH  13  14
ENDBRANCH  12  13
ENDBRANCH  11  12
ENDBRANCH  10  11
ENDBRANCH   6  10
TORSDOF 15
ENDMDL
MODEL      312
REMARK 921   NORMALIZED FREE ENERGY PREDICTED BY IDOCK:   -3.51 KCAL/MOL
REMARK 922        TOTAL FREE ENERGY PREDICTED BY IDOCK:   -8.54 KCAL/MOL
REMARK 923 INTER-LIGAND FREE ENERGY PREDICTED BY IDOCK:   -7.22 KCAL/MOL
REMARK 924 INTRA-LIGAND FREE ENERGY PREDICTED BY IDOCK:   -1.32 KCAL/MOL
REMARK 927      BINDING AFFINITY PREDICTED BY RF-SCORE:    0.00 PKD
ROOT
ATOM      1  N   GLY A   1      -5.867   7.365  72.940  1.00  0.00    -0.044 NA 
HETATM    2  C   UNL     1     -12.179   9.868  71.421  1.00  0.00    -0.499 C  
ATOM      3  H2  GLY A   1      -5.696   8.185  73.523  1.00  0.00     0.000 HD 
ATOM      4  H1  GLY A   1      -6.102   6.544  73.497  1.00  0.00     0.000 HD 
ATOM      5  CA  GLY A   1      -6.910   7.613  71.936  1.00  0.00    -0.062 C  
HETATM    6  C   UNL     1     -12.824   8.738  72.208  1.00  0.00    -0.465 C  
ENDROOT
BRANCH   5   7
ATOM      7  C   GLY A   1      -6.557   8.847  71.099  1.00  0.00    -0.077 C  
ATOM      8  H   GLY A   1      -5.275  10.325  71.207  1.00  0.00     0.000 HD 
ATOM      9  O   GLY A   1      -5.494   9.560  71.726  1.00  0.00    -0.072 OA 
ENDBRANCH   5   7
BRANCH   6  10
HETATM   10  C   UNL     1     -12.895   7.417  71.441  1.00  0.00    -0.408 C  
BRANCH  10  11
HETATM   11  C   UNL     1     -12.068   6.284  72.053  1.00  0.00    -0.321 C  
BRANCH  11  12
HETATM   12  C   UNL     1     -10.648   6.312  71.480  1.00  0.00    -0.282 C  
BRANCH  12  13
HETATM   13  C   UNL     1     -10.611   5.924  70.003  1.00  0.00    -0.364 C  
BRANCH  13  14
HETATM   14  C   UNL     1      -9.811   6.915  69.145  1.00  0.00    -0.156 C  
BRANCH  14  15
HETATM   15  C   UNL     1     -10.511   8.248  68.853  1.00  0.00    -0.209 C  
BRANCH  15  16
HETATM   16  C   UNL     1     -10.163   8.850  67.519  1.00  0.00    -0.309 C  
HETATM   17  C   UNL     1     -10.546  10.070  67.111  1.00  0.00    -0.296 C  
BRANCH  17  18
HETATM   18  C   UNL     1     -11.414  11.016  67.889  1.00  0.00    -0.358 C  
BRANCH  18  19
HETATM   19  C   UNL     1     -11.550  12.366  67.189  1.00  0.00    -0.435 C  
BRANCH  19  20
HETATM   20  C   UNL     1     -11.963  13.441  68.195  1.00  0.00    -0.356 C  
BRANCH  20  21
HETATM   21  C   UNL     1     -11.592  14.836  67.701  1.00  0.00    -0.374 C  
BRANCH  21  22
HETATM   22  C   UNL     1     -11.724  15.869  68.816  1.00  0.00    -0.355 C  
BRANCH  22  23
HETATM   23  C   UNL     1     -10.463  16.724  68.914  1.00  0.00    -0.332 C  
BRANCH  23  24
HETATM   24  C   UNL     1      -9.814  16.929  67.549  1.00  0.00    -0.260 C  
HETATM   25  C   UNL     1      -9.826  18.385  67.140  1.00  0.00    -0.320 C  
HETATM   26  O   UNL     1      -9.235  18.580  65.938  1.00  0.00    -0.486 OA 
HETATM   27  O   UNL     1     -10.296  19.299  67.790  1.00  0.00    -0.381 OA 
ENDBRANCH  23  24
ENDBRANCH  22  23
ENDBRANCH  21  22
ENDBRANCH  20  21
ENDBRANCH  19  20
ENDBRANCH  18  19
ENDBRANCH  17  18
ENDBRANCH  15  16
ENDBRANCH  14  15
ENDBRANCH  13  14
ENDBRANCH  12  13
ENDBRANCH  11  12
ENDBRANCH  10  11
ENDBRANCH   6  10
TORSDOF 15
ENDMDL
MODEL      313
REMARK 921   NORMALIZED FREE ENERGY PREDICTED BY IDOCK:   -3.51 KCAL/MOL
REMARK 922        TOTAL FREE ENERGY PREDICTED BY IDOCK:   -8.53 KCAL/MOL
REMARK 923 INTER-LIGAND FREE ENERGY PREDICTED BY IDOCK:   -6.92 KCAL/MOL
REMARK 924 INTRA-LIGAND FREE ENERGY PREDICTED BY IDOCK:   -1.61 KCAL/MOL
REMARK 927      BINDING AFFINITY PREDICTED BY RF-SCORE:    0.00 PKD
ROOT
ATOM      1  N   GLY A   1     -11.017  13.525  63.796  1.00  0.00    -0.474 NA 
HETATM    2  C   UNL     1     -10.762  19.452  67.432  1.00  0.00    -0.594 C  
ATOM      3  H2  GLY A   1     -11.854  13.866  63.324  1.00  0.00     0.000 HD 
ATOM      4  H1  GLY A   1     -10.188  13.611  63.208  1.00  0.00     0.000 HD 
ATOM      5  CA  GLY A   1     -10.799  14.200  65.082  1.00  0.00    -0.372 C  
HETATM    6  C   UNL     1      -9.494  19.858  66.697  1.00  0.00    -0.513 C  
ENDROOT
BRANCH   5   7
ATOM      7  C   GLY A   1     -12.044  14.071  65.965  1.00  0.00    -0.439 C  
ATOM      8  H   GLY A   1     -13.920  13.561  65.720  1.00  0.00     0.000 HD 
ATOM      9  O   GLY A   1     -13.148  13.641  65.173  1.00  0.00    -0.750 OA 
ENDBRANCH   5   7
BRANCH   6  10
HETATM   10  C   UNL     1      -8.231  19.187  67.234  1.00  0.00    -0.299 C  
BRANCH  10  11
HETATM   11  C   UNL     1      -7.278  18.669  66.154  1.00  0.00    -0.296 C  
BRANCH  11  12
HETATM   12  C   UNL     1      -7.063  17.164  66.333  1.00  0.00    -0.310 C  
BRANCH  12  13
HETATM   13  C   UNL     1      -8.380  16.391  66.381  1.00  0.00    -0.363 C  
BRANCH  13  14
HETATM   14  C   UNL     1      -8.600  15.667  67.716  1.00  0.00    -0.168 C  
BRANCH  14  15
HETATM   15  C   UNL     1      -7.998  14.260  67.809  1.00  0.00    -0.174 C  
BRANCH  15  16
HETATM   16  C   UNL     1      -6.647  14.208  68.470  1.00  0.00    -0.096 C  
HETATM   17  C   UNL     1      -5.689  13.316  68.174  1.00  0.00    -0.101 C  
BRANCH  17  18
HETATM   18  C   UNL     1      -5.813  12.202  67.176  1.00  0.00    -0.139 C  
BRANCH  18  19
HETATM   19  C   UNL     1      -5.717  10.831  67.840  1.00  0.00    -0.042 C  
BRANCH  19  20
HETATM   20  C   UNL     1      -7.111  10.327  68.213  1.00  0.00    -0.079 C  
BRANCH  20  21
HETATM   21  C   UNL     1      -7.077   8.862  68.638  1.00  0.00    -0.071 C  
BRANCH  21  22
HETATM   22  C   UNL     1      -8.454   8.387  69.091  1.00  0.00    -0.123 C  
BRANCH  22  23
HETATM   23  C   UNL     1      -9.520   8.756  68.062  1.00  0.00    -0.158 C  
BRANCH  23  24
HETATM   24  C   UNL     1     -10.661   9.549  68.693  1.00  0.00    -0.239 C  
HETATM   25  C   UNL     1     -11.235  10.560  67.727  1.00  0.00    -0.273 C  
HETATM   26  O   UNL     1     -12.261  11.256  68.271  1.00  0.00    -0.611 OA 
HETATM   27  O   UNL     1     -10.851  10.750  66.589  1.00  0.00    -0.237 OA 
ENDBRANCH  23  24
ENDBRANCH  22  23
ENDBRANCH  21  22
ENDBRANCH  20  21
ENDBRANCH  19  20
ENDBRANCH  18  19
ENDBRANCH  17  18
ENDBRANCH  15  16
ENDBRANCH  14  15
ENDBRANCH  13  14
ENDBRANCH  12  13
ENDBRANCH  11  12
ENDBRANCH  10  11
ENDBRANCH   6  10
TORSDOF 15
ENDMDL
MODEL      314
REMARK 921   NORMALIZED FREE ENERGY PREDICTED BY IDOCK:   -3.51 KCAL/MOL
REMARK 922        TOTAL FREE ENERGY PREDICTED BY IDOCK:   -8.53 KCAL/MOL
REMARK 923 INTER-LIGAND FREE ENERGY PREDICTED BY IDOCK:   -7.03 KCAL/MOL
REMARK 924 INTRA-LIGAND FREE ENERGY PREDICTED BY IDOCK:   -1.50 KCAL/MOL
REMARK 927      BINDING AFFINITY PREDICTED BY RF-SCORE:    0.00 PKD
ROOT
ATOM      1  N   GLY A   1      -8.497   9.918  64.913  1.00  0.00    -0.150 NA 
HETATM    2  C   UNL     1      -9.387   4.089  68.606  1.00  0.00    -0.224 C  
ATOM      3  H2  GLY A   1      -9.315   9.675  64.355  1.00  0.00     0.000 HD 
ATOM      4  H1  GLY A   1      -8.709  10.634  65.607  1.00  0.00     0.000 HD 
ATOM      5  CA  GLY A   1      -7.904   8.741  65.561  1.00  0.00    -0.098 C  
HETATM    6  C   UNL     1      -9.760   4.912  69.829  1.00  0.00    -0.262 C  
ENDROOT
BRANCH   5   7
ATOM      7  C   GLY A   1      -7.586   7.666  64.518  1.00  0.00    -0.112 C  
ATOM      8  H   GLY A   1      -6.243   7.390  63.118  1.00  0.00     0.000 HD 
ATOM      9  O   GLY A   1      -6.440   8.056  63.765  1.00  0.00    -0.065 OA 
ENDBRANCH   5   7
BRANCH   6  10
HETATM   10  C   UNL     1      -8.555   5.489  70.571  1.00  0.00    -0.125 C  
BRANCH  10  11
HETATM   11  C   UNL     1      -8.705   5.523  72.094  1.00  0.00    -0.130 C  
BRANCH  11  12
HETATM   12  C   UNL     1      -8.692   6.973  72.583  1.00  0.00    -0.135 C  
BRANCH  12  13
HETATM   13  C   UNL     1      -9.915   7.310  73.435  1.00  0.00    -0.343 C  
BRANCH  13  14
HETATM   14  C   UNL     1     -11.144   6.464  73.076  1.00  0.00    -0.231 C  
BRANCH  14  15
HETATM   15  C   UNL     1     -12.041   7.041  71.974  1.00  0.00    -0.329 C  
BRANCH  15  16
HETATM   16  C   UNL     1     -12.468   8.465  72.206  1.00  0.00    -0.417 C  
HETATM   17  C   UNL     1     -12.171   9.491  71.393  1.00  0.00    -0.455 C  
BRANCH  17  18
HETATM   18  C   UNL     1     -11.336   9.403  70.149  1.00  0.00    -0.220 C  
BRANCH  18  19
HETATM   19  C   UNL     1     -10.768  10.763  69.750  1.00  0.00    -0.241 C  
BRANCH  19  20
HETATM   20  C   UNL     1     -11.901  11.712  69.358  1.00  0.00    -0.408 C  
BRANCH  20  21
HETATM   21  C   UNL     1     -11.872  12.986  70.196  1.00  0.00    -0.324 C  
BRANCH  21  22
HETATM   22  C   UNL     1     -12.772  12.861  71.422  1.00  0.00    -0.366 C  
BRANCH  22  23
HETATM   23  C   UNL     1     -13.568  14.145  71.643  1.00  0.00    -0.446 C  
BRANCH  23  24
HETATM   24  C   UNL     1     -13.171  14.838  72.943  1.00  0.00    -0.597 C  
HETATM   25  C   UNL     1     -12.255  16.013  72.689  1.00  0.00    -0.522 C  
HETATM   26  O   UNL     1     -11.911  16.646  73.835  1.00  0.00    -0.377 OA 
HETATM   27  O   UNL     1     -11.857  16.379  71.599  1.00  0.00    -0.456 OA 
ENDBRANCH  23  24
ENDBRANCH  22  23
ENDBRANCH  21  22
ENDBRANCH  20  21
ENDBRANCH  19  20
ENDBRANCH  18  19
ENDBRANCH  17  18
ENDBRANCH  15  16
ENDBRANCH  14  15
ENDBRANCH  13  14
ENDBRANCH  12  13
ENDBRANCH  11  12
ENDBRANCH  10  11
ENDBRANCH   6  10
TORSDOF 15
ENDMDL
MODEL      315
REMARK 921   NORMALIZED FREE ENERGY PREDICTED BY IDOCK:   -3.50 KCAL/MOL
REMARK 922        TOTAL FREE ENERGY PREDICTED BY IDOCK:   -8.51 KCAL/MOL
REMARK 923 INTER-LIGAND FREE ENERGY PREDICTED BY IDOCK:   -6.78 KCAL/MOL
REMARK 924 INTRA-LIGAND FREE ENERGY PREDICTED BY IDOCK:   -1.74 KCAL/MOL
REMARK 927      BINDING AFFINITY PREDICTED BY RF-SCORE:    0.00 PKD
ROOT
ATOM      1  N   GLY A   1      -7.305  16.892  66.616  1.00  0.00    -0.235 NA 
HETATM    2  C   UNL     1     -10.342  10.974  64.574  1.00  0.00    -0.420 C  
ATOM      3  H2  GLY A   1      -6.393  16.452  66.493  1.00  0.00     0.000 HD 
ATOM      4  H1  GLY A   1      -7.533  17.516  65.842  1.00  0.00     0.000 HD 
ATOM      5  CA  GLY A   1      -8.373  15.901  66.801  1.00  0.00    -0.271 C  
HETATM    6  C   UNL     1     -10.820  11.651  63.299  1.00  0.00    -0.380 C  
ENDROOT
BRANCH   5   7
ATOM      7  C   GLY A   1      -8.030  14.964  67.963  1.00  0.00    -0.129 C  
ATOM      8  H   GLY A   1      -8.714  14.618  69.766  1.00  0.00     0.000 HD 
ATOM      9  O   GLY A   1      -8.927  15.199  69.046  1.00  0.00    -0.197 OA 
ENDBRANCH   5   7
BRANCH   6  10
HETATM   10  C   UNL     1     -12.068  12.512  63.491  1.00  0.00    -0.653 C  
BRANCH  10  11
HETATM   11  C   UNL     1     -12.525  12.652  64.945  1.00  0.00    -0.564 C  
BRANCH  11  12
HETATM   12  C   UNL     1     -12.190  14.055  65.459  1.00  0.00    -0.455 C  
BRANCH  12  13
HETATM   13  C   UNL     1     -11.879  14.065  66.955  1.00  0.00    -0.458 C  
BRANCH  13  14
HETATM   14  C   UNL     1     -11.601  12.664  67.518  1.00  0.00    -0.418 C  
BRANCH  14  15
HETATM   15  C   UNL     1     -11.218  12.615  69.002  1.00  0.00    -0.322 C  
BRANCH  15  16
HETATM   16  C   UNL     1     -11.939  11.556  69.791  1.00  0.00    -0.415 C  
HETATM   17  C   UNL     1     -11.399  10.384  70.161  1.00  0.00    -0.397 C  
BRANCH  17  18
HETATM   18  C   UNL     1     -10.015   9.915  69.820  1.00  0.00    -0.275 C  
BRANCH  18  19
HETATM   19  C   UNL     1      -9.854   8.413  70.042  1.00  0.00    -0.182 C  
BRANCH  19  20
HETATM   20  C   UNL     1     -10.883   7.645  69.212  1.00  0.00    -0.111 C  
BRANCH  20  21
HETATM   21  C   UNL     1     -10.238   6.991  67.995  1.00  0.00    -0.217 C  
BRANCH  21  22
HETATM   22  C   UNL     1      -9.650   8.037  67.052  1.00  0.00    -0.252 C  
BRANCH  22  23
HETATM   23  C   UNL     1      -8.842   7.372  65.941  1.00  0.00    -0.149 C  
BRANCH  23  24
HETATM   24  C   UNL     1      -7.341   7.483  66.191  1.00  0.00    -0.082 C  
HETATM   25  C   UNL     1      -6.715   8.566  65.342  1.00  0.00    -0.063 C  
HETATM   26  O   UNL     1      -5.386   8.686  65.571  1.00  0.00    -0.034 OA 
HETATM   27  O   UNL     1      -7.304   9.269  64.543  1.00  0.00    -0.097 OA 
ENDBRANCH  23  24
ENDBRANCH  22  23
ENDBRANCH  21  22
ENDBRANCH  20  21
ENDBRANCH  19  20
ENDBRANCH  18  19
ENDBRANCH  17  18
ENDBRANCH  15  16
ENDBRANCH  14  15
ENDBRANCH  13  14
ENDBRANCH  12  13
ENDBRANCH  11  12
ENDBRANCH  10  11
ENDBRANCH   6  10
TORSDOF 15
ENDMDL
MODEL      316
REMARK 921   NORMALIZED FREE ENERGY PREDICTED BY IDOCK:   -3.50 KCAL/MOL
REMARK 922        TOTAL FREE ENERGY PREDICTED BY IDOCK:   -8.51 KCAL/MOL
REMARK 923 INTER-LIGAND FREE ENERGY PREDICTED BY IDOCK:   -7.32 KCAL/MOL
REMARK 924 INTRA-LIGAND FREE ENERGY PREDICTED BY IDOCK:   -1.19 KCAL/MOL
REMARK 927      BINDING AFFINITY PREDICTED BY RF-SCORE:    0.00 PKD
ROOT
ATOM      1  N   GLY A   1      -5.708  19.157  63.573  1.00  0.00    -0.414 NA 
HETATM    2  C   UNL     1      -5.882  16.425  69.970  1.00  0.00    -0.190 C  
ATOM      3  H2  GLY A   1      -4.693  19.063  63.575  1.00  0.00     0.000 HD 
ATOM      4  H1  GLY A   1      -6.158  18.423  63.026  1.00  0.00     0.000 HD 
ATOM      5  CA  GLY A   1      -6.259  19.184  64.935  1.00  0.00    -0.260 C  
HETATM    6  C   UNL     1      -6.565  15.180  69.428  1.00  0.00    -0.151 C  
ENDROOT
BRANCH   5   7
ATOM      7  C   GLY A   1      -5.583  20.286  65.757  1.00  0.00    -0.173 C  
ATOM      8  H   GLY A   1      -5.294  20.676  67.655  1.00  0.00     0.000 HD 
ATOM      9  O   GLY A   1      -5.713  19.992  67.146  1.00  0.00    -0.169 OA 
ENDBRANCH   5   7
BRANCH   6  10
HETATM   10  C   UNL     1      -8.066  15.354  69.196  1.00  0.00    -0.233 C  
BRANCH  10  11
HETATM   11  C   UNL     1      -8.451  15.686  67.753  1.00  0.00    -0.158 C  
BRANCH  11  12
HETATM   12  C   UNL     1      -9.277  16.975  67.722  1.00  0.00    -0.236 C  
BRANCH  12  13
HETATM   13  C   UNL     1     -10.151  17.073  66.473  1.00  0.00    -0.318 C  
BRANCH  13  14
HETATM   14  C   UNL     1     -10.601  15.703  65.948  1.00  0.00    -0.354 C  
BRANCH  14  15
HETATM   15  C   UNL     1     -11.308  15.718  64.587  1.00  0.00    -0.343 C  
BRANCH  15  16
HETATM   16  C   UNL     1     -12.374  14.668  64.433  1.00  0.00    -0.420 C  
HETATM   17  C   UNL     1     -12.133  13.369  64.194  1.00  0.00    -0.491 C  
BRANCH  17  18
HETATM   18  C   UNL     1     -10.777  12.755  64.002  1.00  0.00    -0.457 C  
BRANCH  18  19
HETATM   19  C   UNL     1     -10.765  11.276  64.381  1.00  0.00    -0.407 C  
BRANCH  19  20
HETATM   20  C   UNL     1      -9.692  11.012  65.437  1.00  0.00    -0.279 C  
BRANCH  20  21
HETATM   21  C   UNL     1     -10.097  11.580  66.794  1.00  0.00    -0.245 C  
BRANCH  21  22
HETATM   22  C   UNL     1     -10.533  10.472  67.748  1.00  0.00    -0.263 C  
BRANCH  22  23
HETATM   23  C   UNL     1     -10.572  10.981  69.187  1.00  0.00    -0.253 C  
BRANCH  23  24
HETATM   24  C   UNL     1     -11.446  10.100  70.074  1.00  0.00    -0.344 C  
HETATM   25  C   UNL     1     -12.397  10.923  70.913  1.00  0.00    -0.400 C  
HETATM   26  O   UNL     1     -13.189  10.148  71.689  1.00  0.00    -0.393 OA 
HETATM   27  O   UNL     1     -12.472  12.137  70.912  1.00  0.00    -0.368 OA 
ENDBRANCH  23  24
ENDBRANCH  22  23
ENDBRANCH  21  22
ENDBRANCH  20  21
ENDBRANCH  19  20
ENDBRANCH  18  19
ENDBRANCH  17  18
ENDBRANCH  15  16
ENDBRANCH  14  15
ENDBRANCH  13  14
ENDBRANCH  12  13
ENDBRANCH  11  12
ENDBRANCH  10  11
ENDBRANCH   6  10
TORSDOF 15
ENDMDL
MODEL      317
REMARK 921   NORMALIZED FREE ENERGY PREDICTED BY IDOCK:   -3.49 KCAL/MOL
REMARK 922        TOTAL FREE ENERGY PREDICTED BY IDOCK:   -8.50 KCAL/MOL
REMARK 923 INTER-LIGAND FREE ENERGY PREDICTED BY IDOCK:   -6.63 KCAL/MOL
REMARK 924 INTRA-LIGAND FREE ENERGY PREDICTED BY IDOCK:   -1.87 KCAL/MOL
REMARK 927      BINDING AFFINITY PREDICTED BY RF-SCORE:    0.00 PKD
ROOT
ATOM      1  N   GLY A   1     -11.135  16.748  67.992  1.00  0.00    -0.294 NA 
HETATM    2  C   UNL     1      -9.989  10.465  65.231  1.00  0.00    -0.376 C  
ATOM      3  H2  GLY A   1     -11.992  16.818  67.445  1.00  0.00     0.000 HD 
ATOM      4  H1  GLY A   1     -11.324  16.512  68.966  1.00  0.00     0.000 HD 
ATOM      5  CA  GLY A   1     -10.189  15.787  67.410  1.00  0.00    -0.270 C  
HETATM    6  C   UNL     1     -10.233   9.818  66.585  1.00  0.00    -0.296 C  
ENDROOT
BRANCH   5   7
ATOM      7  C   GLY A   1      -9.906  16.142  65.948  1.00  0.00    -0.353 C  
ATOM      8  H   GLY A   1      -8.684  17.329  64.979  1.00  0.00     0.000 HD 
ATOM      9  O   GLY A   1      -8.859  17.108  65.886  1.00  0.00    -0.520 OA 
ENDBRANCH   5   7
BRANCH   6  10
HETATM   10  C   UNL     1      -9.033   9.892  67.528  1.00  0.00    -0.141 C  
BRANCH  10  11
HETATM   11  C   UNL     1      -9.286  10.679  68.816  1.00  0.00    -0.182 C  
BRANCH  11  12
HETATM   12  C   UNL     1      -9.555  12.149  68.480  1.00  0.00    -0.137 C  
BRANCH  12  13
HETATM   13  C   UNL     1     -11.047  12.474  68.458  1.00  0.00    -0.297 C  
BRANCH  13  14
HETATM   14  C   UNL     1     -11.540  13.110  69.765  1.00  0.00    -0.291 C  
BRANCH  14  15
HETATM   15  C   UNL     1     -12.229  12.152  70.745  1.00  0.00    -0.367 C  
BRANCH  15  16
HETATM   16  C   UNL     1     -12.796  10.915  70.103  1.00  0.00    -0.144 C  
HETATM   17  C   UNL     1     -13.072   9.776  70.758  1.00  0.00    -0.196 C  
BRANCH  17  18
HETATM   18  C   UNL     1     -12.826   9.529  72.218  1.00  0.00    -0.426 C  
BRANCH  18  19
HETATM   19  C   UNL     1     -12.070   8.223  72.453  1.00  0.00    -0.430 C  
BRANCH  19  20
HETATM   20  C   UNL     1     -10.564   8.463  72.362  1.00  0.00    -0.405 C  
BRANCH  20  21
HETATM   21  C   UNL     1      -9.946   7.683  71.206  1.00  0.00    -0.195 C  
BRANCH  21  22
HETATM   22  C   UNL     1     -10.981   6.793  70.525  1.00  0.00    -0.327 C  
BRANCH  22  23
HETATM   23  C   UNL     1     -10.350   5.478  70.071  1.00  0.00    -0.358 C  
BRANCH  23  24
HETATM   24  C   UNL     1     -10.024   4.571  71.253  1.00  0.00    -0.258 C  
HETATM   25  C   UNL     1      -9.449   3.249  70.798  1.00  0.00    -0.166 C  
HETATM   26  O   UNL     1      -9.139   2.445  71.841  1.00  0.00    -0.077 OA 
HETATM   27  O   UNL     1      -9.267   2.916  69.643  1.00  0.00    -0.123 OA 
ENDBRANCH  23  24
ENDBRANCH  22  23
ENDBRANCH  21  22
ENDBRANCH  20  21
ENDBRANCH  19  20
ENDBRANCH  18  19
ENDBRANCH  17  18
ENDBRANCH  15  16
ENDBRANCH  14  15
ENDBRANCH  13  14
ENDBRANCH  12  13
ENDBRANCH  11  12
ENDBRANCH  10  11
ENDBRANCH   6  10
TORSDOF 15
ENDMDL
MODEL      318
REMARK 921   NORMALIZED FREE ENERGY PREDICTED BY IDOCK:   -3.49 KCAL/MOL
REMARK 922        TOTAL FREE ENERGY PREDICTED BY IDOCK:   -8.50 KCAL/MOL
REMARK 923 INTER-LIGAND FREE ENERGY PREDICTED BY IDOCK:   -6.81 KCAL/MOL
REMARK 924 INTRA-LIGAND FREE ENERGY PREDICTED BY IDOCK:   -1.69 KCAL/MOL
REMARK 927      BINDING AFFINITY PREDICTED BY RF-SCORE:    0.00 PKD
ROOT
ATOM      1  N   GLY A   1      -6.593   4.894  72.190  1.00  0.00    -0.041 NA 
HETATM    2  C   UNL     1     -10.422   9.896  69.235  1.00  0.00    -0.240 C  
ATOM      3  H2  GLY A   1      -5.751   5.423  71.964  1.00  0.00     0.000 HD 
ATOM      4  H1  GLY A   1      -6.851   4.992  73.171  1.00  0.00     0.000 HD 
ATOM      5  CA  GLY A   1      -7.722   5.265  71.327  1.00  0.00    -0.102 C  
HETATM    6  C   UNL     1     -10.984  10.279  70.595  1.00  0.00    -0.287 C  
ENDROOT
BRANCH   5   7
ATOM      7  C   GLY A   1      -7.333   5.118  69.853  1.00  0.00    -0.060 C  
ATOM      8  H   GLY A   1      -5.702   4.725  68.840  1.00  0.00     0.000 HD 
ATOM      9  O   GLY A   1      -5.944   4.816  69.755  1.00  0.00    -0.016 OA 
ENDBRANCH   5   7
BRANCH   6  10
HETATM   10  C   UNL     1     -12.109   9.363  71.076  1.00  0.00    -0.373 C  
BRANCH  10  11
HETATM   11  C   UNL     1     -11.827   8.657  72.405  1.00  0.00    -0.402 C  
BRANCH  11  12
HETATM   12  C   UNL     1     -11.474   7.190  72.146  1.00  0.00    -0.306 C  
BRANCH  12  13
HETATM   13  C   UNL     1     -12.081   6.668  70.845  1.00  0.00    -0.379 C  
BRANCH  13  14
HETATM   14  C   UNL     1     -11.050   5.988  69.934  1.00  0.00    -0.469 C  
BRANCH  14  15
HETATM   15  C   UNL     1     -11.119   6.380  68.453  1.00  0.00    -0.374 C  
BRANCH  15  16
HETATM   16  C   UNL     1     -10.281   5.520  67.546  1.00  0.00    -0.245 C  
HETATM   17  C   UNL     1      -9.411   5.992  66.640  1.00  0.00    -0.167 C  
BRANCH  17  18
HETATM   18  C   UNL     1      -9.158   7.442  66.348  1.00  0.00    -0.196 C  
BRANCH  18  19
HETATM   19  C   UNL     1      -7.978   7.631  65.398  1.00  0.00    -0.123 C  
BRANCH  19  20
HETATM   20  C   UNL     1      -7.910   9.083  64.925  1.00  0.00    -0.119 C  
BRANCH  20  21
HETATM   21  C   UNL     1      -8.901   9.346  63.795  1.00  0.00    -0.201 C  
BRANCH  21  22
HETATM   22  C   UNL     1      -9.286  10.822  63.732  1.00  0.00    -0.295 C  
BRANCH  22  23
HETATM   23  C   UNL     1     -10.712  11.031  64.235  1.00  0.00    -0.348 C  
BRANCH  23  24
HETATM   24  C   UNL     1     -10.820  12.264  65.127  1.00  0.00    -0.340 C  
HETATM   25  C   UNL     1     -12.215  12.846  65.105  1.00  0.00    -0.470 C  
HETATM   26  O   UNL     1     -12.326  13.930  65.908  1.00  0.00    -0.436 OA 
HETATM   27  O   UNL     1     -13.152  12.415  64.460  1.00  0.00    -0.823 OA 
ENDBRANCH  23  24
ENDBRANCH  22  23
ENDBRANCH  21  22
ENDBRANCH  20  21
ENDBRANCH  19  20
ENDBRANCH  18  19
ENDBRANCH  17  18
ENDBRANCH  15  16
ENDBRANCH  14  15
ENDBRANCH  13  14
ENDBRANCH  12  13
ENDBRANCH  11  12
ENDBRANCH  10  11
ENDBRANCH   6  10
TORSDOF 15
ENDMDL
MODEL      319
REMARK 921   NORMALIZED FREE ENERGY PREDICTED BY IDOCK:   -3.49 KCAL/MOL
REMARK 922        TOTAL FREE ENERGY PREDICTED BY IDOCK:   -8.49 KCAL/MOL
REMARK 923 INTER-LIGAND FREE ENERGY PREDICTED BY IDOCK:   -7.32 KCAL/MOL
REMARK 924 INTRA-LIGAND FREE ENERGY PREDICTED BY IDOCK:   -1.17 KCAL/MOL
REMARK 927      BINDING AFFINITY PREDICTED BY RF-SCORE:    0.00 PKD
ROOT
ATOM      1  N   GLY A   1     -10.803   3.394  73.086  1.00  0.00    -0.169 NA 
HETATM    2  C   UNL     1     -10.546   9.878  70.575  1.00  0.00    -0.359 C  
ATOM      3  H2  GLY A   1     -11.518   3.693  73.749  1.00  0.00     0.000 HD 
ATOM      4  H1  GLY A   1     -11.204   2.886  72.298  1.00  0.00     0.000 HD 
ATOM      5  CA  GLY A   1      -9.994   4.522  72.604  1.00  0.00    -0.165 C  
HETATM    6  C   UNL     1     -11.153   9.402  69.264  1.00  0.00    -0.068 C  
ENDROOT
BRANCH   5   7
ATOM      7  C   GLY A   1      -9.393   5.285  73.788  1.00  0.00    -0.132 C  
ATOM      8  H   GLY A   1      -7.600   5.795  74.394  1.00  0.00     0.000 HD 
ATOM      9  O   GLY A   1      -7.974   5.322  73.660  1.00  0.00    -0.108 OA 
ENDBRANCH   5   7
BRANCH   6  10
HETATM   10  C   UNL     1     -10.147   8.738  68.326  1.00  0.00    -0.220 C  
BRANCH  10  11
HETATM   11  C   UNL     1     -10.260   9.173  66.863  1.00  0.00    -0.336 C  
BRANCH  11  12
HETATM   12  C   UNL     1      -9.206   8.444  66.024  1.00  0.00    -0.247 C  
BRANCH  12  13
HETATM   13  C   UNL     1      -8.782   9.251  64.798  1.00  0.00    -0.220 C  
BRANCH  13  14
HETATM   14  C   UNL     1      -9.173  10.732  64.891  1.00  0.00    -0.243 C  
BRANCH  14  15
HETATM   15  C   UNL     1     -10.426  11.134  64.103  1.00  0.00    -0.442 C  
BRANCH  15  16
HETATM   16  C   UNL     1     -10.596  12.618  63.929  1.00  0.00    -0.460 C  
HETATM   17  C   UNL     1     -11.347  13.396  64.725  1.00  0.00    -0.356 C  
BRANCH  17  18
HETATM   18  C   UNL     1     -12.169  12.919  65.886  1.00  0.00    -0.469 C  
BRANCH  18  19
HETATM   19  C   UNL     1     -11.320  12.727  67.141  1.00  0.00    -0.365 C  
BRANCH  19  20
HETATM   20  C   UNL     1     -11.952  13.462  68.322  1.00  0.00    -0.352 C  
BRANCH  20  21
HETATM   21  C   UNL     1     -10.992  14.487  68.917  1.00  0.00    -0.268 C  
BRANCH  21  22
HETATM   22  C   UNL     1     -11.485  15.911  68.675  1.00  0.00    -0.391 C  
BRANCH  22  23
HETATM   23  C   UNL     1     -10.328  16.905  68.749  1.00  0.00    -0.324 C  
BRANCH  23  24
HETATM   24  C   UNL     1     -10.588  18.137  67.888  1.00  0.00    -0.389 C  
HETATM   25  C   UNL     1     -10.450  17.825  66.415  1.00  0.00    -0.297 C  
HETATM   26  O   UNL     1     -10.697  18.909  65.642  1.00  0.00    -0.532 OA 
HETATM   27  O   UNL     1     -10.160  16.742  65.944  1.00  0.00    -0.405 OA 
ENDBRANCH  23  24
ENDBRANCH  22  23
ENDBRANCH  21  22
ENDBRANCH  20  21
ENDBRANCH  19  20
ENDBRANCH  18  19
ENDBRANCH  17  18
ENDBRANCH  15  16
ENDBRANCH  14  15
ENDBRANCH  13  14
ENDBRANCH  12  13
ENDBRANCH  11  12
ENDBRANCH  10  11
ENDBRANCH   6  10
TORSDOF 15
ENDMDL
MODEL      320
REMARK 921   NORMALIZED FREE ENERGY PREDICTED BY IDOCK:   -3.49 KCAL/MOL
REMARK 922        TOTAL FREE ENERGY PREDICTED BY IDOCK:   -8.49 KCAL/MOL
REMARK 923 INTER-LIGAND FREE ENERGY PREDICTED BY IDOCK:   -6.83 KCAL/MOL
REMARK 924 INTRA-LIGAND FREE ENERGY PREDICTED BY IDOCK:   -1.66 KCAL/MOL
REMARK 927      BINDING AFFINITY PREDICTED BY RF-SCORE:    0.00 PKD
ROOT
ATOM      1  N   GLY A   1      -9.750   9.645  62.330  1.00  0.00    -0.548 NA 
HETATM    2  C   UNL     1      -7.919  14.107  67.345  1.00  0.00    -0.201 C  
ATOM      3  H2  GLY A   1      -9.792   8.900  63.026  1.00  0.00     0.000 HD 
ATOM      4  H1  GLY A   1     -10.678   9.986  62.082  1.00  0.00     0.000 HD 
ATOM      5  CA  GLY A   1      -8.899  10.759  62.769  1.00  0.00    -0.272 C  
HETATM    6  C   UNL     1      -9.252  14.825  67.203  1.00  0.00    -0.233 C  
ENDROOT
BRANCH   5   7
ATOM      7  C   GLY A   1      -7.505  10.246  63.141  1.00  0.00    -0.125 C  
ATOM      8  H   GLY A   1      -6.371   8.722  62.662  1.00  0.00     0.000 HD 
ATOM      9  O   GLY A   1      -7.236   9.040  62.431  1.00  0.00    -0.100 OA 
ENDBRANCH   5   7
BRANCH   6  10
HETATM   10  C   UNL     1      -9.306  15.794  66.023  1.00  0.00    -0.384 C  
BRANCH  10  11
HETATM   11  C   UNL     1     -10.713  16.280  65.664  1.00  0.00    -0.297 C  
BRANCH  11  12
HETATM   12  C   UNL     1     -11.163  15.636  64.350  1.00  0.00    -0.249 C  
BRANCH  12  13
HETATM   13  C   UNL     1     -12.260  14.594  64.561  1.00  0.00    -0.473 C  
BRANCH  13  14
HETATM   14  C   UNL     1     -11.753  13.153  64.409  1.00  0.00    -0.429 C  
BRANCH  14  15
HETATM   15  C   UNL     1     -11.769  12.311  65.691  1.00  0.00    -0.440 C  
BRANCH  15  16
HETATM   16  C   UNL     1     -12.190  13.067  66.922  1.00  0.00    -0.233 C  
HETATM   17  C   UNL     1     -11.855  12.726  68.176  1.00  0.00    -0.372 C  
BRANCH  17  18
HETATM   18  C   UNL     1     -11.047  11.522  68.565  1.00  0.00    -0.287 C  
BRANCH  18  19
HETATM   19  C   UNL     1     -11.358  11.067  69.989  1.00  0.00    -0.358 C  
BRANCH  19  20
HETATM   20  C   UNL     1     -10.437   9.914  70.386  1.00  0.00    -0.347 C  
BRANCH  20  21
HETATM   21  C   UNL     1     -10.490   8.783  69.363  1.00  0.00    -0.228 C  
BRANCH  21  22
HETATM   22  C   UNL     1      -9.969   7.477  69.956  1.00  0.00    -0.186 C  
BRANCH  22  23
HETATM   23  C   UNL     1     -10.947   6.923  70.989  1.00  0.00    -0.287 C  
BRANCH  23  24
HETATM   24  C   UNL     1     -10.222   6.222  72.134  1.00  0.00    -0.208 C  
HETATM   25  C   UNL     1     -11.163   5.358  72.942  1.00  0.00    -0.314 C  
HETATM   26  O   UNL     1     -10.525   4.717  73.949  1.00  0.00    -0.210 OA 
HETATM   27  O   UNL     1     -12.355   5.225  72.737  1.00  0.00    -0.045 OA 
ENDBRANCH  23  24
ENDBRANCH  22  23
ENDBRANCH  21  22
ENDBRANCH  20  21
ENDBRANCH  19  20
ENDBRANCH  18  19
ENDBRANCH  17  18
ENDBRANCH  15  16
ENDBRANCH  14  15
ENDBRANCH  13  14
ENDBRANCH  12  13
ENDBRANCH  11  12
ENDBRANCH  10  11
ENDBRANCH   6  10
TORSDOF 15
ENDMDL
MODEL      321
REMARK 921   NORMALIZED FREE ENERGY PREDICTED BY IDOCK:   -3.48 KCAL/MOL
REMARK 922        TOTAL FREE ENERGY PREDICTED BY IDOCK:   -8.47 KCAL/MOL
REMARK 923 INTER-LIGAND FREE ENERGY PREDICTED BY IDOCK:   -6.76 KCAL/MOL
REMARK 924 INTRA-LIGAND FREE ENERGY PREDICTED BY IDOCK:   -1.71 KCAL/MOL
REMARK 927      BINDING AFFINITY PREDICTED BY RF-SCORE:    0.00 PKD
ROOT
ATOM      1  N   GLY A   1      -9.989  14.867  69.893  1.00  0.00    -0.458 NA 
HETATM    2  C   UNL     1     -12.139  13.576  63.403  1.00  0.00    -0.351 C  
ATOM      3  H2  GLY A   1     -10.924  15.206  70.121  1.00  0.00     0.000 HD 
ATOM      4  H1  GLY A   1      -9.830  13.924  70.246  1.00  0.00     0.000 HD 
ATOM      5  CA  GLY A   1      -9.724  14.921  68.449  1.00  0.00    -0.209 C  
HETATM    6  C   UNL     1     -12.004  12.082  63.647  1.00  0.00    -0.612 C  
ENDROOT
BRANCH   5   7
ATOM      7  C   GLY A   1      -9.964  16.337  67.919  1.00  0.00    -0.241 C  
ATOM      8  H   GLY A   1     -11.430  17.637  67.935  1.00  0.00     0.000 HD 
ATOM      9  O   GLY A   1     -11.281  16.758  68.264  1.00  0.00    -0.333 OA 
ENDBRANCH   5   7
BRANCH   6  10
HETATM   10  C   UNL     1     -10.569  11.568  63.535  1.00  0.00    -0.487 C  
BRANCH  10  11
HETATM   11  C   UNL     1      -9.968  11.072  64.853  1.00  0.00    -0.343 C  
BRANCH  11  12
HETATM   12  C   UNL     1      -9.439   9.646  64.675  1.00  0.00    -0.221 C  
BRANCH  12  13
HETATM   13  C   UNL     1      -8.616   9.180  65.875  1.00  0.00    -0.168 C  
BRANCH  13  14
HETATM   14  C   UNL     1      -7.813  10.313  66.527  1.00  0.00    -0.116 C  
BRANCH  14  15
HETATM   15  C   UNL     1      -7.978  10.449  68.046  1.00  0.00    -0.105 C  
BRANCH  15  16
HETATM   16  C   UNL     1      -9.012  11.456  68.468  1.00  0.00    -0.158 C  
HETATM   17  C   UNL     1     -10.257  11.148  68.864  1.00  0.00    -0.209 C  
BRANCH  17  18
HETATM   18  C   UNL     1     -10.839   9.766  68.914  1.00  0.00    -0.220 C  
BRANCH  18  19
HETATM   19  C   UNL     1     -10.504   9.057  70.224  1.00  0.00    -0.248 C  
BRANCH  19  20
HETATM   20  C   UNL     1     -11.391   9.586  71.350  1.00  0.00    -0.462 C  
BRANCH  20  21
HETATM   21  C   UNL     1     -12.485   8.585  71.713  1.00  0.00    -0.388 C  
BRANCH  21  22
HETATM   22  C   UNL     1     -12.178   7.202  71.145  1.00  0.00    -0.405 C  
BRANCH  22  23
HETATM   23  C   UNL     1     -11.869   6.213  72.266  1.00  0.00    -0.326 C  
BRANCH  23  24
HETATM   24  C   UNL     1     -10.381   6.189  72.602  1.00  0.00    -0.219 C  
HETATM   25  C   UNL     1      -9.624   5.237  71.705  1.00  0.00    -0.152 C  
HETATM   26  O   UNL     1      -8.299   5.222  71.983  1.00  0.00    -0.119 OA 
HETATM   27  O   UNL     1     -10.111   4.554  70.824  1.00  0.00    -0.214 OA 
ENDBRANCH  23  24
ENDBRANCH  22  23
ENDBRANCH  21  22
ENDBRANCH  20  21
ENDBRANCH  19  20
ENDBRANCH  18  19
ENDBRANCH  17  18
ENDBRANCH  15  16
ENDBRANCH  14  15
ENDBRANCH  13  14
ENDBRANCH  12  13
ENDBRANCH  11  12
ENDBRANCH  10  11
ENDBRANCH   6  10
TORSDOF 15
ENDMDL
MODEL      322
REMARK 921   NORMALIZED FREE ENERGY PREDICTED BY IDOCK:   -3.47 KCAL/MOL
REMARK 922        TOTAL FREE ENERGY PREDICTED BY IDOCK:   -8.45 KCAL/MOL
REMARK 923 INTER-LIGAND FREE ENERGY PREDICTED BY IDOCK:   -6.28 KCAL/MOL
REMARK 924 INTRA-LIGAND FREE ENERGY PREDICTED BY IDOCK:   -2.17 KCAL/MOL
REMARK 927      BINDING AFFINITY PREDICTED BY RF-SCORE:    0.00 PKD
ROOT
ATOM      1  N   GLY A   1      -5.931  19.284  64.268  1.00  0.00    -0.407 NA 
HETATM    2  C   UNL     1      -9.453  13.518  65.931  1.00  0.00    -0.048 C  
ATOM      3  H2  GLY A   1      -5.101  18.714  64.106  1.00  0.00     0.000 HD 
ATOM      4  H1  GLY A   1      -6.383  19.554  63.395  1.00  0.00     0.000 HD 
ATOM      5  CA  GLY A   1      -6.894  18.612  65.152  1.00  0.00     0.119 C  
HETATM    6  C   UNL     1     -10.296  13.661  64.673  1.00  0.00    -0.407 C  
ENDROOT
BRANCH   5   7
ATOM      7  C   GLY A   1      -6.214  18.206  66.463  1.00  0.00    -0.180 C  
ATOM      8  H   GLY A   1      -5.419  16.580  67.213  1.00  0.00     0.000 HD 
ATOM      9  O   GLY A   1      -5.840  16.832  66.400  1.00  0.00    -0.314 OA 
ENDBRANCH   5   7
BRANCH   6  10
HETATM   10  C   UNL     1     -11.425  14.683  64.803  1.00  0.00    -0.410 C  
BRANCH  10  11
HETATM   11  C   UNL     1     -10.960  16.140  64.853  1.00  0.00    -0.364 C  
BRANCH  11  12
HETATM   12  C   UNL     1     -11.113  16.683  66.276  1.00  0.00     0.279 C  
BRANCH  12  13
HETATM   13  C   UNL     1     -10.206  17.884  66.540  1.00  0.00    -0.379 C  
BRANCH  13  14
HETATM   14  C   UNL     1     -10.221  18.335  68.007  1.00  0.00    -0.402 C  
BRANCH  14  15
HETATM   15  C   UNL     1      -8.964  17.991  68.815  1.00  0.00    -0.221 C  
BRANCH  15  16
HETATM   16  C   UNL     1      -8.631  16.524  68.846  1.00  0.00    -0.241 C  
HETATM   17  C   UNL     1      -9.424  15.574  69.367  1.00  0.00    -0.278 C  
BRANCH  17  18
HETATM   18  C   UNL     1     -10.744  15.814  70.040  1.00  0.00    -0.347 C  
BRANCH  18  19
HETATM   19  C   UNL     1     -11.559  14.529  70.165  1.00  0.00    -0.334 C  
BRANCH  19  20
HETATM   20  C   UNL     1     -12.157  14.151  68.810  1.00  0.00    -0.326 C  
BRANCH  20  21
HETATM   21  C   UNL     1     -11.757  12.737  68.400  1.00  0.00    -0.380 C  
BRANCH  21  22
HETATM   22  C   UNL     1     -11.429  11.881  69.620  1.00  0.00    -0.337 C  
BRANCH  22  23
HETATM   23  C   UNL     1     -10.926  10.504  69.196  1.00  0.00    -0.286 C  
BRANCH  23  24
HETATM   24  C   UNL     1     -10.494  10.487  67.733  1.00  0.00    -0.263 C  
HETATM   25  C   UNL     1     -10.379   9.076  67.202  1.00  0.00    -0.272 C  
HETATM   26  O   UNL     1     -10.014   9.052  65.899  1.00  0.00    -0.276 OA 
HETATM   27  O   UNL     1     -10.586   8.061  67.840  1.00  0.00    -0.209 OA 
ENDBRANCH  23  24
ENDBRANCH  22  23
ENDBRANCH  21  22
ENDBRANCH  20  21
ENDBRANCH  19  20
ENDBRANCH  18  19
ENDBRANCH  17  18
ENDBRANCH  15  16
ENDBRANCH  14  15
ENDBRANCH  13  14
ENDBRANCH  12  13
ENDBRANCH  11  12
ENDBRANCH  10  11
ENDBRANCH   6  10
TORSDOF 15
ENDMDL
MODEL      323
REMARK 921   NORMALIZED FREE ENERGY PREDICTED BY IDOCK:   -3.46 KCAL/MOL
REMARK 922        TOTAL FREE ENERGY PREDICTED BY IDOCK:   -8.43 KCAL/MOL
REMARK 923 INTER-LIGAND FREE ENERGY PREDICTED BY IDOCK:   -6.15 KCAL/MOL
REMARK 924 INTRA-LIGAND FREE ENERGY PREDICTED BY IDOCK:   -2.29 KCAL/MOL
REMARK 927      BINDING AFFINITY PREDICTED BY RF-SCORE:    0.00 PKD
ROOT
ATOM      1  N   GLY A   1     -12.151  12.414  66.029  1.00  0.00    -0.638 NA 
HETATM    2  C   UNL     1     -10.543   6.021  68.253  1.00  0.00    -0.325 C  
ATOM      3  H2  GLY A   1     -12.685  12.000  65.265  1.00  0.00     0.000 HD 
ATOM      4  H1  GLY A   1     -12.757  12.745  66.780  1.00  0.00     0.000 HD 
ATOM      5  CA  GLY A   1     -11.144  11.487  66.561  1.00  0.00    -0.282 C  
HETATM    6  C   UNL     1     -11.399   6.228  69.493  1.00  0.00    -0.475 C  
ENDROOT
BRANCH   5   7
ATOM      7  C   GLY A   1     -10.234  10.990  65.433  1.00  0.00    -0.274 C  
ATOM      8  H   GLY A   1      -9.465   9.278  64.870  1.00  0.00     0.000 HD 
ATOM      9  O   GLY A   1     -10.029   9.586  65.569  1.00  0.00    -0.304 OA 
ENDBRANCH   5   7
BRANCH   6  10
HETATM   10  C   UNL     1     -10.711   7.047  70.585  1.00  0.00    -0.255 C  
BRANCH  10  11
HETATM   11  C   UNL     1     -11.326   8.427  70.826  1.00  0.00    -0.290 C  
BRANCH  11  12
HETATM   12  C   UNL     1     -10.248   9.395  71.321  1.00  0.00    -0.340 C  
BRANCH  12  13
HETATM   13  C   UNL     1      -8.837   8.853  71.099  1.00  0.00    -0.297 C  
BRANCH  13  14
HETATM   14  C   UNL     1      -8.001   9.728  70.155  1.00  0.00    -0.201 C  
BRANCH  14  15
HETATM   15  C   UNL     1      -8.347   9.606  68.665  1.00  0.00    -0.114 C  
BRANCH  15  16
HETATM   16  C   UNL     1      -7.199   9.897  67.739  1.00  0.00    -0.088 C  
HETATM   17  C   UNL     1      -6.897  11.115  67.260  1.00  0.00    -0.095 C  
BRANCH  17  18
HETATM   18  C   UNL     1      -7.669  12.373  67.531  1.00  0.00    -0.161 C  
BRANCH  18  19
HETATM   19  C   UNL     1      -6.933  13.292  68.502  1.00  0.00    -0.103 C  
BRANCH  19  20
HETATM   20  C   UNL     1      -6.435  14.539  67.772  1.00  0.00    -0.181 C  
BRANCH  20  21
HETATM   21  C   UNL     1      -7.257  15.768  68.147  1.00  0.00    -0.124 C  
BRANCH  21  22
HETATM   22  C   UNL     1      -8.007  15.552  69.459  1.00  0.00    -0.192 C  
BRANCH  22  23
HETATM   23  C   UNL     1      -9.458  16.012  69.335  1.00  0.00    -0.226 C  
BRANCH  23  24
HETATM   24  C   UNL     1     -10.244  15.141  68.360  1.00  0.00    -0.221 C  
HETATM   25  C   UNL     1     -10.586  15.893  67.094  1.00  0.00    -0.316 C  
HETATM   26  O   UNL     1     -11.268  15.122  66.215  1.00  0.00    -0.337 OA 
HETATM   27  O   UNL     1     -10.295  17.050  66.857  1.00  0.00    -0.308 OA 
ENDBRANCH  23  24
ENDBRANCH  22  23
ENDBRANCH  21  22
ENDBRANCH  20  21
ENDBRANCH  19  20
ENDBRANCH  18  19
ENDBRANCH  17  18
ENDBRANCH  15  16
ENDBRANCH  14  15
ENDBRANCH  13  14
ENDBRANCH  12  13
ENDBRANCH  11  12
ENDBRANCH  10  11
ENDBRANCH   6  10
TORSDOF 15
ENDMDL
MODEL      324
REMARK 921   NORMALIZED FREE ENERGY PREDICTED BY IDOCK:   -3.45 KCAL/MOL
REMARK 922        TOTAL FREE ENERGY PREDICTED BY IDOCK:   -8.42 KCAL/MOL
REMARK 923 INTER-LIGAND FREE ENERGY PREDICTED BY IDOCK:   -6.42 KCAL/MOL
REMARK 924 INTRA-LIGAND FREE ENERGY PREDICTED BY IDOCK:   -2.00 KCAL/MOL
REMARK 927      BINDING AFFINITY PREDICTED BY RF-SCORE:    0.00 PKD
ROOT
ATOM      1  N   GLY A   1      -7.706   8.631  74.016  1.00  0.00    -0.418 NA 
HETATM    2  C   UNL     1      -9.144   3.121  70.019  1.00  0.00    -0.197 C  
ATOM      3  H2  GLY A   1      -6.986   8.085  74.487  1.00  0.00     0.000 HD 
ATOM      4  H1  GLY A   1      -7.308   9.278  73.335  1.00  0.00     0.000 HD 
ATOM      5  CA  GLY A   1      -8.712   7.775  73.374  1.00  0.00    -0.227 C  
HETATM    6  C   UNL     1      -8.596   3.850  68.802  1.00  0.00    -0.117 C  
ENDROOT
BRANCH   5   7
ATOM      7  C   GLY A   1      -9.310   6.803  74.396  1.00  0.00    -0.230 C  
ATOM      8  H   GLY A   1     -10.871   5.623  74.499  1.00  0.00     0.000 HD 
ATOM      9  O   GLY A   1     -10.500   6.226  73.865  1.00  0.00    -0.274 OA 
ENDBRANCH   5   7
BRANCH   6  10
HETATM   10  C   UNL     1      -9.574   4.854  68.195  1.00  0.00    -0.191 C  
BRANCH  10  11
HETATM   11  C   UNL     1      -9.914   4.599  66.724  1.00  0.00    -0.250 C  
BRANCH  11  12
HETATM   12  C   UNL     1      -9.183   5.613  65.841  1.00  0.00    -0.145 C  
BRANCH  12  13
HETATM   13  C   UNL     1      -8.820   6.888  66.600  1.00  0.00    -0.140 C  
BRANCH  13  14
HETATM   14  C   UNL     1      -9.677   8.093  66.189  1.00  0.00    -0.154 C  
BRANCH  14  15
HETATM   15  C   UNL     1      -8.901   9.379  65.879  1.00  0.00    -0.193 C  
BRANCH  15  16
HETATM   16  C   UNL     1      -9.723  10.454  65.221  1.00  0.00    -0.339 C  
HETATM   17  C   UNL     1     -10.633  11.210  65.854  1.00  0.00    -0.294 C  
BRANCH  17  18
HETATM   18  C   UNL     1     -11.014  11.088  67.300  1.00  0.00    -0.356 C  
BRANCH  18  19
HETATM   19  C   UNL     1      -9.878  11.520  68.224  1.00  0.00    -0.203 C  
BRANCH  19  20
HETATM   20  C   UNL     1      -9.790  10.579  69.426  1.00  0.00    -0.205 C  
BRANCH  20  21
HETATM   21  C   UNL     1     -11.001   9.655  69.497  1.00  0.00    -0.233 C  
BRANCH  21  22
HETATM   22  C   UNL     1     -10.577   8.206  69.721  1.00  0.00    -0.231 C  
BRANCH  22  23
HETATM   23  C   UNL     1     -11.454   7.542  70.780  1.00  0.00    -0.305 C  
BRANCH  23  24
HETATM   24  C   UNL     1     -12.112   8.572  71.693  1.00  0.00    -0.373 C  
HETATM   25  C   UNL     1     -13.591   8.305  71.858  1.00  0.00    -0.357 C  
HETATM   26  O   UNL     1     -14.180   9.203  72.682  1.00  0.00    -0.551 OA 
HETATM   27  O   UNL     1     -14.210   7.399  71.334  1.00  0.00    -0.433 OA 
ENDBRANCH  23  24
ENDBRANCH  22  23
ENDBRANCH  21  22
ENDBRANCH  20  21
ENDBRANCH  19  20
ENDBRANCH  18  19
ENDBRANCH  17  18
ENDBRANCH  15  16
ENDBRANCH  14  15
ENDBRANCH  13  14
ENDBRANCH  12  13
ENDBRANCH  11  12
ENDBRANCH  10  11
ENDBRANCH   6  10
TORSDOF 15
ENDMDL
MODEL      325
REMARK 921   NORMALIZED FREE ENERGY PREDICTED BY IDOCK:   -3.44 KCAL/MOL
REMARK 922        TOTAL FREE ENERGY PREDICTED BY IDOCK:   -8.41 KCAL/MOL
REMARK 923 INTER-LIGAND FREE ENERGY PREDICTED BY IDOCK:   -6.96 KCAL/MOL
REMARK 924 INTRA-LIGAND FREE ENERGY PREDICTED BY IDOCK:   -1.45 KCAL/MOL
REMARK 927      BINDING AFFINITY PREDICTED BY RF-SCORE:    0.00 PKD
ROOT
ATOM      1  N   GLY A   1     -10.368  13.193  63.788  1.00  0.00    -0.657 NA 
HETATM    2  C   UNL     1     -11.000  19.681  66.219  1.00  0.00    -0.295 C  
ATOM      3  H2  GLY A   1     -11.017  13.425  63.036  1.00  0.00     0.000 HD 
ATOM      4  H1  GLY A   1      -9.400  13.189  63.467  1.00  0.00     0.000 HD 
ATOM      5  CA  GLY A   1     -10.518  14.092  64.940  1.00  0.00    -0.438 C  
HETATM    6  C   UNL     1      -9.559  19.975  65.834  1.00  0.00    -0.326 C  
ENDROOT
BRANCH   5   7
ATOM      7  C   GLY A   1     -11.971  14.099  65.421  1.00  0.00    -0.381 C  
ATOM      8  H   GLY A   1     -13.678  13.351  64.815  1.00  0.00     0.000 HD 
ATOM      9  O   GLY A   1     -12.776  13.347  64.516  1.00  0.00    -0.633 OA 
ENDBRANCH   5   7
BRANCH   6  10
HETATM   10  C   UNL     1      -8.534  19.439  66.833  1.00  0.00    -0.316 C  
BRANCH  10  11
HETATM   11  C   UNL     1      -7.196  19.032  66.212  1.00  0.00    -0.269 C  
BRANCH  11  12
HETATM   12  C   UNL     1      -6.821  17.619  66.670  1.00  0.00    -0.252 C  
BRANCH  12  13
HETATM   13  C   UNL     1      -7.911  16.598  66.349  1.00  0.00    -0.360 C  
BRANCH  13  14
HETATM   14  C   UNL     1      -8.465  15.901  67.599  1.00  0.00    -0.170 C  
BRANCH  14  15
HETATM   15  C   UNL     1      -8.113  14.414  67.736  1.00  0.00    -0.174 C  
BRANCH  15  16
HETATM   16  C   UNL     1      -6.914  14.141  68.603  1.00  0.00    -0.107 C  
HETATM   17  C   UNL     1      -6.185  13.015  68.559  1.00  0.00    -0.078 C  
BRANCH  17  18
HETATM   18  C   UNL     1      -6.460  11.831  67.678  1.00  0.00    -0.082 C  
BRANCH  18  19
HETATM   19  C   UNL     1      -7.416  10.841  68.339  1.00  0.00    -0.095 C  
BRANCH  19  20
HETATM   20  C   UNL     1      -8.844  11.081  67.851  1.00  0.00    -0.134 C  
BRANCH  20  21
HETATM   21  C   UNL     1      -9.869  10.564  68.855  1.00  0.00    -0.209 C  
BRANCH  21  22
HETATM   22  C   UNL     1     -11.289  10.693  68.311  1.00  0.00    -0.357 C  
BRANCH  22  23
HETATM   23  C   UNL     1     -11.884  12.053  68.668  1.00  0.00    -0.366 C  
BRANCH  23  24
HETATM   24  C   UNL     1     -12.282  12.126  70.139  1.00  0.00    -0.308 C  
HETATM   25  C   UNL     1     -12.329  13.554  70.633  1.00  0.00    -0.358 C  
HETATM   26  O   UNL     1     -12.699  13.630  71.933  1.00  0.00    -0.299 OA 
HETATM   27  O   UNL     1     -12.076  14.541  69.969  1.00  0.00    -0.301 OA 
ENDBRANCH  23  24
ENDBRANCH  22  23
ENDBRANCH  21  22
ENDBRANCH  20  21
ENDBRANCH  19  20
ENDBRANCH  18  19
ENDBRANCH  17  18
ENDBRANCH  15  16
ENDBRANCH  14  15
ENDBRANCH  13  14
ENDBRANCH  12  13
ENDBRANCH  11  12
ENDBRANCH  10  11
ENDBRANCH   6  10
TORSDOF 15
ENDMDL
MODEL      326
REMARK 921   NORMALIZED FREE ENERGY PREDICTED BY IDOCK:   -3.44 KCAL/MOL
REMARK 922        TOTAL FREE ENERGY PREDICTED BY IDOCK:   -8.40 KCAL/MOL
REMARK 923 INTER-LIGAND FREE ENERGY PREDICTED BY IDOCK:   -6.76 KCAL/MOL
REMARK 924 INTRA-LIGAND FREE ENERGY PREDICTED BY IDOCK:   -1.64 KCAL/MOL
REMARK 927      BINDING AFFINITY PREDICTED BY RF-SCORE:    0.00 PKD
ROOT
ATOM      1  N   GLY A   1     -11.527  16.460  63.833  1.00  0.00    -1.618 NA 
HETATM    2  C   UNL     1      -6.543  13.611  67.763  1.00  0.00    -0.178 C  
ATOM      3  H2  GLY A   1     -10.806  16.875  63.243  1.00  0.00     0.000 HD 
ATOM      4  H1  GLY A   1     -11.943  15.635  63.401  1.00  0.00     0.000 HD 
ATOM      5  CA  GLY A   1     -11.019  16.132  65.171  1.00  0.00    -0.316 C  
HETATM    6  C   UNL     1      -6.942  12.226  67.279  1.00  0.00    -0.142 C  
ENDROOT
BRANCH   5   7
ATOM      7  C   GLY A   1     -10.394  17.371  65.819  1.00  0.00    -0.216 C  
ATOM      8  H   GLY A   1      -9.081  17.736  67.227  1.00  0.00     0.000 HD 
ATOM      9  O   GLY A   1      -9.468  16.967  66.825  1.00  0.00    -0.239 OA 
ENDBRANCH   5   7
BRANCH   6  10
HETATM   10  C   UNL     1      -8.169  11.656  67.990  1.00  0.00    -0.146 C  
BRANCH  10  11
HETATM   11  C   UNL     1      -7.969  10.257  68.577  1.00  0.00    -0.107 C  
BRANCH  11  12
HETATM   12  C   UNL     1      -9.277   9.767  69.204  1.00  0.00    -0.177 C  
BRANCH  12  13
HETATM   13  C   UNL     1     -10.497  10.134  68.361  1.00  0.00    -0.237 C  
BRANCH  13  14
HETATM   14  C   UNL     1     -10.650   9.251  67.115  1.00  0.00    -0.286 C  
BRANCH  14  15
HETATM   15  C   UNL     1     -10.592   7.739  67.367  1.00  0.00    -0.345 C  
BRANCH  15  16
HETATM   16  C   UNL     1      -9.351   7.072  66.841  1.00  0.00    -0.185 C  
HETATM   17  C   UNL     1      -8.696   6.081  67.466  1.00  0.00    -0.107 C  
BRANCH  17  18
HETATM   18  C   UNL     1      -9.061   5.503  68.803  1.00  0.00    -0.131 C  
BRANCH  18  19
HETATM   19  C   UNL     1      -8.404   6.267  69.950  1.00  0.00    -0.129 C  
BRANCH  19  20
HETATM   20  C   UNL     1      -8.227   5.350  71.160  1.00  0.00    -0.119 C  
BRANCH  20  21
HETATM   21  C   UNL     1      -9.485   4.528  71.423  1.00  0.00    -0.219 C  
BRANCH  21  22
HETATM   22  C   UNL     1      -9.890   4.595  72.893  1.00  0.00    -0.180 C  
BRANCH  22  23
HETATM   23  C   UNL     1     -11.320   5.110  73.038  1.00  0.00    -0.381 C  
BRANCH  23  24
HETATM   24  C   UNL     1     -11.576   6.322  72.147  1.00  0.00    -0.367 C  
HETATM   25  C   UNL     1     -10.977   7.580  72.733  1.00  0.00    -0.359 C  
HETATM   26  O   UNL     1     -11.183   8.657  71.941  1.00  0.00    -0.296 OA 
HETATM   27  O   UNL     1     -10.371   7.652  73.786  1.00  0.00    -0.277 OA 
ENDBRANCH  23  24
ENDBRANCH  22  23
ENDBRANCH  21  22
ENDBRANCH  20  21
ENDBRANCH  19  20
ENDBRANCH  18  19
ENDBRANCH  17  18
ENDBRANCH  15  16
ENDBRANCH  14  15
ENDBRANCH  13  14
ENDBRANCH  12  13
ENDBRANCH  11  12
ENDBRANCH  10  11
ENDBRANCH   6  10
TORSDOF 15
ENDMDL
MODEL      327
REMARK 921   NORMALIZED FREE ENERGY PREDICTED BY IDOCK:   -3.43 KCAL/MOL
REMARK 922        TOTAL FREE ENERGY PREDICTED BY IDOCK:   -8.39 KCAL/MOL
REMARK 923 INTER-LIGAND FREE ENERGY PREDICTED BY IDOCK:   -5.71 KCAL/MOL
REMARK 924 INTRA-LIGAND FREE ENERGY PREDICTED BY IDOCK:   -2.68 KCAL/MOL
REMARK 927      BINDING AFFINITY PREDICTED BY RF-SCORE:    0.00 PKD
ROOT
ATOM      1  N   GLY A   1      -6.515  11.538  68.013  1.00  0.00    -0.053 NA 
HETATM    2  C   UNL     1     -11.438  11.477  63.097  1.00  0.00    -0.039 C  
ATOM      3  H2  GLY A   1      -5.805  11.580  67.283  1.00  0.00     0.000 HD 
ATOM      4  H1  GLY A   1      -6.670  12.448  68.446  1.00  0.00     0.000 HD 
ATOM      5  CA  GLY A   1      -7.784  10.990  67.514  1.00  0.00    -0.114 C  
HETATM    6  C   UNL     1     -11.893  12.864  63.524  1.00  0.00    -0.605 C  
ENDROOT
BRANCH   5   7
ATOM      7  C   GLY A   1      -7.551   9.623  66.865  1.00  0.00    -0.095 C  
ATOM      8  H   GLY A   1      -7.730   8.844  65.075  1.00  0.00     0.000 HD 
ATOM      9  O   GLY A   1      -7.875   9.692  65.478  1.00  0.00    -0.106 OA 
ENDBRANCH   5   7
BRANCH   6  10
HETATM   10  C   UNL     1     -12.786  12.863  64.764  1.00  0.00    -0.359 C  
BRANCH  10  11
HETATM   11  C   UNL     1     -12.073  12.467  66.059  1.00  0.00    -0.390 C  
BRANCH  11  12
HETATM   12  C   UNL     1     -11.623  13.725  66.807  1.00  0.00    -0.394 C  
BRANCH  12  13
HETATM   13  C   UNL     1     -10.110  13.924  66.749  1.00  0.00    -0.265 C  
BRANCH  13  14
HETATM   14  C   UNL     1      -9.664  14.782  65.557  1.00  0.00    -0.261 C  
BRANCH  14  15
HETATM   15  C   UNL     1     -10.596  15.946  65.198  1.00  0.00    -0.421 C  
BRANCH  15  16
HETATM   16  C   UNL     1     -10.953  16.833  66.360  1.00  0.00     0.150 C  
HETATM   17  C   UNL     1     -10.188  17.838  66.812  1.00  0.00    -0.351 C  
BRANCH  17  18
HETATM   18  C   UNL     1      -8.841  18.220  66.271  1.00  0.00    -0.197 C  
BRANCH  18  19
HETATM   19  C   UNL     1      -7.737  18.022  67.307  1.00  0.00    -0.220 C  
BRANCH  19  20
HETATM   20  C   UNL     1      -7.015  16.697  67.060  1.00  0.00    -0.241 C  
BRANCH  20  21
HETATM   21  C   UNL     1      -7.312  15.689  68.166  1.00  0.00    -0.123 C  
BRANCH  21  22
HETATM   22  C   UNL     1      -8.173  16.309  69.262  1.00  0.00    -0.148 C  
BRANCH  22  23
HETATM   23  C   UNL     1      -9.296  15.359  69.671  1.00  0.00    -0.208 C  
BRANCH  23  24
HETATM   24  C   UNL     1     -10.591  16.109  69.964  1.00  0.00    -0.269 C  
HETATM   25  C   UNL     1     -11.742  15.160  70.207  1.00  0.00    -0.300 C  
HETATM   26  O   UNL     1     -12.892  15.816  70.486  1.00  0.00    -0.423 OA 
HETATM   27  O   UNL     1     -11.678  13.945  70.170  1.00  0.00    -0.277 OA 
ENDBRANCH  23  24
ENDBRANCH  22  23
ENDBRANCH  21  22
ENDBRANCH  20  21
ENDBRANCH  19  20
ENDBRANCH  18  19
ENDBRANCH  17  18
ENDBRANCH  15  16
ENDBRANCH  14  15
ENDBRANCH  13  14
ENDBRANCH  12  13
ENDBRANCH  11  12
ENDBRANCH  10  11
ENDBRANCH   6  10
TORSDOF 15
ENDMDL
MODEL      328
REMARK 921   NORMALIZED FREE ENERGY PREDICTED BY IDOCK:   -3.43 KCAL/MOL
REMARK 922        TOTAL FREE ENERGY PREDICTED BY IDOCK:   -8.38 KCAL/MOL
REMARK 923 INTER-LIGAND FREE ENERGY PREDICTED BY IDOCK:   -6.31 KCAL/MOL
REMARK 924 INTRA-LIGAND FREE ENERGY PREDICTED BY IDOCK:   -2.07 KCAL/MOL
REMARK 927      BINDING AFFINITY PREDICTED BY RF-SCORE:    0.00 PKD
ROOT
ATOM      1  N   GLY A   1     -11.886  11.335  70.828  1.00  0.00    -0.397 NA 
HETATM    2  C   UNL     1     -10.237   4.603  71.434  1.00  0.00    -0.212 C  
ATOM      3  H2  GLY A   1     -11.375  11.525  71.690  1.00  0.00     0.000 HD 
ATOM      4  H1  GLY A   1     -11.351  11.603  70.002  1.00  0.00     0.000 HD 
ATOM      5  CA  GLY A   1     -12.299   9.929  70.733  1.00  0.00    -0.273 C  
HETATM    6  C   UNL     1      -9.341   4.704  70.210  1.00  0.00    -0.218 C  
ENDROOT
BRANCH   5   7
ATOM      7  C   GLY A   1     -13.102   9.528  71.973  1.00  0.00    -0.438 C  
ATOM      8  H   GLY A   1     -14.623   8.358  72.371  1.00  0.00     0.000 HD 
ATOM      9  O   GLY A   1     -14.125   8.607  71.602  1.00  0.00    -0.403 OA 
ENDBRANCH   5   7
BRANCH   6  10
HETATM   10  C   UNL     1     -10.100   4.651  68.886  1.00  0.00    -0.103 C  
BRANCH  10  11
HETATM   11  C   UNL     1      -9.208   4.658  67.642  1.00  0.00    -0.148 C  
BRANCH  11  12
HETATM   12  C   UNL     1      -7.738   4.570  68.060  1.00  0.00    -0.081 C  
BRANCH  12  13
HETATM   13  C   UNL     1      -6.959   5.837  67.713  1.00  0.00    -0.066 C  
BRANCH  13  14
HETATM   14  C   UNL     1      -7.824   6.900  67.020  1.00  0.00    -0.111 C  
BRANCH  14  15
HETATM   15  C   UNL     1      -7.997   8.214  67.792  1.00  0.00    -0.127 C  
BRANCH  15  16
HETATM   16  C   UNL     1      -9.425   8.553  68.124  1.00  0.00    -0.152 C  
HETATM   17  C   UNL     1     -10.289   9.124  67.271  1.00  0.00    -0.338 C  
BRANCH  17  18
HETATM   18  C   UNL     1      -9.973   9.557  65.869  1.00  0.00    -0.342 C  
BRANCH  18  19
HETATM   19  C   UNL     1     -10.275  11.038  65.651  1.00  0.00    -0.318 C  
BRANCH  19  20
HETATM   20  C   UNL     1      -9.164  11.896  66.257  1.00  0.00    -0.218 C  
BRANCH  20  21
HETATM   21  C   UNL     1      -9.579  13.362  66.342  1.00  0.00    -0.265 C  
BRANCH  21  22
HETATM   22  C   UNL     1     -11.021  13.555  65.883  1.00  0.00    -0.284 C  
BRANCH  22  23
HETATM   23  C   UNL     1     -11.795  14.418  66.877  1.00  0.00    -0.433 C  
BRANCH  23  24
HETATM   24  C   UNL     1     -11.913  13.741  68.239  1.00  0.00    -0.392 C  
HETATM   25  C   UNL     1     -11.854  14.746  69.367  1.00  0.00    -0.323 C  
HETATM   26  O   UNL     1     -11.977  14.157  70.579  1.00  0.00    -0.302 OA 
HETATM   27  O   UNL     1     -11.719  15.948  69.238  1.00  0.00    -0.367 OA 
ENDBRANCH  23  24
ENDBRANCH  22  23
ENDBRANCH  21  22
ENDBRANCH  20  21
ENDBRANCH  19  20
ENDBRANCH  18  19
ENDBRANCH  17  18
ENDBRANCH  15  16
ENDBRANCH  14  15
ENDBRANCH  13  14
ENDBRANCH  12  13
ENDBRANCH  11  12
ENDBRANCH  10  11
ENDBRANCH   6  10
TORSDOF 15
ENDMDL
MODEL      329
REMARK 921   NORMALIZED FREE ENERGY PREDICTED BY IDOCK:   -3.43 KCAL/MOL
REMARK 922        TOTAL FREE ENERGY PREDICTED BY IDOCK:   -8.38 KCAL/MOL
REMARK 923 INTER-LIGAND FREE ENERGY PREDICTED BY IDOCK:   -6.04 KCAL/MOL
REMARK 924 INTRA-LIGAND FREE ENERGY PREDICTED BY IDOCK:   -2.34 KCAL/MOL
REMARK 927      BINDING AFFINITY PREDICTED BY RF-SCORE:    0.00 PKD
ROOT
ATOM      1  N   GLY A   1      -8.406  12.069  67.280  1.00  0.00    -0.169 NA 
HETATM    2  C   UNL     1     -13.259  10.037  71.833  1.00  0.00    -0.557 C  
ATOM      3  H2  GLY A   1      -8.225  12.890  67.858  1.00  0.00     0.000 HD 
ATOM      4  H1  GLY A   1      -7.694  11.351  67.407  1.00  0.00     0.000 HD 
ATOM      5  CA  GLY A   1      -9.742  11.509  67.524  1.00  0.00    -0.179 C  
HETATM    6  C   UNL     1     -12.393   8.856  72.241  1.00  0.00    -0.430 C  
ENDROOT
BRANCH   5   7
ATOM      7  C   GLY A   1     -10.811  12.589  67.333  1.00  0.00    -0.240 C  
ATOM      8  H   GLY A   1     -12.744  12.642  67.013  1.00  0.00     0.000 HD 
ATOM      9  O   GLY A   1     -12.080  11.972  67.131  1.00  0.00    -0.587 OA 
ENDBRANCH   5   7
BRANCH   6  10
HETATM   10  C   UNL     1     -12.462   7.679  71.269  1.00  0.00    -0.324 C  
BRANCH  10  11
HETATM   11  C   UNL     1     -11.712   6.428  71.734  1.00  0.00    -0.376 C  
BRANCH  11  12
HETATM   12  C   UNL     1     -10.991   6.717  73.053  1.00  0.00    -0.293 C  
BRANCH  12  13
HETATM   13  C   UNL     1     -10.492   5.443  73.733  1.00  0.00    -0.305 C  
BRANCH  13  14
HETATM   14  C   UNL     1      -8.962   5.319  73.721  1.00  0.00    -0.123 C  
BRANCH  14  15
HETATM   15  C   UNL     1      -8.387   4.362  72.669  1.00  0.00    -0.106 C  
BRANCH  15  16
HETATM   16  C   UNL     1      -9.414   3.490  72.000  1.00  0.00    -0.198 C  
HETATM   17  C   UNL     1      -9.713   3.532  70.692  1.00  0.00    -0.196 C  
BRANCH  17  18
HETATM   18  C   UNL     1      -9.110   4.474  69.690  1.00  0.00    -0.166 C  
BRANCH  18  19
HETATM   19  C   UNL     1      -8.663   3.746  68.425  1.00  0.00    -0.132 C  
BRANCH  19  20
HETATM   20  C   UNL     1      -9.597   4.086  67.264  1.00  0.00    -0.229 C  
BRANCH  20  21
HETATM   21  C   UNL     1     -10.315   5.412  67.499  1.00  0.00    -0.246 C  
BRANCH  21  22
HETATM   22  C   UNL     1      -9.900   6.455  66.465  1.00  0.00    -0.170 C  
BRANCH  22  23
HETATM   23  C   UNL     1     -10.178   7.866  66.978  1.00  0.00    -0.382 C  
BRANCH  23  24
HETATM   24  C   UNL     1     -10.241   7.910  68.502  1.00  0.00    -0.229 C  
HETATM   25  C   UNL     1      -8.939   8.395  69.098  1.00  0.00    -0.147 C  
HETATM   26  O   UNL     1      -8.992   8.455  70.449  1.00  0.00    -0.141 OA 
HETATM   27  O   UNL     1      -7.946   8.709  68.470  1.00  0.00    -0.112 OA 
ENDBRANCH  23  24
ENDBRANCH  22  23
ENDBRANCH  21  22
ENDBRANCH  20  21
ENDBRANCH  19  20
ENDBRANCH  18  19
ENDBRANCH  17  18
ENDBRANCH  15  16
ENDBRANCH  14  15
ENDBRANCH  13  14
ENDBRANCH  12  13
ENDBRANCH  11  12
ENDBRANCH  10  11
ENDBRANCH   6  10
TORSDOF 15
ENDMDL
MODEL      330
REMARK 921   NORMALIZED FREE ENERGY PREDICTED BY IDOCK:   -3.42 KCAL/MOL
REMARK 922        TOTAL FREE ENERGY PREDICTED BY IDOCK:   -8.36 KCAL/MOL
REMARK 923 INTER-LIGAND FREE ENERGY PREDICTED BY IDOCK:   -6.39 KCAL/MOL
REMARK 924 INTRA-LIGAND FREE ENERGY PREDICTED BY IDOCK:   -1.96 KCAL/MOL
REMARK 927      BINDING AFFINITY PREDICTED BY RF-SCORE:    0.00 PKD
ROOT
ATOM      1  N   GLY A   1     -13.733  15.502  70.677  1.00  0.00    -0.846 NA 
HETATM    2  C   UNL     1      -9.149  11.915  66.864  1.00  0.00    -0.196 C  
ATOM      3  H2  GLY A   1     -13.765  16.212  69.946  1.00  0.00     0.000 HD 
ATOM      4  H1  GLY A   1     -14.547  14.888  70.647  1.00  0.00     0.000 HD 
ATOM      5  CA  GLY A   1     -12.497  14.709  70.617  1.00  0.00    -0.344 C  
HETATM    6  C   UNL     1     -10.182  10.822  66.637  1.00  0.00    -0.283 C  
ENDROOT
BRANCH   5   7
ATOM      7  C   GLY A   1     -11.275  15.631  70.661  1.00  0.00    -0.359 C  
ATOM      8  H   GLY A   1     -10.558  17.102  69.584  1.00  0.00     0.000 HD 
ATOM      9  O   GLY A   1     -11.316  16.531  69.557  1.00  0.00    -0.246 OA 
ENDBRANCH   5   7
BRANCH   6  10
HETATM   10  C   UNL     1     -10.326   9.858  67.814  1.00  0.00    -0.268 C  
BRANCH  10  11
HETATM   11  C   UNL     1      -9.480   8.588  67.702  1.00  0.00    -0.173 C  
BRANCH  11  12
HETATM   12  C   UNL     1      -8.270   8.688  68.634  1.00  0.00    -0.121 C  
BRANCH  12  13
HETATM   13  C   UNL     1      -7.261   7.566  68.398  1.00  0.00    -0.093 C  
BRANCH  13  14
HETATM   14  C   UNL     1      -7.927   6.213  68.110  1.00  0.00    -0.107 C  
BRANCH  14  15
HETATM   15  C   UNL     1      -8.140   5.311  69.332  1.00  0.00    -0.092 C  
BRANCH  15  16
HETATM   16  C   UNL     1      -9.563   5.253  69.816  1.00  0.00    -0.230 C  
HETATM   17  C   UNL     1      -9.941   4.779  71.013  1.00  0.00    -0.279 C  
BRANCH  17  18
HETATM   18  C   UNL     1      -9.024   4.194  72.048  1.00  0.00    -0.151 C  
BRANCH  18  19
HETATM   19  C   UNL     1      -8.960   5.060  73.304  1.00  0.00    -0.119 C  
BRANCH  19  20
HETATM   20  C   UNL     1      -8.191   6.349  73.016  1.00  0.00    -0.116 C  
BRANCH  20  21
HETATM   21  C   UNL     1      -8.750   7.520  73.818  1.00  0.00    -0.270 C  
BRANCH  21  22
HETATM   22  C   UNL     1     -10.184   7.839  73.404  1.00  0.00    -0.315 C  
BRANCH  22  23
HETATM   23  C   UNL     1     -10.241   8.276  71.942  1.00  0.00    -0.314 C  
BRANCH  23  24
HETATM   24  C   UNL     1     -11.368   9.275  71.696  1.00  0.00    -0.467 C  
HETATM   25  C   UNL     1     -12.720   8.600  71.703  1.00  0.00    -0.341 C  
HETATM   26  O   UNL     1     -13.728   9.481  71.504  1.00  0.00    -0.353 OA 
HETATM   27  O   UNL     1     -12.918   7.411  71.870  1.00  0.00    -0.314 OA 
ENDBRANCH  23  24
ENDBRANCH  22  23
ENDBRANCH  21  22
ENDBRANCH  20  21
ENDBRANCH  19  20
ENDBRANCH  18  19
ENDBRANCH  17  18
ENDBRANCH  15  16
ENDBRANCH  14  15
ENDBRANCH  13  14
ENDBRANCH  12  13
ENDBRANCH  11  12
ENDBRANCH  10  11
ENDBRANCH   6  10
TORSDOF 15
ENDMDL
MODEL      331
REMARK 921   NORMALIZED FREE ENERGY PREDICTED BY IDOCK:   -3.40 KCAL/MOL
REMARK 922        TOTAL FREE ENERGY PREDICTED BY IDOCK:   -8.33 KCAL/MOL
REMARK 923 INTER-LIGAND FREE ENERGY PREDICTED BY IDOCK:   -6.65 KCAL/MOL
REMARK 924 INTRA-LIGAND FREE ENERGY PREDICTED BY IDOCK:   -1.68 KCAL/MOL
REMARK 927      BINDING AFFINITY PREDICTED BY RF-SCORE:    0.00 PKD
ROOT
ATOM      1  N   GLY A   1      -7.430   8.498  74.051  1.00  0.00    -0.371 NA 
HETATM    2  C   UNL     1      -7.586   5.073  67.996  1.00  0.00    -0.083 C  
ATOM      3  H2  GLY A   1      -6.685   7.878  74.368  1.00  0.00     0.000 HD 
ATOM      4  H1  GLY A   1      -7.071   9.407  73.762  1.00  0.00     0.000 HD 
ATOM      5  CA  GLY A   1      -8.222   7.897  72.970  1.00  0.00    -0.156 C  
HETATM    6  C   UNL     1      -7.038   6.298  67.281  1.00  0.00    -0.073 C  
ENDROOT
BRANCH   5   7
ATOM      7  C   GLY A   1      -8.761   6.531  73.404  1.00  0.00    -0.123 C  
ATOM      8  H   GLY A   1     -10.344   5.438  73.031  1.00  0.00     0.000 HD 
ATOM      9  O   GLY A   1     -10.009   6.285  72.762  1.00  0.00    -0.170 OA 
ENDBRANCH   5   7
BRANCH   6  10
HETATM   10  C   UNL     1      -8.094   7.362  66.987  1.00  0.00    -0.113 C  
BRANCH  10  11
HETATM   11  C   UNL     1      -8.748   7.243  65.608  1.00  0.00    -0.092 C  
BRANCH  11  12
HETATM   12  C   UNL     1      -8.158   8.293  64.663  1.00  0.00    -0.150 C  
BRANCH  12  13
HETATM   13  C   UNL     1      -8.470   9.719  65.112  1.00  0.00    -0.157 C  
BRANCH  13  14
HETATM   14  C   UNL     1      -9.683  10.322  64.389  1.00  0.00    -0.381 C  
BRANCH  14  15
HETATM   15  C   UNL     1      -9.823  11.846  64.496  1.00  0.00    -0.203 C  
BRANCH  15  16
HETATM   16  C   UNL     1     -10.836  12.440  63.557  1.00  0.00    -0.487 C  
HETATM   17  C   UNL     1     -12.051  12.878  63.925  1.00  0.00    -0.553 C  
BRANCH  17  18
HETATM   18  C   UNL     1     -12.617  12.812  65.313  1.00  0.00    -0.460 C  
BRANCH  18  19
HETATM   19  C   UNL     1     -12.398  14.115  66.078  1.00  0.00    -0.470 C  
BRANCH  19  20
HETATM   20  C   UNL     1     -11.635  13.844  67.374  1.00  0.00    -0.398 C  
BRANCH  20  21
HETATM   21  C   UNL     1     -11.897  12.432  67.888  1.00  0.00    -0.370 C  
BRANCH  21  22
HETATM   22  C   UNL     1     -10.590  11.676  68.113  1.00  0.00    -0.230 C  
BRANCH  22  23
HETATM   23  C   UNL     1     -10.497  11.173  69.552  1.00  0.00    -0.080 C  
BRANCH  23  24
HETATM   24  C   UNL     1     -11.849  11.225  70.256  1.00  0.00    -0.446 C  
HETATM   25  C   UNL     1     -12.040  10.046  71.182  1.00  0.00    -0.380 C  
HETATM   26  O   UNL     1     -13.230  10.093  71.826  1.00  0.00    -0.409 OA 
HETATM   27  O   UNL     1     -11.240   9.146  71.357  1.00  0.00    -0.292 OA 
ENDBRANCH  23  24
ENDBRANCH  22  23
ENDBRANCH  21  22
ENDBRANCH  20  21
ENDBRANCH  19  20
ENDBRANCH  18  19
ENDBRANCH  17  18
ENDBRANCH  15  16
ENDBRANCH  14  15
ENDBRANCH  13  14
ENDBRANCH  12  13
ENDBRANCH  11  12
ENDBRANCH  10  11
ENDBRANCH   6  10
TORSDOF 15
ENDMDL
MODEL      332
REMARK 921   NORMALIZED FREE ENERGY PREDICTED BY IDOCK:   -3.39 KCAL/MOL
REMARK 922        TOTAL FREE ENERGY PREDICTED BY IDOCK:   -8.31 KCAL/MOL
REMARK 923 INTER-LIGAND FREE ENERGY PREDICTED BY IDOCK:   -6.33 KCAL/MOL
REMARK 924 INTRA-LIGAND FREE ENERGY PREDICTED BY IDOCK:   -1.98 KCAL/MOL
REMARK 927      BINDING AFFINITY PREDICTED BY RF-SCORE:    0.00 PKD
ROOT
ATOM      1  N   GLY A   1     -11.655   9.449  69.707  1.00  0.00    -0.442 NA 
HETATM    2  C   UNL     1      -6.227   5.227  70.763  1.00  0.00    -0.023 C  
ATOM      3  H2  GLY A   1     -11.030  10.121  69.262  1.00  0.00     0.000 HD 
ATOM      4  H1  GLY A   1     -12.195   8.920  69.022  1.00  0.00     0.000 HD 
ATOM      5  CA  GLY A   1     -10.932   8.535  70.600  1.00  0.00    -0.239 C  
HETATM    6  C   UNL     1      -6.795   4.233  69.762  1.00  0.00    -0.041 C  
ENDROOT
BRANCH   5   7
ATOM      7  C   GLY A   1     -10.122   9.330  71.628  1.00  0.00    -0.162 C  
ATOM      8  H   GLY A   1      -8.239   9.793  71.910  1.00  0.00     0.000 HD 
ATOM      9  O   GLY A   1      -8.741   9.300  71.273  1.00  0.00    -0.301 OA 
ENDBRANCH   5   7
BRANCH   6  10
HETATM   10  C   UNL     1      -7.905   3.352  70.334  1.00  0.00    -0.044 C  
BRANCH  10  11
HETATM   11  C   UNL     1      -9.022   3.015  69.343  1.00  0.00    -0.175 C  
BRANCH  11  12
HETATM   12  C   UNL     1      -9.451   4.282  68.598  1.00  0.00    -0.221 C  
BRANCH  12  13
HETATM   13  C   UNL     1      -9.742   4.015  67.122  1.00  0.00    -0.207 C  
BRANCH  13  14
HETATM   14  C   UNL     1     -10.329   5.235  66.398  1.00  0.00    -0.315 C  
BRANCH  14  15
HETATM   15  C   UNL     1      -9.576   6.554  66.613  1.00  0.00    -0.201 C  
BRANCH  15  16
HETATM   16  C   UNL     1     -10.465   7.762  66.722  1.00  0.00    -0.318 C  
HETATM   17  C   UNL     1     -10.066   9.024  66.496  1.00  0.00    -0.354 C  
BRANCH  17  18
HETATM   18  C   UNL     1      -8.670   9.445  66.140  1.00  0.00    -0.165 C  
BRANCH  18  19
HETATM   19  C   UNL     1      -8.661  10.537  65.073  1.00  0.00    -0.193 C  
BRANCH  19  20
HETATM   20  C   UNL     1     -10.038  10.643  64.417  1.00  0.00    -0.418 C  
BRANCH  20  21
HETATM   21  C   UNL     1     -10.399  12.094  64.116  1.00  0.00    -0.382 C  
BRANCH  21  22
HETATM   22  C   UNL     1     -10.319  12.956  65.373  1.00  0.00    -0.310 C  
BRANCH  22  23
HETATM   23  C   UNL     1     -11.681  13.045  66.057  1.00  0.00    -0.442 C  
BRANCH  23  24
HETATM   24  C   UNL     1     -11.689  12.311  67.394  1.00  0.00    -0.405 C  
HETATM   25  C   UNL     1     -11.904  13.263  68.549  1.00  0.00    -0.349 C  
HETATM   26  O   UNL     1     -11.932  12.619  69.739  1.00  0.00    -0.319 OA 
HETATM   27  O   UNL     1     -12.045  14.468  68.457  1.00  0.00    -0.304 OA 
ENDBRANCH  23  24
ENDBRANCH  22  23
ENDBRANCH  21  22
ENDBRANCH  20  21
ENDBRANCH  19  20
ENDBRANCH  18  19
ENDBRANCH  17  18
ENDBRANCH  15  16
ENDBRANCH  14  15
ENDBRANCH  13  14
ENDBRANCH  12  13
ENDBRANCH  11  12
ENDBRANCH  10  11
ENDBRANCH   6  10
TORSDOF 15
ENDMDL
MODEL      333
REMARK 921   NORMALIZED FREE ENERGY PREDICTED BY IDOCK:   -3.39 KCAL/MOL
REMARK 922        TOTAL FREE ENERGY PREDICTED BY IDOCK:   -8.31 KCAL/MOL
REMARK 923 INTER-LIGAND FREE ENERGY PREDICTED BY IDOCK:   -6.39 KCAL/MOL
REMARK 924 INTRA-LIGAND FREE ENERGY PREDICTED BY IDOCK:   -1.92 KCAL/MOL
REMARK 927      BINDING AFFINITY PREDICTED BY RF-SCORE:    0.00 PKD
ROOT
ATOM      1  N   GLY A   1     -10.514   8.731  69.153  1.00  0.00    -0.224 NA 
HETATM    2  C   UNL     1     -12.957  14.045  65.385  1.00  0.00    -0.346 C  
ATOM      3  H2  GLY A   1     -11.366   8.210  68.947  1.00  0.00     0.000 HD 
ATOM      4  H1  GLY A   1      -9.730   8.419  68.581  1.00  0.00     0.000 HD 
ATOM      5  CA  GLY A   1     -10.707  10.179  69.004  1.00  0.00    -0.221 C  
HETATM    6  C   UNL     1     -11.880  13.808  64.338  1.00  0.00    -0.458 C  
ENDROOT
BRANCH   5   7
ATOM      7  C   GLY A   1     -11.885  10.647  69.863  1.00  0.00    -0.315 C  
ATOM      8  H   GLY A   1     -12.915   9.947  71.376  1.00  0.00     0.000 HD 
ATOM      9  O   GLY A   1     -12.185   9.656  70.843  1.00  0.00    -0.298 OA 
ENDBRANCH   5   7
BRANCH   6  10
HETATM   10  C   UNL     1     -10.516  14.384  64.717  1.00  0.00    -0.394 C  
BRANCH  10  11
HETATM   11  C   UNL     1     -10.543  15.351  65.902  1.00  0.00    -0.349 C  
BRANCH  11  12
HETATM   12  C   UNL     1     -10.355  16.786  65.403  1.00  0.00    -0.169 C  
BRANCH  12  13
HETATM   13  C   UNL     1     -10.843  17.821  66.415  1.00  0.00     0.061 C  
BRANCH  13  14
HETATM   14  C   UNL     1     -10.497  19.261  66.012  1.00  0.00    -0.573 C  
BRANCH  14  15
HETATM   15  C   UNL     1      -9.009  19.626  66.085  1.00  0.00    -0.375 C  
BRANCH  15  16
HETATM   16  C   UNL     1      -8.528  19.988  67.464  1.00  0.00    -0.393 C  
HETATM   17  C   UNL     1      -7.511  19.384  68.098  1.00  0.00    -0.328 C  
BRANCH  17  18
HETATM   18  C   UNL     1      -6.714  18.230  67.565  1.00  0.00    -0.198 C  
BRANCH  18  19
HETATM   19  C   UNL     1      -7.286  16.888  68.017  1.00  0.00    -0.175 C  
BRANCH  19  20
HETATM   20  C   UNL     1      -6.922  15.795  67.013  1.00  0.00    -0.128 C  
BRANCH  20  21
HETATM   21  C   UNL     1      -6.844  14.427  67.684  1.00  0.00    -0.202 C  
BRANCH  21  22
HETATM   22  C   UNL     1      -8.090  13.597  67.390  1.00  0.00    -0.184 C  
BRANCH  22  23
HETATM   23  C   UNL     1      -8.924  13.406  68.655  1.00  0.00     0.018 C  
BRANCH  23  24
HETATM   24  C   UNL     1     -10.373  13.833  68.445  1.00  0.00    -0.247 C  
HETATM   25  C   UNL     1     -10.711  15.070  69.246  1.00  0.00    -0.248 C  
HETATM   26  O   UNL     1     -11.990  15.467  69.052  1.00  0.00    -0.354 OA 
HETATM   27  O   UNL     1      -9.948  15.666  69.983  1.00  0.00    -0.290 OA 
ENDBRANCH  23  24
ENDBRANCH  22  23
ENDBRANCH  21  22
ENDBRANCH  20  21
ENDBRANCH  19  20
ENDBRANCH  18  19
ENDBRANCH  17  18
ENDBRANCH  15  16
ENDBRANCH  14  15
ENDBRANCH  13  14
ENDBRANCH  12  13
ENDBRANCH  11  12
ENDBRANCH  10  11
ENDBRANCH   6  10
TORSDOF 15
ENDMDL
MODEL      334
REMARK 921   NORMALIZED FREE ENERGY PREDICTED BY IDOCK:   -3.39 KCAL/MOL
REMARK 922        TOTAL FREE ENERGY PREDICTED BY IDOCK:   -8.30 KCAL/MOL
REMARK 923 INTER-LIGAND FREE ENERGY PREDICTED BY IDOCK:   -7.16 KCAL/MOL
REMARK 924 INTRA-LIGAND FREE ENERGY PREDICTED BY IDOCK:   -1.14 KCAL/MOL
REMARK 927      BINDING AFFINITY PREDICTED BY RF-SCORE:    0.00 PKD
ROOT
ATOM      1  N   GLY A   1      -5.743  10.969  65.929  1.00  0.00    -0.238 NA 
HETATM    2  C   UNL     1     -12.026  12.704  63.495  1.00  0.00    -0.630 C  
ATOM      3  H2  GLY A   1      -5.331  11.279  65.049  1.00  0.00     0.000 HD 
ATOM      4  H1  GLY A   1      -5.616  11.655  66.672  1.00  0.00     0.000 HD 
ATOM      5  CA  GLY A   1      -7.167  10.638  65.782  1.00  0.00    -0.104 C  
HETATM    6  C   UNL     1     -12.115  13.834  64.508  1.00  0.00    -0.463 C  
ENDROOT
BRANCH   5   7
ATOM      7  C   GLY A   1      -7.359   9.607  64.666  1.00  0.00    -0.123 C  
ATOM      8  H   GLY A   1      -7.027   9.514  62.737  1.00  0.00     0.000 HD 
ATOM      9  O   GLY A   1      -6.908  10.154  63.429  1.00  0.00    -0.132 OA 
ENDBRANCH   5   7
BRANCH   6  10
HETATM   10  C   UNL     1     -12.515  13.374  65.909  1.00  0.00    -0.468 C  
BRANCH  10  11
HETATM   11  C   UNL     1     -11.452  12.543  66.632  1.00  0.00    -0.417 C  
BRANCH  11  12
HETATM   12  C   UNL     1     -10.214  13.405  66.897  1.00  0.00    -0.252 C  
BRANCH  12  13
HETATM   13  C   UNL     1     -10.524  14.606  67.788  1.00  0.00    -0.246 C  
BRANCH  13  14
HETATM   14  C   UNL     1     -10.783  14.216  69.250  1.00  0.00    -0.170 C  
BRANCH  14  15
HETATM   15  C   UNL     1     -12.203  14.483  69.763  1.00  0.00    -0.360 C  
BRANCH  15  16
HETATM   16  C   UNL     1     -12.433  14.069  71.190  1.00  0.00    -0.447 C  
HETATM   17  C   UNL     1     -12.548  12.797  71.604  1.00  0.00    -0.195 C  
BRANCH  17  18
HETATM   18  C   UNL     1     -12.508  11.585  70.719  1.00  0.00    -0.444 C  
BRANCH  18  19
HETATM   19  C   UNL     1     -12.932  10.323  71.466  1.00  0.00    -0.556 C  
BRANCH  19  20
HETATM   20  C   UNL     1     -12.489   9.081  70.693  1.00  0.00     0.113 C  
BRANCH  20  21
HETATM   21  C   UNL     1     -11.952   8.005  71.632  1.00  0.00    -0.336 C  
BRANCH  21  22
HETATM   22  C   UNL     1     -11.980   6.630  70.970  1.00  0.00    -0.415 C  
BRANCH  22  23
HETATM   23  C   UNL     1     -11.331   6.681  69.589  1.00  0.00    -0.387 C  
BRANCH  23  24
HETATM   24  C   UNL     1     -10.534   5.414  69.294  1.00  0.00    -0.309 C  
HETATM   25  C   UNL     1     -10.366   5.196  67.807  1.00  0.00    -0.094 C  
HETATM   26  O   UNL     1      -9.644   4.084  67.536  1.00  0.00    -0.183 OA 
HETATM   27  O   UNL     1     -10.807   5.916  66.931  1.00  0.00    -0.306 OA 
ENDBRANCH  23  24
ENDBRANCH  22  23
ENDBRANCH  21  22
ENDBRANCH  20  21
ENDBRANCH  19  20
ENDBRANCH  18  19
ENDBRANCH  17  18
ENDBRANCH  15  16
ENDBRANCH  14  15
ENDBRANCH  13  14
ENDBRANCH  12  13
ENDBRANCH  11  12
ENDBRANCH  10  11
ENDBRANCH   6  10
TORSDOF 15
ENDMDL
MODEL      335
REMARK 921   NORMALIZED FREE ENERGY PREDICTED BY IDOCK:   -3.38 KCAL/MOL
REMARK 922        TOTAL FREE ENERGY PREDICTED BY IDOCK:   -8.30 KCAL/MOL
REMARK 923 INTER-LIGAND FREE ENERGY PREDICTED BY IDOCK:   -6.29 KCAL/MOL
REMARK 924 INTRA-LIGAND FREE ENERGY PREDICTED BY IDOCK:   -2.01 KCAL/MOL
REMARK 927      BINDING AFFINITY PREDICTED BY RF-SCORE:    0.00 PKD
ROOT
ATOM      1  N   GLY A   1      -9.465  20.405  65.753  1.00  0.00    -0.574 NA 
HETATM    2  C   UNL     1      -9.593  14.010  68.492  1.00  0.00    -0.201 C  
ATOM      3  H2  GLY A   1      -8.571  20.571  66.215  1.00  0.00     0.000 HD 
ATOM      4  H1  GLY A   1      -9.347  20.200  64.761  1.00  0.00     0.000 HD 
ATOM      5  CA  GLY A   1     -10.230  19.335  66.406  1.00  0.00    -0.449 C  
HETATM    6  C   UNL     1      -9.410  13.406  67.109  1.00  0.00    -0.240 C  
ENDROOT
BRANCH   5   7
ATOM      7  C   GLY A   1     -10.406  19.643  67.896  1.00  0.00    -0.454 C  
ATOM      8  H   GLY A   1     -10.201  18.675  69.587  1.00  0.00     0.000 HD 
ATOM      9  O   GLY A   1     -10.092  18.484  68.663  1.00  0.00    -0.366 OA 
ENDBRANCH   5   7
BRANCH   6  10
HETATM   10  C   UNL     1     -10.699  13.346  66.290  1.00  0.00    -0.290 C  
BRANCH  10  11
HETATM   11  C   UNL     1     -11.390  11.980  66.293  1.00  0.00    -0.415 C  
BRANCH  11  12
HETATM   12  C   UNL     1     -10.739  11.069  65.249  1.00  0.00    -0.234 C  
BRANCH  12  13
HETATM   13  C   UNL     1      -9.851  10.000  65.885  1.00  0.00    -0.330 C  
BRANCH  13  14
HETATM   14  C   UNL     1     -10.642   8.777  66.370  1.00  0.00     0.163 C  
BRANCH  14  15
HETATM   15  C   UNL     1     -10.247   8.244  67.753  1.00  0.00    -0.282 C  
BRANCH  15  16
HETATM   16  C   UNL     1      -9.197   9.062  68.454  1.00  0.00    -0.137 C  
HETATM   17  C   UNL     1      -9.277   9.469  69.731  1.00  0.00    -0.224 C  
BRANCH  17  18
HETATM   18  C   UNL     1     -10.433   9.218  70.655  1.00  0.00    -0.325 C  
BRANCH  18  19
HETATM   19  C   UNL     1      -9.978   8.604  71.977  1.00  0.00    -0.399 C  
BRANCH  19  20
HETATM   20  C   UNL     1      -9.811   7.093  71.826  1.00  0.00    -0.171 C  
BRANCH  20  21
HETATM   21  C   UNL     1     -11.063   6.451  71.237  1.00  0.00    -0.334 C  
BRANCH  21  22
HETATM   22  C   UNL     1     -10.717   5.546  70.058  1.00  0.00    -0.356 C  
BRANCH  22  23
HETATM   23  C   UNL     1      -9.245   5.144  70.097  1.00  0.00    -0.188 C  
BRANCH  23  24
HETATM   24  C   UNL     1      -8.601   5.225  68.717  1.00  0.00    -0.091 C  
HETATM   25  C   UNL     1      -8.794   3.945  67.936  1.00  0.00    -0.111 C  
HETATM   26  O   UNL     1      -8.242   4.015  66.703  1.00  0.00    -0.100 OA 
HETATM   27  O   UNL     1      -9.375   2.954  68.335  1.00  0.00    -0.181 OA 
ENDBRANCH  23  24
ENDBRANCH  22  23
ENDBRANCH  21  22
ENDBRANCH  20  21
ENDBRANCH  19  20
ENDBRANCH  18  19
ENDBRANCH  17  18
ENDBRANCH  15  16
ENDBRANCH  14  15
ENDBRANCH  13  14
ENDBRANCH  12  13
ENDBRANCH  11  12
ENDBRANCH  10  11
ENDBRANCH   6  10
TORSDOF 15
ENDMDL
MODEL      336
REMARK 921   NORMALIZED FREE ENERGY PREDICTED BY IDOCK:   -3.36 KCAL/MOL
REMARK 922        TOTAL FREE ENERGY PREDICTED BY IDOCK:   -8.25 KCAL/MOL
REMARK 923 INTER-LIGAND FREE ENERGY PREDICTED BY IDOCK:   -5.66 KCAL/MOL
REMARK 924 INTRA-LIGAND FREE ENERGY PREDICTED BY IDOCK:   -2.59 KCAL/MOL
REMARK 927      BINDING AFFINITY PREDICTED BY RF-SCORE:    0.00 PKD
ROOT
ATOM      1  N   GLY A   1      -8.782  10.046  64.631  1.00  0.00    -0.175 NA 
HETATM    2  C   UNL     1      -5.847   6.595  69.912  1.00  0.00    -0.019 C  
ATOM      3  H2  GLY A   1      -8.735   9.198  64.067  1.00  0.00     0.000 HD 
ATOM      4  H1  GLY A   1      -9.721  10.211  64.992  1.00  0.00     0.000 HD 
ATOM      5  CA  GLY A   1      -7.810  10.028  65.733  1.00  0.00    -0.128 C  
HETATM    6  C   UNL     1      -7.146   6.680  70.699  1.00  0.00    -0.069 C  
ENDROOT
BRANCH   5   7
ATOM      7  C   GLY A   1      -6.400   9.781  65.190  1.00  0.00    -0.094 C  
ATOM      8  H   GLY A   1      -5.288  10.478  63.735  1.00  0.00     0.000 HD 
ATOM      9  O   GLY A   1      -6.163  10.631  64.072  1.00  0.00    -0.040 OA 
ENDBRANCH   5   7
BRANCH   6  10
HETATM   10  C   UNL     1      -7.364   8.030  71.381  1.00  0.00    -0.070 C  
BRANCH  10  11
HETATM   11  C   UNL     1      -8.056   7.947  72.744  1.00  0.00    -0.183 C  
BRANCH  11  12
HETATM   12  C   UNL     1      -9.540   8.295  72.592  1.00  0.00    -0.352 C  
BRANCH  12  13
HETATM   13  C   UNL     1     -10.452   7.178  73.097  1.00  0.00    -0.361 C  
BRANCH  13  14
HETATM   14  C   UNL     1      -9.880   5.777  72.842  1.00  0.00    -0.174 C  
BRANCH  14  15
HETATM   15  C   UNL     1     -10.129   5.209  71.440  1.00  0.00    -0.265 C  
BRANCH  15  16
HETATM   16  C   UNL     1     -11.269   5.858  70.704  1.00  0.00    -0.284 C  
HETATM   17  C   UNL     1     -11.193   6.336  69.452  1.00  0.00    -0.489 C  
BRANCH  17  18
HETATM   18  C   UNL     1      -9.961   6.343  68.596  1.00  0.00    -0.162 C  
BRANCH  18  19
HETATM   19  C   UNL     1     -10.058   7.370  67.470  1.00  0.00    -0.250 C  
BRANCH  19  20
HETATM   20  C   UNL     1     -10.470   8.730  68.033  1.00  0.00    -0.260 C  
BRANCH  20  21
HETATM   21  C   UNL     1      -9.326   9.383  68.804  1.00  0.00    -0.146 C  
BRANCH  21  22
HETATM   22  C   UNL     1      -9.852  10.246  69.947  1.00  0.00    -0.153 C  
BRANCH  22  23
HETATM   23  C   UNL     1     -11.371  10.136  70.053  1.00  0.00    -0.351 C  
BRANCH  23  24
HETATM   24  C   UNL     1     -12.001  11.451  70.500  1.00  0.00    -0.451 C  
HETATM   25  C   UNL     1     -12.799  11.282  71.774  1.00  0.00    -0.360 C  
HETATM   26  O   UNL     1     -13.347  12.448  72.189  1.00  0.00    -0.528 OA 
HETATM   27  O   UNL     1     -12.947  10.239  72.383  1.00  0.00    -0.295 OA 
ENDBRANCH  23  24
ENDBRANCH  22  23
ENDBRANCH  21  22
ENDBRANCH  20  21
ENDBRANCH  19  20
ENDBRANCH  18  19
ENDBRANCH  17  18
ENDBRANCH  15  16
ENDBRANCH  14  15
ENDBRANCH  13  14
ENDBRANCH  12  13
ENDBRANCH  11  12
ENDBRANCH  10  11
ENDBRANCH   6  10
TORSDOF 15
ENDMDL
MODEL      337
REMARK 921   NORMALIZED FREE ENERGY PREDICTED BY IDOCK:   -3.35 KCAL/MOL
REMARK 922        TOTAL FREE ENERGY PREDICTED BY IDOCK:   -8.23 KCAL/MOL
REMARK 923 INTER-LIGAND FREE ENERGY PREDICTED BY IDOCK:   -6.43 KCAL/MOL
REMARK 924 INTRA-LIGAND FREE ENERGY PREDICTED BY IDOCK:   -1.79 KCAL/MOL
REMARK 927      BINDING AFFINITY PREDICTED BY RF-SCORE:    0.00 PKD
ROOT
ATOM      1  N   GLY A   1     -10.526  12.117  64.844  1.00  0.00    -0.278 NA 
HETATM    2  C   UNL     1     -10.527  18.921  66.302  1.00  0.00    -0.510 C  
ATOM      3  H2  GLY A   1     -10.485  12.344  63.851  1.00  0.00     0.000 HD 
ATOM      4  H1  GLY A   1      -9.616  11.831  65.207  1.00  0.00     0.000 HD 
ATOM      5  CA  GLY A   1     -11.062  13.230  65.639  1.00  0.00    -0.282 C  
HETATM    6  C   UNL     1      -9.139  18.798  66.912  1.00  0.00    -0.305 C  
ENDROOT
BRANCH   5   7
ATOM      7  C   GLY A   1     -12.427  13.660  65.095  1.00  0.00    -0.449 C  
ATOM      8  H   GLY A   1     -13.994  12.778  64.315  1.00  0.00     0.000 HD 
ATOM      9  O   GLY A   1     -13.147  12.512  64.653  1.00  0.00    -0.845 OA 
ENDBRANCH   5   7
BRANCH   6  10
HETATM   10  C   UNL     1      -9.140  18.244  68.336  1.00  0.00    -0.331 C  
BRANCH  10  11
HETATM   11  C   UNL     1      -8.243  17.021  68.541  1.00  0.00    -0.259 C  
BRANCH  11  12
HETATM   12  C   UNL     1      -9.021  15.926  69.276  1.00  0.00    -0.251 C  
BRANCH  12  13
HETATM   13  C   UNL     1      -9.952  15.151  68.344  1.00  0.00    -0.222 C  
BRANCH  13  14
HETATM   14  C   UNL     1     -11.422  15.570  68.484  1.00  0.00    -0.369 C  
BRANCH  14  15
HETATM   15  C   UNL     1     -12.389  14.454  68.898  1.00  0.00    -0.104 C  
BRANCH  15  16
HETATM   16  C   UNL     1     -11.922  13.635  70.071  1.00  0.00    -0.413 C  
HETATM   17  C   UNL     1     -11.840  12.295  70.079  1.00  0.00    -0.372 C  
BRANCH  17  18
HETATM   18  C   UNL     1     -12.235  11.391  68.948  1.00  0.00    -0.153 C  
BRANCH  18  19
HETATM   19  C   UNL     1     -11.040  10.619  68.395  1.00  0.00    -0.328 C  
BRANCH  19  20
HETATM   20  C   UNL     1      -9.739  11.339  68.747  1.00  0.00    -0.184 C  
BRANCH  20  21
HETATM   21  C   UNL     1      -8.538  10.676  68.079  1.00  0.00    -0.122 C  
BRANCH  21  22
HETATM   22  C   UNL     1      -7.590  10.078  69.115  1.00  0.00    -0.096 C  
BRANCH  22  23
HETATM   23  C   UNL     1      -7.404   8.582  68.878  1.00  0.00    -0.086 C  
BRANCH  23  24
HETATM   24  C   UNL     1      -8.598   7.973  68.149  1.00  0.00    -0.126 C  
HETATM   25  C   UNL     1      -8.184   7.327  66.847  1.00  0.00    -0.117 C  
HETATM   26  O   UNL     1      -9.234   6.768  66.201  1.00  0.00    -0.154 OA 
HETATM   27  O   UNL     1      -7.052   7.290  66.402  1.00  0.00    -0.073 OA 
ENDBRANCH  23  24
ENDBRANCH  22  23
ENDBRANCH  21  22
ENDBRANCH  20  21
ENDBRANCH  19  20
ENDBRANCH  18  19
ENDBRANCH  17  18
ENDBRANCH  15  16
ENDBRANCH  14  15
ENDBRANCH  13  14
ENDBRANCH  12  13
ENDBRANCH  11  12
ENDBRANCH  10  11
ENDBRANCH   6  10
TORSDOF 15
ENDMDL
MODEL      338
REMARK 921   NORMALIZED FREE ENERGY PREDICTED BY IDOCK:   -3.34 KCAL/MOL
REMARK 922        TOTAL FREE ENERGY PREDICTED BY IDOCK:   -8.22 KCAL/MOL
REMARK 923 INTER-LIGAND FREE ENERGY PREDICTED BY IDOCK:   -6.33 KCAL/MOL
REMARK 924 INTRA-LIGAND FREE ENERGY PREDICTED BY IDOCK:   -1.89 KCAL/MOL
REMARK 927      BINDING AFFINITY PREDICTED BY RF-SCORE:    0.00 PKD
ROOT
ATOM      1  N   GLY A   1     -10.160   2.205  72.606  1.00  0.00    -0.129 NA 
HETATM    2  C   UNL     1      -9.872   8.976  71.031  1.00  0.00    -0.352 C  
ATOM      3  H2  GLY A   1     -10.588   2.445  73.501  1.00  0.00     0.000 HD 
ATOM      4  H1  GLY A   1     -10.848   1.868  71.933  1.00  0.00     0.000 HD 
ATOM      5  CA  GLY A   1      -9.405   3.331  72.041  1.00  0.00    -0.123 C  
HETATM    6  C   UNL     1     -10.913   8.775  69.941  1.00  0.00    -0.184 C  
ENDROOT
BRANCH   5   7
ATOM      7  C   GLY A   1      -8.372   3.837  73.052  1.00  0.00    -0.091 C  
ATOM      8  H   GLY A   1      -8.346   5.089  74.559  1.00  0.00     0.000 HD 
ATOM      9  O   GLY A   1      -8.986   4.775  73.932  1.00  0.00    -0.113 OA 
ENDBRANCH   5   7
BRANCH   6  10
HETATM   10  C   UNL     1     -10.343   8.198  68.645  1.00  0.00    -0.224 C  
BRANCH  10  11
HETATM   11  C   UNL     1     -10.397   9.151  67.449  1.00  0.00    -0.330 C  
BRANCH  11  12
HETATM   12  C   UNL     1      -9.515   8.613  66.319  1.00  0.00    -0.307 C  
BRANCH  12  13
HETATM   13  C   UNL     1      -9.502   9.538  65.103  1.00  0.00    -0.305 C  
BRANCH  13  14
HETATM   14  C   UNL     1     -10.172  10.892  65.374  1.00  0.00    -0.339 C  
BRANCH  14  15
HETATM   15  C   UNL     1     -11.007  11.458  64.219  1.00  0.00    -0.390 C  
BRANCH  15  16
HETATM   16  C   UNL     1     -10.788  12.923  63.957  1.00  0.00    -0.443 C  
HETATM   17  C   UNL     1     -11.512  13.910  64.508  1.00  0.00    -0.393 C  
BRANCH  17  18
HETATM   18  C   UNL     1     -12.677  13.724  65.434  1.00  0.00    -0.513 C  
BRANCH  18  19
HETATM   19  C   UNL     1     -12.226  13.495  66.875  1.00  0.00    -0.377 C  
BRANCH  19  20
HETATM   20  C   UNL     1     -12.003  14.835  67.576  1.00  0.00    -0.239 C  
BRANCH  20  21
HETATM   21  C   UNL     1     -10.600  14.925  68.169  1.00  0.00    -0.244 C  
BRANCH  21  22
HETATM   22  C   UNL     1      -9.720  15.875  67.361  1.00  0.00    -0.227 C  
BRANCH  22  23
HETATM   23  C   UNL     1      -8.601  15.110  66.659  1.00  0.00    -0.279 C  
BRANCH  23  24
HETATM   24  C   UNL     1      -8.651  13.619  66.976  1.00  0.00    -0.173 C  
HETATM   25  C   UNL     1      -7.289  13.084  67.356  1.00  0.00    -0.116 C  
HETATM   26  O   UNL     1      -7.328  11.765  67.658  1.00  0.00    -0.103 OA 
HETATM   27  O   UNL     1      -6.261  13.733  67.402  1.00  0.00    -0.332 OA 
ENDBRANCH  23  24
ENDBRANCH  22  23
ENDBRANCH  21  22
ENDBRANCH  20  21
ENDBRANCH  19  20
ENDBRANCH  18  19
ENDBRANCH  17  18
ENDBRANCH  15  16
ENDBRANCH  14  15
ENDBRANCH  13  14
ENDBRANCH  12  13
ENDBRANCH  11  12
ENDBRANCH  10  11
ENDBRANCH   6  10
TORSDOF 15
ENDMDL
MODEL      339
REMARK 921   NORMALIZED FREE ENERGY PREDICTED BY IDOCK:   -3.33 KCAL/MOL
REMARK 922        TOTAL FREE ENERGY PREDICTED BY IDOCK:   -8.21 KCAL/MOL
REMARK 923 INTER-LIGAND FREE ENERGY PREDICTED BY IDOCK:   -5.67 KCAL/MOL
REMARK 924 INTRA-LIGAND FREE ENERGY PREDICTED BY IDOCK:   -2.54 KCAL/MOL
REMARK 927      BINDING AFFINITY PREDICTED BY RF-SCORE:    0.00 PKD
ROOT
ATOM      1  N   GLY A   1     -11.852  12.274  63.262  1.00  0.00    -0.727 NA 
HETATM    2  C   UNL     1      -7.721  11.658  68.827  1.00  0.00    -0.111 C  
ATOM      3  H2  GLY A   1     -12.551  11.701  63.734  1.00  0.00     0.000 HD 
ATOM      4  H1  GLY A   1     -12.089  13.265  63.293  1.00  0.00     0.000 HD 
ATOM      5  CA  GLY A   1     -10.505  12.056  63.807  1.00  0.00    -0.429 C  
HETATM    6  C   UNL     1      -7.901  13.137  69.133  1.00  0.00     0.362 C  
ENDROOT
BRANCH   5   7
ATOM      7  C   GLY A   1     -10.150  10.567  63.762  1.00  0.00    -0.184 C  
ATOM      8  H   GLY A   1     -10.058   9.083  65.037  1.00  0.00     0.000 HD 
ATOM      9  O   GLY A   1     -10.278  10.006  65.066  1.00  0.00    -0.280 OA 
ENDBRANCH   5   7
BRANCH   6  10
HETATM   10  C   UNL     1      -7.024  14.052  68.279  1.00  0.00    -0.107 C  
BRANCH  10  11
HETATM   11  C   UNL     1      -7.066  15.528  68.682  1.00  0.00    -0.118 C  
BRANCH  11  12
HETATM   12  C   UNL     1      -6.262  16.361  67.680  1.00  0.00    -0.165 C  
BRANCH  12  13
HETATM   13  C   UNL     1      -5.162  17.178  68.355  1.00  0.00    -0.128 C  
BRANCH  13  14
HETATM   14  C   UNL     1      -5.601  17.779  69.697  1.00  0.00    -0.218 C  
BRANCH  14  15
HETATM   15  C   UNL     1      -5.875  19.288  69.685  1.00  0.00    -0.274 C  
BRANCH  15  16
HETATM   16  C   UNL     1      -5.130  20.043  68.618  1.00  0.00    -0.211 C  
HETATM   17  C   UNL     1      -5.701  20.588  67.533  1.00  0.00    -0.238 C  
BRANCH  17  18
HETATM   18  C   UNL     1      -7.157  20.505  67.179  1.00  0.00    -0.359 C  
BRANCH  18  19
HETATM   19  C   UNL     1      -7.453  19.317  66.267  1.00  0.00    -0.284 C  
BRANCH  19  20
HETATM   20  C   UNL     1      -8.942  18.976  66.313  1.00  0.00    -0.289 C  
BRANCH  20  21
HETATM   21  C   UNL     1      -9.386  18.617  67.727  1.00  0.00    -0.315 C  
BRANCH  21  22
HETATM   22  C   UNL     1     -10.593  17.683  67.706  1.00  0.00    -0.380 C  
BRANCH  22  23
HETATM   23  C   UNL     1     -10.392  16.560  66.692  1.00  0.00    -0.298 C  
BRANCH  23  24
HETATM   24  C   UNL     1     -11.403  15.435  66.888  1.00  0.00    -0.147 C  
HETATM   25  C   UNL     1     -12.049  15.033  65.582  1.00  0.00     0.107 C  
HETATM   26  O   UNL     1     -12.934  14.022  65.743  1.00  0.00    -0.517 OA 
HETATM   27  O   UNL     1     -11.820  15.532  64.496  1.00  0.00    -0.355 OA 
ENDBRANCH  23  24
ENDBRANCH  22  23
ENDBRANCH  21  22
ENDBRANCH  20  21
ENDBRANCH  19  20
ENDBRANCH  18  19
ENDBRANCH  17  18
ENDBRANCH  15  16
ENDBRANCH  14  15
ENDBRANCH  13  14
ENDBRANCH  12  13
ENDBRANCH  11  12
ENDBRANCH  10  11
ENDBRANCH   6  10
TORSDOF 15
ENDMDL
MODEL      340
REMARK 921   NORMALIZED FREE ENERGY PREDICTED BY IDOCK:   -3.33 KCAL/MOL
REMARK 922        TOTAL FREE ENERGY PREDICTED BY IDOCK:   -8.20 KCAL/MOL
REMARK 923 INTER-LIGAND FREE ENERGY PREDICTED BY IDOCK:   -6.35 KCAL/MOL
REMARK 924 INTRA-LIGAND FREE ENERGY PREDICTED BY IDOCK:   -1.85 KCAL/MOL
REMARK 927      BINDING AFFINITY PREDICTED BY RF-SCORE:    0.00 PKD
ROOT
ATOM      1  N   GLY A   1     -13.375  11.910  72.141  1.00  0.00    -0.538 NA 
HETATM    2  C   UNL     1      -7.366  13.815  69.196  1.00  0.00     0.019 C  
ATOM      3  H2  GLY A   1     -12.881  11.757  73.020  1.00  0.00     0.000 HD 
ATOM      4  H1  GLY A   1     -13.890  12.790  72.141  1.00  0.00     0.000 HD 
ATOM      5  CA  GLY A   1     -12.469  11.851  70.985  1.00  0.00    -0.290 C  
HETATM    6  C   UNL     1      -7.872  15.244  69.071  1.00  0.00    -0.184 C  
ENDROOT
BRANCH   5   7
ATOM      7  C   GLY A   1     -11.696  10.530  70.985  1.00  0.00    -0.289 C  
ATOM      8  H   GLY A   1     -11.870   8.774  71.839  1.00  0.00     0.000 HD 
ATOM      9  O   GLY A   1     -12.350   9.594  71.839  1.00  0.00    -0.375 OA 
ENDBRANCH   5   7
BRANCH   6  10
HETATM   10  C   UNL     1      -8.806  15.463  67.881  1.00  0.00    -0.168 C  
BRANCH  10  11
HETATM   11  C   UNL     1     -10.265  15.079  68.142  1.00  0.00    -0.221 C  
BRANCH  11  12
HETATM   12  C   UNL     1     -11.028  15.020  66.816  1.00  0.00    -0.323 C  
BRANCH  12  13
HETATM   13  C   UNL     1     -12.237  14.088  66.883  1.00  0.00    -0.415 C  
BRANCH  13  14
HETATM   14  C   UNL     1     -12.944  13.927  65.530  1.00  0.00    -0.375 C  
BRANCH  14  15
HETATM   15  C   UNL     1     -12.543  12.688  64.721  1.00  0.00    -0.530 C  
BRANCH  15  16
HETATM   16  C   UNL     1     -11.461  12.936  63.705  1.00  0.00    -0.519 C  
HETATM   17  C   UNL     1     -10.313  12.245  63.633  1.00  0.00    -0.463 C  
BRANCH  17  18
HETATM   18  C   UNL     1      -9.897  11.146  64.566  1.00  0.00    -0.330 C  
BRANCH  18  19
HETATM   19  C   UNL     1      -9.373  11.694  65.891  1.00  0.00    -0.232 C  
BRANCH  19  20
HETATM   20  C   UNL     1      -9.428  10.611  66.968  1.00  0.00    -0.187 C  
BRANCH  20  21
HETATM   21  C   UNL     1     -10.157   9.368  66.468  1.00  0.00    -0.332 C  
BRANCH  21  22
HETATM   22  C   UNL     1      -9.561   8.099  67.071  1.00  0.00    -0.253 C  
BRANCH  22  23
HETATM   23  C   UNL     1      -8.769   7.322  66.023  1.00  0.00    -0.168 C  
BRANCH  23  24
HETATM   24  C   UNL     1      -7.269   7.367  66.301  1.00  0.00    -0.078 C  
HETATM   25  C   UNL     1      -6.492   6.545  65.299  1.00  0.00    -0.039 C  
HETATM   26  O   UNL     1      -5.159   6.594  65.527  1.00  0.00    -0.017 OA 
HETATM   27  O   UNL     1      -6.973   5.907  64.381  1.00  0.00    -0.048 OA 
ENDBRANCH  23  24
ENDBRANCH  22  23
ENDBRANCH  21  22
ENDBRANCH  20  21
ENDBRANCH  19  20
ENDBRANCH  18  19
ENDBRANCH  17  18
ENDBRANCH  15  16
ENDBRANCH  14  15
ENDBRANCH  13  14
ENDBRANCH  12  13
ENDBRANCH  11  12
ENDBRANCH  10  11
ENDBRANCH   6  10
TORSDOF 15
ENDMDL
MODEL      341
REMARK 921   NORMALIZED FREE ENERGY PREDICTED BY IDOCK:   -3.33 KCAL/MOL
REMARK 922        TOTAL FREE ENERGY PREDICTED BY IDOCK:   -8.20 KCAL/MOL
REMARK 923 INTER-LIGAND FREE ENERGY PREDICTED BY IDOCK:   -7.17 KCAL/MOL
REMARK 924 INTRA-LIGAND FREE ENERGY PREDICTED BY IDOCK:   -1.03 KCAL/MOL
REMARK 927      BINDING AFFINITY PREDICTED BY RF-SCORE:    0.00 PKD
ROOT
ATOM      1  N   GLY A   1      -9.888  21.048  66.740  1.00  0.00    -0.434 NA 
HETATM    2  C   UNL     1      -9.394  14.108  66.748  1.00  0.00    -0.295 C  
ATOM      3  H2  GLY A   1      -8.873  21.108  66.809  1.00  0.00     0.000 HD 
ATOM      4  H1  GLY A   1     -10.217  21.228  65.792  1.00  0.00     0.000 HD 
ATOM      5  CA  GLY A   1     -10.396  19.755  67.217  1.00  0.00    -0.449 C  
HETATM    6  C   UNL     1      -9.862  14.066  65.302  1.00  0.00    -0.186 C  
ENDROOT
BRANCH   5   7
ATOM      7  C   GLY A   1      -9.902  19.485  68.641  1.00  0.00    -0.445 C  
ATOM      8  H   GLY A   1     -10.332  20.120  70.444  1.00  0.00     0.000 HD 
ATOM      9  O   GLY A   1     -10.638  20.287  69.561  1.00  0.00    -0.011 OA 
ENDBRANCH   5   7
BRANCH   6  10
HETATM   10  C   UNL     1     -11.376  14.202  65.142  1.00  0.00    -0.336 C  
BRANCH  10  11
HETATM   11  C   UNL     1     -12.125  12.872  65.037  1.00  0.00    -0.480 C  
BRANCH  11  12
HETATM   12  C   UNL     1     -11.748  12.167  63.732  1.00  0.00    -0.576 C  
BRANCH  12  13
HETATM   13  C   UNL     1     -10.236  12.102  63.522  1.00  0.00    -0.453 C  
BRANCH  13  14
HETATM   14  C   UNL     1      -9.713  10.666  63.380  1.00  0.00    -0.387 C  
BRANCH  14  15
HETATM   15  C   UNL     1      -9.820   9.798  64.639  1.00  0.00    -0.061 C  
BRANCH  15  16
HETATM   16  C   UNL     1      -8.941  10.245  65.775  1.00  0.00    -0.185 C  
HETATM   17  C   UNL     1      -9.385  10.563  67.001  1.00  0.00    -0.176 C  
BRANCH  17  18
HETATM   18  C   UNL     1     -10.823  10.567  67.434  1.00  0.00    -0.349 C  
BRANCH  18  19
HETATM   19  C   UNL     1     -10.980  10.112  68.883  1.00  0.00    -0.261 C  
BRANCH  19  20
HETATM   20  C   UNL     1     -10.053   8.931  69.168  1.00  0.00    -0.202 C  
BRANCH  20  21
HETATM   21  C   UNL     1     -10.521   7.671  68.448  1.00  0.00    -0.208 C  
BRANCH  21  22
HETATM   22  C   UNL     1      -9.832   6.428  69.005  1.00  0.00    -0.155 C  
BRANCH  22  23
HETATM   23  C   UNL     1     -10.742   5.700  69.990  1.00  0.00    -0.390 C  
BRANCH  23  24
HETATM   24  C   UNL     1     -10.192   5.753  71.412  1.00  0.00    -0.269 C  
HETATM   25  C   UNL     1     -11.170   6.404  72.364  1.00  0.00    -0.277 C  
HETATM   26  O   UNL     1     -10.697   6.438  73.632  1.00  0.00    -0.273 OA 
HETATM   27  O   UNL     1     -12.261   6.849  72.063  1.00  0.00    -0.310 OA 
ENDBRANCH  23  24
ENDBRANCH  22  23
ENDBRANCH  21  22
ENDBRANCH  20  21
ENDBRANCH  19  20
ENDBRANCH  18  19
ENDBRANCH  17  18
ENDBRANCH  15  16
ENDBRANCH  14  15
ENDBRANCH  13  14
ENDBRANCH  12  13
ENDBRANCH  11  12
ENDBRANCH  10  11
ENDBRANCH   6  10
TORSDOF 15
ENDMDL
MODEL      342
REMARK 921   NORMALIZED FREE ENERGY PREDICTED BY IDOCK:   -3.32 KCAL/MOL
REMARK 922        TOTAL FREE ENERGY PREDICTED BY IDOCK:   -8.18 KCAL/MOL
REMARK 923 INTER-LIGAND FREE ENERGY PREDICTED BY IDOCK:   -6.43 KCAL/MOL
REMARK 924 INTRA-LIGAND FREE ENERGY PREDICTED BY IDOCK:   -1.75 KCAL/MOL
REMARK 927      BINDING AFFINITY PREDICTED BY RF-SCORE:    0.00 PKD
ROOT
ATOM      1  N   GLY A   1      -9.320   5.274  72.946  1.00  0.00    -0.137 NA 
HETATM    2  C   UNL     1     -11.151  11.163  69.724  1.00  0.00    -0.271 C  
ATOM      3  H2  GLY A   1     -10.140   5.362  73.545  1.00  0.00     0.000 HD 
ATOM      4  H1  GLY A   1      -9.461   4.585  72.207  1.00  0.00     0.000 HD 
ATOM      5  CA  GLY A   1      -8.921   6.564  72.368  1.00  0.00    -0.133 C  
HETATM    6  C   UNL     1     -11.458  10.382  68.456  1.00  0.00    -0.231 C  
ENDROOT
BRANCH   5   7
ATOM      7  C   GLY A   1      -8.711   7.598  73.478  1.00  0.00    -0.215 C  
ATOM      8  H   GLY A   1      -8.408   9.531  73.588  1.00  0.00     0.000 HD 
ATOM      9  O   GLY A   1      -8.539   8.890  72.899  1.00  0.00    -0.335 OA 
ENDBRANCH   5   7
BRANCH   6  10
HETATM   10  C   UNL     1     -10.217  10.031  67.635  1.00  0.00    -0.249 C  
BRANCH  10  11
HETATM   11  C   UNL     1     -10.490   9.776  66.151  1.00  0.00    -0.128 C  
BRANCH  11  12
HETATM   12  C   UNL     1      -9.212  10.014  65.342  1.00  0.00    -0.259 C  
BRANCH  12  13
HETATM   13  C   UNL     1      -9.503  10.308  63.871  1.00  0.00    -0.356 C  
BRANCH  13  14
HETATM   14  C   UNL     1      -9.996  11.742  63.634  1.00  0.00    -0.404 C  
BRANCH  14  15
HETATM   15  C   UNL     1     -11.501  11.886  63.375  1.00  0.00    -0.470 C  
BRANCH  15  16
HETATM   16  C   UNL     1     -12.010  13.300  63.460  1.00  0.00    -0.537 C  
HETATM   17  C   UNL     1     -12.430  13.890  64.590  1.00  0.00    -0.361 C  
BRANCH  17  18
HETATM   18  C   UNL     1     -12.503  13.238  65.940  1.00  0.00    -0.433 C  
BRANCH  18  19
HETATM   19  C   UNL     1     -11.212  13.428  66.733  1.00  0.00    -0.332 C  
BRANCH  19  20
HETATM   20  C   UNL     1     -11.069  14.887  67.164  1.00  0.00    -0.332 C  
BRANCH  20  21
HETATM   21  C   UNL     1      -9.888  15.558  66.470  1.00  0.00    -0.281 C  
BRANCH  21  22
HETATM   22  C   UNL     1      -9.274  16.642  67.350  1.00  0.00    -0.216 C  
BRANCH  22  23
HETATM   23  C   UNL     1      -8.679  16.037  68.619  1.00  0.00    -0.206 C  
BRANCH  23  24
HETATM   24  C   UNL     1      -7.511  16.865  69.145  1.00  0.00    -0.180 C  
HETATM   25  C   UNL     1      -6.185  16.189  68.879  1.00  0.00    -0.132 C  
HETATM   26  O   UNL     1      -5.141  16.925  69.326  1.00  0.00    -0.128 OA 
HETATM   27  O   UNL     1      -6.036  15.115  68.328  1.00  0.00    -0.105 OA 
ENDBRANCH  23  24
ENDBRANCH  22  23
ENDBRANCH  21  22
ENDBRANCH  20  21
ENDBRANCH  19  20
ENDBRANCH  18  19
ENDBRANCH  17  18
ENDBRANCH  15  16
ENDBRANCH  14  15
ENDBRANCH  13  14
ENDBRANCH  12  13
ENDBRANCH  11  12
ENDBRANCH  10  11
ENDBRANCH   6  10
TORSDOF 15
ENDMDL
MODEL      343
REMARK 921   NORMALIZED FREE ENERGY PREDICTED BY IDOCK:   -3.32 KCAL/MOL
REMARK 922        TOTAL FREE ENERGY PREDICTED BY IDOCK:   -8.18 KCAL/MOL
REMARK 923 INTER-LIGAND FREE ENERGY PREDICTED BY IDOCK:   -6.42 KCAL/MOL
REMARK 924 INTRA-LIGAND FREE ENERGY PREDICTED BY IDOCK:   -1.76 KCAL/MOL
REMARK 927      BINDING AFFINITY PREDICTED BY RF-SCORE:    0.00 PKD
ROOT
ATOM      1  N   GLY A   1      -6.796  14.392  67.114  1.00  0.00    -0.373 NA 
HETATM    2  C   UNL     1     -12.364  12.287  70.717  1.00  0.00    -0.383 C  
ATOM      3  H2  GLY A   1      -7.032  13.722  66.382  1.00  0.00     0.000 HD 
ATOM      4  H1  GLY A   1      -7.065  15.342  66.860  1.00  0.00     0.000 HD 
ATOM      5  CA  GLY A   1      -7.389  14.025  68.407  1.00  0.00    -0.113 C  
HETATM    6  C   UNL     1     -13.031  13.633  70.487  1.00  0.00    -0.065 C  
ENDROOT
BRANCH   5   7
ATOM      7  C   GLY A   1      -6.985  12.598  68.787  1.00  0.00    -0.096 C  
ATOM      8  H   GLY A   1      -5.410  11.453  68.564  1.00  0.00     0.000 HD 
ATOM      9  O   GLY A   1      -5.661  12.338  68.328  1.00  0.00    -0.050 OA 
ENDBRANCH   5   7
BRANCH   6  10
HETATM   10  C   UNL     1     -12.535  14.733  71.425  1.00  0.00    -0.401 C  
BRANCH  10  11
HETATM   11  C   UNL     1     -11.117  15.228  71.129  1.00  0.00    -0.328 C  
BRANCH  11  12
HETATM   12  C   UNL     1     -11.178  16.441  70.196  1.00  0.00    -0.260 C  
BRANCH  12  13
HETATM   13  C   UNL     1     -11.825  16.108  68.853  1.00  0.00    -0.159 C  
BRANCH  13  14
HETATM   14  C   UNL     1     -10.921  15.259  67.948  1.00  0.00    -0.306 C  
BRANCH  14  15
HETATM   15  C   UNL     1     -11.653  14.314  66.986  1.00  0.00    -0.406 C  
BRANCH  15  16
HETATM   16  C   UNL     1     -10.745  13.545  66.066  1.00  0.00    -0.280 C  
HETATM   17  C   UNL     1     -10.385  12.265  66.249  1.00  0.00    -0.257 C  
BRANCH  17  18
HETATM   18  C   UNL     1     -10.787  11.403  67.410  1.00  0.00    -0.301 C  
BRANCH  18  19
HETATM   19  C   UNL     1     -10.747   9.918  67.055  1.00  0.00    -0.237 C  
BRANCH  19  20
HETATM   20  C   UNL     1     -10.333   9.097  68.275  1.00  0.00    -0.256 C  
BRANCH  20  21
HETATM   21  C   UNL     1      -9.708   9.978  69.352  1.00  0.00    -0.240 C  
BRANCH  21  22
HETATM   22  C   UNL     1      -9.389   9.172  70.609  1.00  0.00    -0.312 C  
BRANCH  22  23
HETATM   23  C   UNL     1     -10.577   9.173  71.568  1.00  0.00    -0.428 C  
BRANCH  23  24
HETATM   24  C   UNL     1     -11.420   7.910  71.422  1.00  0.00    -0.293 C  
HETATM   25  C   UNL     1     -11.374   7.062  72.673  1.00  0.00    -0.252 C  
HETATM   26  O   UNL     1     -12.134   5.948  72.560  1.00  0.00    -0.241 OA 
HETATM   27  O   UNL     1     -10.743   7.321  73.681  1.00  0.00    -0.378 OA 
ENDBRANCH  23  24
ENDBRANCH  22  23
ENDBRANCH  21  22
ENDBRANCH  20  21
ENDBRANCH  19  20
ENDBRANCH  18  19
ENDBRANCH  17  18
ENDBRANCH  15  16
ENDBRANCH  14  15
ENDBRANCH  13  14
ENDBRANCH  12  13
ENDBRANCH  11  12
ENDBRANCH  10  11
ENDBRANCH   6  10
TORSDOF 15
ENDMDL
MODEL      344
REMARK 921   NORMALIZED FREE ENERGY PREDICTED BY IDOCK:   -3.31 KCAL/MOL
REMARK 922        TOTAL FREE ENERGY PREDICTED BY IDOCK:   -8.16 KCAL/MOL
REMARK 923 INTER-LIGAND FREE ENERGY PREDICTED BY IDOCK:   -6.50 KCAL/MOL
REMARK 924 INTRA-LIGAND FREE ENERGY PREDICTED BY IDOCK:   -1.65 KCAL/MOL
REMARK 927      BINDING AFFINITY PREDICTED BY RF-SCORE:    0.00 PKD
ROOT
ATOM      1  N   GLY A   1      -7.041   6.111  72.303  1.00  0.00    -0.082 NA 
HETATM    2  C   UNL     1      -6.989   7.477  65.481  1.00  0.00    -0.060 C  
ATOM      3  H2  GLY A   1      -6.033   5.958  72.268  1.00  0.00     0.000 HD 
ATOM      4  H1  GLY A   1      -7.274   7.024  72.693  1.00  0.00     0.000 HD 
ATOM      5  CA  GLY A   1      -7.669   5.945  70.986  1.00  0.00    -0.101 C  
HETATM    6  C   UNL     1      -7.331   8.932  65.762  1.00  0.00    -0.089 C  
ENDROOT
BRANCH   5   7
ATOM      7  C   GLY A   1      -7.319   4.574  70.402  1.00  0.00    -0.049 C  
ATOM      8  H   GLY A   1      -6.478   3.891  68.768  1.00  0.00     0.000 HD 
ATOM      9  O   GLY A   1      -6.696   4.741  69.131  1.00  0.00    -0.046 OA 
ENDBRANCH   5   7
BRANCH   6  10
HETATM   10  C   UNL     1      -8.814   9.170  66.047  1.00  0.00    -0.200 C  
BRANCH  10  11
HETATM   11  C   UNL     1      -9.173  10.623  66.366  1.00  0.00    -0.190 C  
BRANCH  11  12
HETATM   12  C   UNL     1     -10.493  10.991  65.684  1.00  0.00    -0.293 C  
BRANCH  12  13
HETATM   13  C   UNL     1     -10.284  11.544  64.275  1.00  0.00    -0.361 C  
BRANCH  13  14
HETATM   14  C   UNL     1     -11.455  12.411  63.792  1.00  0.00    -0.544 C  
BRANCH  14  15
HETATM   15  C   UNL     1     -12.593  12.602  64.803  1.00  0.00    -0.530 C  
BRANCH  15  16
HETATM   16  C   UNL     1     -12.708  14.001  65.345  1.00  0.00    -0.499 C  
HETATM   17  C   UNL     1     -12.244  14.393  66.542  1.00  0.00    -0.358 C  
BRANCH  17  18
HETATM   18  C   UNL     1     -11.575  13.506  67.551  1.00  0.00    -0.385 C  
BRANCH  18  19
HETATM   19  C   UNL     1     -11.699  14.064  68.967  1.00  0.00    -0.368 C  
BRANCH  19  20
HETATM   20  C   UNL     1     -12.002  12.936  69.953  1.00  0.00    -0.377 C  
BRANCH  20  21
HETATM   21  C   UNL     1     -11.529  11.588  69.418  1.00  0.00    -0.376 C  
BRANCH  21  22
HETATM   22  C   UNL     1     -12.076  10.438  70.258  1.00  0.00    -0.370 C  
BRANCH  22  23
HETATM   23  C   UNL     1     -10.971   9.440  70.596  1.00  0.00    -0.352 C  
BRANCH  23  24
HETATM   24  C   UNL     1     -10.907   8.303  69.580  1.00  0.00    -0.154 C  
HETATM   25  C   UNL     1     -11.659   7.084  70.063  1.00  0.00    -0.178 C  
HETATM   26  O   UNL     1     -11.624   6.076  69.160  1.00  0.00    -0.193 OA 
HETATM   27  O   UNL     1     -12.243   6.986  71.126  1.00  0.00    -0.350 OA 
ENDBRANCH  23  24
ENDBRANCH  22  23
ENDBRANCH  21  22
ENDBRANCH  20  21
ENDBRANCH  19  20
ENDBRANCH  18  19
ENDBRANCH  17  18
ENDBRANCH  15  16
ENDBRANCH  14  15
ENDBRANCH  13  14
ENDBRANCH  12  13
ENDBRANCH  11  12
ENDBRANCH  10  11
ENDBRANCH   6  10
TORSDOF 15
ENDMDL
MODEL      345
REMARK 921   NORMALIZED FREE ENERGY PREDICTED BY IDOCK:   -3.31 KCAL/MOL
REMARK 922        TOTAL FREE ENERGY PREDICTED BY IDOCK:   -8.15 KCAL/MOL
REMARK 923 INTER-LIGAND FREE ENERGY PREDICTED BY IDOCK:   -6.55 KCAL/MOL
REMARK 924 INTRA-LIGAND FREE ENERGY PREDICTED BY IDOCK:   -1.60 KCAL/MOL
REMARK 927      BINDING AFFINITY PREDICTED BY RF-SCORE:    0.00 PKD
ROOT
ATOM      1  N   GLY A   1     -10.974  11.020  63.773  1.00  0.00    -0.511 NA 
HETATM    2  C   UNL     1     -10.715  16.885  67.507  1.00  0.00    -0.270 C  
ATOM      3  H2  GLY A   1     -10.115  11.299  63.299  1.00  0.00     0.000 HD 
ATOM      4  H1  GLY A   1     -10.801  10.315  64.489  1.00  0.00     0.000 HD 
ATOM      5  CA  GLY A   1     -11.680  12.171  64.353  1.00  0.00    -0.355 C  
HETATM    6  C   UNL     1     -10.431  16.080  68.766  1.00  0.00    -0.248 C  
ENDROOT
BRANCH   5   7
ATOM      7  C   GLY A   1     -11.939  13.230  63.278  1.00  0.00    -0.310 C  
ATOM      8  H   GLY A   1     -12.780  14.997  63.190  1.00  0.00     0.000 HD 
ATOM      9  O   GLY A   1     -12.619  14.340  63.856  1.00  0.00    -0.787 OA 
ENDBRANCH   5   7
BRANCH   6  10
HETATM   10  C   UNL     1     -11.678  15.450  69.387  1.00  0.00    -0.369 C  
BRANCH  10  11
HETATM   11  C   UNL     1     -11.570  13.944  69.637  1.00  0.00    -0.347 C  
BRANCH  11  12
HETATM   12  C   UNL     1     -11.914  13.181  68.355  1.00  0.00    -0.324 C  
BRANCH  12  13
HETATM   13  C   UNL     1     -10.747  12.332  67.855  1.00  0.00    -0.243 C  
BRANCH  13  14
HETATM   14  C   UNL     1      -9.627  13.168  67.220  1.00  0.00    -0.233 C  
BRANCH  14  15
HETATM   15  C   UNL     1      -8.243  12.509  67.199  1.00  0.00    -0.168 C  
BRANCH  15  16
HETATM   16  C   UNL     1      -8.085  11.436  66.157  1.00  0.00    -0.011 C  
HETATM   17  C   UNL     1      -7.332  10.335  66.306  1.00  0.00    -0.118 C  
BRANCH  17  18
HETATM   18  C   UNL     1      -6.493  10.009  67.508  1.00  0.00    -0.067 C  
BRANCH  18  19
HETATM   19  C   UNL     1      -6.973   8.739  68.207  1.00  0.00    -0.073 C  
BRANCH  19  20
HETATM   20  C   UNL     1      -8.500   8.676  68.195  1.00  0.00    -0.131 C  
BRANCH  20  21
HETATM   21  C   UNL     1      -8.997   7.376  67.570  1.00  0.00    -0.126 C  
BRANCH  21  22
HETATM   22  C   UNL     1     -10.495   7.439  67.286  1.00  0.00    -0.385 C  
BRANCH  22  23
HETATM   23  C   UNL     1     -11.207   6.217  67.862  1.00  0.00    -0.216 C  
BRANCH  23  24
HETATM   24  C   UNL     1     -10.458   5.641  69.060  1.00  0.00    -0.321 C  
HETATM   25  C   UNL     1     -11.108   6.037  70.366  1.00  0.00    -0.329 C  
HETATM   26  O   UNL     1     -10.461   5.515  71.434  1.00  0.00    -0.226 OA 
HETATM   27  O   UNL     1     -12.098   6.735  70.481  1.00  0.00    -0.386 OA 
ENDBRANCH  23  24
ENDBRANCH  22  23
ENDBRANCH  21  22
ENDBRANCH  20  21
ENDBRANCH  19  20
ENDBRANCH  18  19
ENDBRANCH  17  18
ENDBRANCH  15  16
ENDBRANCH  14  15
ENDBRANCH  13  14
ENDBRANCH  12  13
ENDBRANCH  11  12
ENDBRANCH  10  11
ENDBRANCH   6  10
TORSDOF 15
ENDMDL
MODEL      346
REMARK 921   NORMALIZED FREE ENERGY PREDICTED BY IDOCK:   -3.31 KCAL/MOL
REMARK 922        TOTAL FREE ENERGY PREDICTED BY IDOCK:   -8.15 KCAL/MOL
REMARK 923 INTER-LIGAND FREE ENERGY PREDICTED BY IDOCK:   -6.18 KCAL/MOL
REMARK 924 INTRA-LIGAND FREE ENERGY PREDICTED BY IDOCK:   -1.97 KCAL/MOL
REMARK 927      BINDING AFFINITY PREDICTED BY RF-SCORE:    0.00 PKD
ROOT
ATOM      1  N   GLY A   1     -10.892   5.476  68.447  1.00  0.00    -0.091 NA 
HETATM    2  C   UNL     1      -6.453   8.054  63.751  1.00  0.00    -0.067 C  
ATOM      3  H2  GLY A   1     -10.110   5.017  68.915  1.00  0.00     0.000 HD 
ATOM      4  H1  GLY A   1     -11.185   6.321  68.936  1.00  0.00     0.000 HD 
ATOM      5  CA  GLY A   1     -10.588   5.781  67.043  1.00  0.00    -0.300 C  
HETATM    6  C   UNL     1      -6.689   9.457  64.287  1.00  0.00    -0.095 C  
ENDROOT
BRANCH   5   7
ATOM      7  C   GLY A   1     -10.148   4.511  66.308  1.00  0.00    -0.254 C  
ATOM      8  H   GLY A   1     -10.755   3.476  64.759  1.00  0.00     0.000 HD 
ATOM      9  O   GLY A   1     -11.028   4.263  65.215  1.00  0.00    -0.202 OA 
ENDBRANCH   5   7
BRANCH   6  10
HETATM   10  C   UNL     1      -7.980  10.100  63.780  1.00  0.00    -0.153 C  
BRANCH  10  11
HETATM   11  C   UNL     1      -8.839  10.743  64.872  1.00  0.00    -0.176 C  
BRANCH  11  12
HETATM   12  C   UNL     1      -9.906   9.750  65.342  1.00  0.00    -0.365 C  
BRANCH  12  13
HETATM   13  C   UNL     1      -9.674   9.286  66.778  1.00  0.00    -0.260 C  
BRANCH  13  14
HETATM   14  C   UNL     1     -10.890   9.517  67.686  1.00  0.00    -0.253 C  
BRANCH  14  15
HETATM   15  C   UNL     1     -10.600  10.247  69.003  1.00  0.00    -0.247 C  
BRANCH  15  16
HETATM   16  C   UNL     1     -11.602  11.315  69.350  1.00  0.00    -0.390 C  
HETATM   17  C   UNL     1     -11.834  12.410  68.610  1.00  0.00    -0.348 C  
BRANCH  17  18
HETATM   18  C   UNL     1     -11.115  12.775  67.344  1.00  0.00    -0.312 C  
BRANCH  18  19
HETATM   19  C   UNL     1      -9.647  13.108  67.602  1.00  0.00    -0.210 C  
BRANCH  19  20
HETATM   20  C   UNL     1      -9.154  14.136  66.584  1.00  0.00    -0.238 C  
BRANCH  20  21
HETATM   21  C   UNL     1     -10.307  14.697  65.757  1.00  0.00    -0.349 C  
BRANCH  21  22
HETATM   22  C   UNL     1     -10.459  16.200  65.971  1.00  0.00    -0.349 C  
BRANCH  22  23
HETATM   23  C   UNL     1     -10.061  16.588  67.393  1.00  0.00    -0.279 C  
BRANCH  23  24
HETATM   24  C   UNL     1     -11.260  16.580  68.336  1.00  0.00    -0.280 C  
HETATM   25  C   UNL     1     -10.904  15.995  69.683  1.00  0.00    -0.329 C  
HETATM   26  O   UNL     1     -11.957  16.001  70.534  1.00  0.00    -0.350 OA 
HETATM   27  O   UNL     1      -9.811  15.566  70.003  1.00  0.00    -0.283 OA 
ENDBRANCH  23  24
ENDBRANCH  22  23
ENDBRANCH  21  22
ENDBRANCH  20  21
ENDBRANCH  19  20
ENDBRANCH  18  19
ENDBRANCH  17  18
ENDBRANCH  15  16
ENDBRANCH  14  15
ENDBRANCH  13  14
ENDBRANCH  12  13
ENDBRANCH  11  12
ENDBRANCH  10  11
ENDBRANCH   6  10
TORSDOF 15
ENDMDL
MODEL      347
REMARK 921   NORMALIZED FREE ENERGY PREDICTED BY IDOCK:   -3.31 KCAL/MOL
REMARK 922        TOTAL FREE ENERGY PREDICTED BY IDOCK:   -8.15 KCAL/MOL
REMARK 923 INTER-LIGAND FREE ENERGY PREDICTED BY IDOCK:   -6.41 KCAL/MOL
REMARK 924 INTRA-LIGAND FREE ENERGY PREDICTED BY IDOCK:   -1.74 KCAL/MOL
REMARK 927      BINDING AFFINITY PREDICTED BY RF-SCORE:    0.00 PKD
ROOT
ATOM      1  N   GLY A   1      -8.543   8.602  67.906  1.00  0.00    -0.136 NA 
HETATM    2  C   UNL     1      -7.582  15.492  67.773  1.00  0.00    -0.162 C  
ATOM      3  H2  GLY A   1      -8.310   8.602  68.899  1.00  0.00     0.000 HD 
ATOM      4  H1  GLY A   1      -9.548   8.533  67.751  1.00  0.00     0.000 HD 
ATOM      5  CA  GLY A   1      -8.001   9.780  67.216  1.00  0.00    -0.106 C  
HETATM    6  C   UNL     1      -9.070  15.702  67.540  1.00  0.00    -0.198 C  
ENDROOT
BRANCH   5   7
ATOM      7  C   GLY A   1      -6.491   9.883  67.450  1.00  0.00    -0.068 C  
ATOM      8  H   GLY A   1      -4.880   8.991  66.780  1.00  0.00     0.000 HD 
ATOM      9  O   GLY A   1      -5.817   8.927  66.636  1.00  0.00    -0.050 OA 
ENDBRANCH   5   7
BRANCH   6  10
HETATM   10  C   UNL     1      -9.501  15.488  66.090  1.00  0.00    -0.376 C  
BRANCH  10  11
HETATM   11  C   UNL     1     -10.517  14.360  65.890  1.00  0.00    -0.317 C  
BRANCH  11  12
HETATM   12  C   UNL     1     -11.248  14.083  67.206  1.00  0.00    -0.328 C  
BRANCH  12  13
HETATM   13  C   UNL     1     -12.014  12.762  67.177  1.00  0.00    -0.351 C  
BRANCH  13  14
HETATM   14  C   UNL     1     -11.437  11.715  68.139  1.00  0.00    -0.382 C  
BRANCH  14  15
HETATM   15  C   UNL     1     -11.655  11.999  69.631  1.00  0.00    -0.371 C  
BRANCH  15  16
HETATM   16  C   UNL     1     -12.249  10.849  70.398  1.00  0.00    -0.453 C  
HETATM   17  C   UNL     1     -11.537   9.856  70.953  1.00  0.00    -0.456 C  
BRANCH  17  18
HETATM   18  C   UNL     1     -10.047   9.700  70.870  1.00  0.00    -0.257 C  
BRANCH  18  19
HETATM   19  C   UNL     1      -9.536   8.617  71.817  1.00  0.00    -0.354 C  
BRANCH  19  20
HETATM   20  C   UNL     1      -9.230   7.338  71.039  1.00  0.00    -0.154 C  
BRANCH  20  21
HETATM   21  C   UNL     1     -10.022   6.153  71.583  1.00  0.00    -0.203 C  
BRANCH  21  22
HETATM   22  C   UNL     1     -11.356   6.001  70.859  1.00  0.00    -0.299 C  
BRANCH  22  23
HETATM   23  C   UNL     1     -11.269   6.560  69.440  1.00  0.00    -0.418 C  
BRANCH  23  24
HETATM   24  C   UNL     1     -10.896   5.478  68.431  1.00  0.00    -0.059 C  
HETATM   25  C   UNL     1     -10.796   6.036  67.030  1.00  0.00    -0.331 C  
HETATM   26  O   UNL     1     -10.447   5.088  66.129  1.00  0.00    -0.276 OA 
HETATM   27  O   UNL     1     -10.993   7.194  66.712  1.00  0.00    -0.305 OA 
ENDBRANCH  23  24
ENDBRANCH  22  23
ENDBRANCH  21  22
ENDBRANCH  20  21
ENDBRANCH  19  20
ENDBRANCH  18  19
ENDBRANCH  17  18
ENDBRANCH  15  16
ENDBRANCH  14  15
ENDBRANCH  13  14
ENDBRANCH  12  13
ENDBRANCH  11  12
ENDBRANCH  10  11
ENDBRANCH   6  10
TORSDOF 15
ENDMDL
MODEL      348
REMARK 921   NORMALIZED FREE ENERGY PREDICTED BY IDOCK:   -3.30 KCAL/MOL
REMARK 922        TOTAL FREE ENERGY PREDICTED BY IDOCK:   -8.15 KCAL/MOL
REMARK 923 INTER-LIGAND FREE ENERGY PREDICTED BY IDOCK:   -5.59 KCAL/MOL
REMARK 924 INTRA-LIGAND FREE ENERGY PREDICTED BY IDOCK:   -2.56 KCAL/MOL
REMARK 927      BINDING AFFINITY PREDICTED BY RF-SCORE:    0.00 PKD
ROOT
ATOM      1  N   GLY A   1      -9.843  10.034  63.204  1.00  0.00    -0.514 NA 
HETATM    2  C   UNL     1      -7.025  10.457  69.551  1.00  0.00    -0.102 C  
ATOM      3  H2  GLY A   1      -8.999  10.454  62.815  1.00  0.00     0.000 HD 
ATOM      4  H1  GLY A   1      -9.868   9.025  63.058  1.00  0.00     0.000 HD 
ATOM      5  CA  GLY A   1     -10.004  10.346  64.630  1.00  0.00    -0.338 C  
HETATM    6  C   UNL     1      -6.925   8.941  69.616  1.00  0.00    -0.054 C  
ENDROOT
BRANCH   5   7
ATOM      7  C   GLY A   1      -9.967  11.861  64.848  1.00  0.00    -0.241 C  
ATOM      8  H   GLY A   1     -10.568  13.457  63.882  1.00  0.00     0.000 HD 
ATOM      9  O   GLY A   1     -10.592  12.517  63.747  1.00  0.00    -0.414 OA 
ENDBRANCH   5   7
BRANCH   6  10
HETATM   10  C   UNL     1      -8.241   8.254  69.979  1.00  0.00    -0.119 C  
BRANCH  10  11
HETATM   11  C   UNL     1      -8.232   7.541  71.334  1.00  0.00    -0.106 C  
BRANCH  11  12
HETATM   12  C   UNL     1      -8.845   8.452  72.401  1.00  0.00    -0.294 C  
BRANCH  12  13
HETATM   13  C   UNL     1      -9.927   7.745  73.215  1.00  0.00    -0.370 C  
BRANCH  13  14
HETATM   14  C   UNL     1     -11.274   7.671  72.483  1.00  0.00    -0.399 C  
BRANCH  14  15
HETATM   15  C   UNL     1     -11.753   6.258  72.126  1.00  0.00    -0.368 C  
BRANCH  15  16
HETATM   16  C   UNL     1     -10.857   5.158  72.625  1.00  0.00    -0.303 C  
HETATM   17  C   UNL     1     -10.093   4.383  71.839  1.00  0.00    -0.245 C  
BRANCH  17  18
HETATM   18  C   UNL     1     -10.032   4.453  70.341  1.00  0.00    -0.253 C  
BRANCH  18  19
HETATM   19  C   UNL     1      -8.893   3.605  69.779  1.00  0.00    -0.152 C  
BRANCH  19  20
HETATM   20  C   UNL     1      -7.549   4.275  70.062  1.00  0.00    -0.049 C  
BRANCH  20  21
HETATM   21  C   UNL     1      -6.910   4.802  68.781  1.00  0.00    -0.051 C  
BRANCH  21  22
HETATM   22  C   UNL     1      -7.517   4.139  67.548  1.00  0.00    -0.069 C  
BRANCH  22  23
HETATM   23  C   UNL     1      -7.858   5.180  66.486  1.00  0.00    -0.103 C  
BRANCH  23  24
HETATM   24  C   UNL     1      -8.928   6.153  66.973  1.00  0.00    -0.114 C  
HETATM   25  C   UNL     1     -10.313   5.709  66.559  1.00  0.00    -0.232 C  
HETATM   26  O   UNL     1     -11.271   6.557  67.003  1.00  0.00    -0.397 OA 
HETATM   27  O   UNL     1     -10.574   4.714  65.910  1.00  0.00    -0.304 OA 
ENDBRANCH  23  24
ENDBRANCH  22  23
ENDBRANCH  21  22
ENDBRANCH  20  21
ENDBRANCH  19  20
ENDBRANCH  18  19
ENDBRANCH  17  18
ENDBRANCH  15  16
ENDBRANCH  14  15
ENDBRANCH  13  14
ENDBRANCH  12  13
ENDBRANCH  11  12
ENDBRANCH  10  11
ENDBRANCH   6  10
TORSDOF 15
ENDMDL
MODEL      349
REMARK 921   NORMALIZED FREE ENERGY PREDICTED BY IDOCK:   -3.30 KCAL/MOL
REMARK 922        TOTAL FREE ENERGY PREDICTED BY IDOCK:   -8.15 KCAL/MOL
REMARK 923 INTER-LIGAND FREE ENERGY PREDICTED BY IDOCK:   -5.84 KCAL/MOL
REMARK 924 INTRA-LIGAND FREE ENERGY PREDICTED BY IDOCK:   -2.31 KCAL/MOL
REMARK 927      BINDING AFFINITY PREDICTED BY RF-SCORE:    0.00 PKD
ROOT
ATOM      1  N   GLY A   1     -12.445  10.161  71.733  1.00  0.00    -0.393 NA 
HETATM    2  C   UNL     1      -9.836   3.716  71.466  1.00  0.00    -0.227 C  
ATOM      3  H2  GLY A   1     -12.278  10.173  72.739  1.00  0.00     0.000 HD 
ATOM      4  H1  GLY A   1     -11.737  10.689  71.224  1.00  0.00     0.000 HD 
ATOM      5  CA  GLY A   1     -12.534   8.792  71.208  1.00  0.00    -0.260 C  
HETATM    6  C   UNL     1      -8.634   4.227  70.687  1.00  0.00    -0.109 C  
ENDROOT
BRANCH   5   7
ATOM      7  C   GLY A   1     -13.597   8.000  71.972  1.00  0.00    -0.248 C  
ATOM      8  H   GLY A   1     -14.884   8.354  73.407  1.00  0.00     0.000 HD 
ATOM      9  O   GLY A   1     -14.224   8.846  72.933  1.00  0.00    -0.514 OA 
ENDBRANCH   5   7
BRANCH   6  10
HETATM   10  C   UNL     1      -8.911   4.440  69.200  1.00  0.00    -0.132 C  
BRANCH  10  11
HETATM   11  C   UNL     1      -7.723   4.988  68.405  1.00  0.00    -0.079 C  
BRANCH  11  12
HETATM   12  C   UNL     1      -6.552   5.266  69.352  1.00  0.00    -0.047 C  
BRANCH  12  13
HETATM   13  C   UNL     1      -6.266   6.760  69.497  1.00  0.00    -0.034 C  
BRANCH  13  14
HETATM   14  C   UNL     1      -6.947   7.607  68.413  1.00  0.00    -0.072 C  
BRANCH  14  15
HETATM   15  C   UNL     1      -7.895   8.698  68.927  1.00  0.00    -0.104 C  
BRANCH  15  16
HETATM   16  C   UNL     1      -9.152   8.173  69.564  1.00  0.00    -0.151 C  
HETATM   17  C   UNL     1     -10.183   7.641  68.889  1.00  0.00    -0.217 C  
BRANCH  17  18
HETATM   18  C   UNL     1     -10.276   7.518  67.396  1.00  0.00    -0.318 C  
BRANCH  18  19
HETATM   19  C   UNL     1     -10.876   8.769  66.760  1.00  0.00     0.095 C  
BRANCH  19  20
HETATM   20  C   UNL     1      -9.856   9.428  65.831  1.00  0.00    -0.362 C  
BRANCH  20  21
HETATM   21  C   UNL     1     -10.094  10.931  65.722  1.00  0.00    -0.308 C  
BRANCH  21  22
HETATM   22  C   UNL     1      -9.728  11.644  67.021  1.00  0.00    -0.201 C  
BRANCH  22  23
HETATM   23  C   UNL     1     -10.851  12.579  67.460  1.00  0.00    -0.264 C  
BRANCH  23  24
HETATM   24  C   UNL     1     -11.957  12.664  66.413  1.00  0.00    -0.425 C  
HETATM   25  C   UNL     1     -12.138  14.077  65.907  1.00  0.00    -0.428 C  
HETATM   26  O   UNL     1     -13.105  14.158  64.964  1.00  0.00    -0.728 OA 
HETATM   27  O   UNL     1     -11.505  15.048  66.276  1.00  0.00    -0.314 OA 
ENDBRANCH  23  24
ENDBRANCH  22  23
ENDBRANCH  21  22
ENDBRANCH  20  21
ENDBRANCH  19  20
ENDBRANCH  18  19
ENDBRANCH  17  18
ENDBRANCH  15  16
ENDBRANCH  14  15
ENDBRANCH  13  14
ENDBRANCH  12  13
ENDBRANCH  11  12
ENDBRANCH  10  11
ENDBRANCH   6  10
TORSDOF 15
ENDMDL
MODEL      350
REMARK 921   NORMALIZED FREE ENERGY PREDICTED BY IDOCK:   -3.30 KCAL/MOL
REMARK 922        TOTAL FREE ENERGY PREDICTED BY IDOCK:   -8.14 KCAL/MOL
REMARK 923 INTER-LIGAND FREE ENERGY PREDICTED BY IDOCK:   -6.13 KCAL/MOL
REMARK 924 INTRA-LIGAND FREE ENERGY PREDICTED BY IDOCK:   -2.01 KCAL/MOL
REMARK 927      BINDING AFFINITY PREDICTED BY RF-SCORE:    0.00 PKD
ROOT
ATOM      1  N   GLY A   1      -8.733   3.293  65.126  1.00  0.00    -0.113 NA 
HETATM    2  C   UNL     1      -7.501   9.728  62.785  1.00  0.00    -0.122 C  
ATOM      3  H2  GLY A   1      -7.728   3.124  65.153  1.00  0.00     0.000 HD 
ATOM      4  H1  GLY A   1      -9.112   3.483  66.054  1.00  0.00     0.000 HD 
ATOM      5  CA  GLY A   1      -9.083   4.381  64.203  1.00  0.00    -0.149 C  
HETATM    6  C   UNL     1      -8.012  10.310  64.093  1.00  0.00    -0.126 C  
ENDROOT
BRANCH   5   7
ATOM      7  C   GLY A   1      -8.514   4.096  62.810  1.00  0.00    -0.088 C  
ATOM      8  H   GLY A   1      -8.574   2.624  61.518  1.00  0.00     0.000 HD 
ATOM      9  O   GLY A   1      -8.927   2.801  62.382  1.00  0.00    -0.081 OA 
ENDBRANCH   5   7
BRANCH   6  10
HETATM   10  C   UNL     1      -9.536  10.372  64.185  1.00  0.00    -0.381 C  
BRANCH  10  11
HETATM   11  C   UNL     1     -10.172  11.531  63.413  1.00  0.00    -0.462 C  
BRANCH  11  12
HETATM   12  C   UNL     1     -11.491  11.934  64.078  1.00  0.00    -0.480 C  
BRANCH  12  13
HETATM   13  C   UNL     1     -11.850  13.395  63.816  1.00  0.00    -0.483 C  
BRANCH  13  14
HETATM   14  C   UNL     1     -12.302  14.136  65.083  1.00  0.00    -0.460 C  
BRANCH  14  15
HETATM   15  C   UNL     1     -11.368  14.003  66.292  1.00  0.00    -0.336 C  
BRANCH  15  16
HETATM   16  C   UNL     1     -12.050  13.537  67.550  1.00  0.00    -0.340 C  
HETATM   17  C   UNL     1     -11.830  12.352  68.140  1.00  0.00    -0.372 C  
BRANCH  17  18
HETATM   18  C   UNL     1     -10.909  11.282  67.631  1.00  0.00    -0.286 C  
BRANCH  18  19
HETATM   19  C   UNL     1      -9.717  11.070  68.562  1.00  0.00    -0.189 C  
BRANCH  19  20
HETATM   20  C   UNL     1      -8.478  10.687  67.753  1.00  0.00    -0.116 C  
BRANCH  20  21
HETATM   21  C   UNL     1      -8.282   9.175  67.719  1.00  0.00    -0.109 C  
BRANCH  21  22
HETATM   22  C   UNL     1      -8.556   8.552  69.085  1.00  0.00    -0.133 C  
BRANCH  22  23
HETATM   23  C   UNL     1      -9.459   7.329  68.950  1.00  0.00    -0.143 C  
BRANCH  23  24
HETATM   24  C   UNL     1     -10.860   7.600  69.490  1.00  0.00    -0.171 C  
HETATM   25  C   UNL     1     -11.340   6.478  70.382  1.00  0.00    -0.383 C  
HETATM   26  O   UNL     1     -12.575   6.719  70.880  1.00  0.00    -0.336 OA 
HETATM   27  O   UNL     1     -10.717   5.468  70.646  1.00  0.00    -0.269 OA 
ENDBRANCH  23  24
ENDBRANCH  22  23
ENDBRANCH  21  22
ENDBRANCH  20  21
ENDBRANCH  19  20
ENDBRANCH  18  19
ENDBRANCH  17  18
ENDBRANCH  15  16
ENDBRANCH  14  15
ENDBRANCH  13  14
ENDBRANCH  12  13
ENDBRANCH  11  12
ENDBRANCH  10  11
ENDBRANCH   6  10
TORSDOF 15
ENDMDL
MODEL      351
REMARK 921   NORMALIZED FREE ENERGY PREDICTED BY IDOCK:   -3.30 KCAL/MOL
REMARK 922        TOTAL FREE ENERGY PREDICTED BY IDOCK:   -8.14 KCAL/MOL
REMARK 923 INTER-LIGAND FREE ENERGY PREDICTED BY IDOCK:   -5.92 KCAL/MOL
REMARK 924 INTRA-LIGAND FREE ENERGY PREDICTED BY IDOCK:   -2.21 KCAL/MOL
REMARK 927      BINDING AFFINITY PREDICTED BY RF-SCORE:    0.00 PKD
ROOT
ATOM      1  N   GLY A   1      -9.931   9.795  64.837  1.00  0.00    -0.394 NA 
HETATM    2  C   UNL     1      -6.358   9.272  70.785  1.00  0.00    -0.074 C  
ATOM      3  H2  GLY A   1      -9.274  10.508  64.520  1.00  0.00     0.000 HD 
ATOM      4  H1  GLY A   1      -9.746   8.889  64.408  1.00  0.00     0.000 HD 
ATOM      5  CA  GLY A   1      -9.942   9.671  66.301  1.00  0.00    -0.264 C  
HETATM    6  C   UNL     1      -5.906   7.873  70.398  1.00  0.00    -0.029 C  
ENDROOT
BRANCH   5   7
ATOM      7  C   GLY A   1     -10.220  11.032  66.945  1.00  0.00    -0.222 C  
ATOM      8  H   GLY A   1     -11.787  12.002  67.611  1.00  0.00     0.000 HD 
ATOM      9  O   GLY A   1     -11.615  11.158  67.211  1.00  0.00    -0.514 OA 
ENDBRANCH   5   7
BRANCH   6  10
HETATM   10  C   UNL     1      -6.959   6.794  70.651  1.00  0.00    -0.063 C  
BRANCH  10  11
HETATM   11  C   UNL     1      -6.729   5.968  71.919  1.00  0.00    -0.064 C  
BRANCH  11  12
HETATM   12  C   UNL     1      -7.344   6.686  73.123  1.00  0.00    -0.084 C  
BRANCH  12  13
HETATM   13  C   UNL     1      -8.870   6.741  73.049  1.00  0.00    -0.141 C  
BRANCH  13  14
HETATM   14  C   UNL     1      -9.424   8.167  73.167  1.00  0.00    -0.316 C  
BRANCH  14  15
HETATM   15  C   UNL     1      -9.981   8.767  71.870  1.00  0.00    -0.401 C  
BRANCH  15  16
HETATM   16  C   UNL     1     -11.427   9.173  71.949  1.00  0.00    -0.423 C  
HETATM   17  C   UNL     1     -12.463   8.331  71.809  1.00  0.00    -0.367 C  
BRANCH  17  18
HETATM   18  C   UNL     1     -12.359   6.864  71.513  1.00  0.00    -0.420 C  
BRANCH  18  19
HETATM   19  C   UNL     1     -11.834   6.605  70.103  1.00  0.00    -0.347 C  
BRANCH  19  20
HETATM   20  C   UNL     1     -10.728   5.551  70.138  1.00  0.00    -0.348 C  
BRANCH  20  21
HETATM   21  C   UNL     1     -10.005   5.459  68.797  1.00  0.00    -0.235 C  
BRANCH  21  22
HETATM   22  C   UNL     1     -10.804   6.143  67.692  1.00  0.00    -0.421 C  
BRANCH  22  23
HETATM   23  C   UNL     1     -10.105   5.988  66.343  1.00  0.00    -0.142 C  
BRANCH  23  24
HETATM   24  C   UNL     1     -10.489   4.680  65.657  1.00  0.00    -0.260 C  
HETATM   25  C   UNL     1      -9.270   3.857  65.307  1.00  0.00    -0.150 C  
HETATM   26  O   UNL     1      -9.601   2.686  64.715  1.00  0.00    -0.142 OA 
HETATM   27  O   UNL     1      -8.115   4.175  65.522  1.00  0.00    -0.100 OA 
ENDBRANCH  23  24
ENDBRANCH  22  23
ENDBRANCH  21  22
ENDBRANCH  20  21
ENDBRANCH  19  20
ENDBRANCH  18  19
ENDBRANCH  17  18
ENDBRANCH  15  16
ENDBRANCH  14  15
ENDBRANCH  13  14
ENDBRANCH  12  13
ENDBRANCH  11  12
ENDBRANCH  10  11
ENDBRANCH   6  10
TORSDOF 15
ENDMDL
MODEL      352
REMARK 921   NORMALIZED FREE ENERGY PREDICTED BY IDOCK:   -3.29 KCAL/MOL
REMARK 922        TOTAL FREE ENERGY PREDICTED BY IDOCK:   -8.12 KCAL/MOL
REMARK 923 INTER-LIGAND FREE ENERGY PREDICTED BY IDOCK:   -6.61 KCAL/MOL
REMARK 924 INTRA-LIGAND FREE ENERGY PREDICTED BY IDOCK:   -1.51 KCAL/MOL
REMARK 927      BINDING AFFINITY PREDICTED BY RF-SCORE:    0.00 PKD
ROOT
ATOM      1  N   GLY A   1      -5.954   7.602  72.056  1.00  0.00    -0.036 NA 
HETATM    2  C   UNL     1     -12.475   9.680  70.806  1.00  0.00    -0.246 C  
ATOM      3  H2  GLY A   1      -5.750   8.521  72.449  1.00  0.00     0.000 HD 
ATOM      4  H1  GLY A   1      -6.099   6.901  72.782  1.00  0.00     0.000 HD 
ATOM      5  CA  GLY A   1      -7.107   7.638  71.147  1.00  0.00    -0.054 C  
HETATM    6  C   UNL     1     -12.993   8.715  71.861  1.00  0.00    -0.409 C  
ENDROOT
BRANCH   5   7
ATOM      7  C   GLY A   1      -6.889   8.690  70.056  1.00  0.00    -0.042 C  
ATOM      8  H   GLY A   1      -5.590  10.109  69.682  1.00  0.00     0.000 HD 
ATOM      9  O   GLY A   1      -5.725   9.456  70.358  1.00  0.00    -0.033 OA 
ENDBRANCH   5   7
BRANCH   6  10
HETATM   10  C   UNL     1     -13.100   7.270  71.373  1.00  0.00    -0.412 C  
BRANCH  10  11
HETATM   11  C   UNL     1     -11.983   6.349  71.870  1.00  0.00    -0.381 C  
BRANCH  11  12
HETATM   12  C   UNL     1     -10.823   6.357  70.871  1.00  0.00    -0.316 C  
BRANCH  12  13
HETATM   13  C   UNL     1     -11.305   6.409  69.422  1.00  0.00    -0.443 C  
BRANCH  13  14
HETATM   14  C   UNL     1     -10.234   6.930  68.454  1.00  0.00    -0.191 C  
BRANCH  14  15
HETATM   15  C   UNL     1     -10.667   8.100  67.560  1.00  0.00    -0.227 C  
BRANCH  15  16
HETATM   16  C   UNL     1      -9.565   8.666  66.707  1.00  0.00    -0.269 C  
HETATM   17  C   UNL     1      -9.428   9.966  66.405  1.00  0.00    -0.234 C  
BRANCH  17  18
HETATM   18  C   UNL     1     -10.364  11.062  66.826  1.00  0.00    -0.284 C  
BRANCH  18  19
HETATM   19  C   UNL     1      -9.661  12.416  66.887  1.00  0.00    -0.219 C  
BRANCH  19  20
HETATM   20  C   UNL     1     -10.664  13.514  67.238  1.00  0.00    -0.272 C  
BRANCH  20  21
HETATM   21  C   UNL     1     -10.802  13.678  68.748  1.00  0.00    -0.279 C  
BRANCH  21  22
HETATM   22  C   UNL     1     -12.224  13.371  69.209  1.00  0.00    -0.222 C  
BRANCH  22  23
HETATM   23  C   UNL     1     -12.240  12.962  70.680  1.00  0.00    -0.386 C  
BRANCH  23  24
HETATM   24  C   UNL     1     -13.326  13.698  71.458  1.00  0.00    -0.372 C  
HETATM   25  C   UNL     1     -12.764  14.881  72.214  1.00  0.00    -0.332 C  
HETATM   26  O   UNL     1     -13.724  15.552  72.893  1.00  0.00    -0.523 OA 
HETATM   27  O   UNL     1     -11.597  15.221  72.229  1.00  0.00    -0.429 OA 
ENDBRANCH  23  24
ENDBRANCH  22  23
ENDBRANCH  21  22
ENDBRANCH  20  21
ENDBRANCH  19  20
ENDBRANCH  18  19
ENDBRANCH  17  18
ENDBRANCH  15  16
ENDBRANCH  14  15
ENDBRANCH  13  14
ENDBRANCH  12  13
ENDBRANCH  11  12
ENDBRANCH  10  11
ENDBRANCH   6  10
TORSDOF 15
ENDMDL
MODEL      353
REMARK 921   NORMALIZED FREE ENERGY PREDICTED BY IDOCK:   -3.27 KCAL/MOL
REMARK 922        TOTAL FREE ENERGY PREDICTED BY IDOCK:   -8.09 KCAL/MOL
REMARK 923 INTER-LIGAND FREE ENERGY PREDICTED BY IDOCK:   -6.46 KCAL/MOL
REMARK 924 INTRA-LIGAND FREE ENERGY PREDICTED BY IDOCK:   -1.63 KCAL/MOL
REMARK 927      BINDING AFFINITY PREDICTED BY RF-SCORE:    0.00 PKD
ROOT
ATOM      1  N   GLY A   1      -8.728   9.597  66.130  1.00  0.00    -0.134 NA 
HETATM    2  C   UNL     1      -5.992  15.620  68.285  1.00  0.00    -0.117 C  
ATOM      3  H2  GLY A   1      -8.501   9.185  67.034  1.00  0.00     0.000 HD 
ATOM      4  H1  GLY A   1      -9.717   9.836  66.058  1.00  0.00     0.000 HD 
ATOM      5  CA  GLY A   1      -7.899  10.774  65.839  1.00  0.00    -0.131 C  
HETATM    6  C   UNL     1      -7.373  16.257  68.285  1.00  0.00    -0.146 C  
ENDROOT
BRANCH   5   7
ATOM      7  C   GLY A   1      -6.414  10.415  65.946  1.00  0.00    -0.123 C  
ATOM      8  H   GLY A   1      -4.886  10.973  67.039  1.00  0.00     0.000 HD 
ATOM      9  O   GLY A   1      -5.807  11.196  66.972  1.00  0.00    -0.057 OA 
ENDBRANCH   5   7
BRANCH   6  10
HETATM   10  C   UNL     1      -7.850  16.688  66.898  1.00  0.00    -0.261 C  
BRANCH  10  11
HETATM   11  C   UNL     1      -8.443  18.098  66.841  1.00  0.00    -0.265 C  
BRANCH  11  12
HETATM   12  C   UNL     1      -9.846  18.045  66.233  1.00  0.00    -0.310 C  
BRANCH  12  13
HETATM   13  C   UNL     1     -10.461  16.649  66.314  1.00  0.00    -0.272 C  
BRANCH  13  14
HETATM   14  C   UNL     1     -10.825  16.074  64.938  1.00  0.00    -0.391 C  
BRANCH  14  15
HETATM   15  C   UNL     1     -10.424  14.612  64.707  1.00  0.00    -0.343 C  
BRANCH  15  16
HETATM   16  C   UNL     1     -11.585  13.677  64.506  1.00  0.00    -0.415 C  
HETATM   17  C   UNL     1     -12.377  13.224  65.490  1.00  0.00    -0.533 C  
BRANCH  17  18
HETATM   18  C   UNL     1     -12.217  13.536  66.950  1.00  0.00    -0.377 C  
BRANCH  18  19
HETATM   19  C   UNL     1     -11.314  12.523  67.650  1.00  0.00    -0.362 C  
BRANCH  19  20
HETATM   20  C   UNL     1     -11.721  12.381  69.117  1.00  0.00    -0.376 C  
BRANCH  20  21
HETATM   21  C   UNL     1     -12.205  10.967  69.425  1.00  0.00    -0.329 C  
BRANCH  21  22
HETATM   22  C   UNL     1     -11.755  10.520  70.813  1.00  0.00    -0.454 C  
BRANCH  22  23
HETATM   23  C   UNL     1     -10.551   9.587  70.717  1.00  0.00    -0.387 C  
BRANCH  23  24
HETATM   24  C   UNL     1     -10.376   9.034  69.306  1.00  0.00    -0.227 C  
HETATM   25  C   UNL     1      -9.582   7.748  69.307  1.00  0.00    -0.159 C  
HETATM   26  O   UNL     1      -9.438   7.239  68.061  1.00  0.00    -0.136 OA 
HETATM   27  O   UNL     1      -9.118   7.202  70.290  1.00  0.00    -0.155 OA 
ENDBRANCH  23  24
ENDBRANCH  22  23
ENDBRANCH  21  22
ENDBRANCH  20  21
ENDBRANCH  19  20
ENDBRANCH  18  19
ENDBRANCH  17  18
ENDBRANCH  15  16
ENDBRANCH  14  15
ENDBRANCH  13  14
ENDBRANCH  12  13
ENDBRANCH  11  12
ENDBRANCH  10  11
ENDBRANCH   6  10
TORSDOF 15
ENDMDL
MODEL      354
REMARK 921   NORMALIZED FREE ENERGY PREDICTED BY IDOCK:   -3.27 KCAL/MOL
REMARK 922        TOTAL FREE ENERGY PREDICTED BY IDOCK:   -8.08 KCAL/MOL
REMARK 923 INTER-LIGAND FREE ENERGY PREDICTED BY IDOCK:   -5.56 KCAL/MOL
REMARK 924 INTRA-LIGAND FREE ENERGY PREDICTED BY IDOCK:   -2.52 KCAL/MOL
REMARK 927      BINDING AFFINITY PREDICTED BY RF-SCORE:    0.00 PKD
ROOT
ATOM      1  N   GLY A   1      -9.930   9.486  64.997  1.00  0.00    -0.355 NA 
HETATM    2  C   UNL     1      -6.491   9.424  71.045  1.00  0.00    -0.086 C  
ATOM      3  H2  GLY A   1      -9.370  10.285  64.701  1.00  0.00     0.000 HD 
ATOM      4  H1  GLY A   1      -9.609   8.617  64.571  1.00  0.00     0.000 HD 
ATOM      5  CA  GLY A   1      -9.966   9.352  66.460  1.00  0.00    -0.269 C  
HETATM    6  C   UNL     1      -5.837   8.104  70.669  1.00  0.00    -0.032 C  
ENDROOT
BRANCH   5   7
ATOM      7  C   GLY A   1     -10.448  10.657  67.099  1.00  0.00    -0.245 C  
ATOM      8  H   GLY A   1     -11.833  11.192  68.378  1.00  0.00     0.000 HD 
ATOM      9  O   GLY A   1     -11.534  10.383  67.981  1.00  0.00    -0.356 OA 
ENDBRANCH   5   7
BRANCH   6  10
HETATM   10  C   UNL     1      -6.737   6.888  70.888  1.00  0.00    -0.054 C  
BRANCH  10  11
HETATM   11  C   UNL     1      -6.346   6.016  72.083  1.00  0.00    -0.049 C  
BRANCH  11  12
HETATM   12  C   UNL     1      -6.960   6.588  73.364  1.00  0.00    -0.077 C  
BRANCH  12  13
HETATM   13  C   UNL     1      -8.481   6.443  73.392  1.00  0.00    -0.123 C  
BRANCH  13  14
HETATM   14  C   UNL     1      -9.204   7.780  73.602  1.00  0.00    -0.344 C  
BRANCH  14  15
HETATM   15  C   UNL     1      -9.879   8.367  72.355  1.00  0.00    -0.378 C  
BRANCH  15  16
HETATM   16  C   UNL     1     -11.382   8.377  72.413  1.00  0.00    -0.448 C  
HETATM   17  C   UNL     1     -12.169   7.424  71.891  1.00  0.00    -0.344 C  
BRANCH  17  18
HETATM   18  C   UNL     1     -11.694   6.219  71.133  1.00  0.00    -0.292 C  
BRANCH  18  19
HETATM   19  C   UNL     1     -11.474   6.529  69.654  1.00  0.00    -0.417 C  
BRANCH  19  20
HETATM   20  C   UNL     1     -10.444   5.568  69.062  1.00  0.00    -0.296 C  
BRANCH  20  21
HETATM   21  C   UNL     1      -9.515   5.015  70.140  1.00  0.00    -0.234 C  
BRANCH  21  22
HETATM   22  C   UNL     1      -9.633   3.497  70.244  1.00  0.00    -0.232 C  
BRANCH  22  23
HETATM   23  C   UNL     1      -9.075   3.002  71.576  1.00  0.00    -0.169 C  
BRANCH  23  24
HETATM   24  C   UNL     1      -9.962   1.925  72.194  1.00  0.00    -0.216 C  
HETATM   25  C   UNL     1     -10.836   2.487  73.291  1.00  0.00    -0.175 C  
HETATM   26  O   UNL     1     -11.641   1.543  73.833  1.00  0.00    -0.169 OA 
HETATM   27  O   UNL     1     -10.847   3.644  73.665  1.00  0.00    -0.200 OA 
ENDBRANCH  23  24
ENDBRANCH  22  23
ENDBRANCH  21  22
ENDBRANCH  20  21
ENDBRANCH  19  20
ENDBRANCH  18  19
ENDBRANCH  17  18
ENDBRANCH  15  16
ENDBRANCH  14  15
ENDBRANCH  13  14
ENDBRANCH  12  13
ENDBRANCH  11  12
ENDBRANCH  10  11
ENDBRANCH   6  10
TORSDOF 15
ENDMDL
MODEL      355
REMARK 921   NORMALIZED FREE ENERGY PREDICTED BY IDOCK:   -3.26 KCAL/MOL
REMARK 922        TOTAL FREE ENERGY PREDICTED BY IDOCK:   -8.07 KCAL/MOL
REMARK 923 INTER-LIGAND FREE ENERGY PREDICTED BY IDOCK:   -6.23 KCAL/MOL
REMARK 924 INTRA-LIGAND FREE ENERGY PREDICTED BY IDOCK:   -1.84 KCAL/MOL
REMARK 927      BINDING AFFINITY PREDICTED BY RF-SCORE:    0.00 PKD
ROOT
ATOM      1  N   GLY A   1      -5.851   9.182  66.995  1.00  0.00    -0.045 NA 
HETATM    2  C   UNL     1     -11.002  12.254  63.468  1.00  0.00    -0.521 C  
ATOM      3  H2  GLY A   1      -5.196   9.479  66.272  1.00  0.00     0.000 HD 
ATOM      4  H1  GLY A   1      -5.793   9.771  67.826  1.00  0.00     0.000 HD 
ATOM      5  CA  GLY A   1      -7.233   9.137  66.499  1.00  0.00    -0.085 C  
HETATM    6  C   UNL     1     -11.144  13.296  64.567  1.00  0.00    -0.392 C  
ENDROOT
BRANCH   5   7
ATOM      7  C   GLY A   1      -7.319   8.254  65.251  1.00  0.00    -0.081 C  
ATOM      8  H   GLY A   1      -6.314   8.039  63.583  1.00  0.00     0.000 HD 
ATOM      9  O   GLY A   1      -6.261   8.587  64.356  1.00  0.00    -0.065 OA 
ENDBRANCH   5   7
BRANCH   6  10
HETATM   10  C   UNL     1     -11.935  12.807  65.779  1.00  0.00    -0.502 C  
BRANCH  10  11
HETATM   11  C   UNL     1     -11.579  13.506  67.094  1.00  0.00    -0.393 C  
BRANCH  11  12
HETATM   12  C   UNL     1     -10.462  12.735  67.802  1.00  0.00    -0.228 C  
BRANCH  12  13
HETATM   13  C   UNL     1     -10.985  11.889  68.962  1.00  0.00    -0.267 C  
BRANCH  13  14
HETATM   14  C   UNL     1     -11.363  10.463  68.538  1.00  0.00    -0.283 C  
BRANCH  14  15
HETATM   15  C   UNL     1     -10.264   9.408  68.723  1.00  0.00    -0.221 C  
BRANCH  15  16
HETATM   16  C   UNL     1      -9.127   9.848  69.605  1.00  0.00    -0.245 C  
HETATM   17  C   UNL     1      -8.855   9.328  70.812  1.00  0.00    -0.282 C  
BRANCH  17  18
HETATM   18  C   UNL     1      -9.653   8.260  71.500  1.00  0.00    -0.247 C  
BRANCH  18  19
HETATM   19  C   UNL     1     -11.010   8.779  71.970  1.00  0.00    -0.438 C  
BRANCH  19  20
HETATM   20  C   UNL     1     -12.135   7.969  71.327  1.00  0.00    -0.314 C  
BRANCH  20  21
HETATM   21  C   UNL     1     -11.788   6.484  71.269  1.00  0.00    -0.385 C  
BRANCH  21  22
HETATM   22  C   UNL     1     -11.384   6.067  69.857  1.00  0.00    -0.355 C  
BRANCH  22  23
HETATM   23  C   UNL     1     -10.191   5.116  69.895  1.00  0.00    -0.361 C  
BRANCH  23  24
HETATM   24  C   UNL     1      -9.596   4.903  68.506  1.00  0.00    -0.210 C  
HETATM   25  C   UNL     1      -8.362   5.750  68.294  1.00  0.00    -0.107 C  
HETATM   26  O   UNL     1      -7.816   5.554  67.071  1.00  0.00    -0.099 OA 
HETATM   27  O   UNL     1      -7.885   6.523  69.103  1.00  0.00    -0.106 OA 
ENDBRANCH  23  24
ENDBRANCH  22  23
ENDBRANCH  21  22
ENDBRANCH  20  21
ENDBRANCH  19  20
ENDBRANCH  18  19
ENDBRANCH  17  18
ENDBRANCH  15  16
ENDBRANCH  14  15
ENDBRANCH  13  14
ENDBRANCH  12  13
ENDBRANCH  11  12
ENDBRANCH  10  11
ENDBRANCH   6  10
TORSDOF 15
ENDMDL
MODEL      356
REMARK 921   NORMALIZED FREE ENERGY PREDICTED BY IDOCK:   -3.25 KCAL/MOL
REMARK 922        TOTAL FREE ENERGY PREDICTED BY IDOCK:   -8.05 KCAL/MOL
REMARK 923 INTER-LIGAND FREE ENERGY PREDICTED BY IDOCK:   -6.31 KCAL/MOL
REMARK 924 INTRA-LIGAND FREE ENERGY PREDICTED BY IDOCK:   -1.75 KCAL/MOL
REMARK 927      BINDING AFFINITY PREDICTED BY RF-SCORE:    0.00 PKD
ROOT
ATOM      1  N   GLY A   1      -6.060  10.006  71.607  1.00  0.00    -0.303 NA 
HETATM    2  C   UNL     1     -10.485  14.822  69.234  1.00  0.00    -0.231 C  
ATOM      3  H2  GLY A   1      -5.859  10.604  72.408  1.00  0.00     0.000 HD 
ATOM      4  H1  GLY A   1      -6.696   9.246  71.850  1.00  0.00     0.000 HD 
ATOM      5  CA  GLY A   1      -6.591  10.770  70.471  1.00  0.00     0.093 C  
HETATM    6  C   UNL     1     -11.656  13.890  69.503  1.00  0.00    -0.358 C  
ENDROOT
BRANCH   5   7
ATOM      7  C   GLY A   1      -5.636  11.910  70.107  1.00  0.00    -0.133 C  
ATOM      8  H   GLY A   1      -5.090  13.620  70.895  1.00  0.00     0.000 HD 
ATOM      9  O   GLY A   1      -5.682  12.912  71.120  1.00  0.00    -0.321 OA 
ENDBRANCH   5   7
BRANCH   6  10
HETATM   10  C   UNL     1     -11.854  12.824  68.426  1.00  0.00    -0.353 C  
BRANCH  10  11
HETATM   11  C   UNL     1     -11.959  13.375  67.001  1.00  0.00    -0.429 C  
BRANCH  11  12
HETATM   12  C   UNL     1     -10.690  13.027  66.218  1.00  0.00    -0.290 C  
BRANCH  12  13
HETATM   13  C   UNL     1     -10.851  11.754  65.387  1.00  0.00    -0.347 C  
BRANCH  13  14
HETATM   14  C   UNL     1     -10.874  10.480  66.243  1.00  0.00    -0.063 C  
BRANCH  14  15
HETATM   15  C   UNL     1      -9.621  10.235  67.093  1.00  0.00    -0.199 C  
BRANCH  15  16
HETATM   16  C   UNL     1      -8.943   8.919  66.828  1.00  0.00    -0.155 C  
HETATM   17  C   UNL     1      -9.359   7.738  67.311  1.00  0.00    -0.175 C  
BRANCH  17  18
HETATM   18  C   UNL     1     -10.535   7.534  68.221  1.00  0.00    -0.223 C  
BRANCH  18  19
HETATM   19  C   UNL     1     -10.673   6.075  68.651  1.00  0.00    -0.363 C  
BRANCH  19  20
HETATM   20  C   UNL     1      -9.684   5.762  69.774  1.00  0.00    -0.210 C  
BRANCH  20  21
HETATM   21  C   UNL     1     -10.077   6.461  71.071  1.00  0.00    -0.212 C  
BRANCH  21  22
HETATM   22  C   UNL     1      -9.086   7.568  71.424  1.00  0.00    -0.145 C  
BRANCH  22  23
HETATM   23  C   UNL     1      -9.788   8.709  72.156  1.00  0.00    -0.387 C  
BRANCH  23  24
HETATM   24  C   UNL     1     -10.595   9.581  71.200  1.00  0.00    -0.388 C  
HETATM   25  C   UNL     1     -12.076   9.505  71.494  1.00  0.00    -0.389 C  
HETATM   26  O   UNL     1     -12.799  10.291  70.662  1.00  0.00    -0.336 OA 
HETATM   27  O   UNL     1     -12.591   8.835  72.368  1.00  0.00    -0.385 OA 
ENDBRANCH  23  24
ENDBRANCH  22  23
ENDBRANCH  21  22
ENDBRANCH  20  21
ENDBRANCH  19  20
ENDBRANCH  18  19
ENDBRANCH  17  18
ENDBRANCH  15  16
ENDBRANCH  14  15
ENDBRANCH  13  14
ENDBRANCH  12  13
ENDBRANCH  11  12
ENDBRANCH  10  11
ENDBRANCH   6  10
TORSDOF 15
ENDMDL
MODEL      357
REMARK 921   NORMALIZED FREE ENERGY PREDICTED BY IDOCK:   -3.25 KCAL/MOL
REMARK 922        TOTAL FREE ENERGY PREDICTED BY IDOCK:   -8.04 KCAL/MOL
REMARK 923 INTER-LIGAND FREE ENERGY PREDICTED BY IDOCK:   -6.42 KCAL/MOL
REMARK 924 INTRA-LIGAND FREE ENERGY PREDICTED BY IDOCK:   -1.62 KCAL/MOL
REMARK 927      BINDING AFFINITY PREDICTED BY RF-SCORE:    0.00 PKD
ROOT
ATOM      1  N   GLY A   1      -5.683   3.425  64.151  1.00  0.00    -0.013 NA 
HETATM    2  C   UNL     1      -7.274   6.453  70.210  1.00  0.00    -0.080 C  
ATOM      3  H2  GLY A   1      -4.697   3.604  64.336  1.00  0.00     0.000 HD 
ATOM      4  H1  GLY A   1      -5.935   2.454  64.337  1.00  0.00     0.000 HD 
ATOM      5  CA  GLY A   1      -6.557   4.329  64.911  1.00  0.00    -0.044 C  
HETATM    6  C   UNL     1      -7.720   5.112  70.772  1.00  0.00    -0.080 C  
ENDROOT
BRANCH   5   7
ATOM      7  C   GLY A   1      -6.179   5.787  64.633  1.00  0.00    -0.026 C  
ATOM      8  H   GLY A   1      -7.028   7.543  64.829  1.00  0.00     0.000 HD 
ATOM      9  O   GLY A   1      -7.262   6.639  65.001  1.00  0.00    -0.067 OA 
ENDBRANCH   5   7
BRANCH   6  10
HETATM   10  C   UNL     1      -9.123   4.697  70.331  1.00  0.00    -0.167 C  
BRANCH  10  11
HETATM   11  C   UNL     1      -9.542   5.234  68.960  1.00  0.00    -0.199 C  
BRANCH  11  12
HETATM   12  C   UNL     1     -10.920   5.895  69.063  1.00  0.00    -0.359 C  
BRANCH  12  13
HETATM   13  C   UNL     1     -10.825   7.390  69.365  1.00  0.00    -0.184 C  
BRANCH  13  14
HETATM   14  C   UNL     1     -10.707   7.691  70.866  1.00  0.00    -0.243 C  
BRANCH  14  15
HETATM   15  C   UNL     1     -11.911   7.273  71.718  1.00  0.00    -0.342 C  
BRANCH  15  16
HETATM   16  C   UNL     1     -13.230   7.802  71.224  1.00  0.00    -0.240 C  
HETATM   17  C   UNL     1     -13.661   9.061  71.404  1.00  0.00    -0.331 C  
BRANCH  17  18
HETATM   18  C   UNL     1     -12.928  10.133  72.155  1.00  0.00    -0.436 C  
BRANCH  18  19
HETATM   19  C   UNL     1     -12.847  11.432  71.356  1.00  0.00    -0.502 C  
BRANCH  19  20
HETATM   20  C   UNL     1     -11.677  11.374  70.375  1.00  0.00    -0.362 C  
BRANCH  20  21
HETATM   21  C   UNL     1     -12.137  11.638  68.945  1.00  0.00    -0.253 C  
BRANCH  21  22
HETATM   22  C   UNL     1     -11.064  12.375  68.147  1.00  0.00    -0.288 C  
BRANCH  22  23
HETATM   23  C   UNL     1     -10.987  11.838  66.720  1.00  0.00    -0.336 C  
BRANCH  23  24
HETATM   24  C   UNL     1     -12.024  12.495  65.814  1.00  0.00    -0.482 C  
HETATM   25  C   UNL     1     -11.376  13.409  64.798  1.00  0.00    -0.337 C  
HETATM   26  O   UNL     1     -12.287  13.982  63.977  1.00  0.00    -0.646 OA 
HETATM   27  O   UNL     1     -10.183  13.623  64.698  1.00  0.00    -0.404 OA 
ENDBRANCH  23  24
ENDBRANCH  22  23
ENDBRANCH  21  22
ENDBRANCH  20  21
ENDBRANCH  19  20
ENDBRANCH  18  19
ENDBRANCH  17  18
ENDBRANCH  15  16
ENDBRANCH  14  15
ENDBRANCH  13  14
ENDBRANCH  12  13
ENDBRANCH  11  12
ENDBRANCH  10  11
ENDBRANCH   6  10
TORSDOF 15
ENDMDL
MODEL      358
REMARK 921   NORMALIZED FREE ENERGY PREDICTED BY IDOCK:   -3.25 KCAL/MOL
REMARK 922        TOTAL FREE ENERGY PREDICTED BY IDOCK:   -8.04 KCAL/MOL
REMARK 923 INTER-LIGAND FREE ENERGY PREDICTED BY IDOCK:   -7.22 KCAL/MOL
REMARK 924 INTRA-LIGAND FREE ENERGY PREDICTED BY IDOCK:   -0.82 KCAL/MOL
REMARK 927      BINDING AFFINITY PREDICTED BY RF-SCORE:    0.00 PKD
ROOT
ATOM      1  N   GLY A   1      -8.230  16.220  67.738  1.00  0.00    -0.148 NA 
HETATM    2  C   UNL     1     -12.511  12.163  71.429  1.00  0.00    -0.222 C  
ATOM      3  H2  GLY A   1      -8.452  15.674  66.906  1.00  0.00     0.000 HD 
ATOM      4  H1  GLY A   1      -8.728  17.109  67.754  1.00  0.00     0.000 HD 
ATOM      5  CA  GLY A   1      -8.493  15.468  68.973  1.00  0.00    -0.229 C  
HETATM    6  C   UNL     1     -13.469  13.329  71.614  1.00  0.00    -0.350 C  
ENDROOT
BRANCH   5   7
ATOM      7  C   GLY A   1      -7.745  14.132  68.948  1.00  0.00    -0.091 C  
ATOM      8  H   GLY A   1      -7.934  12.408  68.035  1.00  0.00     0.000 HD 
ATOM      9  O   GLY A   1      -8.398  13.237  68.051  1.00  0.00    -0.142 OA 
ENDBRANCH   5   7
BRANCH   6  10
HETATM   10  C   UNL     1     -13.047  14.302  72.714  1.00  0.00    -0.589 C  
BRANCH  10  11
HETATM   11  C   UNL     1     -11.702  14.991  72.470  1.00  0.00    -0.398 C  
BRANCH  11  12
HETATM   12  C   UNL     1     -11.863  16.077  71.403  1.00  0.00    -0.531 C  
BRANCH  12  13
HETATM   13  C   UNL     1     -12.638  15.582  70.184  1.00  0.00    -0.304 C  
BRANCH  13  14
HETATM   14  C   UNL     1     -11.747  15.378  68.951  1.00  0.00    -0.377 C  
BRANCH  14  15
HETATM   15  C   UNL     1     -11.878  14.015  68.260  1.00  0.00    -0.406 C  
BRANCH  15  16
HETATM   16  C   UNL     1     -11.864  14.080  66.757  1.00  0.00    -0.450 C  
HETATM   17  C   UNL     1     -11.500  13.067  65.955  1.00  0.00    -0.374 C  
BRANCH  17  18
HETATM   18  C   UNL     1     -11.011  11.725  66.414  1.00  0.00    -0.341 C  
BRANCH  18  19
HETATM   19  C   UNL     1     -10.192  11.020  65.336  1.00  0.00    -0.333 C  
BRANCH  19  20
HETATM   20  C   UNL     1      -9.011  10.284  65.969  1.00  0.00    -0.173 C  
BRANCH  20  21
HETATM   21  C   UNL     1      -9.205   8.772  65.914  1.00  0.00    -0.282 C  
BRANCH  21  22
HETATM   22  C   UNL     1     -10.231   8.309  66.944  1.00  0.00    -0.388 C  
BRANCH  22  23
HETATM   23  C   UNL     1      -9.753   8.617  68.361  1.00  0.00    -0.176 C  
BRANCH  23  24
HETATM   24  C   UNL     1     -10.623   7.933  69.411  1.00  0.00    -0.209 C  
HETATM   25  C   UNL     1     -10.381   8.502  70.791  1.00  0.00    -0.198 C  
HETATM   26  O   UNL     1     -11.162   7.914  71.726  1.00  0.00    -0.245 OA 
HETATM   27  O   UNL     1      -9.591   9.386  71.064  1.00  0.00    -0.268 OA 
ENDBRANCH  23  24
ENDBRANCH  22  23
ENDBRANCH  21  22
ENDBRANCH  20  21
ENDBRANCH  19  20
ENDBRANCH  18  19
ENDBRANCH  17  18
ENDBRANCH  15  16
ENDBRANCH  14  15
ENDBRANCH  13  14
ENDBRANCH  12  13
ENDBRANCH  11  12
ENDBRANCH  10  11
ENDBRANCH   6  10
TORSDOF 15
ENDMDL
MODEL      359
REMARK 921   NORMALIZED FREE ENERGY PREDICTED BY IDOCK:   -3.24 KCAL/MOL
REMARK 922        TOTAL FREE ENERGY PREDICTED BY IDOCK:   -8.02 KCAL/MOL
REMARK 923 INTER-LIGAND FREE ENERGY PREDICTED BY IDOCK:   -6.52 KCAL/MOL
REMARK 924 INTRA-LIGAND FREE ENERGY PREDICTED BY IDOCK:   -1.50 KCAL/MOL
REMARK 927      BINDING AFFINITY PREDICTED BY RF-SCORE:    0.00 PKD
ROOT
ATOM      1  N   GLY A   1      -5.162  12.870  69.972  1.00  0.00    -0.089 NA 
HETATM    2  C   UNL     1     -11.116  10.482  67.278  1.00  0.00    -0.284 C  
ATOM      3  H2  GLY A   1      -4.728  12.790  69.053  1.00  0.00     0.000 HD 
ATOM      4  H1  GLY A   1      -5.410  13.834  70.193  1.00  0.00     0.000 HD 
ATOM      5  CA  GLY A   1      -6.338  12.000  70.103  1.00  0.00     0.008 C  
HETATM    6  C   UNL     1     -11.763  11.843  67.482  1.00  0.00    -0.335 C  
ENDROOT
BRANCH   5   7
ATOM      7  C   GLY A   1      -5.965  10.553  69.771  1.00  0.00    -0.057 C  
ATOM      8  H   GLY A   1      -6.889   8.827  69.678  1.00  0.00     0.000 HD 
ATOM      9  O   GLY A   1      -7.120   9.725  69.884  1.00  0.00    -0.076 OA 
ENDBRANCH   5   7
BRANCH   6  10
HETATM   10  C   UNL     1     -12.227  12.094  68.916  1.00  0.00    -0.025 C  
BRANCH  10  11
HETATM   11  C   UNL     1     -11.687  11.095  69.942  1.00  0.00    -0.433 C  
BRANCH  11  12
HETATM   12  C   UNL     1     -12.296  11.385  71.317  1.00  0.00    -0.344 C  
BRANCH  12  13
HETATM   13  C   UNL     1     -13.408  12.430  71.250  1.00  0.00     0.098 C  
BRANCH  13  14
HETATM   14  C   UNL     1     -13.043  13.739  71.963  1.00  0.00    -0.485 C  
BRANCH  14  15
HETATM   15  C   UNL     1     -11.792  14.452  71.434  1.00  0.00    -0.251 C  
BRANCH  15  16
HETATM   16  C   UNL     1     -12.029  15.872  70.997  1.00  0.00    -0.453 C  
HETATM   17  C   UNL     1     -11.234  16.551  70.155  1.00  0.00    -0.151 C  
BRANCH  17  18
HETATM   18  C   UNL     1      -9.966  16.031  69.543  1.00  0.00    -0.255 C  
BRANCH  18  19
HETATM   19  C   UNL     1      -9.372  17.019  68.542  1.00  0.00    -0.265 C  
BRANCH  19  20
HETATM   20  C   UNL     1     -10.483  17.648  67.701  1.00  0.00    -0.372 C  
BRANCH  20  21
HETATM   21  C   UNL     1     -10.577  16.994  66.327  1.00  0.00    -0.185 C  
BRANCH  21  22
HETATM   22  C   UNL     1     -10.357  15.486  66.417  1.00  0.00    -0.303 C  
BRANCH  22  23
HETATM   23  C   UNL     1     -11.201  14.752  65.377  1.00  0.00    -0.347 C  
BRANCH  23  24
HETATM   24  C   UNL     1     -10.415  13.632  64.703  1.00  0.00    -0.442 C  
HETATM   25  C   UNL     1     -11.298  12.798  63.802  1.00  0.00    -0.461 C  
HETATM   26  O   UNL     1     -10.606  11.812  63.185  1.00  0.00    -0.359 OA 
HETATM   27  O   UNL     1     -12.489  12.967  63.624  1.00  0.00    -0.652 OA 
ENDBRANCH  23  24
ENDBRANCH  22  23
ENDBRANCH  21  22
ENDBRANCH  20  21
ENDBRANCH  19  20
ENDBRANCH  18  19
ENDBRANCH  17  18
ENDBRANCH  15  16
ENDBRANCH  14  15
ENDBRANCH  13  14
ENDBRANCH  12  13
ENDBRANCH  11  12
ENDBRANCH  10  11
ENDBRANCH   6  10
TORSDOF 15
ENDMDL
MODEL      360
REMARK 921   NORMALIZED FREE ENERGY PREDICTED BY IDOCK:   -3.23 KCAL/MOL
REMARK 922        TOTAL FREE ENERGY PREDICTED BY IDOCK:   -8.02 KCAL/MOL
REMARK 923 INTER-LIGAND FREE ENERGY PREDICTED BY IDOCK:   -6.20 KCAL/MOL
REMARK 924 INTRA-LIGAND FREE ENERGY PREDICTED BY IDOCK:   -1.81 KCAL/MOL
REMARK 927      BINDING AFFINITY PREDICTED BY RF-SCORE:    0.00 PKD
ROOT
ATOM      1  N   GLY A   1      -6.507   5.344  72.434  1.00  0.00    -0.050 NA 
HETATM    2  C   UNL     1     -10.912  10.043  69.804  1.00  0.00    -0.317 C  
ATOM      3  H2  GLY A   1      -5.751   6.024  72.349  1.00  0.00     0.000 HD 
ATOM      4  H1  GLY A   1      -6.841   5.266  73.394  1.00  0.00     0.000 HD 
ATOM      5  CA  GLY A   1      -7.623   5.649  71.530  1.00  0.00    -0.105 C  
HETATM    6  C   UNL     1     -11.617  10.146  71.147  1.00  0.00    -0.430 C  
ENDROOT
BRANCH   5   7
ATOM      7  C   GLY A   1      -7.120   5.767  70.088  1.00  0.00    -0.067 C  
ATOM      8  H   GLY A   1      -5.791   6.837  69.124  1.00  0.00     0.000 HD 
ATOM      9  O   GLY A   1      -6.103   6.763  70.018  1.00  0.00    -0.026 OA 
ENDBRANCH   5   7
BRANCH   6  10
HETATM   10  C   UNL     1     -12.603   9.009  71.412  1.00  0.00    -0.370 C  
BRANCH  10  11
HETATM   11  C   UNL     1     -12.194   8.065  72.546  1.00  0.00    -0.294 C  
BRANCH  11  12
HETATM   12  C   UNL     1     -11.419   6.875  71.973  1.00  0.00    -0.310 C  
BRANCH  12  13
HETATM   13  C   UNL     1     -11.900   6.488  70.575  1.00  0.00    -0.393 C  
BRANCH  13  14
HETATM   14  C   UNL     1     -10.750   6.320  69.572  1.00  0.00    -0.365 C  
BRANCH  14  15
HETATM   15  C   UNL     1     -11.088   6.670  68.118  1.00  0.00    -0.287 C  
BRANCH  15  16
HETATM   16  C   UNL     1      -9.893   6.752  67.208  1.00  0.00    -0.187 C  
HETATM   17  C   UNL     1      -9.591   7.813  66.443  1.00  0.00    -0.235 C  
BRANCH  17  18
HETATM   18  C   UNL     1     -10.407   9.068  66.331  1.00  0.00    -0.219 C  
BRANCH  18  19
HETATM   19  C   UNL     1      -9.688  10.142  65.518  1.00  0.00    -0.344 C  
BRANCH  19  20
HETATM   20  C   UNL     1     -10.050  11.530  66.043  1.00  0.00    -0.270 C  
BRANCH  20  21
HETATM   21  C   UNL     1      -9.208  11.902  67.260  1.00  0.00    -0.179 C  
BRANCH  21  22
HETATM   22  C   UNL     1      -9.107  13.416  67.420  1.00  0.00    -0.216 C  
BRANCH  22  23
HETATM   23  C   UNL     1      -9.461  14.123  66.113  1.00  0.00    -0.229 C  
BRANCH  23  24
HETATM   24  C   UNL     1     -10.475  15.241  66.334  1.00  0.00    -0.307 C  
HETATM   25  C   UNL     1      -9.824  16.604  66.267  1.00  0.00    -0.310 C  
HETATM   26  O   UNL     1     -10.720  17.603  66.443  1.00  0.00    -0.239 OA 
HETATM   27  O   UNL     1      -8.642  16.816  66.074  1.00  0.00    -0.453 OA 
ENDBRANCH  23  24
ENDBRANCH  22  23
ENDBRANCH  21  22
ENDBRANCH  20  21
ENDBRANCH  19  20
ENDBRANCH  18  19
ENDBRANCH  17  18
ENDBRANCH  15  16
ENDBRANCH  14  15
ENDBRANCH  13  14
ENDBRANCH  12  13
ENDBRANCH  11  12
ENDBRANCH  10  11
ENDBRANCH   6  10
TORSDOF 15
ENDMDL
MODEL      361
REMARK 921   NORMALIZED FREE ENERGY PREDICTED BY IDOCK:   -3.23 KCAL/MOL
REMARK 922        TOTAL FREE ENERGY PREDICTED BY IDOCK:   -8.01 KCAL/MOL
REMARK 923 INTER-LIGAND FREE ENERGY PREDICTED BY IDOCK:   -6.88 KCAL/MOL
REMARK 924 INTRA-LIGAND FREE ENERGY PREDICTED BY IDOCK:   -1.12 KCAL/MOL
REMARK 927      BINDING AFFINITY PREDICTED BY RF-SCORE:    0.00 PKD
ROOT
ATOM      1  N   GLY A   1     -11.292  12.423  69.409  1.00  0.00    -0.401 NA 
HETATM    2  C   UNL     1      -6.434   7.911  67.298  1.00  0.00    -0.056 C  
ATOM      3  H2  GLY A   1     -10.828  12.479  70.315  1.00  0.00     0.000 HD 
ATOM      4  H1  GLY A   1     -11.085  13.233  68.825  1.00  0.00     0.000 HD 
ATOM      5  CA  GLY A   1     -10.956  11.184  68.696  1.00  0.00    -0.220 C  
HETATM    6  C   UNL     1      -5.891   8.941  66.320  1.00  0.00    -0.050 C  
ENDROOT
BRANCH   5   7
ATOM      7  C   GLY A   1     -11.266   9.967  69.573  1.00  0.00    -0.208 C  
ATOM      8  H   GLY A   1     -12.365   9.589  71.150  1.00  0.00     0.000 HD 
ATOM      9  O   GLY A   1     -12.173  10.343  70.606  1.00  0.00    -0.295 OA 
ENDBRANCH   5   7
BRANCH   6  10
HETATM   10  C   UNL     1      -6.701   9.049  65.029  1.00  0.00    -0.069 C  
BRANCH  10  11
HETATM   11  C   UNL     1      -7.577  10.301  64.932  1.00  0.00    -0.119 C  
BRANCH  11  12
HETATM   12  C   UNL     1      -9.049   9.895  64.825  1.00  0.00    -0.283 C  
BRANCH  12  13
HETATM   13  C   UNL     1      -9.695  10.389  63.531  1.00  0.00    -0.333 C  
BRANCH  13  14
HETATM   14  C   UNL     1     -10.501  11.681  63.721  1.00  0.00    -0.454 C  
BRANCH  14  15
HETATM   15  C   UNL     1     -11.159  11.851  65.096  1.00  0.00    -0.360 C  
BRANCH  15  16
HETATM   16  C   UNL     1     -12.459  12.608  65.069  1.00  0.00    -0.556 C  
HETATM   17  C   UNL     1     -12.622  13.856  65.536  1.00  0.00    -0.560 C  
BRANCH  17  18
HETATM   18  C   UNL     1     -11.559  14.686  66.194  1.00  0.00    -0.332 C  
BRANCH  18  19
HETATM   19  C   UNL     1     -10.856  15.603  65.197  1.00  0.00    -0.448 C  
BRANCH  19  20
HETATM   20  C   UNL     1      -9.917  16.559  65.932  1.00  0.00    -0.342 C  
BRANCH  20  21
HETATM   21  C   UNL     1      -8.692  15.828  66.473  1.00  0.00    -0.354 C  
BRANCH  21  22
HETATM   22  C   UNL     1      -7.453  16.719  66.429  1.00  0.00    -0.302 C  
BRANCH  22  23
HETATM   23  C   UNL     1      -7.704  18.032  67.167  1.00  0.00    -0.233 C  
BRANCH  23  24
HETATM   24  C   UNL     1      -7.716  19.222  66.213  1.00  0.00    -0.301 C  
HETATM   25  C   UNL     1      -6.355  19.875  66.121  1.00  0.00    -0.189 C  
HETATM   26  O   UNL     1      -6.351  20.921  65.263  1.00  0.00    -0.249 OA 
HETATM   27  O   UNL     1      -5.360  19.525  66.727  1.00  0.00    -0.164 OA 
ENDBRANCH  23  24
ENDBRANCH  22  23
ENDBRANCH  21  22
ENDBRANCH  20  21
ENDBRANCH  19  20
ENDBRANCH  18  19
ENDBRANCH  17  18
ENDBRANCH  15  16
ENDBRANCH  14  15
ENDBRANCH  13  14
ENDBRANCH  12  13
ENDBRANCH  11  12
ENDBRANCH  10  11
ENDBRANCH   6  10
TORSDOF 15
ENDMDL
MODEL      362
REMARK 921   NORMALIZED FREE ENERGY PREDICTED BY IDOCK:   -3.21 KCAL/MOL
REMARK 922        TOTAL FREE ENERGY PREDICTED BY IDOCK:   -7.98 KCAL/MOL
REMARK 923 INTER-LIGAND FREE ENERGY PREDICTED BY IDOCK:   -6.89 KCAL/MOL
REMARK 924 INTRA-LIGAND FREE ENERGY PREDICTED BY IDOCK:   -1.09 KCAL/MOL
REMARK 927      BINDING AFFINITY PREDICTED BY RF-SCORE:    0.00 PKD
ROOT
ATOM      1  N   GLY A   1      -8.797  19.170  68.512  1.00  0.00    -0.357 NA 
HETATM    2  C   UNL     1     -12.756  14.124  65.815  1.00  0.00    -0.443 C  
ATOM      3  H2  GLY A   1      -9.483  19.293  69.256  1.00  0.00     0.000 HD 
ATOM      4  H1  GLY A   1      -7.983  18.644  68.829  1.00  0.00     0.000 HD 
ATOM      5  CA  GLY A   1      -9.383  18.534  67.325  1.00  0.00    -0.280 C  
HETATM    6  C   UNL     1     -11.702  13.091  66.183  1.00  0.00    -0.445 C  
ENDROOT
BRANCH   5   7
ATOM      7  C   GLY A   1     -10.605  19.325  66.849  1.00  0.00    -0.459 C  
ATOM      8  H   GLY A   1     -11.646  19.485  65.197  1.00  0.00     0.000 HD 
ATOM      9  O   GLY A   1     -10.888  18.995  65.492  1.00  0.00    -0.463 OA 
ENDBRANCH   5   7
BRANCH   6  10
HETATM   10  C   UNL     1     -10.531  13.032  65.203  1.00  0.00    -0.335 C  
BRANCH  10  11
HETATM   11  C   UNL     1     -10.814  12.242  63.922  1.00  0.00    -0.464 C  
BRANCH  11  12
HETATM   12  C   UNL     1     -10.467  10.767  64.137  1.00  0.00    -0.309 C  
BRANCH  12  13
HETATM   13  C   UNL     1      -9.411  10.572  65.225  1.00  0.00    -0.281 C  
BRANCH  13  14
HETATM   14  C   UNL     1      -9.563   9.240  65.973  1.00  0.00    -0.338 C  
BRANCH  14  15
HETATM   15  C   UNL     1     -10.349   9.309  67.288  1.00  0.00    -0.332 C  
BRANCH  15  16
HETATM   16  C   UNL     1      -9.513   9.095  68.520  1.00  0.00    -0.151 C  
HETATM   17  C   UNL     1     -10.008   8.829  69.739  1.00  0.00    -0.193 C  
BRANCH  17  18
HETATM   18  C   UNL     1     -11.465   8.743  70.088  1.00  0.00    -0.027 C  
BRANCH  18  19
HETATM   19  C   UNL     1     -11.677   8.385  71.557  1.00  0.00    -0.341 C  
BRANCH  19  20
HETATM   20  C   UNL     1     -11.541   6.876  71.756  1.00  0.00    -0.322 C  
BRANCH  20  21
HETATM   21  C   UNL     1     -10.923   6.548  73.112  1.00  0.00    -0.251 C  
BRANCH  21  22
HETATM   22  C   UNL     1     -10.071   5.283  73.039  1.00  0.00    -0.203 C  
BRANCH  22  23
HETATM   23  C   UNL     1      -8.596   5.611  73.251  1.00  0.00    -0.116 C  
BRANCH  23  24
HETATM   24  C   UNL     1      -8.147   6.781  72.381  1.00  0.00    -0.102 C  
HETATM   25  C   UNL     1      -7.732   7.970  73.218  1.00  0.00    -0.157 C  
HETATM   26  O   UNL     1      -7.315   9.007  72.455  1.00  0.00    -0.337 OA 
HETATM   27  O   UNL     1      -7.752   8.022  74.433  1.00  0.00    -0.179 OA 
ENDBRANCH  23  24
ENDBRANCH  22  23
ENDBRANCH  21  22
ENDBRANCH  20  21
ENDBRANCH  19  20
ENDBRANCH  18  19
ENDBRANCH  17  18
ENDBRANCH  15  16
ENDBRANCH  14  15
ENDBRANCH  13  14
ENDBRANCH  12  13
ENDBRANCH  11  12
ENDBRANCH  10  11
ENDBRANCH   6  10
TORSDOF 15
ENDMDL
MODEL      363
REMARK 921   NORMALIZED FREE ENERGY PREDICTED BY IDOCK:   -3.21 KCAL/MOL
REMARK 922        TOTAL FREE ENERGY PREDICTED BY IDOCK:   -7.96 KCAL/MOL
REMARK 923 INTER-LIGAND FREE ENERGY PREDICTED BY IDOCK:   -6.20 KCAL/MOL
REMARK 924 INTRA-LIGAND FREE ENERGY PREDICTED BY IDOCK:   -1.77 KCAL/MOL
REMARK 927      BINDING AFFINITY PREDICTED BY RF-SCORE:    0.00 PKD
ROOT
ATOM      1  N   GLY A   1     -10.402  10.999  64.282  1.00  0.00    -0.344 NA 
HETATM    2  C   UNL     1     -10.259  17.669  66.257  1.00  0.00    -0.362 C  
ATOM      3  H2  GLY A   1      -9.709  11.210  63.563  1.00  0.00     0.000 HD 
ATOM      4  H1  GLY A   1      -9.983  10.538  65.089  1.00  0.00     0.000 HD 
ATOM      5  CA  GLY A   1     -11.137  12.198  64.705  1.00  0.00    -0.316 C  
HETATM    6  C   UNL     1      -9.607  17.273  67.573  1.00  0.00    -0.259 C  
ENDROOT
BRANCH   5   7
ATOM      7  C   GLY A   1     -11.765  12.890  63.492  1.00  0.00    -0.512 C  
ATOM      8  H   GLY A   1     -13.478  12.828  62.543  1.00  0.00     0.000 HD 
ATOM      9  O   GLY A   1     -13.088  12.399  63.296  1.00  0.00    -0.630 OA 
ENDBRANCH   5   7
BRANCH   6  10
HETATM   10  C   UNL     1     -10.592  16.733  68.609  1.00  0.00    -0.353 C  
BRANCH  10  11
HETATM   11  C   UNL     1     -10.259  15.333  69.131  1.00  0.00    -0.242 C  
BRANCH  11  12
HETATM   12  C   UNL     1     -11.038  14.284  68.331  1.00  0.00    -0.274 C  
BRANCH  12  13
HETATM   13  C   UNL     1     -10.157  13.113  67.898  1.00  0.00    -0.232 C  
BRANCH  13  14
HETATM   14  C   UNL     1      -8.767  13.555  67.421  1.00  0.00    -0.220 C  
BRANCH  14  15
HETATM   15  C   UNL     1      -7.583  12.887  68.131  1.00  0.00    -0.135 C  
BRANCH  15  16
HETATM   16  C   UNL     1      -7.117  11.610  67.487  1.00  0.00    -0.111 C  
HETATM   17  C   UNL     1      -7.414  10.380  67.933  1.00  0.00    -0.087 C  
BRANCH  17  18
HETATM   18  C   UNL     1      -8.219  10.070  69.161  1.00  0.00    -0.137 C  
BRANCH  18  19
HETATM   19  C   UNL     1      -9.231   8.955  68.910  1.00  0.00    -0.140 C  
BRANCH  19  20
HETATM   20  C   UNL     1     -10.196   9.361  67.796  1.00  0.00    -0.273 C  
BRANCH  20  21
HETATM   21  C   UNL     1     -10.185   8.347  66.655  1.00  0.00    -0.335 C  
BRANCH  21  22
HETATM   22  C   UNL     1     -10.772   7.010  67.099  1.00  0.00    -0.433 C  
BRANCH  22  23
HETATM   23  C   UNL     1      -9.809   5.867  66.790  1.00  0.00    -0.191 C  
BRANCH  23  24
HETATM   24  C   UNL     1     -10.123   4.625  67.619  1.00  0.00    -0.111 C  
HETATM   25  C   UNL     1      -9.244   3.459  67.229  1.00  0.00    -0.193 C  
HETATM   26  O   UNL     1      -9.503   2.358  67.972  1.00  0.00    -0.209 OA 
HETATM   27  O   UNL     1      -8.392   3.473  66.361  1.00  0.00    -0.099 OA 
ENDBRANCH  23  24
ENDBRANCH  22  23
ENDBRANCH  21  22
ENDBRANCH  20  21
ENDBRANCH  19  20
ENDBRANCH  18  19
ENDBRANCH  17  18
ENDBRANCH  15  16
ENDBRANCH  14  15
ENDBRANCH  13  14
ENDBRANCH  12  13
ENDBRANCH  11  12
ENDBRANCH  10  11
ENDBRANCH   6  10
TORSDOF 15
ENDMDL
MODEL      364
REMARK 921   NORMALIZED FREE ENERGY PREDICTED BY IDOCK:   -3.20 KCAL/MOL
REMARK 922        TOTAL FREE ENERGY PREDICTED BY IDOCK:   -7.96 KCAL/MOL
REMARK 923 INTER-LIGAND FREE ENERGY PREDICTED BY IDOCK:   -6.81 KCAL/MOL
REMARK 924 INTRA-LIGAND FREE ENERGY PREDICTED BY IDOCK:   -1.15 KCAL/MOL
REMARK 927      BINDING AFFINITY PREDICTED BY RF-SCORE:    0.00 PKD
ROOT
ATOM      1  N   GLY A   1     -10.020   2.337  72.550  1.00  0.00    -0.128 NA 
HETATM    2  C   UNL     1     -10.013   9.213  71.488  1.00  0.00    -0.358 C  
ATOM      3  H2  GLY A   1     -10.229   2.502  73.535  1.00  0.00     0.000 HD 
ATOM      4  H1  GLY A   1     -10.848   2.051  72.029  1.00  0.00     0.000 HD 
ATOM      5  CA  GLY A   1      -9.400   3.508  71.916  1.00  0.00    -0.126 C  
HETATM    6  C   UNL     1     -11.279   9.093  70.653  1.00  0.00    -0.322 C  
ENDROOT
BRANCH   5   7
ATOM      7  C   GLY A   1      -8.156   3.938  72.700  1.00  0.00    -0.089 C  
ATOM      8  H   GLY A   1      -7.767   5.079  74.244  1.00  0.00     0.000 HD 
ATOM      9  O   GLY A   1      -8.538   4.813  73.758  1.00  0.00    -0.104 OA 
ENDBRANCH   5   7
BRANCH   6  10
HETATM   10  C   UNL     1     -11.028   8.625  69.220  1.00  0.00     0.008 C  
BRANCH  10  11
HETATM   11  C   UNL     1     -10.643   9.741  68.246  1.00  0.00    -0.271 C  
BRANCH  11  12
HETATM   12  C   UNL     1      -9.607   9.221  67.247  1.00  0.00    -0.200 C  
BRANCH  12  13
HETATM   13  C   UNL     1      -9.394  10.182  66.078  1.00  0.00    -0.216 C  
BRANCH  13  14
HETATM   14  C   UNL     1     -10.634  11.032  65.770  1.00  0.00    -0.260 C  
BRANCH  14  15
HETATM   15  C   UNL     1     -10.942  11.234  64.282  1.00  0.00    -0.358 C  
BRANCH  15  16
HETATM   16  C   UNL     1     -10.865  12.665  63.823  1.00  0.00    -0.466 C  
HETATM   17  C   UNL     1     -11.593  13.669  64.337  1.00  0.00    -0.421 C  
BRANCH  17  18
HETATM   18  C   UNL     1     -12.628  13.532  65.415  1.00  0.00    -0.531 C  
BRANCH  18  19
HETATM   19  C   UNL     1     -12.124  14.061  66.755  1.00  0.00    -0.480 C  
BRANCH  19  20
HETATM   20  C   UNL     1     -10.878  14.922  66.547  1.00  0.00    -0.322 C  
BRANCH  20  21
HETATM   21  C   UNL     1     -10.470  15.630  67.835  1.00  0.00    -0.267 C  
BRANCH  21  22
HETATM   22  C   UNL     1     -10.271  14.633  68.973  1.00  0.00    -0.222 C  
BRANCH  22  23
HETATM   23  C   UNL     1     -10.703  15.240  70.306  1.00  0.00    -0.283 C  
BRANCH  23  24
HETATM   24  C   UNL     1     -12.127  15.785  70.242  1.00  0.00    -0.371 C  
HETATM   25  C   UNL     1     -13.112  14.847  70.901  1.00  0.00    -0.376 C  
HETATM   26  O   UNL     1     -14.376  15.331  70.865  1.00  0.00    -0.308 OA 
HETATM   27  O   UNL     1     -12.838  13.779  71.416  1.00  0.00    -0.340 OA 
ENDBRANCH  23  24
ENDBRANCH  22  23
ENDBRANCH  21  22
ENDBRANCH  20  21
ENDBRANCH  19  20
ENDBRANCH  18  19
ENDBRANCH  17  18
ENDBRANCH  15  16
ENDBRANCH  14  15
ENDBRANCH  13  14
ENDBRANCH  12  13
ENDBRANCH  11  12
ENDBRANCH  10  11
ENDBRANCH   6  10
TORSDOF 15
ENDMDL
MODEL      365
REMARK 921   NORMALIZED FREE ENERGY PREDICTED BY IDOCK:   -3.20 KCAL/MOL
REMARK 922        TOTAL FREE ENERGY PREDICTED BY IDOCK:   -7.96 KCAL/MOL
REMARK 923 INTER-LIGAND FREE ENERGY PREDICTED BY IDOCK:   -6.39 KCAL/MOL
REMARK 924 INTRA-LIGAND FREE ENERGY PREDICTED BY IDOCK:   -1.57 KCAL/MOL
REMARK 927      BINDING AFFINITY PREDICTED BY RF-SCORE:    0.00 PKD
ROOT
ATOM      1  N   GLY A   1      -6.890  16.506  69.083  1.00  0.00    -0.207 NA 
HETATM    2  C   UNL     1     -11.638  15.567  64.085  1.00  0.00    -0.085 C  
ATOM      3  H2  GLY A   1      -7.489  17.218  69.501  1.00  0.00     0.000 HD 
ATOM      4  H1  GLY A   1      -6.945  15.621  69.585  1.00  0.00     0.000 HD 
ATOM      5  CA  GLY A   1      -7.190  16.302  67.660  1.00  0.00    -0.140 C  
HETATM    6  C   UNL     1     -11.945  14.180  64.627  1.00  0.00    -0.459 C  
ENDROOT
BRANCH   5   7
ATOM      7  C   GLY A   1      -7.107  17.633  66.905  1.00  0.00    -0.185 C  
ATOM      8  H   GLY A   1      -5.850  19.132  66.790  1.00  0.00     0.000 HD 
ATOM      9  O   GLY A   1      -5.901  18.306  67.257  1.00  0.00    -0.138 OA 
ENDBRANCH   5   7
BRANCH   6  10
HETATM   10  C   UNL     1     -10.932  13.117  64.204  1.00  0.00    -0.418 C  
BRANCH  10  11
HETATM   11  C   UNL     1     -10.308  12.338  65.364  1.00  0.00    -0.298 C  
BRANCH  11  12
HETATM   12  C   UNL     1     -10.599  10.844  65.199  1.00  0.00    -0.268 C  
BRANCH  12  13
HETATM   13  C   UNL     1      -9.551  10.141  64.337  1.00  0.00    -0.366 C  
BRANCH  13  14
HETATM   14  C   UNL     1      -8.862   8.977  65.063  1.00  0.00    -0.213 C  
BRANCH  14  15
HETATM   15  C   UNL     1      -9.453   8.611  66.430  1.00  0.00    -0.295 C  
BRANCH  15  16
HETATM   16  C   UNL     1      -8.445   8.563  67.546  1.00  0.00    -0.128 C  
HETATM   17  C   UNL     1      -8.548   9.248  68.695  1.00  0.00    -0.127 C  
BRANCH  17  18
HETATM   18  C   UNL     1      -9.653  10.201  69.045  1.00  0.00    -0.202 C  
BRANCH  18  19
HETATM   19  C   UNL     1     -10.883   9.472  69.580  1.00  0.00    -0.255 C  
BRANCH  19  20
HETATM   20  C   UNL     1     -11.593  10.333  70.625  1.00  0.00    -0.435 C  
BRANCH  20  21
HETATM   21  C   UNL     1     -12.305  11.517  69.978  1.00  0.00    -0.287 C  
BRANCH  21  22
HETATM   22  C   UNL     1     -12.602  12.609  71.002  1.00  0.00    -0.354 C  
BRANCH  22  23
HETATM   23  C   UNL     1     -12.283  13.988  70.430  1.00  0.00    -0.433 C  
BRANCH  23  24
HETATM   24  C   UNL     1     -11.192  13.919  69.367  1.00  0.00    -0.273 C  
HETATM   25  C   UNL     1     -11.052  15.230  68.627  1.00  0.00    -0.279 C  
HETATM   26  O   UNL     1     -10.073  15.185  67.694  1.00  0.00    -0.229 OA 
HETATM   27  O   UNL     1     -11.718  16.229  68.824  1.00  0.00    -0.317 OA 
ENDBRANCH  23  24
ENDBRANCH  22  23
ENDBRANCH  21  22
ENDBRANCH  20  21
ENDBRANCH  19  20
ENDBRANCH  18  19
ENDBRANCH  17  18
ENDBRANCH  15  16
ENDBRANCH  14  15
ENDBRANCH  13  14
ENDBRANCH  12  13
ENDBRANCH  11  12
ENDBRANCH  10  11
ENDBRANCH   6  10
TORSDOF 15
ENDMDL
MODEL      366
REMARK 921   NORMALIZED FREE ENERGY PREDICTED BY IDOCK:   -3.20 KCAL/MOL
REMARK 922        TOTAL FREE ENERGY PREDICTED BY IDOCK:   -7.96 KCAL/MOL
REMARK 923 INTER-LIGAND FREE ENERGY PREDICTED BY IDOCK:   -6.21 KCAL/MOL
REMARK 924 INTRA-LIGAND FREE ENERGY PREDICTED BY IDOCK:   -1.75 KCAL/MOL
REMARK 927      BINDING AFFINITY PREDICTED BY RF-SCORE:    0.00 PKD
ROOT
ATOM      1  N   GLY A   1     -10.624  19.729  65.776  1.00  0.00    -0.498 NA 
HETATM    2  C   UNL     1      -8.379  13.484  67.865  1.00  0.00    -0.175 C  
ATOM      3  H2  GLY A   1      -9.700  19.917  65.387  1.00  0.00     0.000 HD 
ATOM      4  H1  GLY A   1     -11.296  19.473  65.054  1.00  0.00     0.000 HD 
ATOM      5  CA  GLY A   1     -10.581  18.696  66.819  1.00  0.00    -0.371 C  
HETATM    6  C   UNL     1      -9.293  12.809  66.854  1.00  0.00    -0.234 C  
ENDROOT
BRANCH   5   7
ATOM      7  C   GLY A   1      -9.571  19.081  67.904  1.00  0.00    -0.318 C  
ATOM      8  H   GLY A   1      -9.587  20.122  69.564  1.00  0.00     0.000 HD 
ATOM      9  O   GLY A   1     -10.214  19.883  68.891  1.00  0.00    -0.444 OA 
ENDBRANCH   5   7
BRANCH   6  10
HETATM   10  C   UNL     1     -10.748  12.710  67.311  1.00  0.00    -0.259 C  
BRANCH  10  11
HETATM   11  C   UNL     1     -11.204  11.295  67.678  1.00  0.00    -0.357 C  
BRANCH  11  12
HETATM   12  C   UNL     1     -10.127  10.285  67.272  1.00  0.00    -0.249 C  
BRANCH  12  13
HETATM   13  C   UNL     1     -10.585   8.840  67.469  1.00  0.00    -0.298 C  
BRANCH  13  14
HETATM   14  C   UNL     1      -9.480   7.934  68.030  1.00  0.00    -0.159 C  
BRANCH  14  15
HETATM   15  C   UNL     1      -8.550   7.305  66.984  1.00  0.00    -0.122 C  
BRANCH  15  16
HETATM   16  C   UNL     1      -7.325   6.650  67.562  1.00  0.00    -0.095 C  
HETATM   17  C   UNL     1      -7.261   5.368  67.953  1.00  0.00    -0.072 C  
BRANCH  17  18
HETATM   18  C   UNL     1      -8.399   4.389  67.923  1.00  0.00    -0.095 C  
BRANCH  18  19
HETATM   19  C   UNL     1      -8.408   3.490  69.157  1.00  0.00    -0.083 C  
BRANCH  19  20
HETATM   20  C   UNL     1      -9.658   3.757  69.994  1.00  0.00    -0.259 C  
BRANCH  20  21
HETATM   21  C   UNL     1      -9.603   5.133  70.651  1.00  0.00    -0.242 C  
BRANCH  21  22
HETATM   22  C   UNL     1     -10.917   5.887  70.464  1.00  0.00    -0.362 C  
BRANCH  22  23
HETATM   23  C   UNL     1     -11.121   6.904  71.584  1.00  0.00    -0.271 C  
BRANCH  23  24
HETATM   24  C   UNL     1     -12.210   7.915  71.236  1.00  0.00    -0.314 C  
HETATM   25  C   UNL     1     -11.640   9.301  71.038  1.00  0.00    -0.313 C  
HETATM   26  O   UNL     1     -12.596  10.201  70.711  1.00  0.00    -0.316 OA 
HETATM   27  O   UNL     1     -10.467   9.607  71.148  1.00  0.00    -0.307 OA 
ENDBRANCH  23  24
ENDBRANCH  22  23
ENDBRANCH  21  22
ENDBRANCH  20  21
ENDBRANCH  19  20
ENDBRANCH  18  19
ENDBRANCH  17  18
ENDBRANCH  15  16
ENDBRANCH  14  15
ENDBRANCH  13  14
ENDBRANCH  12  13
ENDBRANCH  11  12
ENDBRANCH  10  11
ENDBRANCH   6  10
TORSDOF 15
ENDMDL
MODEL      367
REMARK 921   NORMALIZED FREE ENERGY PREDICTED BY IDOCK:   -3.20 KCAL/MOL
REMARK 922        TOTAL FREE ENERGY PREDICTED BY IDOCK:   -7.96 KCAL/MOL
REMARK 923 INTER-LIGAND FREE ENERGY PREDICTED BY IDOCK:   -6.28 KCAL/MOL
REMARK 924 INTRA-LIGAND FREE ENERGY PREDICTED BY IDOCK:   -1.67 KCAL/MOL
REMARK 927      BINDING AFFINITY PREDICTED BY RF-SCORE:    0.00 PKD
ROOT
ATOM      1  N   GLY A   1      -8.574   3.372  65.466  1.00  0.00    -0.108 NA 
HETATM    2  C   UNL     1      -9.219   9.815  62.920  1.00  0.00    -0.241 C  
ATOM      3  H2  GLY A   1      -7.723   3.254  64.917  1.00  0.00     0.000 HD 
ATOM      4  H1  GLY A   1      -8.370   3.560  66.448  1.00  0.00     0.000 HD 
ATOM      5  CA  GLY A   1      -9.440   4.423  64.917  1.00  0.00    -0.162 C  
HETATM    6  C   UNL     1      -8.928  10.395  64.295  1.00  0.00    -0.249 C  
ENDROOT
BRANCH   5   7
ATOM      7  C   GLY A   1      -9.747   4.141  63.444  1.00  0.00    -0.112 C  
ATOM      8  H   GLY A   1     -10.278   2.591  62.369  1.00  0.00     0.000 HD 
ATOM      9  O   GLY A   1     -10.088   2.766  63.282  1.00  0.00    -0.114 OA 
ENDBRANCH   5   7
BRANCH   6  10
HETATM   10  C   UNL     1     -10.133  10.383  65.235  1.00  0.00    -0.370 C  
BRANCH  10  11
HETATM   11  C   UNL     1     -10.929  11.690  65.264  1.00  0.00    -0.327 C  
BRANCH  11  12
HETATM   12  C   UNL     1     -11.492  11.921  66.669  1.00  0.00    -0.382 C  
BRANCH  12  13
HETATM   13  C   UNL     1     -11.495  13.399  67.057  1.00  0.00    -0.372 C  
BRANCH  13  14
HETATM   14  C   UNL     1     -12.051  13.646  68.466  1.00  0.00    -0.321 C  
BRANCH  14  15
HETATM   15  C   UNL     1     -11.690  12.584  69.513  1.00  0.00    -0.375 C  
BRANCH  15  16
HETATM   16  C   UNL     1     -12.481  12.681  70.789  1.00  0.00    -0.357 C  
HETATM   17  C   UNL     1     -13.018  11.633  71.432  1.00  0.00    -0.426 C  
BRANCH  17  18
HETATM   18  C   UNL     1     -12.959  10.205  70.973  1.00  0.00    -0.473 C  
BRANCH  18  19
HETATM   19  C   UNL     1     -11.954   9.390  71.783  1.00  0.00    -0.452 C  
BRANCH  19  20
HETATM   20  C   UNL     1     -10.602   9.364  71.070  1.00  0.00    -0.400 C  
BRANCH  20  21
HETATM   21  C   UNL     1     -10.475   8.144  70.162  1.00  0.00    -0.225 C  
BRANCH  21  22
HETATM   22  C   UNL     1     -10.442   8.551  68.692  1.00  0.00    -0.200 C  
BRANCH  22  23
HETATM   23  C   UNL     1     -10.126   7.350  67.804  1.00  0.00    -0.232 C  
BRANCH  23  24
HETATM   24  C   UNL     1      -9.138   6.400  68.473  1.00  0.00    -0.126 C  
HETATM   25  C   UNL     1      -7.710   6.736  68.109  1.00  0.00    -0.109 C  
HETATM   26  O   UNL     1      -6.824   5.909  68.712  1.00  0.00    -0.061 OA 
HETATM   27  O   UNL     1      -7.360   7.637  67.370  1.00  0.00    -0.087 OA 
ENDBRANCH  23  24
ENDBRANCH  22  23
ENDBRANCH  21  22
ENDBRANCH  20  21
ENDBRANCH  19  20
ENDBRANCH  18  19
ENDBRANCH  17  18
ENDBRANCH  15  16
ENDBRANCH  14  15
ENDBRANCH  13  14
ENDBRANCH  12  13
ENDBRANCH  11  12
ENDBRANCH  10  11
ENDBRANCH   6  10
TORSDOF 15
ENDMDL
MODEL      368
REMARK 921   NORMALIZED FREE ENERGY PREDICTED BY IDOCK:   -3.20 KCAL/MOL
REMARK 922        TOTAL FREE ENERGY PREDICTED BY IDOCK:   -7.95 KCAL/MOL
REMARK 923 INTER-LIGAND FREE ENERGY PREDICTED BY IDOCK:   -6.45 KCAL/MOL
REMARK 924 INTRA-LIGAND FREE ENERGY PREDICTED BY IDOCK:   -1.49 KCAL/MOL
REMARK 927      BINDING AFFINITY PREDICTED BY RF-SCORE:    0.00 PKD
ROOT
ATOM      1  N   GLY A   1     -12.714  16.164  69.396  1.00  0.00    -0.340 NA 
HETATM    2  C   UNL     1      -6.020  14.265  69.392  1.00  0.00    -0.103 C  
ATOM      3  H2  GLY A   1     -12.432  17.111  69.649  1.00  0.00     0.000 HD 
ATOM      4  H1  GLY A   1     -12.948  16.089  68.406  1.00  0.00     0.000 HD 
ATOM      5  CA  GLY A   1     -11.691  15.173  69.753  1.00  0.00    -0.319 C  
HETATM    6  C   UNL     1      -6.068  14.073  67.884  1.00  0.00    -0.155 C  
ENDROOT
BRANCH   5   7
ATOM      7  C   GLY A   1     -11.340  15.286  71.239  1.00  0.00    -0.365 C  
ATOM      8  H   GLY A   1     -12.205  15.962  72.862  1.00  0.00     0.000 HD 
ATOM      9  O   GLY A   1     -12.423  15.892  71.940  1.00  0.00    -0.425 OA 
ENDBRANCH   5   7
BRANCH   6  10
HETATM   10  C   UNL     1      -6.697  12.748  67.453  1.00  0.00    -0.138 C  
BRANCH  10  11
HETATM   11  C   UNL     1      -8.020  12.418  68.150  1.00  0.00    -0.153 C  
BRANCH  11  12
HETATM   12  C   UNL     1      -9.186  13.002  67.349  1.00  0.00    -0.208 C  
BRANCH  12  13
HETATM   13  C   UNL     1     -10.510  12.305  67.660  1.00  0.00    -0.230 C  
BRANCH  13  14
HETATM   14  C   UNL     1     -10.449  11.445  68.930  1.00  0.00    -0.219 C  
BRANCH  14  15
HETATM   15  C   UNL     1     -11.707  10.620  69.228  1.00  0.00    -0.336 C  
BRANCH  15  16
HETATM   16  C   UNL     1     -12.481  11.087  70.431  1.00  0.00    -0.397 C  
HETATM   17  C   UNL     1     -12.508  10.451  71.612  1.00  0.00    -0.471 C  
BRANCH  17  18
HETATM   18  C   UNL     1     -11.812   9.158  71.922  1.00  0.00    -0.439 C  
BRANCH  18  19
HETATM   19  C   UNL     1     -12.712   7.952  71.659  1.00  0.00    -0.352 C  
BRANCH  19  20
HETATM   20  C   UNL     1     -12.032   6.990  70.686  1.00  0.00    -0.361 C  
BRANCH  20  21
HETATM   21  C   UNL     1     -10.580   7.387  70.434  1.00  0.00    -0.238 C  
BRANCH  21  22
HETATM   22  C   UNL     1      -9.657   6.174  70.497  1.00  0.00    -0.192 C  
BRANCH  22  23
HETATM   23  C   UNL     1     -10.211   5.028  69.653  1.00  0.00    -0.306 C  
BRANCH  23  24
HETATM   24  C   UNL     1      -9.743   5.119  68.204  1.00  0.00    -0.190 C  
HETATM   25  C   UNL     1      -9.480   3.751  67.617  1.00  0.00    -0.185 C  
HETATM   26  O   UNL     1      -9.082   3.820  66.325  1.00  0.00    -0.132 OA 
HETATM   27  O   UNL     1      -9.606   2.693  68.204  1.00  0.00    -0.199 OA 
ENDBRANCH  23  24
ENDBRANCH  22  23
ENDBRANCH  21  22
ENDBRANCH  20  21
ENDBRANCH  19  20
ENDBRANCH  18  19
ENDBRANCH  17  18
ENDBRANCH  15  16
ENDBRANCH  14  15
ENDBRANCH  13  14
ENDBRANCH  12  13
ENDBRANCH  11  12
ENDBRANCH  10  11
ENDBRANCH   6  10
TORSDOF 15
ENDMDL
MODEL      369
REMARK 921   NORMALIZED FREE ENERGY PREDICTED BY IDOCK:   -3.20 KCAL/MOL
REMARK 922        TOTAL FREE ENERGY PREDICTED BY IDOCK:   -7.94 KCAL/MOL
REMARK 923 INTER-LIGAND FREE ENERGY PREDICTED BY IDOCK:   -6.98 KCAL/MOL
REMARK 924 INTRA-LIGAND FREE ENERGY PREDICTED BY IDOCK:   -0.96 KCAL/MOL
REMARK 927      BINDING AFFINITY PREDICTED BY RF-SCORE:    0.00 PKD
ROOT
ATOM      1  N   GLY A   1     -12.218  12.474  70.946  1.00  0.00    -0.432 NA 
HETATM    2  C   UNL     1      -8.594   6.736  69.414  1.00  0.00    -0.132 C  
ATOM      3  H2  GLY A   1     -11.560  12.674  71.698  1.00  0.00     0.000 HD 
ATOM      4  H1  GLY A   1     -12.043  13.052  70.124  1.00  0.00     0.000 HD 
ATOM      5  CA  GLY A   1     -12.217  11.052  70.578  1.00  0.00    -0.381 C  
HETATM    6  C   UNL     1      -8.154   7.356  68.097  1.00  0.00    -0.124 C  
ENDROOT
BRANCH   5   7
ATOM      7  C   GLY A   1     -12.479  10.186  71.813  1.00  0.00    -0.360 C  
ATOM      8  H   GLY A   1     -12.545   8.271  72.224  1.00  0.00     0.000 HD 
ATOM      9  O   GLY A   1     -12.382   8.808  71.458  1.00  0.00    -0.305 OA 
ENDBRANCH   5   7
BRANCH   6  10
HETATM   10  C   UNL     1      -9.212   7.278  66.997  1.00  0.00    -0.170 C  
BRANCH  10  11
HETATM   11  C   UNL     1      -9.938   8.596  66.719  1.00  0.00    -0.343 C  
BRANCH  11  12
HETATM   12  C   UNL     1      -9.069   9.487  65.828  1.00  0.00    -0.243 C  
BRANCH  12  13
HETATM   13  C   UNL     1      -9.868  10.618  65.182  1.00  0.00    -0.344 C  
BRANCH  13  14
HETATM   14  C   UNL     1     -10.537  11.540  66.210  1.00  0.00    -0.309 C  
BRANCH  14  15
HETATM   15  C   UNL     1     -11.905  12.100  65.801  1.00  0.00    -0.342 C  
BRANCH  15  16
HETATM   16  C   UNL     1     -12.299  13.358  66.526  1.00  0.00    -0.354 C  
HETATM   17  C   UNL     1     -11.939  14.596  66.152  1.00  0.00    -0.250 C  
BRANCH  17  18
HETATM   18  C   UNL     1     -11.057  14.932  64.985  1.00  0.00    -0.422 C  
BRANCH  18  19
HETATM   19  C   UNL     1      -9.819  15.716  65.417  1.00  0.00    -0.253 C  
BRANCH  19  20
HETATM   20  C   UNL     1     -10.228  16.923  66.260  1.00  0.00    -0.337 C  
BRANCH  20  21
HETATM   21  C   UNL     1      -9.030  17.521  66.991  1.00  0.00    -0.250 C  
BRANCH  21  22
HETATM   22  C   UNL     1      -9.438  18.741  67.813  1.00  0.00    -0.333 C  
BRANCH  22  23
HETATM   23  C   UNL     1      -8.325  19.786  67.820  1.00  0.00    -0.344 C  
BRANCH  23  24
HETATM   24  C   UNL     1      -7.406  19.623  69.027  1.00  0.00    -0.363 C  
HETATM   25  C   UNL     1      -5.950  19.745  68.638  1.00  0.00    -0.237 C  
HETATM   26  O   UNL     1      -5.128  19.621  69.706  1.00  0.00    -0.184 OA 
HETATM   27  O   UNL     1      -5.531  19.937  67.513  1.00  0.00    -0.170 OA 
ENDBRANCH  23  24
ENDBRANCH  22  23
ENDBRANCH  21  22
ENDBRANCH  20  21
ENDBRANCH  19  20
ENDBRANCH  18  19
ENDBRANCH  17  18
ENDBRANCH  15  16
ENDBRANCH  14  15
ENDBRANCH  13  14
ENDBRANCH  12  13
ENDBRANCH  11  12
ENDBRANCH  10  11
ENDBRANCH   6  10
TORSDOF 15
ENDMDL
MODEL      370
REMARK 921   NORMALIZED FREE ENERGY PREDICTED BY IDOCK:   -3.19 KCAL/MOL
REMARK 922        TOTAL FREE ENERGY PREDICTED BY IDOCK:   -7.94 KCAL/MOL
REMARK 923 INTER-LIGAND FREE ENERGY PREDICTED BY IDOCK:   -6.34 KCAL/MOL
REMARK 924 INTRA-LIGAND FREE ENERGY PREDICTED BY IDOCK:   -1.60 KCAL/MOL
REMARK 927      BINDING AFFINITY PREDICTED BY RF-SCORE:    0.00 PKD
ROOT
ATOM      1  N   GLY A   1     -10.092  17.863  67.255  1.00  0.00    -0.329 NA 
HETATM    2  C   UNL     1      -9.916  12.245  63.154  1.00  0.00     0.100 C  
ATOM      3  H2  GLY A   1     -10.267  18.442  66.433  1.00  0.00     0.000 HD 
ATOM      4  H1  GLY A   1     -10.943  17.697  67.792  1.00  0.00     0.000 HD 
ATOM      5  CA  GLY A   1      -9.457  16.587  66.902  1.00  0.00    -0.237 C  
HETATM    6  C   UNL     1     -11.208  11.741  63.777  1.00  0.00    -0.518 C  
ENDROOT
BRANCH   5   7
ATOM      7  C   GLY A   1      -8.179  16.836  66.096  1.00  0.00    -0.264 C  
ATOM      8  H   GLY A   1      -7.116  18.390  65.552  1.00  0.00     0.000 HD 
ATOM      9  O   GLY A   1      -7.909  18.235  66.052  1.00  0.00    -0.438 OA 
ENDBRANCH   5   7
BRANCH   6  10
HETATM   10  C   UNL     1     -11.013  11.060  65.131  1.00  0.00    -0.103 C  
BRANCH  10  11
HETATM   11  C   UNL     1     -10.851  12.025  66.308  1.00  0.00    -0.316 C  
BRANCH  11  12
HETATM   12  C   UNL     1      -9.456  11.866  66.919  1.00  0.00    -0.205 C  
BRANCH  12  13
HETATM   13  C   UNL     1      -9.510  11.442  68.386  1.00  0.00    -0.194 C  
BRANCH  13  14
HETATM   14  C   UNL     1     -10.914  11.010  68.832  1.00  0.00    -0.277 C  
BRANCH  14  15
HETATM   15  C   UNL     1     -11.118  10.898  70.348  1.00  0.00    -0.080 C  
BRANCH  15  16
HETATM   16  C   UNL     1     -12.557  10.958  70.784  1.00  0.00    -0.470 C  
HETATM   17  C   UNL     1     -13.128  10.099  71.643  1.00  0.00    -0.550 C  
BRANCH  17  18
HETATM   18  C   UNL     1     -12.450   8.920  72.277  1.00  0.00    -0.440 C  
BRANCH  18  19
HETATM   19  C   UNL     1     -13.143   7.607  71.919  1.00  0.00    -0.292 C  
BRANCH  19  20
HETATM   20  C   UNL     1     -12.270   6.795  70.963  1.00  0.00    -0.405 C  
BRANCH  20  21
HETATM   21  C   UNL     1     -10.888   7.422  70.803  1.00  0.00    -0.257 C  
BRANCH  21  22
HETATM   22  C   UNL     1     -10.393   7.307  69.364  1.00  0.00    -0.212 C  
BRANCH  22  23
HETATM   23  C   UNL     1     -10.751   5.945  68.776  1.00  0.00    -0.354 C  
BRANCH  23  24
HETATM   24  C   UNL     1     -10.133   5.747  67.395  1.00  0.00    -0.207 C  
HETATM   25  C   UNL     1      -8.870   4.918  67.465  1.00  0.00    -0.103 C  
HETATM   26  O   UNL     1      -8.324   4.721  66.243  1.00  0.00    -0.110 OA 
HETATM   27  O   UNL     1      -8.378   4.461  68.480  1.00  0.00    -0.084 OA 
ENDBRANCH  23  24
ENDBRANCH  22  23
ENDBRANCH  21  22
ENDBRANCH  20  21
ENDBRANCH  19  20
ENDBRANCH  18  19
ENDBRANCH  17  18
ENDBRANCH  15  16
ENDBRANCH  14  15
ENDBRANCH  13  14
ENDBRANCH  12  13
ENDBRANCH  11  12
ENDBRANCH  10  11
ENDBRANCH   6  10
TORSDOF 15
ENDMDL
MODEL      371
REMARK 921   NORMALIZED FREE ENERGY PREDICTED BY IDOCK:   -3.19 KCAL/MOL
REMARK 922        TOTAL FREE ENERGY PREDICTED BY IDOCK:   -7.93 KCAL/MOL
REMARK 923 INTER-LIGAND FREE ENERGY PREDICTED BY IDOCK:   -6.37 KCAL/MOL
REMARK 924 INTRA-LIGAND FREE ENERGY PREDICTED BY IDOCK:   -1.57 KCAL/MOL
REMARK 927      BINDING AFFINITY PREDICTED BY RF-SCORE:    0.00 PKD
ROOT
ATOM      1  N   GLY A   1     -12.112  14.328  63.543  1.00  0.00    -0.980 NA 
HETATM    2  C   UNL     1      -6.468  15.840  67.320  1.00  0.00    -0.139 C  
ATOM      3  H2  GLY A   1     -11.608  14.606  62.702  1.00  0.00     0.000 HD 
ATOM      4  H1  GLY A   1     -12.157  13.314  63.642  1.00  0.00     0.000 HD 
ATOM      5  CA  GLY A   1     -11.536  14.930  64.753  1.00  0.00    -0.410 C  
HETATM    6  C   UNL     1      -6.274  14.365  67.635  1.00  0.00    -0.098 C  
ENDROOT
BRANCH   5   7
ATOM      7  C   GLY A   1     -11.468  16.453  64.605  1.00  0.00    -0.091 C  
ATOM      8  H   GLY A   1     -10.443  17.919  65.404  1.00  0.00     0.000 HD 
ATOM      9  O   GLY A   1     -10.485  16.975  65.496  1.00  0.00    -0.572 OA 
ENDBRANCH   5   7
BRANCH   6  10
HETATM   10  C   UNL     1      -7.183  13.850  68.750  1.00  0.00    -0.106 C  
BRANCH  10  11
HETATM   11  C   UNL     1      -6.854  12.435  69.234  1.00  0.00    -0.028 C  
BRANCH  11  12
HETATM   12  C   UNL     1      -5.923  11.749  68.231  1.00  0.00    -0.049 C  
BRANCH  12  13
HETATM   13  C   UNL     1      -6.564  10.519  67.591  1.00  0.00    -0.065 C  
BRANCH  13  14
HETATM   14  C   UNL     1      -7.170  10.809  66.211  1.00  0.00    -0.137 C  
BRANCH  14  15
HETATM   15  C   UNL     1      -8.686  10.606  66.101  1.00  0.00    -0.178 C  
BRANCH  15  16
HETATM   16  C   UNL     1      -9.098   9.567  65.094  1.00  0.00    -0.281 C  
HETATM   17  C   UNL     1      -9.280   8.267  65.374  1.00  0.00     0.088 C  
BRANCH  17  18
HETATM   18  C   UNL     1      -9.066   7.625  66.713  1.00  0.00    -0.181 C  
BRANCH  18  19
HETATM   19  C   UNL     1     -10.363   7.537  67.514  1.00  0.00    -0.321 C  
BRANCH  19  20
HETATM   20  C   UNL     1     -10.058   7.220  68.978  1.00  0.00    -0.186 C  
BRANCH  20  21
HETATM   21  C   UNL     1     -11.158   6.367  69.602  1.00  0.00    -0.465 C  
BRANCH  21  22
HETATM   22  C   UNL     1     -11.851   7.108  70.742  1.00  0.00    -0.367 C  
BRANCH  22  23
HETATM   23  C   UNL     1     -11.128   8.416  71.057  1.00  0.00    -0.298 C  
BRANCH  23  24
HETATM   24  C   UNL     1     -12.059   9.433  71.708  1.00  0.00    -0.454 C  
HETATM   25  C   UNL     1     -12.243  10.656  70.838  1.00  0.00    -0.395 C  
HETATM   26  O   UNL     1     -13.083  11.556  71.400  1.00  0.00    -0.380 OA 
HETATM   27  O   UNL     1     -11.719  10.840  69.756  1.00  0.00    -0.270 OA 
ENDBRANCH  23  24
ENDBRANCH  22  23
ENDBRANCH  21  22
ENDBRANCH  20  21
ENDBRANCH  19  20
ENDBRANCH  18  19
ENDBRANCH  17  18
ENDBRANCH  15  16
ENDBRANCH  14  15
ENDBRANCH  13  14
ENDBRANCH  12  13
ENDBRANCH  11  12
ENDBRANCH  10  11
ENDBRANCH   6  10
TORSDOF 15
ENDMDL
MODEL      372
REMARK 921   NORMALIZED FREE ENERGY PREDICTED BY IDOCK:   -3.18 KCAL/MOL
REMARK 922        TOTAL FREE ENERGY PREDICTED BY IDOCK:   -7.92 KCAL/MOL
REMARK 923 INTER-LIGAND FREE ENERGY PREDICTED BY IDOCK:   -5.94 KCAL/MOL
REMARK 924 INTRA-LIGAND FREE ENERGY PREDICTED BY IDOCK:   -1.98 KCAL/MOL
REMARK 927      BINDING AFFINITY PREDICTED BY RF-SCORE:    0.00 PKD
ROOT
ATOM      1  N   GLY A   1      -9.854   4.400  68.300  1.00  0.00    -0.108 NA 
HETATM    2  C   UNL     1      -8.622   9.206  63.422  1.00  0.00    -0.178 C  
ATOM      3  H2  GLY A   1      -8.957   3.966  68.081  1.00  0.00     0.000 HD 
ATOM      4  H1  GLY A   1      -9.809   4.958  69.152  1.00  0.00     0.000 HD 
ATOM      5  CA  GLY A   1     -10.356   5.214  67.185  1.00  0.00    -0.192 C  
HETATM    6  C   UNL     1      -8.488  10.273  64.497  1.00  0.00    -0.183 C  
ENDROOT
BRANCH   5   7
ATOM      7  C   GLY A   1     -10.423   4.375  65.906  1.00  0.00    -0.144 C  
ATOM      8  H   GLY A   1      -9.626   2.711  65.247  1.00  0.00     0.000 HD 
ATOM      9  O   GLY A   1      -9.585   3.231  66.041  1.00  0.00    -0.122 OA 
ENDBRANCH   5   7
BRANCH   6  10
HETATM   10  C   UNL     1      -9.828  10.792  65.018  1.00  0.00    -0.346 C  
BRANCH  10  11
HETATM   11  C   UNL     1      -9.949  10.817  66.543  1.00  0.00    -0.260 C  
BRANCH  11  12
HETATM   12  C   UNL     1      -9.653   9.426  67.108  1.00  0.00    -0.202 C  
BRANCH  12  13
HETATM   13  C   UNL     1      -8.564   9.454  68.180  1.00  0.00    -0.120 C  
BRANCH  13  14
HETATM   14  C   UNL     1      -8.357   8.092  68.857  1.00  0.00    -0.125 C  
BRANCH  14  15
HETATM   15  C   UNL     1      -8.495   8.089  70.385  1.00  0.00    -0.130 C  
BRANCH  15  16
HETATM   16  C   UNL     1      -9.038   6.806  70.953  1.00  0.00    -0.153 C  
HETATM   17  C   UNL     1     -10.334   6.459  70.945  1.00  0.00    -0.246 C  
BRANCH  17  18
HETATM   18  C   UNL     1     -11.458   7.299  70.412  1.00  0.00    -0.279 C  
BRANCH  18  19
HETATM   19  C   UNL     1     -12.390   7.772  71.525  1.00  0.00    -0.345 C  
BRANCH  19  20
HETATM   20  C   UNL     1     -12.840   9.209  71.260  1.00  0.00    -0.323 C  
BRANCH  20  21
HETATM   21  C   UNL     1     -11.728  10.029  70.614  1.00  0.00    -0.421 C  
BRANCH  21  22
HETATM   22  C   UNL     1     -12.275  10.925  69.506  1.00  0.00    -0.331 C  
BRANCH  22  23
HETATM   23  C   UNL     1     -11.637  12.310  69.565  1.00  0.00    -0.366 C  
BRANCH  23  24
HETATM   24  C   UNL     1     -11.565  12.958  68.185  1.00  0.00    -0.378 C  
HETATM   25  C   UNL     1     -11.739  14.457  68.265  1.00  0.00    -0.341 C  
HETATM   26  O   UNL     1     -11.658  15.043  67.047  1.00  0.00    -0.331 OA 
HETATM   27  O   UNL     1     -11.925  15.096  69.283  1.00  0.00    -0.312 OA 
ENDBRANCH  23  24
ENDBRANCH  22  23
ENDBRANCH  21  22
ENDBRANCH  20  21
ENDBRANCH  19  20
ENDBRANCH  18  19
ENDBRANCH  17  18
ENDBRANCH  15  16
ENDBRANCH  14  15
ENDBRANCH  13  14
ENDBRANCH  12  13
ENDBRANCH  11  12
ENDBRANCH  10  11
ENDBRANCH   6  10
TORSDOF 15
ENDMDL
MODEL      373
REMARK 921   NORMALIZED FREE ENERGY PREDICTED BY IDOCK:   -3.18 KCAL/MOL
REMARK 922        TOTAL FREE ENERGY PREDICTED BY IDOCK:   -7.91 KCAL/MOL
REMARK 923 INTER-LIGAND FREE ENERGY PREDICTED BY IDOCK:   -6.19 KCAL/MOL
REMARK 924 INTRA-LIGAND FREE ENERGY PREDICTED BY IDOCK:   -1.73 KCAL/MOL
REMARK 927      BINDING AFFINITY PREDICTED BY RF-SCORE:    0.00 PKD
ROOT
ATOM      1  N   GLY A   1     -10.954   8.343  72.418  1.00  0.00    -0.360 NA 
HETATM    2  C   UNL     1     -10.387   4.870  66.416  1.00  0.00    -0.328 C  
ATOM      3  H2  GLY A   1     -11.963   8.195  72.393  1.00  0.00     0.000 HD 
ATOM      4  H1  GLY A   1     -10.493   7.706  73.067  1.00  0.00     0.000 HD 
ATOM      5  CA  GLY A   1     -10.351   8.234  71.083  1.00  0.00    -0.202 C  
HETATM    6  C   UNL     1      -9.667   3.737  67.131  1.00  0.00    -0.145 C  
ENDROOT
BRANCH   5   7
ATOM      7  C   GLY A   1     -11.044   9.191  70.109  1.00  0.00    -0.222 C  
ATOM      8  H   GLY A   1     -11.755  11.016  70.165  1.00  0.00     0.000 HD 
ATOM      9  O   GLY A   1     -11.325  10.423  70.769  1.00  0.00    -0.330 OA 
ENDBRANCH   5   7
BRANCH   6  10
HETATM   10  C   UNL     1      -8.188   4.017  67.391  1.00  0.00    -0.098 C  
BRANCH  10  11
HETATM   11  C   UNL     1      -7.642   5.259  66.682  1.00  0.00    -0.088 C  
BRANCH  11  12
HETATM   12  C   UNL     1      -7.058   6.228  67.713  1.00  0.00    -0.081 C  
BRANCH  12  13
HETATM   13  C   UNL     1      -8.091   7.239  68.210  1.00  0.00    -0.124 C  
BRANCH  13  14
HETATM   14  C   UNL     1      -7.644   8.694  68.018  1.00  0.00    -0.098 C  
BRANCH  14  15
HETATM   15  C   UNL     1      -8.604   9.578  67.213  1.00  0.00    -0.128 C  
BRANCH  15  16
HETATM   16  C   UNL     1      -8.662  11.009  67.675  1.00  0.00    -0.128 C  
HETATM   17  C   UNL     1      -9.765  11.772  67.650  1.00  0.00    -0.186 C  
BRANCH  17  18
HETATM   18  C   UNL     1     -11.106  11.350  67.123  1.00  0.00    -0.366 C  
BRANCH  18  19
HETATM   19  C   UNL     1     -11.500  12.139  65.877  1.00  0.00    -0.418 C  
BRANCH  19  20
HETATM   20  C   UNL     1     -12.307  13.376  66.270  1.00  0.00    -0.410 C  
BRANCH  20  21
HETATM   21  C   UNL     1     -11.633  14.656  65.786  1.00  0.00    -0.328 C  
BRANCH  21  22
HETATM   22  C   UNL     1     -11.030  15.436  66.951  1.00  0.00    -0.294 C  
BRANCH  22  23
HETATM   23  C   UNL     1     -11.488  14.855  68.286  1.00  0.00    -0.343 C  
BRANCH  23  24
HETATM   24  C   UNL     1     -11.514  15.916  69.383  1.00  0.00    -0.351 C  
HETATM   25  C   UNL     1     -11.750  15.302  70.744  1.00  0.00    -0.337 C  
HETATM   26  O   UNL     1     -11.756  16.234  71.726  1.00  0.00    -0.486 OA 
HETATM   27  O   UNL     1     -11.914  14.118  70.969  1.00  0.00    -0.333 OA 
ENDBRANCH  23  24
ENDBRANCH  22  23
ENDBRANCH  21  22
ENDBRANCH  20  21
ENDBRANCH  19  20
ENDBRANCH  18  19
ENDBRANCH  17  18
ENDBRANCH  15  16
ENDBRANCH  14  15
ENDBRANCH  13  14
ENDBRANCH  12  13
ENDBRANCH  11  12
ENDBRANCH  10  11
ENDBRANCH   6  10
TORSDOF 15
ENDMDL
MODEL      374
REMARK 921   NORMALIZED FREE ENERGY PREDICTED BY IDOCK:   -3.17 KCAL/MOL
REMARK 922        TOTAL FREE ENERGY PREDICTED BY IDOCK:   -7.90 KCAL/MOL
REMARK 923 INTER-LIGAND FREE ENERGY PREDICTED BY IDOCK:   -5.77 KCAL/MOL
REMARK 924 INTRA-LIGAND FREE ENERGY PREDICTED BY IDOCK:   -2.13 KCAL/MOL
REMARK 927      BINDING AFFINITY PREDICTED BY RF-SCORE:    0.00 PKD
ROOT
ATOM      1  N   GLY A   1      -8.951  16.307  68.365  1.00  0.00    -0.196 NA 
HETATM    2  C   UNL     1     -12.956  10.940  70.254  1.00  0.00    -0.104 C  
ATOM      3  H2  GLY A   1      -9.666  16.946  68.713  1.00  0.00     0.000 HD 
ATOM      4  H1  GLY A   1      -8.171  16.218  69.015  1.00  0.00     0.000 HD 
ATOM      5  CA  GLY A   1      -9.505  14.983  68.051  1.00  0.00    -0.193 C  
HETATM    6  C   UNL     1     -11.956  10.565  71.336  1.00  0.00    -0.325 C  
ENDROOT
BRANCH   5   7
ATOM      7  C   GLY A   1     -10.678  15.117  67.075  1.00  0.00    -0.307 C  
ATOM      8  H   GLY A   1     -11.028  14.678  65.198  1.00  0.00     0.000 HD 
ATOM      9  O   GLY A   1     -10.301  14.594  65.803  1.00  0.00    -0.296 OA 
ENDBRANCH   5   7
BRANCH   6  10
HETATM   10  C   UNL     1     -10.745   9.793  70.813  1.00  0.00    -0.393 C  
BRANCH  10  11
HETATM   11  C   UNL     1     -10.287   8.645  71.715  1.00  0.00    -0.386 C  
BRANCH  11  12
HETATM   12  C   UNL     1     -11.476   8.111  72.518  1.00  0.00    -0.470 C  
BRANCH  12  13
HETATM   13  C   UNL     1     -12.218   6.995  71.784  1.00  0.00    -0.387 C  
BRANCH  13  14
HETATM   14  C   UNL     1     -11.499   5.641  71.872  1.00  0.00    -0.163 C  
BRANCH  14  15
HETATM   15  C   UNL     1     -11.280   5.103  73.291  1.00  0.00    -0.389 C  
BRANCH  15  16
HETATM   16  C   UNL     1      -9.860   4.704  73.588  1.00  0.00    -0.168 C  
HETATM   17  C   UNL     1      -9.433   3.437  73.703  1.00  0.00    -0.126 C  
BRANCH  17  18
HETATM   18  C   UNL     1     -10.297   2.214  73.597  1.00  0.00    -0.193 C  
BRANCH  18  19
HETATM   19  C   UNL     1     -10.346   1.675  72.170  1.00  0.00    -0.214 C  
BRANCH  19  20
HETATM   20  C   UNL     1      -9.043   1.999  71.439  1.00  0.00    -0.156 C  
BRANCH  20  21
HETATM   21  C   UNL     1      -9.299   2.841  70.193  1.00  0.00    -0.199 C  
BRANCH  21  22
HETATM   22  C   UNL     1      -8.214   3.898  70.010  1.00  0.00    -0.071 C  
BRANCH  22  23
HETATM   23  C   UNL     1      -8.828   5.246  69.640  1.00  0.00    -0.126 C  
BRANCH  23  24
HETATM   24  C   UNL     1      -9.909   5.099  68.573  1.00  0.00    -0.218 C  
HETATM   25  C   UNL     1     -10.332   6.441  68.022  1.00  0.00    -0.193 C  
HETATM   26  O   UNL     1     -11.278   6.320  67.061  1.00  0.00    -0.336 OA 
HETATM   27  O   UNL     1      -9.894   7.521  68.371  1.00  0.00    -0.156 OA 
ENDBRANCH  23  24
ENDBRANCH  22  23
ENDBRANCH  21  22
ENDBRANCH  20  21
ENDBRANCH  19  20
ENDBRANCH  18  19
ENDBRANCH  17  18
ENDBRANCH  15  16
ENDBRANCH  14  15
ENDBRANCH  13  14
ENDBRANCH  12  13
ENDBRANCH  11  12
ENDBRANCH  10  11
ENDBRANCH   6  10
TORSDOF 15
ENDMDL
MODEL      375
REMARK 921   NORMALIZED FREE ENERGY PREDICTED BY IDOCK:   -3.17 KCAL/MOL
REMARK 922        TOTAL FREE ENERGY PREDICTED BY IDOCK:   -7.89 KCAL/MOL
REMARK 923 INTER-LIGAND FREE ENERGY PREDICTED BY IDOCK:   -6.58 KCAL/MOL
REMARK 924 INTRA-LIGAND FREE ENERGY PREDICTED BY IDOCK:   -1.31 KCAL/MOL
REMARK 927      BINDING AFFINITY PREDICTED BY RF-SCORE:    0.00 PKD
ROOT
ATOM      1  N   GLY A   1     -11.236   5.888  66.388  1.00  0.00    -0.739 NA 
HETATM    2  C   UNL     1      -7.953   7.557  72.291  1.00  0.00    -0.115 C  
ATOM      3  H2  GLY A   1     -10.498   5.215  66.183  1.00  0.00     0.000 HD 
ATOM      4  H1  GLY A   1     -12.077   5.434  66.744  1.00  0.00     0.000 HD 
ATOM      5  CA  GLY A   1     -10.786   6.928  67.323  1.00  0.00    -0.356 C  
HETATM    6  C   UNL     1      -9.078   6.933  73.102  1.00  0.00    -0.154 C  
ENDROOT
BRANCH   5   7
ATOM      7  C   GLY A   1      -9.524   7.610  66.789  1.00  0.00    -0.191 C  
ATOM      8  H   GLY A   1      -7.593   7.481  67.098  1.00  0.00     0.000 HD 
ATOM      9  O   GLY A   1      -8.376   7.058  67.429  1.00  0.00    -0.121 OA 
ENDBRANCH   5   7
BRANCH   6  10
HETATM   10  C   UNL     1     -10.306   7.832  73.243  1.00  0.00    -0.364 C  
BRANCH  10  11
HETATM   11  C   UNL     1     -11.607   7.215  72.725  1.00  0.00    -0.180 C  
BRANCH  11  12
HETATM   12  C   UNL     1     -11.896   7.729  71.312  1.00  0.00    -0.318 C  
BRANCH  12  13
HETATM   13  C   UNL     1     -11.866   9.255  71.232  1.00  0.00    -0.415 C  
BRANCH  13  14
HETATM   14  C   UNL     1     -10.906   9.779  70.156  1.00  0.00    -0.340 C  
BRANCH  14  15
HETATM   15  C   UNL     1     -11.030  11.273  69.833  1.00  0.00    -0.096 C  
BRANCH  15  16
HETATM   16  C   UNL     1     -12.012  11.590  68.739  1.00  0.00    -0.335 C  
HETATM   17  C   UNL     1     -11.674  11.872  67.471  1.00  0.00    -0.335 C  
BRANCH  17  18
HETATM   18  C   UNL     1     -10.273  11.962  66.942  1.00  0.00    -0.233 C  
BRANCH  18  19
HETATM   19  C   UNL     1     -10.041  13.255  66.165  1.00  0.00    -0.293 C  
BRANCH  19  20
HETATM   20  C   UNL     1      -9.983  14.443  67.124  1.00  0.00    -0.253 C  
BRANCH  20  21
HETATM   21  C   UNL     1     -10.671  15.669  66.532  1.00  0.00    -0.293 C  
BRANCH  21  22
HETATM   22  C   UNL     1     -10.269  16.940  67.275  1.00  0.00    -0.297 C  
BRANCH  22  23
HETATM   23  C   UNL     1      -8.872  16.798  67.874  1.00  0.00    -0.218 C  
BRANCH  23  24
HETATM   24  C   UNL     1      -8.103  18.114  67.828  1.00  0.00    -0.240 C  
HETATM   25  C   UNL     1      -7.002  18.152  68.864  1.00  0.00    -0.267 C  
HETATM   26  O   UNL     1      -6.301  19.309  68.818  1.00  0.00    -0.235 OA 
HETATM   27  O   UNL     1      -6.744  17.266  69.656  1.00  0.00    -0.197 OA 
ENDBRANCH  23  24
ENDBRANCH  22  23
ENDBRANCH  21  22
ENDBRANCH  20  21
ENDBRANCH  19  20
ENDBRANCH  18  19
ENDBRANCH  17  18
ENDBRANCH  15  16
ENDBRANCH  14  15
ENDBRANCH  13  14
ENDBRANCH  12  13
ENDBRANCH  11  12
ENDBRANCH  10  11
ENDBRANCH   6  10
TORSDOF 15
ENDMDL
MODEL      376
REMARK 921   NORMALIZED FREE ENERGY PREDICTED BY IDOCK:   -3.16 KCAL/MOL
REMARK 922        TOTAL FREE ENERGY PREDICTED BY IDOCK:   -7.88 KCAL/MOL
REMARK 923 INTER-LIGAND FREE ENERGY PREDICTED BY IDOCK:   -5.98 KCAL/MOL
REMARK 924 INTRA-LIGAND FREE ENERGY PREDICTED BY IDOCK:   -1.90 KCAL/MOL
REMARK 927      BINDING AFFINITY PREDICTED BY RF-SCORE:    0.00 PKD
ROOT
ATOM      1  N   GLY A   1      -8.656  10.636  65.134  1.00  0.00    -0.209 NA 
HETATM    2  C   UNL     1      -9.759   4.583  68.384  1.00  0.00    -0.188 C  
ATOM      3  H2  GLY A   1      -9.541  10.517  64.641  1.00  0.00     0.000 HD 
ATOM      4  H1  GLY A   1      -8.736  11.299  65.905  1.00  0.00     0.000 HD 
ATOM      5  CA  GLY A   1      -8.122   9.356  65.618  1.00  0.00    -0.112 C  
HETATM    6  C   UNL     1      -9.940   5.316  69.704  1.00  0.00    -0.302 C  
ENDROOT
BRANCH   5   7
ATOM      7  C   GLY A   1      -8.002   8.361  64.460  1.00  0.00    -0.146 C  
ATOM      8  H   GLY A   1      -8.417   8.343  62.545  1.00  0.00     0.000 HD 
ATOM      9  O   GLY A   1      -8.491   8.961  63.263  1.00  0.00    -0.192 OA 
ENDBRANCH   5   7
BRANCH   6  10
HETATM   10  C   UNL     1      -8.624   5.715  70.371  1.00  0.00    -0.132 C  
BRANCH  10  11
HETATM   11  C   UNL     1      -8.697   5.835  71.895  1.00  0.00    -0.135 C  
BRANCH  11  12
HETATM   12  C   UNL     1      -8.357   7.266  72.318  1.00  0.00    -0.117 C  
BRANCH  12  13
HETATM   13  C   UNL     1      -9.344   7.817  73.346  1.00  0.00    -0.346 C  
BRANCH  13  14
HETATM   14  C   UNL     1     -10.709   7.116  73.300  1.00  0.00    -0.403 C  
BRANCH  14  15
HETATM   15  C   UNL     1     -11.662   7.601  72.201  1.00  0.00    -0.355 C  
BRANCH  15  16
HETATM   16  C   UNL     1     -11.621   9.085  71.958  1.00  0.00    -0.413 C  
HETATM   17  C   UNL     1     -11.129   9.662  70.851  1.00  0.00    -0.422 C  
BRANCH  17  18
HETATM   18  C   UNL     1     -10.504   8.937  69.695  1.00  0.00    -0.218 C  
BRANCH  18  19
HETATM   19  C   UNL     1      -9.992   9.903  68.629  1.00  0.00    -0.177 C  
BRANCH  19  20
HETATM   20  C   UNL     1     -11.124  10.818  68.161  1.00  0.00    -0.337 C  
BRANCH  20  21
HETATM   21  C   UNL     1     -10.837  12.277  68.504  1.00  0.00    -0.267 C  
BRANCH  21  22
HETATM   22  C   UNL     1     -12.130  13.059  68.712  1.00  0.00    -0.197 C  
BRANCH  22  23
HETATM   23  C   UNL     1     -11.999  14.478  68.163  1.00  0.00    -0.296 C  
BRANCH  23  24
HETATM   24  C   UNL     1     -10.603  14.740  67.606  1.00  0.00    -0.262 C  
HETATM   25  C   UNL     1     -10.109  16.122  67.970  1.00  0.00    -0.242 C  
HETATM   26  O   UNL     1      -8.863  16.357  67.495  1.00  0.00    -0.179 OA 
HETATM   27  O   UNL     1     -10.727  16.948  68.614  1.00  0.00    -0.333 OA 
ENDBRANCH  23  24
ENDBRANCH  22  23
ENDBRANCH  21  22
ENDBRANCH  20  21
ENDBRANCH  19  20
ENDBRANCH  18  19
ENDBRANCH  17  18
ENDBRANCH  15  16
ENDBRANCH  14  15
ENDBRANCH  13  14
ENDBRANCH  12  13
ENDBRANCH  11  12
ENDBRANCH  10  11
ENDBRANCH   6  10
TORSDOF 15
ENDMDL
MODEL      377
REMARK 921   NORMALIZED FREE ENERGY PREDICTED BY IDOCK:   -3.16 KCAL/MOL
REMARK 922        TOTAL FREE ENERGY PREDICTED BY IDOCK:   -7.87 KCAL/MOL
REMARK 923 INTER-LIGAND FREE ENERGY PREDICTED BY IDOCK:   -5.51 KCAL/MOL
REMARK 924 INTRA-LIGAND FREE ENERGY PREDICTED BY IDOCK:   -2.36 KCAL/MOL
REMARK 927      BINDING AFFINITY PREDICTED BY RF-SCORE:    0.00 PKD
ROOT
ATOM      1  N   GLY A   1     -13.131   6.719  72.065  1.00  0.00    -0.538 NA 
HETATM    2  C   UNL     1     -11.773  12.164  67.952  1.00  0.00    -0.403 C  
ATOM      3  H2  GLY A   1     -13.955   6.514  71.500  1.00  0.00     0.000 HD 
ATOM      4  H1  GLY A   1     -12.354   6.097  71.843  1.00  0.00     0.000 HD 
ATOM      5  CA  GLY A   1     -12.713   8.121  71.937  1.00  0.00    -0.332 C  
HETATM    6  C   UNL     1     -10.533  11.462  67.419  1.00  0.00    -0.239 C  
ENDROOT
BRANCH   5   7
ATOM      7  C   GLY A   1     -13.880   9.055  72.269  1.00  0.00    -0.484 C  
ATOM      8  H   GLY A   1     -14.180  10.989  72.355  1.00  0.00     0.000 HD 
ATOM      9  O   GLY A   1     -13.456  10.410  72.149  1.00  0.00    -0.396 OA 
ENDBRANCH   5   7
BRANCH   6  10
HETATM   10  C   UNL     1      -9.327  11.555  68.353  1.00  0.00    -0.194 C  
BRANCH  10  11
HETATM   11  C   UNL     1      -7.971  11.490  67.645  1.00  0.00    -0.126 C  
BRANCH  11  12
HETATM   12  C   UNL     1      -7.197  10.258  68.122  1.00  0.00    -0.084 C  
BRANCH  12  13
HETATM   13  C   UNL     1      -7.831   8.953  67.644  1.00  0.00    -0.101 C  
BRANCH  13  14
HETATM   14  C   UNL     1      -7.728   7.823  68.678  1.00  0.00    -0.118 C  
BRANCH  14  15
HETATM   15  C   UNL     1      -9.023   7.502  69.434  1.00  0.00    -0.139 C  
BRANCH  15  16
HETATM   16  C   UNL     1      -9.601   8.666  70.192  1.00  0.00    -0.181 C  
HETATM   17  C   UNL     1      -9.335   8.943  71.478  1.00  0.00    -0.335 C  
BRANCH  17  18
HETATM   18  C   UNL     1      -8.459   8.127  72.383  1.00  0.00    -0.238 C  
BRANCH  18  19
HETATM   19  C   UNL     1      -9.118   7.880  73.738  1.00  0.00    -0.306 C  
BRANCH  19  20
HETATM   20  C   UNL     1      -9.734   6.482  73.777  1.00  0.00    -0.227 C  
BRANCH  20  21
HETATM   21  C   UNL     1      -8.943   5.502  72.915  1.00  0.00    -0.123 C  
BRANCH  21  22
HETATM   22  C   UNL     1      -9.832   4.859  71.854  1.00  0.00    -0.241 C  
BRANCH  22  23
HETATM   23  C   UNL     1      -8.991   4.094  70.835  1.00  0.00    -0.150 C  
BRANCH  23  24
HETATM   24  C   UNL     1      -9.758   3.850  69.540  1.00  0.00    -0.191 C  
HETATM   25  C   UNL     1      -8.864   3.987  68.329  1.00  0.00    -0.108 C  
HETATM   26  O   UNL     1      -9.532   3.754  67.175  1.00  0.00    -0.186 OA 
HETATM   27  O   UNL     1      -7.680   4.267  68.351  1.00  0.00    -0.070 OA 
ENDBRANCH  23  24
ENDBRANCH  22  23
ENDBRANCH  21  22
ENDBRANCH  20  21
ENDBRANCH  19  20
ENDBRANCH  18  19
ENDBRANCH  17  18
ENDBRANCH  15  16
ENDBRANCH  14  15
ENDBRANCH  13  14
ENDBRANCH  12  13
ENDBRANCH  11  12
ENDBRANCH  10  11
ENDBRANCH   6  10
TORSDOF 15
ENDMDL
MODEL      378
REMARK 921   NORMALIZED FREE ENERGY PREDICTED BY IDOCK:   -3.15 KCAL/MOL
REMARK 922        TOTAL FREE ENERGY PREDICTED BY IDOCK:   -7.87 KCAL/MOL
REMARK 923 INTER-LIGAND FREE ENERGY PREDICTED BY IDOCK:   -5.16 KCAL/MOL
REMARK 924 INTRA-LIGAND FREE ENERGY PREDICTED BY IDOCK:   -2.71 KCAL/MOL
REMARK 927      BINDING AFFINITY PREDICTED BY RF-SCORE:    0.00 PKD
ROOT
ATOM      1  N   GLY A   1     -10.083   9.926  65.026  1.00  0.00    -0.346 NA 
HETATM    2  C   UNL     1      -6.559   9.168  70.978  1.00  0.00    -0.086 C  
ATOM      3  H2  GLY A   1      -9.418  10.644  64.739  1.00  0.00     0.000 HD 
ATOM      4  H1  GLY A   1      -9.902   9.034  64.567  1.00  0.00     0.000 HD 
ATOM      5  CA  GLY A   1     -10.106   9.752  66.484  1.00  0.00    -0.239 C  
HETATM    6  C   UNL     1      -6.115   7.779  70.546  1.00  0.00    -0.033 C  
ENDROOT
BRANCH   5   7
ATOM      7  C   GLY A   1     -10.377  11.092  67.174  1.00  0.00    -0.220 C  
ATOM      8  H   GLY A   1     -11.951  12.097  67.769  1.00  0.00     0.000 HD 
ATOM      9  O   GLY A   1     -11.782  11.266  67.341  1.00  0.00    -0.580 OA 
ENDBRANCH   5   7
BRANCH   6  10
HETATM   10  C   UNL     1      -7.179   6.702  70.754  1.00  0.00    -0.070 C  
BRANCH  10  11
HETATM   11  C   UNL     1      -6.913   5.766  71.936  1.00  0.00    -0.080 C  
BRANCH  11  12
HETATM   12  C   UNL     1      -7.322   6.453  73.241  1.00  0.00    -0.086 C  
BRANCH  12  13
HETATM   13  C   UNL     1      -8.839   6.563  73.388  1.00  0.00    -0.134 C  
BRANCH  13  14
HETATM   14  C   UNL     1      -9.329   8.015  73.458  1.00  0.00    -0.285 C  
BRANCH  14  15
HETATM   15  C   UNL     1      -9.955   8.562  72.168  1.00  0.00    -0.387 C  
BRANCH  15  16
HETATM   16  C   UNL     1     -11.458   8.631  72.192  1.00  0.00    -0.443 C  
HETATM   17  C   UNL     1     -12.271   7.617  71.857  1.00  0.00    -0.336 C  
BRANCH  17  18
HETATM   18  C   UNL     1     -11.828   6.269  71.367  1.00  0.00    -0.268 C  
BRANCH  18  19
HETATM   19  C   UNL     1     -11.402   6.310  69.901  1.00  0.00    -0.504 C  
BRANCH  19  20
HETATM   20  C   UNL     1     -10.283   5.301  69.650  1.00  0.00    -0.348 C  
BRANCH  20  21
HETATM   21  C   UNL     1      -9.743   5.412  68.227  1.00  0.00    -0.175 C  
BRANCH  21  22
HETATM   22  C   UNL     1      -8.516   4.526  68.031  1.00  0.00    -0.101 C  
BRANCH  22  23
HETATM   23  C   UNL     1      -7.790   4.886  66.738  1.00  0.00    -0.099 C  
BRANCH  23  24
HETATM   24  C   UNL     1      -7.033   6.205  66.864  1.00  0.00    -0.071 C  
HETATM   25  C   UNL     1      -7.529   7.229  65.869  1.00  0.00    -0.080 C  
HETATM   26  O   UNL     1      -6.876   8.408  65.986  1.00  0.00    -0.063 OA 
HETATM   27  O   UNL     1      -8.411   7.051  65.050  1.00  0.00    -0.125 OA 
ENDBRANCH  23  24
ENDBRANCH  22  23
ENDBRANCH  21  22
ENDBRANCH  20  21
ENDBRANCH  19  20
ENDBRANCH  18  19
ENDBRANCH  17  18
ENDBRANCH  15  16
ENDBRANCH  14  15
ENDBRANCH  13  14
ENDBRANCH  12  13
ENDBRANCH  11  12
ENDBRANCH  10  11
ENDBRANCH   6  10
TORSDOF 15
ENDMDL
MODEL      379
REMARK 921   NORMALIZED FREE ENERGY PREDICTED BY IDOCK:   -3.15 KCAL/MOL
REMARK 922        TOTAL FREE ENERGY PREDICTED BY IDOCK:   -7.85 KCAL/MOL
REMARK 923 INTER-LIGAND FREE ENERGY PREDICTED BY IDOCK:   -5.82 KCAL/MOL
REMARK 924 INTRA-LIGAND FREE ENERGY PREDICTED BY IDOCK:   -2.03 KCAL/MOL
REMARK 927      BINDING AFFINITY PREDICTED BY RF-SCORE:    0.00 PKD
ROOT
ATOM      1  N   GLY A   1     -10.678  11.362  64.604  1.00  0.00    -0.318 NA 
HETATM    2  C   UNL     1     -10.479  18.206  65.843  1.00  0.00    -0.292 C  
ATOM      3  H2  GLY A   1     -10.034  11.498  63.825  1.00  0.00     0.000 HD 
ATOM      4  H1  GLY A   1     -10.206  10.992  65.428  1.00  0.00     0.000 HD 
ATOM      5  CA  GLY A   1     -11.397  12.598  64.942  1.00  0.00    -0.311 C  
HETATM    6  C   UNL     1      -9.743  17.955  67.150  1.00  0.00    -0.289 C  
ENDROOT
BRANCH   5   7
ATOM      7  C   GLY A   1     -12.106  13.154  63.704  1.00  0.00    -0.513 C  
ATOM      8  H   GLY A   1     -13.465  12.530  62.437  1.00  0.00     0.000 HD 
ATOM      9  O   GLY A   1     -13.025  12.185  63.205  1.00  0.00    -0.735 OA 
ENDBRANCH   5   7
BRANCH   6  10
HETATM   10  C   UNL     1     -10.657  17.526  68.298  1.00  0.00    -0.354 C  
BRANCH  10  11
HETATM   11  C   UNL     1     -10.348  16.141  68.871  1.00  0.00    -0.250 C  
BRANCH  11  12
HETATM   12  C   UNL     1     -10.875  15.060  67.924  1.00  0.00    -0.280 C  
BRANCH  12  13
HETATM   13  C   UNL     1      -9.788  14.067  67.515  1.00  0.00    -0.236 C  
BRANCH  13  14
HETATM   14  C   UNL     1      -8.369  14.606  67.742  1.00  0.00    -0.168 C  
BRANCH  14  15
HETATM   15  C   UNL     1      -7.440  13.695  68.554  1.00  0.00    -0.119 C  
BRANCH  15  16
HETATM   16  C   UNL     1      -6.855  12.553  67.768  1.00  0.00    -0.120 C  
HETATM   17  C   UNL     1      -6.743  11.295  68.224  1.00  0.00    -0.059 C  
BRANCH  17  18
HETATM   18  C   UNL     1      -7.139  10.825  69.593  1.00  0.00    -0.136 C  
BRANCH  18  19
HETATM   19  C   UNL     1      -8.187   9.716  69.531  1.00  0.00    -0.136 C  
BRANCH  19  20
HETATM   20  C   UNL     1      -9.579  10.317  69.341  1.00  0.00    -0.237 C  
BRANCH  20  21
HETATM   21  C   UNL     1     -10.090  10.095  67.921  1.00  0.00    -0.207 C  
BRANCH  21  22
HETATM   22  C   UNL     1     -10.651   8.686  67.750  1.00  0.00    -0.249 C  
BRANCH  22  23
HETATM   23  C   UNL     1      -9.847   7.905  66.713  1.00  0.00    -0.318 C  
BRANCH  23  24
HETATM   24  C   UNL     1      -8.841   8.797  65.991  1.00  0.00    -0.210 C  
HETATM   25  C   UNL     1      -8.139   8.055  64.877  1.00  0.00    -0.147 C  
HETATM   26  O   UNL     1      -7.258   8.844  64.218  1.00  0.00    -0.089 OA 
HETATM   27  O   UNL     1      -8.322   6.891  64.576  1.00  0.00    -0.048 OA 
ENDBRANCH  23  24
ENDBRANCH  22  23
ENDBRANCH  21  22
ENDBRANCH  20  21
ENDBRANCH  19  20
ENDBRANCH  18  19
ENDBRANCH  17  18
ENDBRANCH  15  16
ENDBRANCH  14  15
ENDBRANCH  13  14
ENDBRANCH  12  13
ENDBRANCH  11  12
ENDBRANCH  10  11
ENDBRANCH   6  10
TORSDOF 15
ENDMDL
MODEL      380
REMARK 921   NORMALIZED FREE ENERGY PREDICTED BY IDOCK:   -3.14 KCAL/MOL
REMARK 922        TOTAL FREE ENERGY PREDICTED BY IDOCK:   -7.85 KCAL/MOL
REMARK 923 INTER-LIGAND FREE ENERGY PREDICTED BY IDOCK:   -5.88 KCAL/MOL
REMARK 924 INTRA-LIGAND FREE ENERGY PREDICTED BY IDOCK:   -1.97 KCAL/MOL
REMARK 927      BINDING AFFINITY PREDICTED BY RF-SCORE:    0.00 PKD
ROOT
ATOM      1  N   GLY A   1     -11.406   4.566  65.297  1.00  0.00    -1.078 NA 
HETATM    2  C   UNL     1      -8.374   5.531  71.485  1.00  0.00    -0.123 C  
ATOM      3  H2  GLY A   1     -11.497   3.573  65.511  1.00  0.00     0.000 HD 
ATOM      4  H1  GLY A   1     -12.286   5.064  65.421  1.00  0.00     0.000 HD 
ATOM      5  CA  GLY A   1     -10.345   5.203  66.089  1.00  0.00    -0.236 C  
HETATM    6  C   UNL     1      -9.581   6.326  71.960  1.00  0.00    -0.161 C  
ENDROOT
BRANCH   5   7
ATOM      7  C   GLY A   1      -9.022   4.454  65.902  1.00  0.00    -0.124 C  
ATOM      8  H   GLY A   1      -8.433   2.585  65.868  1.00  0.00     0.000 HD 
ATOM      9  O   GLY A   1      -9.253   3.050  65.984  1.00  0.00    -0.153 OA 
ENDBRANCH   5   7
BRANCH   6  10
HETATM   10  C   UNL     1      -9.596   7.772  71.468  1.00  0.00    -0.187 C  
BRANCH  10  11
HETATM   11  C   UNL     1     -10.776   8.120  70.556  1.00  0.00    -0.233 C  
BRANCH  11  12
HETATM   12  C   UNL     1     -10.498   7.615  69.137  1.00  0.00    -0.220 C  
BRANCH  12  13
HETATM   13  C   UNL     1      -9.249   8.251  68.529  1.00  0.00    -0.136 C  
BRANCH  13  14
HETATM   14  C   UNL     1      -9.554   9.098  67.287  1.00  0.00    -0.200 C  
BRANCH  14  15
HETATM   15  C   UNL     1      -9.536  10.616  67.504  1.00  0.00    -0.169 C  
BRANCH  15  16
HETATM   16  C   UNL     1     -10.810  11.173  68.078  1.00  0.00    -0.274 C  
HETATM   17  C   UNL     1     -11.781  11.752  67.355  1.00  0.00    -0.304 C  
BRANCH  17  18
HETATM   18  C   UNL     1     -11.746  11.977  65.871  1.00  0.00    -0.312 C  
BRANCH  18  19
HETATM   19  C   UNL     1     -12.203  13.387  65.501  1.00  0.00    -0.499 C  
BRANCH  19  20
HETATM   20  C   UNL     1     -11.009  14.341  65.489  1.00  0.00    -0.319 C  
BRANCH  20  21
HETATM   21  C   UNL     1     -11.005  15.241  66.721  1.00  0.00    -0.306 C  
BRANCH  21  22
HETATM   22  C   UNL     1      -9.580  15.560  67.167  1.00  0.00    -0.228 C  
BRANCH  22  23
HETATM   23  C   UNL     1      -8.863  14.296  67.633  1.00  0.00    -0.196 C  
BRANCH  23  24
HETATM   24  C   UNL     1      -7.380  14.325  67.276  1.00  0.00    -0.052 C  
HETATM   25  C   UNL     1      -6.545  14.874  68.410  1.00  0.00    -0.103 C  
HETATM   26  O   UNL     1      -5.225  14.887  68.109  1.00  0.00    -0.106 OA 
HETATM   27  O   UNL     1      -6.972  15.263  69.480  1.00  0.00    -0.163 OA 
ENDBRANCH  23  24
ENDBRANCH  22  23
ENDBRANCH  21  22
ENDBRANCH  20  21
ENDBRANCH  19  20
ENDBRANCH  18  19
ENDBRANCH  17  18
ENDBRANCH  15  16
ENDBRANCH  14  15
ENDBRANCH  13  14
ENDBRANCH  12  13
ENDBRANCH  11  12
ENDBRANCH  10  11
ENDBRANCH   6  10
TORSDOF 15
ENDMDL
MODEL      381
REMARK 921   NORMALIZED FREE ENERGY PREDICTED BY IDOCK:   -3.14 KCAL/MOL
REMARK 922        TOTAL FREE ENERGY PREDICTED BY IDOCK:   -7.85 KCAL/MOL
REMARK 923 INTER-LIGAND FREE ENERGY PREDICTED BY IDOCK:   -6.56 KCAL/MOL
REMARK 924 INTRA-LIGAND FREE ENERGY PREDICTED BY IDOCK:   -1.29 KCAL/MOL
REMARK 927      BINDING AFFINITY PREDICTED BY RF-SCORE:    0.00 PKD
ROOT
ATOM      1  N   GLY A   1     -13.925  15.419  70.812  1.00  0.00    -0.859 NA 
HETATM    2  C   UNL     1      -9.618  12.840  65.995  1.00  0.00    -0.182 C  
ATOM      3  H2  GLY A   1     -14.038  16.258  70.243  1.00  0.00     0.000 HD 
ATOM      4  H1  GLY A   1     -14.724  14.792  70.728  1.00  0.00     0.000 HD 
ATOM      5  CA  GLY A   1     -12.682  14.704  70.494  1.00  0.00    -0.337 C  
HETATM    6  C   UNL     1     -10.641  11.772  65.640  1.00  0.00    -0.314 C  
ENDROOT
BRANCH   5   7
ATOM      7  C   GLY A   1     -11.482  15.647  70.620  1.00  0.00    -0.375 C  
ATOM      8  H   GLY A   1     -10.861  17.003  71.891  1.00  0.00     0.000 HD 
ATOM      9  O   GLY A   1     -11.605  16.418  71.812  1.00  0.00    -0.453 OA 
ENDBRANCH   5   7
BRANCH   6  10
HETATM   10  C   UNL     1     -10.658  10.591  66.610  1.00  0.00    -0.263 C  
BRANCH  10  11
HETATM   11  C   UNL     1      -9.862   9.372  66.139  1.00  0.00    -0.356 C  
BRANCH  11  12
HETATM   12  C   UNL     1      -8.518   9.318  66.871  1.00  0.00    -0.128 C  
BRANCH  12  13
HETATM   13  C   UNL     1      -7.585   8.255  66.294  1.00  0.00    -0.096 C  
BRANCH  13  14
HETATM   14  C   UNL     1      -8.299   6.927  66.006  1.00  0.00    -0.134 C  
BRANCH  14  15
HETATM   15  C   UNL     1      -8.268   5.901  67.146  1.00  0.00    -0.105 C  
BRANCH  15  16
HETATM   16  C   UNL     1      -9.382   4.890  67.097  1.00  0.00    -0.139 C  
HETATM   17  C   UNL     1      -9.603   3.956  68.035  1.00  0.00    -0.189 C  
BRANCH  17  18
HETATM   18  C   UNL     1      -8.763   3.734  69.259  1.00  0.00    -0.131 C  
BRANCH  18  19
HETATM   19  C   UNL     1      -9.619   3.528  70.506  1.00  0.00    -0.246 C  
BRANCH  19  20
HETATM   20  C   UNL     1      -9.098   4.394  71.652  1.00  0.00    -0.174 C  
BRANCH  20  21
HETATM   21  C   UNL     1     -10.237   4.892  72.536  1.00  0.00    -0.248 C  
BRANCH  21  22
HETATM   22  C   UNL     1     -11.047   5.977  71.831  1.00  0.00    -0.331 C  
BRANCH  22  23
HETATM   23  C   UNL     1     -10.337   7.326  71.919  1.00  0.00    -0.210 C  
BRANCH  23  24
HETATM   24  C   UNL     1     -11.324   8.471  72.121  1.00  0.00    -0.442 C  
HETATM   25  C   UNL     1     -11.483   9.296  70.864  1.00  0.00    -0.303 C  
HETATM   26  O   UNL     1     -12.372  10.304  71.027  1.00  0.00    -0.317 OA 
HETATM   27  O   UNL     1     -10.903   9.103  69.812  1.00  0.00    -0.228 OA 
ENDBRANCH  23  24
ENDBRANCH  22  23
ENDBRANCH  21  22
ENDBRANCH  20  21
ENDBRANCH  19  20
ENDBRANCH  18  19
ENDBRANCH  17  18
ENDBRANCH  15  16
ENDBRANCH  14  15
ENDBRANCH  13  14
ENDBRANCH  12  13
ENDBRANCH  11  12
ENDBRANCH  10  11
ENDBRANCH   6  10
TORSDOF 15
ENDMDL
MODEL      382
REMARK 921   NORMALIZED FREE ENERGY PREDICTED BY IDOCK:   -3.14 KCAL/MOL
REMARK 922        TOTAL FREE ENERGY PREDICTED BY IDOCK:   -7.84 KCAL/MOL
REMARK 923 INTER-LIGAND FREE ENERGY PREDICTED BY IDOCK:   -5.69 KCAL/MOL
REMARK 924 INTRA-LIGAND FREE ENERGY PREDICTED BY IDOCK:   -2.14 KCAL/MOL
REMARK 927      BINDING AFFINITY PREDICTED BY RF-SCORE:    0.00 PKD
ROOT
ATOM      1  N   GLY A   1     -12.805  13.602  70.932  1.00  0.00    -0.285 NA 
HETATM    2  C   UNL     1      -6.995   9.853  70.156  1.00  0.00    -0.138 C  
ATOM      3  H2  GLY A   1     -12.924  13.201  71.862  1.00  0.00     0.000 HD 
ATOM      4  H1  GLY A   1     -12.432  14.550  70.970  1.00  0.00     0.000 HD 
ATOM      5  CA  GLY A   1     -11.961  12.758  70.075  1.00  0.00    -0.301 C  
HETATM    6  C   UNL     1      -6.161  11.125  70.188  1.00  0.00    -0.147 C  
ENDROOT
BRANCH   5   7
ATOM      7  C   GLY A   1     -12.521  11.334  70.018  1.00  0.00    -0.182 C  
ATOM      8  H   GLY A   1     -12.966   9.923  71.303  1.00  0.00     0.000 HD 
ATOM      9  O   GLY A   1     -12.618  10.806  71.339  1.00  0.00    -0.376 OA 
ENDBRANCH   5   7
BRANCH   6  10
HETATM   10  C   UNL     1      -6.143  11.881  68.860  1.00  0.00    -0.062 C  
BRANCH  10  11
HETATM   11  C   UNL     1      -7.189  12.993  68.749  1.00  0.00    -0.082 C  
BRANCH  11  12
HETATM   12  C   UNL     1      -7.813  12.977  67.351  1.00  0.00    -0.166 C  
BRANCH  12  13
HETATM   13  C   UNL     1      -9.185  13.648  67.320  1.00  0.00    -0.232 C  
BRANCH  13  14
HETATM   14  C   UNL     1      -9.195  14.952  66.510  1.00  0.00    -0.314 C  
BRANCH  14  15
HETATM   15  C   UNL     1     -10.521  15.723  66.519  1.00  0.00    -0.304 C  
BRANCH  15  16
HETATM   16  C   UNL     1     -11.049  16.059  65.151  1.00  0.00    -0.291 C  
HETATM   17  C   UNL     1     -11.681  15.191  64.346  1.00  0.00    -0.301 C  
BRANCH  17  18
HETATM   18  C   UNL     1     -11.929  13.742  64.650  1.00  0.00    -0.445 C  
BRANCH  18  19
HETATM   19  C   UNL     1     -11.214  12.825  63.661  1.00  0.00    -0.482 C  
BRANCH  19  20
HETATM   20  C   UNL     1     -11.218  11.387  64.179  1.00  0.00    -0.327 C  
BRANCH  20  21
HETATM   21  C   UNL     1      -9.902  11.042  64.870  1.00  0.00    -0.327 C  
BRANCH  21  22
HETATM   22  C   UNL     1     -10.142  10.263  66.160  1.00  0.00    -0.307 C  
BRANCH  22  23
HETATM   23  C   UNL     1      -9.343   8.962  66.164  1.00  0.00    -0.301 C  
BRANCH  23  24
HETATM   24  C   UNL     1      -7.915   9.180  66.653  1.00  0.00    -0.104 C  
HETATM   25  C   UNL     1      -6.920   9.109  65.517  1.00  0.00    -0.081 C  
HETATM   26  O   UNL     1      -5.651   9.320  65.939  1.00  0.00    -0.044 OA 
HETATM   27  O   UNL     1      -7.191   8.895  64.351  1.00  0.00    -0.091 OA 
ENDBRANCH  23  24
ENDBRANCH  22  23
ENDBRANCH  21  22
ENDBRANCH  20  21
ENDBRANCH  19  20
ENDBRANCH  18  19
ENDBRANCH  17  18
ENDBRANCH  15  16
ENDBRANCH  14  15
ENDBRANCH  13  14
ENDBRANCH  12  13
ENDBRANCH  11  12
ENDBRANCH  10  11
ENDBRANCH   6  10
TORSDOF 15
ENDMDL
MODEL      383
REMARK 921   NORMALIZED FREE ENERGY PREDICTED BY IDOCK:   -3.13 KCAL/MOL
REMARK 922        TOTAL FREE ENERGY PREDICTED BY IDOCK:   -7.83 KCAL/MOL
REMARK 923 INTER-LIGAND FREE ENERGY PREDICTED BY IDOCK:   -5.99 KCAL/MOL
REMARK 924 INTRA-LIGAND FREE ENERGY PREDICTED BY IDOCK:   -1.83 KCAL/MOL
REMARK 927      BINDING AFFINITY PREDICTED BY RF-SCORE:    0.00 PKD
ROOT
ATOM      1  N   GLY A   1     -10.300  11.149  69.412  1.00  0.00    -0.425 NA 
HETATM    2  C   UNL     1      -8.253   8.548  63.292  1.00  0.00    -0.141 C  
ATOM      3  H2  GLY A   1      -9.494  10.708  69.855  1.00  0.00     0.000 HD 
ATOM      4  H1  GLY A   1     -10.154  12.148  69.268  1.00  0.00     0.000 HD 
ATOM      5  CA  GLY A   1     -10.654  10.499  68.143  1.00  0.00    -0.204 C  
HETATM    6  C   UNL     1      -7.929   9.948  62.797  1.00  0.00    -0.134 C  
ENDROOT
BRANCH   5   7
ATOM      7  C   GLY A   1     -10.873   8.999  68.360  1.00  0.00    -0.011 C  
ATOM      8  H   GLY A   1     -10.310   7.650  69.665  1.00  0.00     0.000 HD 
ATOM      9  O   GLY A   1     -10.175   8.580  69.530  1.00  0.00    -0.196 OA 
ENDBRANCH   5   7
BRANCH   6  10
HETATM   10  C   UNL     1      -9.154  10.734  62.330  1.00  0.00    -0.332 C  
BRANCH  10  11
HETATM   11  C   UNL     1      -9.635  11.802  63.315  1.00  0.00    -0.283 C  
BRANCH  11  12
HETATM   12  C   UNL     1     -11.117  11.584  63.631  1.00  0.00    -0.469 C  
BRANCH  12  13
HETATM   13  C   UNL     1     -11.948  12.849  63.425  1.00  0.00    -0.612 C  
BRANCH  13  14
HETATM   14  C   UNL     1     -12.557  13.385  64.728  1.00  0.00    -0.370 C  
BRANCH  14  15
HETATM   15  C   UNL     1     -11.860  12.930  66.016  1.00  0.00    -0.485 C  
BRANCH  15  16
HETATM   16  C   UNL     1     -12.097  13.831  67.198  1.00  0.00    -0.416 C  
HETATM   17  C   UNL     1     -11.470  15.000  67.400  1.00  0.00    -0.326 C  
BRANCH  17  18
HETATM   18  C   UNL     1     -10.407  15.584  66.516  1.00  0.00    -0.293 C  
BRANCH  18  19
HETATM   19  C   UNL     1      -9.211  16.086  67.322  1.00  0.00    -0.215 C  
BRANCH  19  20
HETATM   20  C   UNL     1      -7.958  16.106  66.448  1.00  0.00    -0.252 C  
BRANCH  20  21
HETATM   21  C   UNL     1      -6.714  15.737  67.251  1.00  0.00    -0.197 C  
BRANCH  21  22
HETATM   22  C   UNL     1      -7.048  14.742  68.358  1.00  0.00    -0.114 C  
BRANCH  22  23
HETATM   23  C   UNL     1      -6.029  13.605  68.390  1.00  0.00    -0.097 C  
BRANCH  23  24
HETATM   24  C   UNL     1      -6.357  12.525  67.364  1.00  0.00    -0.157 C  
HETATM   25  C   UNL     1      -6.993  11.316  68.012  1.00  0.00    -0.068 C  
HETATM   26  O   UNL     1      -7.304  10.360  67.106  1.00  0.00    -0.089 OA 
HETATM   27  O   UNL     1      -7.218  11.186  69.200  1.00  0.00    -0.108 OA 
ENDBRANCH  23  24
ENDBRANCH  22  23
ENDBRANCH  21  22
ENDBRANCH  20  21
ENDBRANCH  19  20
ENDBRANCH  18  19
ENDBRANCH  17  18
ENDBRANCH  15  16
ENDBRANCH  14  15
ENDBRANCH  13  14
ENDBRANCH  12  13
ENDBRANCH  11  12
ENDBRANCH  10  11
ENDBRANCH   6  10
TORSDOF 15
ENDMDL
MODEL      384
REMARK 921   NORMALIZED FREE ENERGY PREDICTED BY IDOCK:   -3.12 KCAL/MOL
REMARK 922        TOTAL FREE ENERGY PREDICTED BY IDOCK:   -7.81 KCAL/MOL
REMARK 923 INTER-LIGAND FREE ENERGY PREDICTED BY IDOCK:   -6.55 KCAL/MOL
REMARK 924 INTRA-LIGAND FREE ENERGY PREDICTED BY IDOCK:   -1.26 KCAL/MOL
REMARK 927      BINDING AFFINITY PREDICTED BY RF-SCORE:    0.00 PKD
ROOT
ATOM      1  N   GLY A   1      -5.685  15.939  70.080  1.00  0.00    -0.168 NA 
HETATM    2  C   UNL     1     -10.727  15.939  65.285  1.00  0.00    -0.442 C  
ATOM      3  H2  GLY A   1      -6.157  16.707  70.557  1.00  0.00     0.000 HD 
ATOM      4  H1  GLY A   1      -5.846  15.046  70.545  1.00  0.00     0.000 HD 
ATOM      5  CA  GLY A   1      -6.072  15.852  68.666  1.00  0.00    -0.101 C  
HETATM    6  C   UNL     1     -11.208  14.584  65.780  1.00  0.00    -0.334 C  
ENDROOT
BRANCH   5   7
ATOM      7  C   GLY A   1      -5.830  17.194  67.967  1.00  0.00    -0.123 C  
ATOM      8  H   GLY A   1      -5.442  19.036  68.512  1.00  0.00     0.000 HD 
ATOM      9  O   GLY A   1      -5.592  18.204  68.945  1.00  0.00    -0.183 OA 
ENDBRANCH   5   7
BRANCH   6  10
HETATM   10  C   UNL     1     -10.378  13.410  65.262  1.00  0.00    -0.330 C  
BRANCH  10  11
HETATM   11  C   UNL     1     -11.016  12.036  65.481  1.00  0.00    -0.345 C  
BRANCH  11  12
HETATM   12  C   UNL     1     -10.854  11.184  64.219  1.00  0.00    -0.354 C  
BRANCH  12  13
HETATM   13  C   UNL     1      -9.414  11.172  63.708  1.00  0.00    -0.258 C  
BRANCH  13  14
HETATM   14  C   UNL     1      -8.450  10.443  64.655  1.00  0.00    -0.176 C  
BRANCH  14  15
HETATM   15  C   UNL     1      -8.893   9.042  65.096  1.00  0.00    -0.224 C  
BRANCH  15  16
HETATM   16  C   UNL     1      -8.521   8.694  66.511  1.00  0.00    -0.118 C  
HETATM   17  C   UNL     1      -9.302   8.002  67.355  1.00  0.00    -0.173 C  
BRANCH  17  18
HETATM   18  C   UNL     1     -10.683   7.498  67.050  1.00  0.00    -0.367 C  
BRANCH  18  19
HETATM   19  C   UNL     1     -10.956   6.152  67.717  1.00  0.00    -0.400 C  
BRANCH  19  20
HETATM   20  C   UNL     1     -10.463   6.173  69.164  1.00  0.00    -0.310 C  
BRANCH  20  21
HETATM   21  C   UNL     1     -11.611   6.420  70.138  1.00  0.00    -0.449 C  
BRANCH  21  22
HETATM   22  C   UNL     1     -11.131   6.353  71.585  1.00  0.00    -0.314 C  
BRANCH  22  23
HETATM   23  C   UNL     1     -11.008   7.754  72.180  1.00  0.00    -0.318 C  
BRANCH  23  24
HETATM   24  C   UNL     1      -9.658   7.961  72.859  1.00  0.00    -0.329 C  
HETATM   25  C   UNL     1      -8.675   8.654  71.943  1.00  0.00    -0.185 C  
HETATM   26  O   UNL     1      -7.479   8.860  72.544  1.00  0.00    -0.349 OA 
HETATM   27  O   UNL     1      -8.898   9.005  70.800  1.00  0.00    -0.194 OA 
ENDBRANCH  23  24
ENDBRANCH  22  23
ENDBRANCH  21  22
ENDBRANCH  20  21
ENDBRANCH  19  20
ENDBRANCH  18  19
ENDBRANCH  17  18
ENDBRANCH  15  16
ENDBRANCH  14  15
ENDBRANCH  13  14
ENDBRANCH  12  13
ENDBRANCH  11  12
ENDBRANCH  10  11
ENDBRANCH   6  10
TORSDOF 15
ENDMDL
MODEL      385
REMARK 921   NORMALIZED FREE ENERGY PREDICTED BY IDOCK:   -3.12 KCAL/MOL
REMARK 922        TOTAL FREE ENERGY PREDICTED BY IDOCK:   -7.80 KCAL/MOL
REMARK 923 INTER-LIGAND FREE ENERGY PREDICTED BY IDOCK:   -6.04 KCAL/MOL
REMARK 924 INTRA-LIGAND FREE ENERGY PREDICTED BY IDOCK:   -1.76 KCAL/MOL
REMARK 927      BINDING AFFINITY PREDICTED BY RF-SCORE:    0.00 PKD
ROOT
ATOM      1  N   GLY A   1     -10.688  11.362  63.165  1.00  0.00    -0.748 NA 
HETATM    2  C   UNL     1      -8.101  14.325  68.904  1.00  0.00    -0.063 C  
ATOM      3  H2  GLY A   1     -11.624  11.436  63.565  1.00  0.00     0.000 HD 
ATOM      4  H1  GLY A   1     -10.515  12.085  62.467  1.00  0.00     0.000 HD 
ATOM      5  CA  GLY A   1      -9.646  11.395  64.200  1.00  0.00    -0.191 C  
HETATM    6  C   UNL     1      -7.727  15.564  68.105  1.00  0.00    -0.126 C  
ENDROOT
BRANCH   5   7
ATOM      7  C   GLY A   1      -9.907  10.310  65.248  1.00  0.00    -0.306 C  
ATOM      8  H   GLY A   1     -10.830  10.185  66.972  1.00  0.00     0.000 HD 
ATOM      9  O   GLY A   1     -10.668  10.858  66.322  1.00  0.00    -0.243 OA 
ENDBRANCH   5   7
BRANCH   6  10
HETATM   10  C   UNL     1      -6.434  15.412  67.305  1.00  0.00    -0.003 C  
BRANCH  10  11
HETATM   11  C   UNL     1      -5.691  16.725  67.045  1.00  0.00    -0.193 C  
BRANCH  11  12
HETATM   12  C   UNL     1      -6.484  17.580  66.053  1.00  0.00    -0.227 C  
BRANCH  12  13
HETATM   13  C   UNL     1      -6.399  19.071  66.375  1.00  0.00    -0.209 C  
BRANCH  13  14
HETATM   14  C   UNL     1      -6.228  19.350  67.874  1.00  0.00    -0.227 C  
BRANCH  14  15
HETATM   15  C   UNL     1      -7.526  19.613  68.648  1.00  0.00    -0.368 C  
BRANCH  15  16
HETATM   16  C   UNL     1      -8.674  20.072  67.790  1.00  0.00    -0.367 C  
HETATM   17  C   UNL     1      -9.963  19.787  68.029  1.00  0.00    -0.553 C  
BRANCH  17  18
HETATM   18  C   UNL     1     -10.474  18.936  69.155  1.00  0.00     0.262 C  
BRANCH  18  19
HETATM   19  C   UNL     1     -10.307  17.447  68.863  1.00  0.00    -0.340 C  
BRANCH  19  20
HETATM   20  C   UNL     1     -10.729  16.621  70.077  1.00  0.00    -0.157 C  
BRANCH  20  21
HETATM   21  C   UNL     1     -12.002  15.828  69.794  1.00  0.00    -0.337 C  
BRANCH  21  22
HETATM   22  C   UNL     1     -11.739  14.696  68.806  1.00  0.00    -0.357 C  
BRANCH  22  23
HETATM   23  C   UNL     1     -11.994  15.159  67.373  1.00  0.00     0.036 C  
BRANCH  23  24
HETATM   24  C   UNL     1     -11.289  14.264  66.358  1.00  0.00    -0.346 C  
HETATM   25  C   UNL     1     -10.872  15.039  65.128  1.00  0.00    -0.407 C  
HETATM   26  O   UNL     1     -10.229  14.257  64.230  1.00  0.00    -0.090 OA 
HETATM   27  O   UNL     1     -11.070  16.224  64.937  1.00  0.00    -0.480 OA 
ENDBRANCH  23  24
ENDBRANCH  22  23
ENDBRANCH  21  22
ENDBRANCH  20  21
ENDBRANCH  19  20
ENDBRANCH  18  19
ENDBRANCH  17  18
ENDBRANCH  15  16
ENDBRANCH  14  15
ENDBRANCH  13  14
ENDBRANCH  12  13
ENDBRANCH  11  12
ENDBRANCH  10  11
ENDBRANCH   6  10
TORSDOF 15
ENDMDL
MODEL      386
REMARK 921   NORMALIZED FREE ENERGY PREDICTED BY IDOCK:   -3.11 KCAL/MOL
REMARK 922        TOTAL FREE ENERGY PREDICTED BY IDOCK:   -7.78 KCAL/MOL
REMARK 923 INTER-LIGAND FREE ENERGY PREDICTED BY IDOCK:   -5.87 KCAL/MOL
REMARK 924 INTRA-LIGAND FREE ENERGY PREDICTED BY IDOCK:   -1.92 KCAL/MOL
REMARK 927      BINDING AFFINITY PREDICTED BY RF-SCORE:    0.00 PKD
ROOT
ATOM      1  N   GLY A   1      -9.978  12.765  65.096  1.00  0.00    -0.456 NA 
HETATM    2  C   UNL     1     -13.033  12.246  71.326  1.00  0.00    -0.299 C  
ATOM      3  H2  GLY A   1      -9.435  13.556  65.442  1.00  0.00     0.000 HD 
ATOM      4  H1  GLY A   1      -9.426  11.908  65.068  1.00  0.00     0.000 HD 
ATOM      5  CA  GLY A   1     -11.203  12.554  65.880  1.00  0.00    -0.320 C  
HETATM    6  C   UNL     1     -12.325  10.923  71.571  1.00  0.00    -0.344 C  
ENDROOT
BRANCH   5   7
ATOM      7  C   GLY A   1     -12.031  13.841  65.922  1.00  0.00    -0.406 C  
ATOM      8  H   GLY A   1     -12.799  14.999  67.305  1.00  0.00     0.000 HD 
ATOM      9  O   GLY A   1     -12.285  14.201  67.278  1.00  0.00    -0.402 OA 
ENDBRANCH   5   7
BRANCH   6  10
HETATM   10  C   UNL     1     -12.986   9.734  70.876  1.00  0.00    -0.300 C  
BRANCH  10  11
HETATM   11  C   UNL     1     -12.156   8.448  70.890  1.00  0.00    -0.152 C  
BRANCH  11  12
HETATM   12  C   UNL     1     -10.943   8.626  71.808  1.00  0.00    -0.396 C  
BRANCH  12  13
HETATM   13  C   UNL     1     -11.043   7.772  73.071  1.00  0.00    -0.419 C  
BRANCH  13  14
HETATM   14  C   UNL     1      -9.671   7.373  73.633  1.00  0.00    -0.349 C  
BRANCH  14  15
HETATM   15  C   UNL     1      -9.549   5.919  74.103  1.00  0.00    -0.170 C  
BRANCH  15  16
HETATM   16  C   UNL     1     -10.616   5.004  73.565  1.00  0.00    -0.307 C  
HETATM   17  C   UNL     1     -10.415   4.076  72.617  1.00  0.00    -0.222 C  
BRANCH  17  18
HETATM   18  C   UNL     1      -9.117   3.821  71.908  1.00  0.00    -0.163 C  
BRANCH  18  19
HETATM   19  C   UNL     1      -8.907   4.786  70.743  1.00  0.00    -0.153 C  
BRANCH  19  20
HETATM   20  C   UNL     1      -7.630   5.597  70.954  1.00  0.00    -0.091 C  
BRANCH  20  21
HETATM   21  C   UNL     1      -7.813   7.046  70.514  1.00  0.00    -0.101 C  
BRANCH  21  22
HETATM   22  C   UNL     1      -7.616   7.195  69.008  1.00  0.00    -0.100 C  
BRANCH  22  23
HETATM   23  C   UNL     1      -8.580   8.231  68.436  1.00  0.00    -0.133 C  
BRANCH  23  24
HETATM   24  C   UNL     1     -10.006   7.695  68.365  1.00  0.00    -0.192 C  
HETATM   25  C   UNL     1     -10.106   6.501  67.443  1.00  0.00    -0.162 C  
HETATM   26  O   UNL     1     -11.365   6.007  67.388  1.00  0.00    -0.101 OA 
HETATM   27  O   UNL     1      -9.187   6.012  66.815  1.00  0.00    -0.128 OA 
ENDBRANCH  23  24
ENDBRANCH  22  23
ENDBRANCH  21  22
ENDBRANCH  20  21
ENDBRANCH  19  20
ENDBRANCH  18  19
ENDBRANCH  17  18
ENDBRANCH  15  16
ENDBRANCH  14  15
ENDBRANCH  13  14
ENDBRANCH  12  13
ENDBRANCH  11  12
ENDBRANCH  10  11
ENDBRANCH   6  10
TORSDOF 15
ENDMDL
MODEL      387
REMARK 921   NORMALIZED FREE ENERGY PREDICTED BY IDOCK:   -3.10 KCAL/MOL
REMARK 922        TOTAL FREE ENERGY PREDICTED BY IDOCK:   -7.77 KCAL/MOL
REMARK 923 INTER-LIGAND FREE ENERGY PREDICTED BY IDOCK:   -6.73 KCAL/MOL
REMARK 924 INTRA-LIGAND FREE ENERGY PREDICTED BY IDOCK:   -1.04 KCAL/MOL
REMARK 927      BINDING AFFINITY PREDICTED BY RF-SCORE:    0.00 PKD
ROOT
ATOM      1  N   GLY A   1      -9.867  20.910  66.690  1.00  0.00    -0.508 NA 
HETATM    2  C   UNL     1      -9.421  13.970  66.478  1.00  0.00    -0.295 C  
ATOM      3  H2  GLY A   1      -8.849  20.963  66.664  1.00  0.00     0.000 HD 
ATOM      4  H1  GLY A   1     -10.282  21.115  65.782  1.00  0.00     0.000 HD 
ATOM      5  CA  GLY A   1     -10.335  19.607  67.180  1.00  0.00    -0.457 C  
HETATM    6  C   UNL     1     -10.024  13.966  65.082  1.00  0.00    -0.249 C  
ENDROOT
BRANCH   5   7
ATOM      7  C   GLY A   1      -9.711  19.298  68.544  1.00  0.00    -0.414 C  
ATOM      8  H   GLY A   1      -9.996  19.853  70.402  1.00  0.00     0.000 HD 
ATOM      9  O   GLY A   1     -10.383  20.044  69.556  1.00  0.00    -0.214 OA 
ENDBRANCH   5   7
BRANCH   6  10
HETATM   10  C   UNL     1     -11.545  14.113  65.070  1.00  0.00    -0.362 C  
BRANCH  10  11
HETATM   11  C   UNL     1     -12.310  12.790  64.983  1.00  0.00    -0.559 C  
BRANCH  11  12
HETATM   12  C   UNL     1     -11.982  12.088  63.663  1.00  0.00    -0.612 C  
BRANCH  12  13
HETATM   13  C   UNL     1     -10.490  12.132  63.338  1.00  0.00    -0.450 C  
BRANCH  13  14
HETATM   14  C   UNL     1      -9.859  10.736  63.237  1.00  0.00    -0.394 C  
BRANCH  14  15
HETATM   15  C   UNL     1      -9.917   9.893  64.517  1.00  0.00    -0.001 C  
BRANCH  15  16
HETATM   16  C   UNL     1      -9.049  10.404  65.634  1.00  0.00    -0.206 C  
HETATM   17  C   UNL     1      -9.453  10.550  66.906  1.00  0.00    -0.191 C  
BRANCH  17  18
HETATM   18  C   UNL     1     -10.836  10.273  67.418  1.00  0.00    -0.336 C  
BRANCH  18  19
HETATM   19  C   UNL     1     -10.812   9.406  68.675  1.00  0.00    -0.149 C  
BRANCH  19  20
HETATM   20  C   UNL     1     -10.033   8.118  68.411  1.00  0.00    -0.210 C  
BRANCH  20  21
HETATM   21  C   UNL     1     -10.843   7.143  67.561  1.00  0.00    -0.311 C  
BRANCH  21  22
HETATM   22  C   UNL     1      -9.947   6.390  66.581  1.00  0.00    -0.207 C  
BRANCH  22  23
HETATM   23  C   UNL     1      -8.976   5.479  67.327  1.00  0.00    -0.111 C  
BRANCH  23  24
HETATM   24  C   UNL     1      -9.439   4.026  67.309  1.00  0.00    -0.229 C  
HETATM   25  C   UNL     1      -8.387   3.113  66.720  1.00  0.00    -0.092 C  
HETATM   26  O   UNL     1      -8.782   1.819  66.717  1.00  0.00    -0.105 OA 
HETATM   27  O   UNL     1      -7.303   3.464  66.295  1.00  0.00    -0.070 OA 
ENDBRANCH  23  24
ENDBRANCH  22  23
ENDBRANCH  21  22
ENDBRANCH  20  21
ENDBRANCH  19  20
ENDBRANCH  18  19
ENDBRANCH  17  18
ENDBRANCH  15  16
ENDBRANCH  14  15
ENDBRANCH  13  14
ENDBRANCH  12  13
ENDBRANCH  11  12
ENDBRANCH  10  11
ENDBRANCH   6  10
TORSDOF 15
ENDMDL
MODEL      388
REMARK 921   NORMALIZED FREE ENERGY PREDICTED BY IDOCK:   -3.10 KCAL/MOL
REMARK 922        TOTAL FREE ENERGY PREDICTED BY IDOCK:   -7.77 KCAL/MOL
REMARK 923 INTER-LIGAND FREE ENERGY PREDICTED BY IDOCK:   -5.34 KCAL/MOL
REMARK 924 INTRA-LIGAND FREE ENERGY PREDICTED BY IDOCK:   -2.43 KCAL/MOL
REMARK 927      BINDING AFFINITY PREDICTED BY RF-SCORE:    0.00 PKD
ROOT
ATOM      1  N   GLY A   1     -10.765  14.116  69.691  1.00  0.00    -0.452 NA 
HETATM    2  C   UNL     1      -9.899  11.645  63.245  1.00  0.00    -0.428 C  
ATOM      3  H2  GLY A   1     -11.702  14.426  69.433  1.00  0.00     0.000 HD 
ATOM      4  H1  GLY A   1     -10.786  13.256  70.238  1.00  0.00     0.000 HD 
ATOM      5  CA  GLY A   1      -9.898  13.950  68.517  1.00  0.00    -0.214 C  
HETATM    6  C   UNL     1      -9.901  10.222  63.782  1.00  0.00    -0.219 C  
ENDROOT
BRANCH   5   7
ATOM      7  C   GLY A   1      -9.867  15.242  67.695  1.00  0.00    -0.217 C  
ATOM      8  H   GLY A   1     -10.947  16.058  66.278  1.00  0.00     0.000 HD 
ATOM      9  O   GLY A   1     -10.966  15.257  66.788  1.00  0.00    -0.317 OA 
ENDBRANCH   5   7
BRANCH   6  10
HETATM   10  C   UNL     1      -8.566   9.793  64.389  1.00  0.00    -0.202 C  
BRANCH  10  11
HETATM   11  C   UNL     1      -8.160  10.571  65.643  1.00  0.00    -0.161 C  
BRANCH  11  12
HETATM   12  C   UNL     1      -8.978  10.084  66.842  1.00  0.00    -0.150 C  
BRANCH  12  13
HETATM   13  C   UNL     1      -8.768   8.597  67.122  1.00  0.00    -0.134 C  
BRANCH  13  14
HETATM   14  C   UNL     1      -7.574   8.325  68.047  1.00  0.00    -0.102 C  
BRANCH  14  15
HETATM   15  C   UNL     1      -7.339   9.372  69.144  1.00  0.00    -0.071 C  
BRANCH  15  16
HETATM   16  C   UNL     1      -7.737   8.921  70.523  1.00  0.00    -0.106 C  
HETATM   17  C   UNL     1      -8.957   9.090  71.056  1.00  0.00    -0.304 C  
BRANCH  17  18
HETATM   18  C   UNL     1     -10.109   9.787  70.393  1.00  0.00    -0.313 C  
BRANCH  18  19
HETATM   19  C   UNL     1     -11.045   8.800  69.699  1.00  0.00    -0.038 C  
BRANCH  19  20
HETATM   20  C   UNL     1     -11.600   7.800  70.712  1.00  0.00    -0.270 C  
BRANCH  20  21
HETATM   21  C   UNL     1     -11.477   6.367  70.203  1.00  0.00    -0.484 C  
BRANCH  21  22
HETATM   22  C   UNL     1     -10.288   6.217  69.259  1.00  0.00    -0.276 C  
BRANCH  22  23
HETATM   23  C   UNL     1      -9.178   5.397  69.913  1.00  0.00    -0.174 C  
BRANCH  23  24
HETATM   24  C   UNL     1      -9.654   3.996  70.281  1.00  0.00    -0.271 C  
HETATM   25  C   UNL     1      -9.624   3.773  71.776  1.00  0.00    -0.156 C  
HETATM   26  O   UNL     1     -10.063   2.539  72.115  1.00  0.00    -0.158 OA 
HETATM   27  O   UNL     1      -9.260   4.585  72.606  1.00  0.00    -0.124 OA 
ENDBRANCH  23  24
ENDBRANCH  22  23
ENDBRANCH  21  22
ENDBRANCH  20  21
ENDBRANCH  19  20
ENDBRANCH  18  19
ENDBRANCH  17  18
ENDBRANCH  15  16
ENDBRANCH  14  15
ENDBRANCH  13  14
ENDBRANCH  12  13
ENDBRANCH  11  12
ENDBRANCH  10  11
ENDBRANCH   6  10
TORSDOF 15
ENDMDL
MODEL      389
REMARK 921   NORMALIZED FREE ENERGY PREDICTED BY IDOCK:   -3.09 KCAL/MOL
REMARK 922        TOTAL FREE ENERGY PREDICTED BY IDOCK:   -7.74 KCAL/MOL
REMARK 923 INTER-LIGAND FREE ENERGY PREDICTED BY IDOCK:   -5.50 KCAL/MOL
REMARK 924 INTRA-LIGAND FREE ENERGY PREDICTED BY IDOCK:   -2.24 KCAL/MOL
REMARK 927      BINDING AFFINITY PREDICTED BY RF-SCORE:    0.00 PKD
ROOT
ATOM      1  N   GLY A   1     -10.655  11.221  62.858  1.00  0.00    -0.769 NA 
HETATM    2  C   UNL     1      -7.178  11.555  68.875  1.00  0.00    -0.117 C  
ATOM      3  H2  GLY A   1     -10.131  12.030  62.525  1.00  0.00     0.000 HD 
ATOM      4  H1  GLY A   1     -10.299  10.350  62.465  1.00  0.00     0.000 HD 
ATOM      5  CA  GLY A   1     -10.675  11.146  64.325  1.00  0.00    -0.333 C  
HETATM    6  C   UNL     1      -6.471  10.249  68.548  1.00  0.00    -0.052 C  
ENDROOT
BRANCH   5   7
ATOM      7  C   GLY A   1     -11.209  12.455  64.914  1.00  0.00    -0.311 C  
ATOM      8  H   GLY A   1     -12.890  13.461  64.865  1.00  0.00     0.000 HD 
ATOM      9  O   GLY A   1     -12.559  12.649  64.499  1.00  0.00    -0.572 OA 
ENDBRANCH   5   7
BRANCH   6  10
HETATM   10  C   UNL     1      -7.317   9.007  68.824  1.00  0.00    -0.076 C  
BRANCH  10  11
HETATM   11  C   UNL     1      -6.838   8.163  70.008  1.00  0.00    -0.040 C  
BRANCH  11  12
HETATM   12  C   UNL     1      -7.195   8.865  71.321  1.00  0.00    -0.111 C  
BRANCH  12  13
HETATM   13  C   UNL     1      -8.258   8.107  72.113  1.00  0.00    -0.197 C  
BRANCH  13  14
HETATM   14  C   UNL     1      -9.652   8.740  72.002  1.00  0.00    -0.356 C  
BRANCH  14  15
HETATM   15  C   UNL     1     -10.603   8.067  71.004  1.00  0.00    -0.239 C  
BRANCH  15  16
HETATM   16  C   UNL     1     -11.799   7.411  71.637  1.00  0.00    -0.323 C  
HETATM   17  C   UNL     1     -11.758   6.265  72.334  1.00  0.00    -0.301 C  
BRANCH  17  18
HETATM   18  C   UNL     1     -10.533   5.429  72.565  1.00  0.00    -0.262 C  
BRANCH  18  19
HETATM   19  C   UNL     1     -10.151   4.626  71.323  1.00  0.00    -0.245 C  
BRANCH  19  20
HETATM   20  C   UNL     1      -8.632   4.604  71.157  1.00  0.00    -0.128 C  
BRANCH  20  21
HETATM   21  C   UNL     1      -8.232   4.721  69.689  1.00  0.00    -0.072 C  
BRANCH  21  22
HETATM   22  C   UNL     1      -9.290   5.474  68.887  1.00  0.00    -0.154 C  
BRANCH  22  23
HETATM   23  C   UNL     1      -8.712   5.977  67.567  1.00  0.00    -0.107 C  
BRANCH  23  24
HETATM   24  C   UNL     1      -8.636   4.866  66.525  1.00  0.00    -0.109 C  
HETATM   25  C   UNL     1      -9.968   4.650  65.843  1.00  0.00    -0.239 C  
HETATM   26  O   UNL     1      -9.906   3.678  64.903  1.00  0.00    -0.175 OA 
HETATM   27  O   UNL     1     -10.993   5.261  66.081  1.00  0.00    -0.213 OA 
ENDBRANCH  23  24
ENDBRANCH  22  23
ENDBRANCH  21  22
ENDBRANCH  20  21
ENDBRANCH  19  20
ENDBRANCH  18  19
ENDBRANCH  17  18
ENDBRANCH  15  16
ENDBRANCH  14  15
ENDBRANCH  13  14
ENDBRANCH  12  13
ENDBRANCH  11  12
ENDBRANCH  10  11
ENDBRANCH   6  10
TORSDOF 15
ENDMDL
MODEL      390
REMARK 921   NORMALIZED FREE ENERGY PREDICTED BY IDOCK:   -3.08 KCAL/MOL
REMARK 922        TOTAL FREE ENERGY PREDICTED BY IDOCK:   -7.73 KCAL/MOL
REMARK 923 INTER-LIGAND FREE ENERGY PREDICTED BY IDOCK:   -5.64 KCAL/MOL
REMARK 924 INTRA-LIGAND FREE ENERGY PREDICTED BY IDOCK:   -2.09 KCAL/MOL
REMARK 927      BINDING AFFINITY PREDICTED BY RF-SCORE:    0.00 PKD
ROOT
ATOM      1  N   GLY A   1     -11.035  17.015  68.123  1.00  0.00    -0.333 NA 
HETATM    2  C   UNL     1     -10.668  11.488  63.912  1.00  0.00    -0.458 C  
ATOM      3  H2  GLY A   1     -12.050  17.003  68.029  1.00  0.00     0.000 HD 
ATOM      4  H1  GLY A   1     -10.730  16.616  69.010  1.00  0.00     0.000 HD 
ATOM      5  CA  GLY A   1     -10.372  16.332  67.004  1.00  0.00    -0.292 C  
HETATM    6  C   UNL     1     -10.197  10.626  65.072  1.00  0.00    -0.380 C  
ENDROOT
BRANCH   5   7
ATOM      7  C   GLY A   1     -10.830  16.931  65.671  1.00  0.00    -0.079 C  
ATOM      8  H   GLY A   1     -10.820  16.395  63.787  1.00  0.00     0.000 HD 
ATOM      9  O   GLY A   1     -10.536  16.023  64.613  1.00  0.00    -0.502 OA 
ENDBRANCH   5   7
BRANCH   6  10
HETATM   10  C   UNL     1      -8.711  10.787  65.393  1.00  0.00    -0.190 C  
BRANCH  10  11
HETATM   11  C   UNL     1      -8.374  10.722  66.885  1.00  0.00    -0.132 C  
BRANCH  11  12
HETATM   12  C   UNL     1      -7.614  11.985  67.298  1.00  0.00    -0.157 C  
BRANCH  12  13
HETATM   13  C   UNL     1      -8.414  13.258  67.026  1.00  0.00    -0.138 C  
BRANCH  13  14
HETATM   14  C   UNL     1      -8.784  14.018  68.307  1.00  0.00    -0.182 C  
BRANCH  14  15
HETATM   15  C   UNL     1      -9.915  13.399  69.138  1.00  0.00     0.287 C  
BRANCH  15  16
HETATM   16  C   UNL     1     -10.989  12.734  68.320  1.00  0.00    -0.278 C  
HETATM   17  C   UNL     1     -11.769  11.734  68.758  1.00  0.00    -0.389 C  
BRANCH  17  18
HETATM   18  C   UNL     1     -11.677  11.085  70.108  1.00  0.00    -0.442 C  
BRANCH  18  19
HETATM   19  C   UNL     1     -11.008   9.714  70.035  1.00  0.00    -0.297 C  
BRANCH  19  20
HETATM   20  C   UNL     1      -9.530   9.830  70.408  1.00  0.00    -0.202 C  
BRANCH  20  21
HETATM   21  C   UNL     1      -8.729   8.644  69.880  1.00  0.00    -0.133 C  
BRANCH  21  22
HETATM   22  C   UNL     1      -9.509   7.884  68.811  1.00  0.00    -0.147 C  
BRANCH  22  23
HETATM   23  C   UNL     1      -9.679   6.418  69.203  1.00  0.00    -0.148 C  
BRANCH  23  24
HETATM   24  C   UNL     1     -10.874   6.217  70.129  1.00  0.00    -0.375 C  
HETATM   25  C   UNL     1     -10.438   5.919  71.545  1.00  0.00    -0.233 C  
HETATM   26  O   UNL     1     -11.492   5.758  72.378  1.00  0.00    -0.293 OA 
HETATM   27  O   UNL     1      -9.286   5.833  71.928  1.00  0.00    -0.151 OA 
ENDBRANCH  23  24
ENDBRANCH  22  23
ENDBRANCH  21  22
ENDBRANCH  20  21
ENDBRANCH  19  20
ENDBRANCH  18  19
ENDBRANCH  17  18
ENDBRANCH  15  16
ENDBRANCH  14  15
ENDBRANCH  13  14
ENDBRANCH  12  13
ENDBRANCH  11  12
ENDBRANCH  10  11
ENDBRANCH   6  10
TORSDOF 15
ENDMDL
MODEL      391
REMARK 921   NORMALIZED FREE ENERGY PREDICTED BY IDOCK:   -3.08 KCAL/MOL
REMARK 922        TOTAL FREE ENERGY PREDICTED BY IDOCK:   -7.72 KCAL/MOL
REMARK 923 INTER-LIGAND FREE ENERGY PREDICTED BY IDOCK:   -6.07 KCAL/MOL
REMARK 924 INTRA-LIGAND FREE ENERGY PREDICTED BY IDOCK:   -1.65 KCAL/MOL
REMARK 927      BINDING AFFINITY PREDICTED BY RF-SCORE:    0.00 PKD
ROOT
ATOM      1  N   GLY A   1     -11.693   9.947  71.152  1.00  0.00    -0.368 NA 
HETATM    2  C   UNL     1     -11.050   3.482  73.641  1.00  0.00    -0.314 C  
ATOM      3  H2  GLY A   1     -11.612  10.307  72.102  1.00  0.00     0.000 HD 
ATOM      4  H1  GLY A   1     -10.823  10.052  70.630  1.00  0.00     0.000 HD 
ATOM      5  CA  GLY A   1     -12.132   8.545  71.132  1.00  0.00    -0.252 C  
HETATM    6  C   UNL     1      -9.693   3.349  72.968  1.00  0.00    -0.175 C  
ENDROOT
BRANCH   5   7
ATOM      7  C   GLY A   1     -13.437   8.388  71.916  1.00  0.00    -0.363 C  
ATOM      8  H   GLY A   1     -14.595   9.535  73.005  1.00  0.00     0.000 HD 
ATOM      9  O   GLY A   1     -13.785   9.633  72.518  1.00  0.00    -0.392 OA 
ENDBRANCH   5   7
BRANCH   6  10
HETATM   10  C   UNL     1      -9.776   3.029  71.476  1.00  0.00    -0.223 C  
BRANCH  10  11
HETATM   11  C   UNL     1      -8.464   3.225  70.711  1.00  0.00    -0.100 C  
BRANCH  11  12
HETATM   12  C   UNL     1      -7.326   3.497  71.698  1.00  0.00    -0.047 C  
BRANCH  12  13
HETATM   13  C   UNL     1      -6.565   4.780  71.367  1.00  0.00    -0.030 C  
BRANCH  13  14
HETATM   14  C   UNL     1      -6.536   5.087  69.863  1.00  0.00    -0.035 C  
BRANCH  14  15
HETATM   15  C   UNL     1      -7.055   6.473  69.463  1.00  0.00    -0.073 C  
BRANCH  15  16
HETATM   16  C   UNL     1      -8.418   6.804  70.008  1.00  0.00    -0.140 C  
HETATM   17  C   UNL     1      -9.553   6.762  69.294  1.00  0.00    -0.144 C  
BRANCH  17  18
HETATM   18  C   UNL     1      -9.654   6.424  67.836  1.00  0.00    -0.121 C  
BRANCH  18  19
HETATM   19  C   UNL     1     -10.051   7.638  66.998  1.00  0.00    -0.338 C  
BRANCH  19  20
HETATM   20  C   UNL     1      -9.848   8.922  67.802  1.00  0.00    -0.208 C  
BRANCH  20  21
HETATM   21  C   UNL     1     -10.453  10.126  67.088  1.00  0.00    -0.305 C  
BRANCH  21  22
HETATM   22  C   UNL     1      -9.975  10.208  65.641  1.00  0.00    -0.348 C  
BRANCH  22  23
HETATM   23  C   UNL     1     -10.418  11.520  64.998  1.00  0.00    -0.344 C  
BRANCH  23  24
HETATM   24  C   UNL     1     -11.658  12.092  65.678  1.00  0.00    -0.356 C  
HETATM   25  C   UNL     1     -12.219  13.269  64.914  1.00  0.00    -0.420 C  
HETATM   26  O   UNL     1     -13.330  13.772  65.500  1.00  0.00    -0.613 OA 
HETATM   27  O   UNL     1     -11.756  13.734  63.889  1.00  0.00    -0.363 OA 
ENDBRANCH  23  24
ENDBRANCH  22  23
ENDBRANCH  21  22
ENDBRANCH  20  21
ENDBRANCH  19  20
ENDBRANCH  18  19
ENDBRANCH  17  18
ENDBRANCH  15  16
ENDBRANCH  14  15
ENDBRANCH  13  14
ENDBRANCH  12  13
ENDBRANCH  11  12
ENDBRANCH  10  11
ENDBRANCH   6  10
TORSDOF 15
ENDMDL
MODEL      392
REMARK 921   NORMALIZED FREE ENERGY PREDICTED BY IDOCK:   -3.07 KCAL/MOL
REMARK 922        TOTAL FREE ENERGY PREDICTED BY IDOCK:   -7.70 KCAL/MOL
REMARK 923 INTER-LIGAND FREE ENERGY PREDICTED BY IDOCK:   -6.27 KCAL/MOL
REMARK 924 INTRA-LIGAND FREE ENERGY PREDICTED BY IDOCK:   -1.43 KCAL/MOL
REMARK 927      BINDING AFFINITY PREDICTED BY RF-SCORE:    0.00 PKD
ROOT
ATOM      1  N   GLY A   1     -13.929  13.109  72.583  1.00  0.00    -0.743 NA 
HETATM    2  C   UNL     1     -11.977  14.126  65.983  1.00  0.00    -0.427 C  
ATOM      3  H2  GLY A   1     -14.901  13.225  72.300  1.00  0.00     0.000 HD 
ATOM      4  H1  GLY A   1     -13.686  12.128  72.718  1.00  0.00     0.000 HD 
ATOM      5  CA  GLY A   1     -13.001  13.735  71.631  1.00  0.00    -0.364 C  
HETATM    6  C   UNL     1     -11.527  12.677  65.884  1.00  0.00    -0.407 C  
ENDROOT
BRANCH   5   7
ATOM      7  C   GLY A   1     -13.366  15.208  71.427  1.00  0.00    -0.467 C  
ATOM      8  H   GLY A   1     -12.440  16.933  71.518  1.00  0.00     0.000 HD 
ATOM      9  O   GLY A   1     -12.214  16.019  71.644  1.00  0.00    -0.449 OA 
ENDBRANCH   5   7
BRANCH   6  10
HETATM   10  C   UNL     1     -10.156  12.415  66.506  1.00  0.00    -0.246 C  
BRANCH  10  11
HETATM   11  C   UNL     1      -9.965  10.996  67.045  1.00  0.00    -0.223 C  
BRANCH  11  12
HETATM   12  C   UNL     1     -11.251  10.524  67.728  1.00  0.00    -0.344 C  
BRANCH  12  13
HETATM   13  C   UNL     1     -11.336  10.980  69.184  1.00  0.00    -0.348 C  
BRANCH  13  14
HETATM   14  C   UNL     1     -10.863   9.908  70.175  1.00  0.00    -0.356 C  
BRANCH  14  15
HETATM   15  C   UNL     1      -9.371   9.951  70.529  1.00  0.00     0.031 C  
BRANCH  15  16
HETATM   16  C   UNL     1      -8.803   8.630  70.972  1.00  0.00    -0.235 C  
HETATM   17  C   UNL     1      -8.324   7.692  70.141  1.00  0.00    -0.130 C  
BRANCH  17  18
HETATM   18  C   UNL     1      -8.310   7.778  68.643  1.00  0.00    -0.129 C  
BRANCH  18  19
HETATM   19  C   UNL     1      -8.065   6.417  67.998  1.00  0.00    -0.116 C  
BRANCH  19  20
HETATM   20  C   UNL     1      -9.315   5.546  68.114  1.00  0.00    -0.123 C  
BRANCH  20  21
HETATM   21  C   UNL     1      -9.166   4.252  67.319  1.00  0.00    -0.169 C  
BRANCH  21  22
HETATM   22  C   UNL     1      -9.303   3.030  68.224  1.00  0.00    -0.253 C  
BRANCH  22  23
HETATM   23  C   UNL     1      -8.796   3.338  69.630  1.00  0.00    -0.148 C  
BRANCH  23  24
HETATM   24  C   UNL     1      -9.514   2.501  70.685  1.00  0.00    -0.197 C  
HETATM   25  C   UNL     1      -9.668   3.257  71.985  1.00  0.00    -0.165 C  
HETATM   26  O   UNL     1     -10.321   2.529  72.921  1.00  0.00    -0.138 OA 
HETATM   27  O   UNL     1      -9.271   4.387  72.199  1.00  0.00    -0.122 OA 
ENDBRANCH  23  24
ENDBRANCH  22  23
ENDBRANCH  21  22
ENDBRANCH  20  21
ENDBRANCH  19  20
ENDBRANCH  18  19
ENDBRANCH  17  18
ENDBRANCH  15  16
ENDBRANCH  14  15
ENDBRANCH  13  14
ENDBRANCH  12  13
ENDBRANCH  11  12
ENDBRANCH  10  11
ENDBRANCH   6  10
TORSDOF 15
ENDMDL
MODEL      393
REMARK 921   NORMALIZED FREE ENERGY PREDICTED BY IDOCK:   -3.06 KCAL/MOL
REMARK 922        TOTAL FREE ENERGY PREDICTED BY IDOCK:   -7.70 KCAL/MOL
REMARK 923 INTER-LIGAND FREE ENERGY PREDICTED BY IDOCK:   -5.18 KCAL/MOL
REMARK 924 INTRA-LIGAND FREE ENERGY PREDICTED BY IDOCK:   -2.52 KCAL/MOL
REMARK 927      BINDING AFFINITY PREDICTED BY RF-SCORE:    0.00 PKD
ROOT
ATOM      1  N   GLY A   1     -11.893   7.514  72.914  1.00  0.00    -0.594 NA 
HETATM    2  C   UNL     1     -11.627  11.675  67.344  1.00  0.00    -0.330 C  
ATOM      3  H2  GLY A   1     -12.432   6.841  72.369  1.00  0.00     0.000 HD 
ATOM      4  H1  GLY A   1     -10.917   7.234  73.006  1.00  0.00     0.000 HD 
ATOM      5  CA  GLY A   1     -11.983   8.869  72.355  1.00  0.00    -0.250 C  
HETATM    6  C   UNL     1     -10.130  11.432  67.224  1.00  0.00    -0.218 C  
ENDROOT
BRANCH   5   7
ATOM      7  C   GLY A   1     -13.449   9.289  72.216  1.00  0.00    -0.482 C  
ATOM      8  H   GLY A   1     -14.546  10.221  70.886  1.00  0.00     0.000 HD 
ATOM      9  O   GLY A   1     -13.637   9.960  70.972  1.00  0.00    -0.329 OA 
ENDBRANCH   5   7
BRANCH   6  10
HETATM   10  C   UNL     1      -9.293  12.266  68.193  1.00  0.00    -0.205 C  
BRANCH  10  11
HETATM   11  C   UNL     1      -7.869  12.556  67.712  1.00  0.00    -0.151 C  
BRANCH  11  12
HETATM   12  C   UNL     1      -6.862  12.095  68.770  1.00  0.00    -0.095 C  
BRANCH  12  13
HETATM   13  C   UNL     1      -6.730  10.574  68.820  1.00  0.00    -0.054 C  
BRANCH  13  14
HETATM   14  C   UNL     1      -6.572  10.034  70.248  1.00  0.00    -0.127 C  
BRANCH  14  15
HETATM   15  C   UNL     1      -7.683   9.089  70.722  1.00  0.00    -0.144 C  
BRANCH  15  16
HETATM   16  C   UNL     1      -9.028   9.358  70.105  1.00  0.00    -0.256 C  
HETATM   17  C   UNL     1      -9.926   8.411  69.793  1.00  0.00    -0.191 C  
BRANCH  17  18
HETATM   18  C   UNL     1      -9.729   6.933  69.965  1.00  0.00    -0.170 C  
BRANCH  18  19
HETATM   19  C   UNL     1     -10.765   6.128  69.185  1.00  0.00    -0.381 C  
BRANCH  19  20
HETATM   20  C   UNL     1     -10.073   5.233  68.157  1.00  0.00    -0.211 C  
BRANCH  20  21
HETATM   21  C   UNL     1      -8.771   5.857  67.665  1.00  0.00    -0.104 C  
BRANCH  21  22
HETATM   22  C   UNL     1      -8.960   6.530  66.308  1.00  0.00    -0.168 C  
BRANCH  22  23
HETATM   23  C   UNL     1      -8.518   7.990  66.362  1.00  0.00    -0.138 C  
BRANCH  23  24
HETATM   24  C   UNL     1      -8.898   8.742  65.090  1.00  0.00    -0.177 C  
HETATM   25  C   UNL     1      -7.858   9.775  64.721  1.00  0.00    -0.134 C  
HETATM   26  O   UNL     1      -8.178  10.434  63.583  1.00  0.00    -0.163 OA 
HETATM   27  O   UNL     1      -6.841  10.009  65.346  1.00  0.00    -0.108 OA 
ENDBRANCH  23  24
ENDBRANCH  22  23
ENDBRANCH  21  22
ENDBRANCH  20  21
ENDBRANCH  19  20
ENDBRANCH  18  19
ENDBRANCH  17  18
ENDBRANCH  15  16
ENDBRANCH  14  15
ENDBRANCH  13  14
ENDBRANCH  12  13
ENDBRANCH  11  12
ENDBRANCH  10  11
ENDBRANCH   6  10
TORSDOF 15
ENDMDL
MODEL      394
REMARK 921   NORMALIZED FREE ENERGY PREDICTED BY IDOCK:   -3.05 KCAL/MOL
REMARK 922        TOTAL FREE ENERGY PREDICTED BY IDOCK:   -7.68 KCAL/MOL
REMARK 923 INTER-LIGAND FREE ENERGY PREDICTED BY IDOCK:   -6.43 KCAL/MOL
REMARK 924 INTRA-LIGAND FREE ENERGY PREDICTED BY IDOCK:   -1.25 KCAL/MOL
REMARK 927      BINDING AFFINITY PREDICTED BY RF-SCORE:    0.00 PKD
ROOT
ATOM      1  N   GLY A   1      -7.673   9.386  70.978  1.00  0.00    -0.323 NA 
HETATM    2  C   UNL     1     -10.132  15.076  67.818  1.00  0.00    -0.234 C  
ATOM      3  H2  GLY A   1      -7.408   9.960  71.778  1.00  0.00     0.000 HD 
ATOM      4  H1  GLY A   1      -8.530   8.862  71.152  1.00  0.00     0.000 HD 
ATOM      5  CA  GLY A   1      -7.803  10.182  69.751  1.00  0.00    -0.166 C  
HETATM    6  C   UNL     1     -11.550  14.544  67.947  1.00  0.00    -0.371 C  
ENDROOT
BRANCH   5   7
ATOM      7  C   GLY A   1      -6.515  10.968  69.489  1.00  0.00    -0.109 C  
ATOM      8  H   GLY A   1      -5.377  12.213  70.486  1.00  0.00     0.000 HD 
ATOM      9  O   GLY A   1      -6.176  11.725  70.648  1.00  0.00    -0.292 OA 
ENDBRANCH   5   7
BRANCH   6  10
HETATM   10  C   UNL     1     -11.914  13.501  66.890  1.00  0.00    -0.447 C  
BRANCH  10  11
HETATM   11  C   UNL     1     -11.942  14.035  65.456  1.00  0.00    -0.393 C  
BRANCH  11  12
HETATM   12  C   UNL     1     -10.589  13.782  64.785  1.00  0.00    -0.444 C  
BRANCH  12  13
HETATM   13  C   UNL     1     -10.669  12.704  63.705  1.00  0.00    -0.454 C  
BRANCH  13  14
HETATM   14  C   UNL     1     -10.876  11.296  64.280  1.00  0.00    -0.398 C  
BRANCH  14  15
HETATM   15  C   UNL     1     -10.044  10.965  65.526  1.00  0.00    -0.325 C  
BRANCH  15  16
HETATM   16  C   UNL     1      -8.605  10.635  65.237  1.00  0.00    -0.175 C  
HETATM   17  C   UNL     1      -8.096   9.393  65.228  1.00  0.00    -0.124 C  
BRANCH  17  18
HETATM   18  C   UNL     1      -8.856   8.137  65.540  1.00  0.00    -0.130 C  
BRANCH  18  19
HETATM   19  C   UNL     1      -7.928   7.009  65.984  1.00  0.00    -0.109 C  
BRANCH  19  20
HETATM   20  C   UNL     1      -7.959   6.870  67.506  1.00  0.00    -0.112 C  
BRANCH  20  21
HETATM   21  C   UNL     1      -9.273   7.387  68.085  1.00  0.00    -0.133 C  
BRANCH  21  22
HETATM   22  C   UNL     1      -9.812   6.444  69.157  1.00  0.00    -0.158 C  
BRANCH  22  23
HETATM   23  C   UNL     1     -11.283   6.736  69.445  1.00  0.00    -0.288 C  
BRANCH  23  24
HETATM   24  C   UNL     1     -11.590   6.664  70.937  1.00  0.00    -0.416 C  
HETATM   25  C   UNL     1     -11.902   8.029  71.507  1.00  0.00    -0.292 C  
HETATM   26  O   UNL     1     -12.194   7.973  72.827  1.00  0.00    -0.251 OA 
HETATM   27  O   UNL     1     -11.904   9.073  70.883  1.00  0.00    -0.282 OA 
ENDBRANCH  23  24
ENDBRANCH  22  23
ENDBRANCH  21  22
ENDBRANCH  20  21
ENDBRANCH  19  20
ENDBRANCH  18  19
ENDBRANCH  17  18
ENDBRANCH  15  16
ENDBRANCH  14  15
ENDBRANCH  13  14
ENDBRANCH  12  13
ENDBRANCH  11  12
ENDBRANCH  10  11
ENDBRANCH   6  10
TORSDOF 15
ENDMDL
MODEL      395
REMARK 921   NORMALIZED FREE ENERGY PREDICTED BY IDOCK:   -3.05 KCAL/MOL
REMARK 922        TOTAL FREE ENERGY PREDICTED BY IDOCK:   -7.67 KCAL/MOL
REMARK 923 INTER-LIGAND FREE ENERGY PREDICTED BY IDOCK:   -5.96 KCAL/MOL
REMARK 924 INTRA-LIGAND FREE ENERGY PREDICTED BY IDOCK:   -1.72 KCAL/MOL
REMARK 927      BINDING AFFINITY PREDICTED BY RF-SCORE:    0.00 PKD
ROOT
ATOM      1  N   GLY A   1     -10.887   8.554  72.364  1.00  0.00    -0.345 NA 
HETATM    2  C   UNL     1     -10.512   5.098  66.337  1.00  0.00    -0.356 C  
ATOM      3  H2  GLY A   1     -11.895   8.399  72.375  1.00  0.00     0.000 HD 
ATOM      4  H1  GLY A   1     -10.397   7.919  72.994  1.00  0.00     0.000 HD 
ATOM      5  CA  GLY A   1     -10.331   8.453  71.008  1.00  0.00    -0.198 C  
HETATM    6  C   UNL     1      -9.758   3.970  67.022  1.00  0.00    -0.214 C  
ENDROOT
BRANCH   5   7
ATOM      7  C   GLY A   1     -11.067   9.407  70.062  1.00  0.00    -0.221 C  
ATOM      8  H   GLY A   1     -11.748  11.243  70.133  1.00  0.00     0.000 HD 
ATOM      9  O   GLY A   1     -11.292  10.651  70.719  1.00  0.00    -0.301 OA 
ENDBRANCH   5   7
BRANCH   6  10
HETATM   10  C   UNL     1      -8.272   4.260  67.229  1.00  0.00    -0.100 C  
BRANCH  10  11
HETATM   11  C   UNL     1      -7.731   5.424  66.395  1.00  0.00    -0.099 C  
BRANCH  11  12
HETATM   12  C   UNL     1      -7.117   6.480  67.319  1.00  0.00    -0.077 C  
BRANCH  12  13
HETATM   13  C   UNL     1      -8.154   7.480  67.827  1.00  0.00    -0.119 C  
BRANCH  13  14
HETATM   14  C   UNL     1      -7.747   8.940  67.584  1.00  0.00    -0.101 C  
BRANCH  14  15
HETATM   15  C   UNL     1      -8.833   9.833  66.970  1.00  0.00    -0.145 C  
BRANCH  15  16
HETATM   16  C   UNL     1      -8.749  11.278  67.381  1.00  0.00    -0.139 C  
HETATM   17  C   UNL     1      -9.799  12.111  67.451  1.00  0.00    -0.193 C  
BRANCH  17  18
HETATM   18  C   UNL     1     -11.215  11.761  67.096  1.00  0.00    -0.375 C  
BRANCH  18  19
HETATM   19  C   UNL     1     -11.609  12.313  65.729  1.00  0.00    -0.443 C  
BRANCH  19  20
HETATM   20  C   UNL     1     -12.306  13.664  65.888  1.00  0.00    -0.516 C  
BRANCH  20  21
HETATM   21  C   UNL     1     -12.207  14.494  64.611  1.00  0.00    -0.474 C  
BRANCH  21  22
HETATM   22  C   UNL     1     -11.182  15.615  64.760  1.00  0.00    -0.391 C  
BRANCH  22  23
HETATM   23  C   UNL     1     -10.700  15.720  66.205  1.00  0.00    -0.282 C  
BRANCH  23  24
HETATM   24  C   UNL     1      -9.179  15.659  66.298  1.00  0.00    -0.365 C  
HETATM   25  C   UNL     1      -8.701  15.843  67.721  1.00  0.00    -0.170 C  
HETATM   26  O   UNL     1      -7.352  15.772  67.816  1.00  0.00    -0.127 OA 
HETATM   27  O   UNL     1      -9.413  16.029  68.689  1.00  0.00    -0.207 OA 
ENDBRANCH  23  24
ENDBRANCH  22  23
ENDBRANCH  21  22
ENDBRANCH  20  21
ENDBRANCH  19  20
ENDBRANCH  18  19
ENDBRANCH  17  18
ENDBRANCH  15  16
ENDBRANCH  14  15
ENDBRANCH  13  14
ENDBRANCH  12  13
ENDBRANCH  11  12
ENDBRANCH  10  11
ENDBRANCH   6  10
TORSDOF 15
ENDMDL
MODEL      396
REMARK 921   NORMALIZED FREE ENERGY PREDICTED BY IDOCK:   -3.04 KCAL/MOL
REMARK 922        TOTAL FREE ENERGY PREDICTED BY IDOCK:   -7.66 KCAL/MOL
REMARK 923 INTER-LIGAND FREE ENERGY PREDICTED BY IDOCK:   -5.67 KCAL/MOL
REMARK 924 INTRA-LIGAND FREE ENERGY PREDICTED BY IDOCK:   -1.99 KCAL/MOL
REMARK 927      BINDING AFFINITY PREDICTED BY RF-SCORE:    0.00 PKD
ROOT
ATOM      1  N   GLY A   1      -7.123   9.044  64.027  1.00  0.00    -0.094 NA 
HETATM    2  C   UNL     1     -11.893  13.333  66.721  1.00  0.00    -0.448 C  
ATOM      3  H2  GLY A   1      -6.649   9.849  63.617  1.00  0.00     0.000 HD 
ATOM      4  H1  GLY A   1      -6.649   8.712  64.867  1.00  0.00     0.000 HD 
ATOM      5  CA  GLY A   1      -8.535   9.327  64.317  1.00  0.00    -0.190 C  
HETATM    6  C   UNL     1     -11.385  13.030  68.122  1.00  0.00    -0.329 C  
ENDROOT
BRANCH   5   7
ATOM      7  C   GLY A   1      -9.245   9.826  63.056  1.00  0.00    -0.194 C  
ATOM      8  H   GLY A   1     -10.573  11.198  62.614  1.00  0.00     0.000 HD 
ATOM      9  O   GLY A   1     -10.132  10.888  63.396  1.00  0.00    -0.332 OA 
ENDBRANCH   5   7
BRANCH   6  10
HETATM   10  C   UNL     1     -11.898  11.708  68.690  1.00  0.00    -0.370 C  
BRANCH  10  11
HETATM   11  C   UNL     1     -12.004  11.671  70.216  1.00  0.00    -0.445 C  
BRANCH  11  12
HETATM   12  C   UNL     1     -11.235  10.464  70.759  1.00  0.00    -0.293 C  
BRANCH  12  13
HETATM   13  C   UNL     1     -12.047   9.670  71.781  1.00  0.00    -0.446 C  
BRANCH  13  14
HETATM   14  C   UNL     1     -12.257   8.206  71.372  1.00  0.00    -0.324 C  
BRANCH  14  15
HETATM   15  C   UNL     1     -11.046   7.523  70.724  1.00  0.00    -0.280 C  
BRANCH  15  16
HETATM   16  C   UNL     1     -11.366   6.226  70.032  1.00  0.00    -0.486 C  
HETATM   17  C   UNL     1     -10.455   5.430  69.450  1.00  0.00    -0.331 C  
BRANCH  17  18
HETATM   18  C   UNL     1      -8.985   5.713  69.352  1.00  0.00    -0.124 C  
BRANCH  18  19
HETATM   19  C   UNL     1      -8.662   6.644  68.186  1.00  0.00    -0.117 C  
BRANCH  19  20
HETATM   20  C   UNL     1      -7.887   7.864  68.685  1.00  0.00    -0.119 C  
BRANCH  20  21
HETATM   21  C   UNL     1      -7.358   7.645  70.099  1.00  0.00    -0.076 C  
BRANCH  21  22
HETATM   22  C   UNL     1      -7.690   8.830  71.002  1.00  0.00    -0.137 C  
BRANCH  22  23
HETATM   23  C   UNL     1      -7.932   8.366  72.436  1.00  0.00    -0.164 C  
BRANCH  23  24
HETATM   24  C   UNL     1      -8.124   6.855  72.516  1.00  0.00    -0.105 C  
HETATM   25  C   UNL     1      -7.434   6.269  73.727  1.00  0.00    -0.090 C  
HETATM   26  O   UNL     1      -7.615   4.931  73.816  1.00  0.00    -0.089 OA 
HETATM   27  O   UNL     1      -6.791   6.896  74.547  1.00  0.00    -0.090 OA 
ENDBRANCH  23  24
ENDBRANCH  22  23
ENDBRANCH  21  22
ENDBRANCH  20  21
ENDBRANCH  19  20
ENDBRANCH  18  19
ENDBRANCH  17  18
ENDBRANCH  15  16
ENDBRANCH  14  15
ENDBRANCH  13  14
ENDBRANCH  12  13
ENDBRANCH  11  12
ENDBRANCH  10  11
ENDBRANCH   6  10
TORSDOF 15
ENDMDL
MODEL      397
REMARK 921   NORMALIZED FREE ENERGY PREDICTED BY IDOCK:   -3.04 KCAL/MOL
REMARK 922        TOTAL FREE ENERGY PREDICTED BY IDOCK:   -7.66 KCAL/MOL
REMARK 923 INTER-LIGAND FREE ENERGY PREDICTED BY IDOCK:   -5.99 KCAL/MOL
REMARK 924 INTRA-LIGAND FREE ENERGY PREDICTED BY IDOCK:   -1.67 KCAL/MOL
REMARK 927      BINDING AFFINITY PREDICTED BY RF-SCORE:    0.00 PKD
ROOT
ATOM      1  N   GLY A   1      -9.597   3.022  66.364  1.00  0.00    -0.403 NA 
HETATM    2  C   UNL     1      -9.112   9.778  64.771  1.00  0.00    -0.290 C  
ATOM      3  H2  GLY A   1      -8.762   2.844  65.806  1.00  0.00     0.000 HD 
ATOM      4  H1  GLY A   1      -9.391   3.033  67.363  1.00  0.00     0.000 HD 
ATOM      5  CA  GLY A   1     -10.265   4.269  65.970  1.00  0.00    -0.157 C  
HETATM    6  C   UNL     1      -8.768  10.101  66.217  1.00  0.00    -0.152 C  
ENDROOT
BRANCH   5   7
ATOM      7  C   GLY A   1     -10.573   4.253  64.470  1.00  0.00    -0.083 C  
ATOM      8  H   GLY A   1     -10.477   2.952  63.008  1.00  0.00     0.000 HD 
ATOM      9  O   GLY A   1     -10.286   2.962  63.938  1.00  0.00    -0.173 OA 
ENDBRANCH   5   7
BRANCH   6  10
HETATM   10  C   UNL     1      -9.983  10.155  67.141  1.00  0.00    -0.243 C  
BRANCH  10  11
HETATM   11  C   UNL     1     -10.635  11.536  67.253  1.00  0.00    -0.266 C  
BRANCH  11  12
HETATM   12  C   UNL     1     -11.902  11.442  68.107  1.00  0.00    -0.288 C  
BRANCH  12  13
HETATM   13  C   UNL     1     -11.693  11.993  69.517  1.00  0.00    -0.408 C  
BRANCH  13  14
HETATM   14  C   UNL     1     -12.471  11.212  70.585  1.00  0.00    -0.448 C  
BRANCH  14  15
HETATM   15  C   UNL     1     -11.941   9.805  70.889  1.00  0.00    -0.413 C  
BRANCH  15  16
HETATM   16  C   UNL     1     -12.980   8.856  71.423  1.00  0.00    -0.323 C  
HETATM   17  C   UNL     1     -12.712   7.645  71.936  1.00  0.00    -0.320 C  
BRANCH  17  18
HETATM   18  C   UNL     1     -11.351   7.018  72.026  1.00  0.00    -0.300 C  
BRANCH  18  19
HETATM   19  C   UNL     1     -10.648   7.375  73.334  1.00  0.00    -0.427 C  
BRANCH  19  20
HETATM   20  C   UNL     1     -10.151   6.108  74.028  1.00  0.00    -0.282 C  
BRANCH  20  21
HETATM   21  C   UNL     1     -10.481   4.862  73.212  1.00  0.00    -0.260 C  
BRANCH  21  22
HETATM   22  C   UNL     1      -9.439   3.768  73.428  1.00  0.00    -0.125 C  
BRANCH  22  23
HETATM   23  C   UNL     1      -8.774   3.385  72.108  1.00  0.00    -0.110 C  
BRANCH  23  24
HETATM   24  C   UNL     1      -8.540   4.604  71.220  1.00  0.00    -0.127 C  
HETATM   25  C   UNL     1      -9.083   4.389  69.826  1.00  0.00    -0.112 C  
HETATM   26  O   UNL     1      -8.897   5.473  69.036  1.00  0.00    -0.105 OA 
HETATM   27  O   UNL     1      -9.633   3.380  69.427  1.00  0.00    -0.172 OA 
ENDBRANCH  23  24
ENDBRANCH  22  23
ENDBRANCH  21  22
ENDBRANCH  20  21
ENDBRANCH  19  20
ENDBRANCH  18  19
ENDBRANCH  17  18
ENDBRANCH  15  16
ENDBRANCH  14  15
ENDBRANCH  13  14
ENDBRANCH  12  13
ENDBRANCH  11  12
ENDBRANCH  10  11
ENDBRANCH   6  10
TORSDOF 15
ENDMDL
MODEL      398
REMARK 921   NORMALIZED FREE ENERGY PREDICTED BY IDOCK:   -3.04 KCAL/MOL
REMARK 922        TOTAL FREE ENERGY PREDICTED BY IDOCK:   -7.65 KCAL/MOL
REMARK 923 INTER-LIGAND FREE ENERGY PREDICTED BY IDOCK:   -6.41 KCAL/MOL
REMARK 924 INTRA-LIGAND FREE ENERGY PREDICTED BY IDOCK:   -1.24 KCAL/MOL
REMARK 927      BINDING AFFINITY PREDICTED BY RF-SCORE:    0.00 PKD
ROOT
ATOM      1  N   GLY A   1      -8.683  18.817  67.032  1.00  0.00    -0.276 NA 
HETATM    2  C   UNL     1     -10.526  12.850  63.965  1.00  0.00    -0.395 C  
ATOM      3  H2  GLY A   1      -8.413  19.187  66.120  1.00  0.00     0.000 HD 
ATOM      4  H1  GLY A   1      -9.586  19.178  67.336  1.00  0.00     0.000 HD 
ATOM      5  CA  GLY A   1      -8.690  17.348  67.047  1.00  0.00    -0.234 C  
HETATM    6  C   UNL     1     -11.987  13.130  64.280  1.00  0.00    -0.470 C  
ENDROOT
BRANCH   5   7
ATOM      7  C   GLY A   1      -7.332  16.807  66.589  1.00  0.00    -0.262 C  
ATOM      8  H   GLY A   1      -6.357  15.112  66.714  1.00  0.00     0.000 HD 
ATOM      9  O   GLY A   1      -7.199  15.448  66.998  1.00  0.00    -0.180 OA 
ENDBRANCH   5   7
BRANCH   6  10
HETATM   10  C   UNL     1     -12.380  12.797  65.719  1.00  0.00    -0.388 C  
BRANCH  10  11
HETATM   11  C   UNL     1     -11.983  13.859  66.748  1.00  0.00    -0.472 C  
BRANCH  11  12
HETATM   12  C   UNL     1     -10.624  13.505  67.357  1.00  0.00    -0.254 C  
BRANCH  12  13
HETATM   13  C   UNL     1     -10.740  13.060  68.814  1.00  0.00    -0.250 C  
BRANCH  13  14
HETATM   14  C   UNL     1     -12.031  12.281  69.100  1.00  0.00    -0.303 C  
BRANCH  14  15
HETATM   15  C   UNL     1     -12.057  11.514  70.429  1.00  0.00    -0.471 C  
BRANCH  15  16
HETATM   16  C   UNL     1     -13.027  10.364  70.459  1.00  0.00    -0.280 C  
HETATM   17  C   UNL     1     -12.973   9.347  71.333  1.00  0.00    -0.421 C  
BRANCH  17  18
HETATM   18  C   UNL     1     -11.926   9.162  72.392  1.00  0.00    -0.169 C  
BRANCH  18  19
HETATM   19  C   UNL     1     -10.819   8.215  71.935  1.00  0.00    -0.333 C  
BRANCH  19  20
HETATM   20  C   UNL     1      -9.626   9.013  71.409  1.00  0.00    -0.356 C  
BRANCH  20  21
HETATM   21  C   UNL     1      -9.389   8.745  69.926  1.00  0.00    -0.165 C  
BRANCH  21  22
HETATM   22  C   UNL     1      -8.546   7.489  69.720  1.00  0.00    -0.140 C  
BRANCH  22  23
HETATM   23  C   UNL     1      -8.723   6.945  68.305  1.00  0.00    -0.123 C  
BRANCH  23  24
HETATM   24  C   UNL     1      -8.007   7.811  67.274  1.00  0.00    -0.118 C  
HETATM   25  C   UNL     1      -8.185   7.272  65.873  1.00  0.00    -0.132 C  
HETATM   26  O   UNL     1      -7.568   8.045  64.949  1.00  0.00    -0.093 OA 
HETATM   27  O   UNL     1      -8.806   6.269  65.574  1.00  0.00    -0.127 OA 
ENDBRANCH  23  24
ENDBRANCH  22  23
ENDBRANCH  21  22
ENDBRANCH  20  21
ENDBRANCH  19  20
ENDBRANCH  18  19
ENDBRANCH  17  18
ENDBRANCH  15  16
ENDBRANCH  14  15
ENDBRANCH  13  14
ENDBRANCH  12  13
ENDBRANCH  11  12
ENDBRANCH  10  11
ENDBRANCH   6  10
TORSDOF 15
ENDMDL
MODEL      399
REMARK 921   NORMALIZED FREE ENERGY PREDICTED BY IDOCK:   -3.01 KCAL/MOL
REMARK 922        TOTAL FREE ENERGY PREDICTED BY IDOCK:   -7.59 KCAL/MOL
REMARK 923 INTER-LIGAND FREE ENERGY PREDICTED BY IDOCK:   -6.58 KCAL/MOL
REMARK 924 INTRA-LIGAND FREE ENERGY PREDICTED BY IDOCK:   -1.01 KCAL/MOL
REMARK 927      BINDING AFFINITY PREDICTED BY RF-SCORE:    0.00 PKD
ROOT
ATOM      1  N   GLY A   1      -9.814   3.053  65.778  1.00  0.00    -0.371 NA 
HETATM    2  C   UNL     1      -8.805   9.314  62.917  1.00  0.00    -0.185 C  
ATOM      3  H2  GLY A   1      -8.923   2.745  65.387  1.00  0.00     0.000 HD 
ATOM      4  H1  GLY A   1      -9.739   3.268  66.772  1.00  0.00     0.000 HD 
ATOM      5  CA  GLY A   1     -10.365   4.203  65.049  1.00  0.00    -0.192 C  
HETATM    6  C   UNL     1      -8.636   9.927  64.299  1.00  0.00    -0.199 C  
ENDROOT
BRANCH   5   7
ATOM      7  C   GLY A   1     -10.477   3.879  63.556  1.00  0.00    -0.187 C  
ATOM      8  H   GLY A   1     -11.283   2.470  62.459  1.00  0.00     0.000 HD 
ATOM      9  O   GLY A   1     -11.214   2.671  63.384  1.00  0.00    -0.307 OA 
ENDBRANCH   5   7
BRANCH   6  10
HETATM   10  C   UNL     1      -9.957  10.197  65.017  1.00  0.00    -0.375 C  
BRANCH  10  11
HETATM   11  C   UNL     1     -10.340  11.676  65.107  1.00  0.00    -0.326 C  
BRANCH  11  12
HETATM   12  C   UNL     1     -11.341  11.883  66.247  1.00  0.00    -0.394 C  
BRANCH  12  13
HETATM   13  C   UNL     1     -10.884  12.958  67.232  1.00  0.00    -0.277 C  
BRANCH  13  14
HETATM   14  C   UNL     1     -11.630  12.898  68.572  1.00  0.00    -0.358 C  
BRANCH  14  15
HETATM   15  C   UNL     1     -11.409  11.622  69.392  1.00  0.00    -0.342 C  
BRANCH  15  16
HETATM   16  C   UNL     1     -12.652  11.086  70.049  1.00  0.00    -0.240 C  
HETATM   17  C   UNL     1     -12.665  10.117  70.977  1.00  0.00    -0.481 C  
BRANCH  17  18
HETATM   18  C   UNL     1     -11.460   9.379  71.483  1.00  0.00    -0.467 C  
BRANCH  18  19
HETATM   19  C   UNL     1     -11.832   8.341  72.539  1.00  0.00    -0.439 C  
BRANCH  19  20
HETATM   20  C   UNL     1     -10.577   7.630  73.045  1.00  0.00    -0.433 C  
BRANCH  20  21
HETATM   21  C   UNL     1      -9.310   8.304  72.527  1.00  0.00    -0.350 C  
BRANCH  21  22
HETATM   22  C   UNL     1      -8.059   7.615  73.064  1.00  0.00    -0.154 C  
BRANCH  22  23
HETATM   23  C   UNL     1      -6.907   7.733  72.070  1.00  0.00    -0.062 C  
BRANCH  23  24
HETATM   24  C   UNL     1      -7.225   8.722  70.953  1.00  0.00    -0.083 C  
HETATM   25  C   UNL     1      -6.305   9.921  70.994  1.00  0.00    -0.005 C  
HETATM   26  O   UNL     1      -6.568  10.796  69.995  1.00  0.00    -0.137 OA 
HETATM   27  O   UNL     1      -5.421  10.109  71.808  1.00  0.00    -0.214 OA 
ENDBRANCH  23  24
ENDBRANCH  22  23
ENDBRANCH  21  22
ENDBRANCH  20  21
ENDBRANCH  19  20
ENDBRANCH  18  19
ENDBRANCH  17  18
ENDBRANCH  15  16
ENDBRANCH  14  15
ENDBRANCH  13  14
ENDBRANCH  12  13
ENDBRANCH  11  12
ENDBRANCH  10  11
ENDBRANCH   6  10
TORSDOF 15
ENDMDL
MODEL      400
REMARK 921   NORMALIZED FREE ENERGY PREDICTED BY IDOCK:   -3.01 KCAL/MOL
REMARK 922        TOTAL FREE ENERGY PREDICTED BY IDOCK:   -7.59 KCAL/MOL
REMARK 923 INTER-LIGAND FREE ENERGY PREDICTED BY IDOCK:   -5.34 KCAL/MOL
REMARK 924 INTRA-LIGAND FREE ENERGY PREDICTED BY IDOCK:   -2.25 KCAL/MOL
REMARK 927      BINDING AFFINITY PREDICTED BY RF-SCORE:    0.00 PKD
ROOT
ATOM      1  N   GLY A   1      -8.415   3.549  67.192  1.00  0.00    -0.102 NA 
HETATM    2  C   UNL     1      -9.824  10.193  65.682  1.00  0.00    -0.347 C  
ATOM      3  H2  GLY A   1      -7.777   3.517  66.397  1.00  0.00     0.000 HD 
ATOM      4  H1  GLY A   1      -7.916   3.642  68.077  1.00  0.00     0.000 HD 
ATOM      5  CA  GLY A   1      -9.410   4.621  67.055  1.00  0.00    -0.141 C  
HETATM    6  C   UNL     1      -9.121  10.639  66.954  1.00  0.00    -0.168 C  
ENDROOT
BRANCH   5   7
ATOM      7  C   GLY A   1     -10.159   4.480  65.726  1.00  0.00    -0.255 C  
ATOM      8  H   GLY A   1     -10.008   3.378  64.113  1.00  0.00     0.000 HD 
ATOM      9  O   GLY A   1      -9.544   3.465  64.937  1.00  0.00    -0.155 OA 
ENDBRANCH   5   7
BRANCH   6  10
HETATM   10  C   UNL     1      -9.974  10.489  68.213  1.00  0.00    -0.176 C  
BRANCH  10  11
HETATM   11  C   UNL     1     -10.563  11.800  68.741  1.00  0.00    -0.234 C  
BRANCH  11  12
HETATM   12  C   UNL     1     -12.031  11.590  69.123  1.00  0.00    -0.386 C  
BRANCH  12  13
HETATM   13  C   UNL     1     -12.250  11.638  70.634  1.00  0.00    -0.461 C  
BRANCH  13  14
HETATM   14  C   UNL     1     -12.934  10.377  71.179  1.00  0.00    -0.506 C  
BRANCH  14  15
HETATM   15  C   UNL     1     -12.035   9.141  71.305  1.00  0.00    -0.394 C  
BRANCH  15  16
HETATM   16  C   UNL     1     -12.784   7.838  71.386  1.00  0.00    -0.333 C  
HETATM   17  C   UNL     1     -12.257   6.684  71.824  1.00  0.00    -0.400 C  
BRANCH  17  18
HETATM   18  C   UNL     1     -10.836   6.486  72.264  1.00  0.00    -0.262 C  
BRANCH  18  19
HETATM   19  C   UNL     1     -10.175   5.316  71.541  1.00  0.00    -0.276 C  
BRANCH  19  20
HETATM   20  C   UNL     1      -8.875   5.772  70.878  1.00  0.00    -0.145 C  
BRANCH  20  21
HETATM   21  C   UNL     1      -9.081   7.053  70.076  1.00  0.00    -0.145 C  
BRANCH  21  22
HETATM   22  C   UNL     1      -7.982   8.071  70.371  1.00  0.00    -0.103 C  
BRANCH  22  23
HETATM   23  C   UNL     1      -7.144   8.339  69.123  1.00  0.00    -0.064 C  
BRANCH  23  24
HETATM   24  C   UNL     1      -7.411   7.308  68.031  1.00  0.00    -0.102 C  
HETATM   25  C   UNL     1      -6.761   7.700  66.724  1.00  0.00    -0.066 C  
HETATM   26  O   UNL     1      -6.977   6.781  65.754  1.00  0.00    -0.061 OA 
HETATM   27  O   UNL     1      -6.109   8.709  66.532  1.00  0.00    -0.054 OA 
ENDBRANCH  23  24
ENDBRANCH  22  23
ENDBRANCH  21  22
ENDBRANCH  20  21
ENDBRANCH  19  20
ENDBRANCH  18  19
ENDBRANCH  17  18
ENDBRANCH  15  16
ENDBRANCH  14  15
ENDBRANCH  13  14
ENDBRANCH  12  13
ENDBRANCH  11  12
ENDBRANCH  10  11
ENDBRANCH   6  10
TORSDOF 15
ENDMDL
MODEL      401
REMARK 921   NORMALIZED FREE ENERGY PREDICTED BY IDOCK:   -3.00 KCAL/MOL
REMARK 922        TOTAL FREE ENERGY PREDICTED BY IDOCK:   -7.58 KCAL/MOL
REMARK 923 INTER-LIGAND FREE ENERGY PREDICTED BY IDOCK:   -5.17 KCAL/MOL
REMARK 924 INTRA-LIGAND FREE ENERGY PREDICTED BY IDOCK:   -2.40 KCAL/MOL
REMARK 927      BINDING AFFINITY PREDICTED BY RF-SCORE:    0.00 PKD
ROOT
ATOM      1  N   GLY A   1      -8.349   8.896  64.084  1.00  0.00    -0.198 NA 
HETATM    2  C   UNL     1      -9.343  15.286  66.652  1.00  0.00    -0.285 C  
ATOM      3  H2  GLY A   1      -7.375   9.136  63.899  1.00  0.00     0.000 HD 
ATOM      4  H1  GLY A   1      -8.448   8.322  64.921  1.00  0.00     0.000 HD 
ATOM      5  CA  GLY A   1      -9.199  10.090  64.183  1.00  0.00    -0.271 C  
HETATM    6  C   UNL     1      -9.530  14.705  68.045  1.00  0.00    -0.207 C  
ENDROOT
BRANCH   5   7
ATOM      7  C   GLY A   1      -9.050  10.952  62.926  1.00  0.00    -0.314 C  
ATOM      8  H   GLY A   1      -7.671  11.273  61.571  1.00  0.00     0.000 HD 
ATOM      9  O   GLY A   1      -7.764  10.739  62.351  1.00  0.00    -0.161 OA 
ENDBRANCH   5   7
BRANCH   6  10
HETATM   10  C   UNL     1     -10.923  14.126  68.288  1.00  0.00    -0.266 C  
BRANCH  10  11
HETATM   11  C   UNL     1     -11.625  13.613  67.028  1.00  0.00    -0.389 C  
BRANCH  11  12
HETATM   12  C   UNL     1     -11.608  12.082  67.013  1.00  0.00    -0.387 C  
BRANCH  12  13
HETATM   13  C   UNL     1     -11.801  11.486  68.407  1.00  0.00    -0.353 C  
BRANCH  13  14
HETATM   14  C   UNL     1     -10.706  10.480  68.784  1.00  0.00    -0.249 C  
BRANCH  14  15
HETATM   15  C   UNL     1      -9.532  10.385  67.802  1.00  0.00    -0.159 C  
BRANCH  15  16
HETATM   16  C   UNL     1      -8.237  10.937  68.332  1.00  0.00    -0.133 C  
HETATM   17  C   UNL     1      -7.028  10.406  68.091  1.00  0.00    -0.073 C  
BRANCH  17  18
HETATM   18  C   UNL     1      -6.765   9.160  67.296  1.00  0.00    -0.069 C  
BRANCH  18  19
HETATM   19  C   UNL     1      -7.055   7.899  68.106  1.00  0.00    -0.089 C  
BRANCH  19  20
HETATM   20  C   UNL     1      -7.620   6.808  67.198  1.00  0.00    -0.099 C  
BRANCH  20  21
HETATM   21  C   UNL     1      -8.863   6.166  67.806  1.00  0.00    -0.110 C  
BRANCH  21  22
HETATM   22  C   UNL     1     -10.127   6.919  67.401  1.00  0.00    -0.237 C  
BRANCH  22  23
HETATM   23  C   UNL     1     -11.234   6.712  68.431  1.00  0.00    -0.215 C  
BRANCH  23  24
HETATM   24  C   UNL     1     -10.673   6.573  69.842  1.00  0.00    -0.310 C  
HETATM   25  C   UNL     1     -11.658   7.055  70.883  1.00  0.00    -0.328 C  
HETATM   26  O   UNL     1     -11.175   6.918  72.140  1.00  0.00    -0.242 OA 
HETATM   27  O   UNL     1     -12.762   7.511  70.656  1.00  0.00    -0.028 OA 
ENDBRANCH  23  24
ENDBRANCH  22  23
ENDBRANCH  21  22
ENDBRANCH  20  21
ENDBRANCH  19  20
ENDBRANCH  18  19
ENDBRANCH  17  18
ENDBRANCH  15  16
ENDBRANCH  14  15
ENDBRANCH  13  14
ENDBRANCH  12  13
ENDBRANCH  11  12
ENDBRANCH  10  11
ENDBRANCH   6  10
TORSDOF 15
ENDMDL
MODEL      402
REMARK 921   NORMALIZED FREE ENERGY PREDICTED BY IDOCK:   -3.00 KCAL/MOL
REMARK 922        TOTAL FREE ENERGY PREDICTED BY IDOCK:   -7.57 KCAL/MOL
REMARK 923 INTER-LIGAND FREE ENERGY PREDICTED BY IDOCK:   -6.52 KCAL/MOL
REMARK 924 INTRA-LIGAND FREE ENERGY PREDICTED BY IDOCK:   -1.05 KCAL/MOL
REMARK 927      BINDING AFFINITY PREDICTED BY RF-SCORE:    0.00 PKD
ROOT
ATOM      1  N   GLY A   1      -5.132  18.545  63.254  1.00  0.00    -0.029 NA 
HETATM    2  C   UNL     1      -5.271  21.169  69.696  1.00  0.00    -0.316 C  
ATOM      3  H2  GLY A   1      -4.119  18.666  63.240  1.00  0.00     0.000 HD 
ATOM      4  H1  GLY A   1      -5.396  17.574  63.423  1.00  0.00     0.000 HD 
ATOM      5  CA  GLY A   1      -5.777  19.426  64.236  1.00  0.00    -0.284 C  
HETATM    6  C   UNL     1      -5.671  19.810  70.249  1.00  0.00    -0.310 C  
ENDROOT
BRANCH   5   7
ATOM      7  C   GLY A   1      -5.380  20.883  63.982  1.00  0.00    -0.210 C  
ATOM      8  H   GLY A   1      -5.772  22.254  62.638  1.00  0.00     0.000 HD 
ATOM      9  O   GLY A   1      -6.018  21.351  62.796  1.00  0.00    -0.265 OA 
ENDBRANCH   5   7
BRANCH   6  10
HETATM   10  C   UNL     1      -7.156  19.491  70.084  1.00  0.00     0.197 C  
BRANCH  10  11
HETATM   11  C   UNL     1      -7.622  19.374  68.630  1.00  0.00    -0.398 C  
BRANCH  11  12
HETATM   12  C   UNL     1      -9.117  19.690  68.540  1.00  0.00    -0.368 C  
BRANCH  12  13
HETATM   13  C   UNL     1      -9.884  18.638  67.739  1.00  0.00    -0.357 C  
BRANCH  13  14
HETATM   14  C   UNL     1      -9.202  17.263  67.750  1.00  0.00    -0.239 C  
BRANCH  14  15
HETATM   15  C   UNL     1      -9.871  16.203  68.633  1.00  0.00    -0.226 C  
BRANCH  15  16
HETATM   16  C   UNL     1      -9.105  14.912  68.737  1.00  0.00    -0.189 C  
HETATM   17  C   UNL     1      -9.489  13.753  68.179  1.00  0.00    -0.212 C  
BRANCH  17  18
HETATM   18  C   UNL     1     -10.753  13.537  67.400  1.00  0.00    -0.269 C  
BRANCH  18  19
HETATM   19  C   UNL     1     -11.750  12.671  68.166  1.00  0.00    -0.396 C  
BRANCH  19  20
HETATM   20  C   UNL     1     -11.037  11.908  69.282  1.00  0.00    -0.264 C  
BRANCH  20  21
HETATM   21  C   UNL     1     -11.002  10.410  68.996  1.00  0.00    -0.282 C  
BRANCH  21  22
HETATM   22  C   UNL     1     -10.473   9.631  70.198  1.00  0.00    -0.321 C  
BRANCH  22  23
HETATM   23  C   UNL     1     -11.565   9.450  71.249  1.00  0.00    -0.434 C  
BRANCH  23  24
HETATM   24  C   UNL     1     -11.215   8.346  72.242  1.00  0.00    -0.446 C  
HETATM   25  C   UNL     1     -11.841   7.027  71.850  1.00  0.00    -0.305 C  
HETATM   26  O   UNL     1     -11.520   6.036  72.715  1.00  0.00    -0.267 OA 
HETATM   27  O   UNL     1     -12.549   6.839  70.879  1.00  0.00    -0.336 OA 
ENDBRANCH  23  24
ENDBRANCH  22  23
ENDBRANCH  21  22
ENDBRANCH  20  21
ENDBRANCH  19  20
ENDBRANCH  18  19
ENDBRANCH  17  18
ENDBRANCH  15  16
ENDBRANCH  14  15
ENDBRANCH  13  14
ENDBRANCH  12  13
ENDBRANCH  11  12
ENDBRANCH  10  11
ENDBRANCH   6  10
TORSDOF 15
ENDMDL
MODEL      403
REMARK 921   NORMALIZED FREE ENERGY PREDICTED BY IDOCK:   -3.00 KCAL/MOL
REMARK 922        TOTAL FREE ENERGY PREDICTED BY IDOCK:   -7.57 KCAL/MOL
REMARK 923 INTER-LIGAND FREE ENERGY PREDICTED BY IDOCK:   -6.50 KCAL/MOL
REMARK 924 INTRA-LIGAND FREE ENERGY PREDICTED BY IDOCK:   -1.07 KCAL/MOL
REMARK 927      BINDING AFFINITY PREDICTED BY RF-SCORE:    0.00 PKD
ROOT
ATOM      1  N   GLY A   1     -14.411  14.714  71.820  1.00  0.00    -0.515 NA 
HETATM    2  C   UNL     1     -11.448  14.744  65.524  1.00  0.00    -0.329 C  
ATOM      3  H2  GLY A   1     -14.848  15.610  71.604  1.00  0.00     0.000 HD 
ATOM      4  H1  GLY A   1     -15.068  13.939  71.732  1.00  0.00     0.000 HD 
ATOM      5  CA  GLY A   1     -13.223  14.470  70.991  1.00  0.00    -0.354 C  
HETATM    6  C   UNL     1     -12.319  13.571  65.100  1.00  0.00    -0.488 C  
ENDROOT
BRANCH   5   7
ATOM      7  C   GLY A   1     -12.237  15.634  71.122  1.00  0.00    -0.413 C  
ATOM      8  H   GLY A   1     -10.938  16.261  72.448  1.00  0.00     0.000 HD 
ATOM      9  O   GLY A   1     -11.550  15.539  72.367  1.00  0.00    -0.434 OA 
ENDBRANCH   5   7
BRANCH   6  10
HETATM   10  C   UNL     1     -11.815  12.218  65.601  1.00  0.00    -0.423 C  
BRANCH  10  11
HETATM   11  C   UNL     1     -10.613  11.665  64.831  1.00  0.00    -0.349 C  
BRANCH  11  12
HETATM   12  C   UNL     1      -9.374  11.676  65.730  1.00  0.00    -0.220 C  
BRANCH  12  13
HETATM   13  C   UNL     1      -8.495  10.444  65.521  1.00  0.00    -0.171 C  
BRANCH  13  14
HETATM   14  C   UNL     1      -9.283   9.129  65.588  1.00  0.00    -0.296 C  
BRANCH  14  15
HETATM   15  C   UNL     1      -9.446   8.529  66.990  1.00  0.00    -0.223 C  
BRANCH  15  16
HETATM   16  C   UNL     1     -10.646   7.635  67.144  1.00  0.00    -0.410 C  
HETATM   17  C   UNL     1     -10.631   6.305  66.969  1.00  0.00    -0.386 C  
BRANCH  17  18
HETATM   18  C   UNL     1      -9.439   5.493  66.554  1.00  0.00    -0.161 C  
BRANCH  18  19
HETATM   19  C   UNL     1      -9.484   4.081  67.133  1.00  0.00    -0.224 C  
BRANCH  19  20
HETATM   20  C   UNL     1      -8.301   3.859  68.075  1.00  0.00    -0.100 C  
BRANCH  20  21
HETATM   21  C   UNL     1      -8.552   2.684  69.015  1.00  0.00    -0.116 C  
BRANCH  21  22
HETATM   22  C   UNL     1      -9.512   3.070  70.136  1.00  0.00    -0.206 C  
BRANCH  22  23
HETATM   23  C   UNL     1      -9.273   4.510  70.582  1.00  0.00    -0.199 C  
BRANCH  23  24
HETATM   24  C   UNL     1      -9.462   4.673  72.087  1.00  0.00    -0.185 C  
HETATM   25  C   UNL     1      -8.178   5.092  72.767  1.00  0.00    -0.109 C  
HETATM   26  O   UNL     1      -8.339   5.256  74.100  1.00  0.00    -0.109 OA 
HETATM   27  O   UNL     1      -7.110   5.273  72.213  1.00  0.00    -0.080 OA 
ENDBRANCH  23  24
ENDBRANCH  22  23
ENDBRANCH  21  22
ENDBRANCH  20  21
ENDBRANCH  19  20
ENDBRANCH  18  19
ENDBRANCH  17  18
ENDBRANCH  15  16
ENDBRANCH  14  15
ENDBRANCH  13  14
ENDBRANCH  12  13
ENDBRANCH  11  12
ENDBRANCH  10  11
ENDBRANCH   6  10
TORSDOF 15
ENDMDL
MODEL      404
REMARK 921   NORMALIZED FREE ENERGY PREDICTED BY IDOCK:   -3.00 KCAL/MOL
REMARK 922        TOTAL FREE ENERGY PREDICTED BY IDOCK:   -7.57 KCAL/MOL
REMARK 923 INTER-LIGAND FREE ENERGY PREDICTED BY IDOCK:   -6.50 KCAL/MOL
REMARK 924 INTRA-LIGAND FREE ENERGY PREDICTED BY IDOCK:   -1.07 KCAL/MOL
REMARK 927      BINDING AFFINITY PREDICTED BY RF-SCORE:    0.00 PKD
ROOT
ATOM      1  N   GLY A   1      -5.429  18.599  63.240  1.00  0.00    -0.040 NA 
HETATM    2  C   UNL     1      -5.139  21.019  69.757  1.00  0.00    -0.403 C  
ATOM      3  H2  GLY A   1      -4.410  18.631  63.197  1.00  0.00     0.000 HD 
ATOM      4  H1  GLY A   1      -5.774  17.652  63.390  1.00  0.00     0.000 HD 
ATOM      5  CA  GLY A   1      -5.962  19.503  64.268  1.00  0.00    -0.246 C  
HETATM    6  C   UNL     1      -5.642  19.685  70.283  1.00  0.00    -0.280 C  
ENDROOT
BRANCH   5   7
ATOM      7  C   GLY A   1      -5.443  20.926  64.043  1.00  0.00    -0.228 C  
ATOM      8  H   GLY A   1      -5.506  22.257  62.607  1.00  0.00     0.000 HD 
ATOM      9  O   GLY A   1      -5.828  21.375  62.746  1.00  0.00    -0.248 OA 
ENDBRANCH   5   7
BRANCH   6  10
HETATM   10  C   UNL     1      -7.155  19.505  70.157  1.00  0.00     0.197 C  
BRANCH  10  11
HETATM   11  C   UNL     1      -7.660  19.371  68.718  1.00  0.00    -0.398 C  
BRANCH  11  12
HETATM   12  C   UNL     1      -9.167  19.636  68.672  1.00  0.00    -0.362 C  
BRANCH  12  13
HETATM   13  C   UNL     1      -9.798  19.170  67.361  1.00  0.00    -0.404 C  
BRANCH  13  14
HETATM   14  C   UNL     1      -9.094  17.947  66.760  1.00  0.00    -0.276 C  
BRANCH  14  15
HETATM   15  C   UNL     1      -9.724  16.590  67.099  1.00  0.00    -0.246 C  
BRANCH  15  16
HETATM   16  C   UNL     1      -9.179  15.438  66.300  1.00  0.00    -0.354 C  
HETATM   17  C   UNL     1      -9.934  14.525  65.669  1.00  0.00    -0.376 C  
BRANCH  17  18
HETATM   18  C   UNL     1     -11.434  14.472  65.687  1.00  0.00    -0.341 C  
BRANCH  18  19
HETATM   19  C   UNL     1     -11.976  13.444  64.697  1.00  0.00    -0.441 C  
BRANCH  19  20
HETATM   20  C   UNL     1     -11.552  12.036  65.113  1.00  0.00    -0.330 C  
BRANCH  20  21
HETATM   21  C   UNL     1     -10.640  11.400  64.069  1.00  0.00    -0.444 C  
BRANCH  21  22
HETATM   22  C   UNL     1      -9.736  10.342  64.696  1.00  0.00    -0.392 C  
BRANCH  22  23
HETATM   23  C   UNL     1     -10.004  10.221  66.194  1.00  0.00    -0.300 C  
BRANCH  23  24
HETATM   24  C   UNL     1      -8.936   9.385  66.892  1.00  0.00    -0.148 C  
HETATM   25  C   UNL     1      -9.544   8.420  67.884  1.00  0.00    -0.156 C  
HETATM   26  O   UNL     1      -8.605   7.661  68.495  1.00  0.00    -0.128 OA 
HETATM   27  O   UNL     1     -10.731   8.308  68.126  1.00  0.00    -0.151 OA 
ENDBRANCH  23  24
ENDBRANCH  22  23
ENDBRANCH  21  22
ENDBRANCH  20  21
ENDBRANCH  19  20
ENDBRANCH  18  19
ENDBRANCH  17  18
ENDBRANCH  15  16
ENDBRANCH  14  15
ENDBRANCH  13  14
ENDBRANCH  12  13
ENDBRANCH  11  12
ENDBRANCH  10  11
ENDBRANCH   6  10
TORSDOF 15
ENDMDL
MODEL      405
REMARK 921   NORMALIZED FREE ENERGY PREDICTED BY IDOCK:   -2.98 KCAL/MOL
REMARK 922        TOTAL FREE ENERGY PREDICTED BY IDOCK:   -7.54 KCAL/MOL
REMARK 923 INTER-LIGAND FREE ENERGY PREDICTED BY IDOCK:   -5.43 KCAL/MOL
REMARK 924 INTRA-LIGAND FREE ENERGY PREDICTED BY IDOCK:   -2.12 KCAL/MOL
REMARK 927      BINDING AFFINITY PREDICTED BY RF-SCORE:    0.00 PKD
ROOT
ATOM      1  N   GLY A   1      -5.750   9.081  64.878  1.00  0.00    -0.061 NA 
HETATM    2  C   UNL     1     -11.756  12.547  64.308  1.00  0.00    -0.450 C  
ATOM      3  H2  GLY A   1      -5.367   9.646  64.120  1.00  0.00     0.000 HD 
ATOM      4  H1  GLY A   1      -5.419   9.395  65.790  1.00  0.00     0.000 HD 
ATOM      5  CA  GLY A   1      -7.218   9.051  64.852  1.00  0.00    -0.095 C  
HETATM    6  C   UNL     1     -11.523  13.189  65.666  1.00  0.00    -0.351 C  
ENDROOT
BRANCH   5   7
ATOM      7  C   GLY A   1      -7.714   8.581  63.481  1.00  0.00    -0.142 C  
ATOM      8  H   GLY A   1      -8.164   9.412  61.765  1.00  0.00     0.000 HD 
ATOM      9  O   GLY A   1      -7.856   9.704  62.615  1.00  0.00    -0.115 OA 
ENDBRANCH   5   7
BRANCH   6  10
HETATM   10  C   UNL     1     -11.876  12.281  66.844  1.00  0.00    -0.334 C  
BRANCH  10  11
HETATM   11  C   UNL     1     -12.118  13.019  68.163  1.00  0.00    -0.201 C  
BRANCH  11  12
HETATM   12  C   UNL     1     -11.251  12.405  69.265  1.00  0.00    -0.264 C  
BRANCH  12  13
HETATM   13  C   UNL     1     -12.066  12.021  70.499  1.00  0.00    -0.402 C  
BRANCH  13  14
HETATM   14  C   UNL     1     -12.756  10.656  70.359  1.00  0.00    -0.340 C  
BRANCH  14  15
HETATM   15  C   UNL     1     -11.814   9.452  70.236  1.00  0.00    -0.063 C  
BRANCH  15  16
HETATM   16  C   UNL     1     -10.826   9.323  71.362  1.00  0.00    -0.434 C  
HETATM   17  C   UNL     1      -9.680   8.628  71.293  1.00  0.00    -0.305 C  
BRANCH  17  18
HETATM   18  C   UNL     1      -9.212   7.834  70.108  1.00  0.00    -0.153 C  
BRANCH  18  19
HETATM   19  C   UNL     1      -9.951   6.504  69.989  1.00  0.00    -0.193 C  
BRANCH  19  20
HETATM   20  C   UNL     1     -10.594   6.380  68.608  1.00  0.00    -0.300 C  
BRANCH  20  21
HETATM   21  C   UNL     1      -9.856   7.225  67.574  1.00  0.00    -0.198 C  
BRANCH  21  22
HETATM   22  C   UNL     1     -10.783   8.264  66.948  1.00  0.00    -0.179 C  
BRANCH  22  23
HETATM   23  C   UNL     1     -10.029   9.561  66.663  1.00  0.00    -0.314 C  
BRANCH  23  24
HETATM   24  C   UNL     1      -9.047   9.899  67.781  1.00  0.00    -0.138 C  
HETATM   25  C   UNL     1      -8.313  11.191  67.505  1.00  0.00    -0.122 C  
HETATM   26  O   UNL     1      -7.452  11.509  68.500  1.00  0.00    -0.101 OA 
HETATM   27  O   UNL     1      -8.456  11.890  66.520  1.00  0.00    -0.173 OA 
ENDBRANCH  23  24
ENDBRANCH  22  23
ENDBRANCH  21  22
ENDBRANCH  20  21
ENDBRANCH  19  20
ENDBRANCH  18  19
ENDBRANCH  17  18
ENDBRANCH  15  16
ENDBRANCH  14  15
ENDBRANCH  13  14
ENDBRANCH  12  13
ENDBRANCH  11  12
ENDBRANCH  10  11
ENDBRANCH   6  10
TORSDOF 15
ENDMDL
MODEL      406
REMARK 921   NORMALIZED FREE ENERGY PREDICTED BY IDOCK:   -2.98 KCAL/MOL
REMARK 922        TOTAL FREE ENERGY PREDICTED BY IDOCK:   -7.54 KCAL/MOL
REMARK 923 INTER-LIGAND FREE ENERGY PREDICTED BY IDOCK:   -6.49 KCAL/MOL
REMARK 924 INTRA-LIGAND FREE ENERGY PREDICTED BY IDOCK:   -1.05 KCAL/MOL
REMARK 927      BINDING AFFINITY PREDICTED BY RF-SCORE:    0.00 PKD
ROOT
ATOM      1  N   GLY A   1      -7.252  18.384  65.789  1.00  0.00    -0.492 NA 
HETATM    2  C   UNL     1     -11.887  13.698  68.018  1.00  0.00    -0.397 C  
ATOM      3  H2  GLY A   1      -6.608  18.073  66.516  1.00  0.00     0.000 HD 
ATOM      4  H1  GLY A   1      -7.005  18.007  64.875  1.00  0.00     0.000 HD 
ATOM      5  CA  GLY A   1      -8.646  18.054  66.115  1.00  0.00    -0.096 C  
HETATM    6  C   UNL     1     -11.716  12.905  66.732  1.00  0.00    -0.445 C  
ENDROOT
BRANCH   5   7
ATOM      7  C   GLY A   1      -9.017  18.620  67.489  1.00  0.00    -0.276 C  
ATOM      8  H   GLY A   1      -8.150  18.808  69.236  1.00  0.00     0.000 HD 
ATOM      9  O   GLY A   1      -7.920  18.457  68.384  1.00  0.00    -0.290 OA 
ENDBRANCH   5   7
BRANCH   6  10
HETATM   10  C   UNL     1     -12.496  13.477  65.549  1.00  0.00    -0.538 C  
BRANCH  10  11
HETATM   11  C   UNL     1     -11.856  13.220  64.183  1.00  0.00    -0.497 C  
BRANCH  11  12
HETATM   12  C   UNL     1     -10.573  12.404  64.359  1.00  0.00    -0.366 C  
BRANCH  12  13
HETATM   13  C   UNL     1     -10.716  10.976  63.833  1.00  0.00    -0.310 C  
BRANCH  13  14
HETATM   14  C   UNL     1      -9.376  10.232  63.751  1.00  0.00    -0.339 C  
BRANCH  14  15
HETATM   15  C   UNL     1      -8.786   9.787  65.095  1.00  0.00    -0.213 C  
BRANCH  15  16
HETATM   16  C   UNL     1      -8.621   8.298  65.234  1.00  0.00    -0.159 C  
HETATM   17  C   UNL     1      -9.193   7.555  66.195  1.00  0.00    -0.156 C  
BRANCH  17  18
HETATM   18  C   UNL     1     -10.053   8.081  67.307  1.00  0.00    -0.309 C  
BRANCH  18  19
HETATM   19  C   UNL     1     -11.137   7.083  67.707  1.00  0.00    -0.161 C  
BRANCH  19  20
HETATM   20  C   UNL     1     -10.508   5.733  68.052  1.00  0.00    -0.286 C  
BRANCH  20  21
HETATM   21  C   UNL     1     -10.722   5.380  69.521  1.00  0.00    -0.249 C  
BRANCH  21  22
HETATM   22  C   UNL     1      -9.651   6.016  70.403  1.00  0.00    -0.194 C  
BRANCH  22  23
HETATM   23  C   UNL     1      -8.822   4.945  71.106  1.00  0.00    -0.151 C  
BRANCH  23  24
HETATM   24  C   UNL     1      -9.264   4.749  72.553  1.00  0.00    -0.146 C  
HETATM   25  C   UNL     1      -9.834   3.367  72.778  1.00  0.00    -0.140 C  
HETATM   26  O   UNL     1     -10.213   3.178  74.064  1.00  0.00    -0.120 OA 
HETATM   27  O   UNL     1      -9.950   2.502  71.931  1.00  0.00    -0.160 OA 
ENDBRANCH  23  24
ENDBRANCH  22  23
ENDBRANCH  21  22
ENDBRANCH  20  21
ENDBRANCH  19  20
ENDBRANCH  18  19
ENDBRANCH  17  18
ENDBRANCH  15  16
ENDBRANCH  14  15
ENDBRANCH  13  14
ENDBRANCH  12  13
ENDBRANCH  11  12
ENDBRANCH  10  11
ENDBRANCH   6  10
TORSDOF 15
ENDMDL
MODEL      407
REMARK 921   NORMALIZED FREE ENERGY PREDICTED BY IDOCK:   -2.98 KCAL/MOL
REMARK 922        TOTAL FREE ENERGY PREDICTED BY IDOCK:   -7.53 KCAL/MOL
REMARK 923 INTER-LIGAND FREE ENERGY PREDICTED BY IDOCK:   -5.16 KCAL/MOL
REMARK 924 INTRA-LIGAND FREE ENERGY PREDICTED BY IDOCK:   -2.37 KCAL/MOL
REMARK 927      BINDING AFFINITY PREDICTED BY RF-SCORE:    0.00 PKD
ROOT
ATOM      1  N   GLY A   1     -12.204   7.203  72.529  1.00  0.00    -0.502 NA 
HETATM    2  C   UNL     1     -11.251  11.503  67.142  1.00  0.00    -0.365 C  
ATOM      3  H2  GLY A   1     -12.699   6.560  71.911  1.00  0.00     0.000 HD 
ATOM      4  H1  GLY A   1     -11.251   6.894  72.714  1.00  0.00     0.000 HD 
ATOM      5  CA  GLY A   1     -12.201   8.575  72.003  1.00  0.00    -0.366 C  
HETATM    6  C   UNL     1      -9.757  11.222  67.173  1.00  0.00    -0.201 C  
ENDROOT
BRANCH   5   7
ATOM      7  C   GLY A   1     -13.634   9.038  71.724  1.00  0.00    -0.413 C  
ATOM      8  H   GLY A   1     -15.287   9.259  72.752  1.00  0.00     0.000 HD 
ATOM      9  O   GLY A   1     -14.399   8.972  72.925  1.00  0.00    -0.550 OA 
ENDBRANCH   5   7
BRANCH   6  10
HETATM   10  C   UNL     1      -9.006  12.007  68.247  1.00  0.00    -0.186 C  
BRANCH  10  11
HETATM   11  C   UNL     1      -7.667  12.589  67.788  1.00  0.00    -0.142 C  
BRANCH  11  12
HETATM   12  C   UNL     1      -6.546  12.099  68.710  1.00  0.00    -0.083 C  
BRANCH  12  13
HETATM   13  C   UNL     1      -6.060  10.700  68.338  1.00  0.00    -0.046 C  
BRANCH  13  14
HETATM   14  C   UNL     1      -5.786   9.817  69.563  1.00  0.00    -0.033 C  
BRANCH  14  15
HETATM   15  C   UNL     1      -6.669   8.569  69.687  1.00  0.00    -0.040 C  
BRANCH  15  16
HETATM   16  C   UNL     1      -6.535   7.601  68.544  1.00  0.00    -0.048 C  
HETATM   17  C   UNL     1      -7.454   7.427  67.581  1.00  0.00    -0.097 C  
BRANCH  17  18
HETATM   18  C   UNL     1      -8.777   8.131  67.503  1.00  0.00    -0.129 C  
BRANCH  18  19
HETATM   19  C   UNL     1      -9.764   7.385  66.609  1.00  0.00    -0.262 C  
BRANCH  19  20
HETATM   20  C   UNL     1     -10.988   6.958  67.419  1.00  0.00    -0.374 C  
BRANCH  20  21
HETATM   21  C   UNL     1     -10.742   7.104  68.918  1.00  0.00    -0.199 C  
BRANCH  21  22
HETATM   22  C   UNL     1     -10.420   5.757  69.558  1.00  0.00    -0.364 C  
BRANCH  22  23
HETATM   23  C   UNL     1      -9.213   5.873  70.486  1.00  0.00    -0.167 C  
BRANCH  23  24
HETATM   24  C   UNL     1      -8.833   4.524  71.088  1.00  0.00    -0.151 C  
HETATM   25  C   UNL     1      -9.723   4.166  72.257  1.00  0.00    -0.154 C  
HETATM   26  O   UNL     1      -9.405   2.962  72.787  1.00  0.00    -0.089 OA 
HETATM   27  O   UNL     1     -10.629   4.851  72.693  1.00  0.00    -0.202 OA 
ENDBRANCH  23  24
ENDBRANCH  22  23
ENDBRANCH  21  22
ENDBRANCH  20  21
ENDBRANCH  19  20
ENDBRANCH  18  19
ENDBRANCH  17  18
ENDBRANCH  15  16
ENDBRANCH  14  15
ENDBRANCH  13  14
ENDBRANCH  12  13
ENDBRANCH  11  12
ENDBRANCH  10  11
ENDBRANCH   6  10
TORSDOF 15
ENDMDL
MODEL      408
REMARK 921   NORMALIZED FREE ENERGY PREDICTED BY IDOCK:   -2.96 KCAL/MOL
REMARK 922        TOTAL FREE ENERGY PREDICTED BY IDOCK:   -7.50 KCAL/MOL
REMARK 923 INTER-LIGAND FREE ENERGY PREDICTED BY IDOCK:   -5.58 KCAL/MOL
REMARK 924 INTRA-LIGAND FREE ENERGY PREDICTED BY IDOCK:   -1.92 KCAL/MOL
REMARK 927      BINDING AFFINITY PREDICTED BY RF-SCORE:    0.00 PKD
ROOT
ATOM      1  N   GLY A   1     -11.439  19.176  67.707  1.00  0.00     0.225 NA 
HETATM    2  C   UNL     1      -5.229  21.216  65.321  1.00  0.00    -0.225 C  
ATOM      3  H2  GLY A   1     -11.784  20.128  67.586  1.00  0.00     0.000 HD 
ATOM      4  H1  GLY A   1     -11.752  18.559  66.958  1.00  0.00     0.000 HD 
ATOM      5  CA  GLY A   1      -9.975  19.133  67.821  1.00  0.00    -0.357 C  
HETATM    6  C   UNL     1      -5.427  20.378  64.068  1.00  0.00    -0.256 C  
ENDROOT
BRANCH   5   7
ATOM      7  C   GLY A   1      -9.504  20.060  68.946  1.00  0.00    -0.024 C  
ATOM      8  H   GLY A   1      -7.896  20.264  70.047  1.00  0.00     0.000 HD 
ATOM      9  O   GLY A   1      -8.188  19.689  69.350  1.00  0.00    -0.152 OA 
ENDBRANCH   5   7
BRANCH   6  10
HETATM   10  C   UNL     1      -5.135  18.892  64.270  1.00  0.00    -0.236 C  
BRANCH  10  11
HETATM   11  C   UNL     1      -6.083  18.185  65.241  1.00  0.00    -0.150 C  
BRANCH  11  12
HETATM   12  C   UNL     1      -5.285  17.248  66.152  1.00  0.00    -0.089 C  
BRANCH  12  13
HETATM   13  C   UNL     1      -5.698  17.372  67.618  1.00  0.00    -0.144 C  
BRANCH  13  14
HETATM   14  C   UNL     1      -7.123  16.867  67.882  1.00  0.00    -0.162 C  
BRANCH  14  15
HETATM   15  C   UNL     1      -7.538  15.621  67.090  1.00  0.00    -0.258 C  
BRANCH  15  16
HETATM   16  C   UNL     1      -8.743  15.821  66.212  1.00  0.00    -0.358 C  
HETATM   17  C   UNL     1     -10.014  15.742  66.636  1.00  0.00    -0.268 C  
BRANCH  17  18
HETATM   18  C   UNL     1     -10.448  15.405  68.033  1.00  0.00    -0.257 C  
BRANCH  18  19
HETATM   19  C   UNL     1     -11.845  14.790  68.060  1.00  0.00    -0.324 C  
BRANCH  19  20
HETATM   20  C   UNL     1     -11.837  13.433  67.358  1.00  0.00    -0.418 C  
BRANCH  20  21
HETATM   21  C   UNL     1     -11.352  12.328  68.291  1.00  0.00    -0.339 C  
BRANCH  21  22
HETATM   22  C   UNL     1     -10.430  11.354  67.562  1.00  0.00    -0.233 C  
BRANCH  22  23
HETATM   23  C   UNL     1      -9.682  12.060  66.434  1.00  0.00    -0.239 C  
BRANCH  23  24
HETATM   24  C   UNL     1      -9.695  11.238  65.149  1.00  0.00    -0.285 C  
HETATM   25  C   UNL     1     -10.239  12.034  63.984  1.00  0.00    -0.365 C  
HETATM   26  O   UNL     1     -10.237  11.319  62.835  1.00  0.00    -0.265 OA 
HETATM   27  O   UNL     1     -10.635  13.183  64.036  1.00  0.00    -0.402 OA 
ENDBRANCH  23  24
ENDBRANCH  22  23
ENDBRANCH  21  22
ENDBRANCH  20  21
ENDBRANCH  19  20
ENDBRANCH  18  19
ENDBRANCH  17  18
ENDBRANCH  15  16
ENDBRANCH  14  15
ENDBRANCH  13  14
ENDBRANCH  12  13
ENDBRANCH  11  12
ENDBRANCH  10  11
ENDBRANCH   6  10
TORSDOF 15
ENDMDL
MODEL      409
REMARK 921   NORMALIZED FREE ENERGY PREDICTED BY IDOCK:   -2.96 KCAL/MOL
REMARK 922        TOTAL FREE ENERGY PREDICTED BY IDOCK:   -7.49 KCAL/MOL
REMARK 923 INTER-LIGAND FREE ENERGY PREDICTED BY IDOCK:   -4.49 KCAL/MOL
REMARK 924 INTRA-LIGAND FREE ENERGY PREDICTED BY IDOCK:   -3.01 KCAL/MOL
REMARK 927      BINDING AFFINITY PREDICTED BY RF-SCORE:    0.00 PKD
ROOT
ATOM      1  N   GLY A   1     -11.916  10.368  71.061  1.00  0.00    -0.367 NA 
HETATM    2  C   UNL     1     -10.386   3.763  72.622  1.00  0.00    -0.226 C  
ATOM      3  H2  GLY A   1     -11.766  10.621  72.038  1.00  0.00     0.000 HD 
ATOM      4  H1  GLY A   1     -11.123  10.628  70.475  1.00  0.00     0.000 HD 
ATOM      5  CA  GLY A   1     -12.217   8.940  70.903  1.00  0.00    -0.137 C  
HETATM    6  C   UNL     1      -9.104   3.860  71.810  1.00  0.00    -0.169 C  
ENDROOT
BRANCH   5   7
ATOM      7  C   GLY A   1     -13.408   8.549  71.783  1.00  0.00    -0.367 C  
ATOM      8  H   GLY A   1     -14.566   9.436  73.092  1.00  0.00     0.000 HD 
ATOM      9  O   GLY A   1     -13.827   9.678  72.546  1.00  0.00    -0.364 OA 
ENDBRANCH   5   7
BRANCH   6  10
HETATM   10  C   UNL     1      -9.318   3.711  70.304  1.00  0.00    -0.241 C  
BRANCH  10  11
HETATM   11  C   UNL     1      -8.032   3.732  69.475  1.00  0.00    -0.059 C  
BRANCH  11  12
HETATM   12  C   UNL     1      -6.834   4.017  70.386  1.00  0.00    -0.033 C  
BRANCH  12  13
HETATM   13  C   UNL     1      -6.080   5.280  69.974  1.00  0.00    -0.018 C  
BRANCH  13  14
HETATM   14  C   UNL     1      -6.501   5.805  68.594  1.00  0.00    -0.042 C  
BRANCH  14  15
HETATM   15  C   UNL     1      -6.990   7.258  68.563  1.00  0.00    -0.079 C  
BRANCH  15  16
HETATM   16  C   UNL     1      -7.903   7.627  69.701  1.00  0.00    -0.108 C  
HETATM   17  C   UNL     1      -9.232   7.440  69.701  1.00  0.00    -0.146 C  
BRANCH  17  18
HETATM   18  C   UNL     1     -10.033   6.876  68.563  1.00  0.00    -0.149 C  
BRANCH  18  19
HETATM   19  C   UNL     1     -10.386   7.945  67.533  1.00  0.00    -0.329 C  
BRANCH  19  20
HETATM   20  C   UNL     1      -9.648   7.677  66.221  1.00  0.00    -0.155 C  
BRANCH  20  21
HETATM   21  C   UNL     1      -8.932   8.928  65.721  1.00  0.00    -0.249 C  
BRANCH  21  22
HETATM   22  C   UNL     1      -9.928  10.019  65.340  1.00  0.00    -0.364 C  
BRANCH  22  23
HETATM   23  C   UNL     1      -9.559  11.344  66.003  1.00  0.00    -0.247 C  
BRANCH  23  24
HETATM   24  C   UNL     1      -8.402  11.182  66.983  1.00  0.00    -0.144 C  
HETATM   25  C   UNL     1      -8.876  11.229  68.417  1.00  0.00    -0.159 C  
HETATM   26  O   UNL     1      -7.858  11.067  69.294  1.00  0.00    -0.129 OA 
HETATM   27  O   UNL     1     -10.027  11.387  68.778  1.00  0.00    -0.206 OA 
ENDBRANCH  23  24
ENDBRANCH  22  23
ENDBRANCH  21  22
ENDBRANCH  20  21
ENDBRANCH  19  20
ENDBRANCH  18  19
ENDBRANCH  17  18
ENDBRANCH  15  16
ENDBRANCH  14  15
ENDBRANCH  13  14
ENDBRANCH  12  13
ENDBRANCH  11  12
ENDBRANCH  10  11
ENDBRANCH   6  10
TORSDOF 15
ENDMDL
MODEL      410
REMARK 921   NORMALIZED FREE ENERGY PREDICTED BY IDOCK:   -2.96 KCAL/MOL
REMARK 922        TOTAL FREE ENERGY PREDICTED BY IDOCK:   -7.49 KCAL/MOL
REMARK 923 INTER-LIGAND FREE ENERGY PREDICTED BY IDOCK:   -6.28 KCAL/MOL
REMARK 924 INTRA-LIGAND FREE ENERGY PREDICTED BY IDOCK:   -1.21 KCAL/MOL
REMARK 927      BINDING AFFINITY PREDICTED BY RF-SCORE:    0.00 PKD
ROOT
ATOM      1  N   GLY A   1     -11.883   9.240  70.004  1.00  0.00    -0.450 NA 
HETATM    2  C   UNL     1      -7.261   4.203  71.297  1.00  0.00    -0.040 C  
ATOM      3  H2  GLY A   1     -11.124   9.920  70.008  1.00  0.00     0.000 HD 
ATOM      4  H1  GLY A   1     -12.180   9.006  69.056  1.00  0.00     0.000 HD 
ATOM      5  CA  GLY A   1     -11.531   8.019  70.741  1.00  0.00    -0.263 C  
HETATM    6  C   UNL     1      -7.494   3.623  69.910  1.00  0.00    -0.045 C  
ENDROOT
BRANCH   5   7
ATOM      7  C   GLY A   1     -11.086   8.370  72.164  1.00  0.00    -0.345 C  
ATOM      8  H   GLY A   1      -9.531   8.011  73.302  1.00  0.00     0.000 HD 
ATOM      9  O   GLY A   1      -9.807   7.794  72.419  1.00  0.00    -0.177 OA 
ENDBRANCH   5   7
BRANCH   6  10
HETATM   10  C   UNL     1      -8.759   2.772  69.805  1.00  0.00    -0.130 C  
BRANCH  10  11
HETATM   11  C   UNL     1      -9.371   2.716  68.403  1.00  0.00    -0.256 C  
BRANCH  11  12
HETATM   12  C   UNL     1      -9.255   4.088  67.733  1.00  0.00    -0.197 C  
BRANCH  12  13
HETATM   13  C   UNL     1      -8.960   3.980  66.238  1.00  0.00    -0.127 C  
BRANCH  13  14
HETATM   14  C   UNL     1      -9.019   5.335  65.518  1.00  0.00    -0.158 C  
BRANCH  14  15
HETATM   15  C   UNL     1      -8.233   6.470  66.186  1.00  0.00    -0.123 C  
BRANCH  15  16
HETATM   16  C   UNL     1      -9.090   7.596  66.698  1.00  0.00    -0.198 C  
HETATM   17  C   UNL     1      -8.771   8.897  66.608  1.00  0.00    -0.140 C  
BRANCH  17  18
HETATM   18  C   UNL     1      -7.500   9.444  66.025  1.00  0.00    -0.096 C  
BRANCH  18  19
HETATM   19  C   UNL     1      -7.737  10.108  64.670  1.00  0.00    -0.141 C  
BRANCH  19  20
HETATM   20  C   UNL     1      -8.827   9.361  63.901  1.00  0.00    -0.205 C  
BRANCH  20  21
HETATM   21  C   UNL     1      -9.518  10.271  62.891  1.00  0.00    -0.333 C  
BRANCH  21  22
HETATM   22  C   UNL     1      -9.924  11.596  63.530  1.00  0.00    -0.429 C  
BRANCH  22  23
HETATM   23  C   UNL     1     -11.442  11.759  63.521  1.00  0.00    -0.489 C  
BRANCH  23  24
HETATM   24  C   UNL     1     -11.955  12.341  64.834  1.00  0.00    -0.420 C  
HETATM   25  C   UNL     1     -12.600  13.693  64.629  1.00  0.00    -0.242 C  
HETATM   26  O   UNL     1     -13.075  14.210  65.786  1.00  0.00    -0.512 OA 
HETATM   27  O   UNL     1     -12.703  14.275  63.566  1.00  0.00    -0.767 OA 
ENDBRANCH  23  24
ENDBRANCH  22  23
ENDBRANCH  21  22
ENDBRANCH  20  21
ENDBRANCH  19  20
ENDBRANCH  18  19
ENDBRANCH  17  18
ENDBRANCH  15  16
ENDBRANCH  14  15
ENDBRANCH  13  14
ENDBRANCH  12  13
ENDBRANCH  11  12
ENDBRANCH  10  11
ENDBRANCH   6  10
TORSDOF 15
ENDMDL
MODEL      411
REMARK 921   NORMALIZED FREE ENERGY PREDICTED BY IDOCK:   -2.95 KCAL/MOL
REMARK 922        TOTAL FREE ENERGY PREDICTED BY IDOCK:   -7.49 KCAL/MOL
REMARK 923 INTER-LIGAND FREE ENERGY PREDICTED BY IDOCK:   -6.49 KCAL/MOL
REMARK 924 INTRA-LIGAND FREE ENERGY PREDICTED BY IDOCK:   -1.00 KCAL/MOL
REMARK 927      BINDING AFFINITY PREDICTED BY RF-SCORE:    0.00 PKD
ROOT
ATOM      1  N   GLY A   1      -6.406   9.598  67.368  1.00  0.00    -0.067 NA 
HETATM    2  C   UNL     1     -10.569  14.598  64.902  1.00  0.00    -0.446 C  
ATOM      3  H2  GLY A   1      -5.598  10.179  67.145  1.00  0.00     0.000 HD 
ATOM      4  H1  GLY A   1      -6.628   9.621  68.363  1.00  0.00     0.000 HD 
ATOM      5  CA  GLY A   1      -7.586   9.972  66.576  1.00  0.00    -0.106 C  
HETATM    6  C   UNL     1     -11.089  14.868  66.305  1.00  0.00    -0.340 C  
ENDROOT
BRANCH   5   7
ATOM      7  C   GLY A   1      -7.253   9.938  65.082  1.00  0.00    -0.133 C  
ATOM      8  H   GLY A   1      -7.007   8.565  63.706  1.00  0.00     0.000 HD 
ATOM      9  O   GLY A   1      -7.214   8.586  64.633  1.00  0.00    -0.082 OA 
ENDBRANCH   5   7
BRANCH   6  10
HETATM   10  C   UNL     1     -12.152  13.872  66.768  1.00  0.00    -0.476 C  
BRANCH  10  11
HETATM   11  C   UNL     1     -11.948  13.341  68.189  1.00  0.00    -0.340 C  
BRANCH  11  12
HETATM   12  C   UNL     1     -11.586  11.854  68.139  1.00  0.00    -0.400 C  
BRANCH  12  13
HETATM   13  C   UNL     1     -10.609  11.457  69.244  1.00  0.00    -0.148 C  
BRANCH  13  14
HETATM   14  C   UNL     1     -11.177  10.391  70.190  1.00  0.00    -0.393 C  
BRANCH  14  15
HETATM   15  C   UNL     1     -12.703  10.398  70.351  1.00  0.00    -0.289 C  
BRANCH  15  16
HETATM   16  C   UNL     1     -13.177  10.154  71.757  1.00  0.00    -0.542 C  
HETATM   17  C   UNL     1     -12.723   9.175  72.555  1.00  0.00    -0.352 C  
BRANCH  17  18
HETATM   18  C   UNL     1     -11.705   8.141  72.171  1.00  0.00    -0.418 C  
BRANCH  18  19
HETATM   19  C   UNL     1     -12.345   6.952  71.458  1.00  0.00    -0.420 C  
BRANCH  19  20
HETATM   20  C   UNL     1     -11.577   6.631  70.176  1.00  0.00    -0.446 C  
BRANCH  20  21
HETATM   21  C   UNL     1     -10.076   6.548  70.434  1.00  0.00    -0.213 C  
BRANCH  21  22
HETATM   22  C   UNL     1      -9.471   5.311  69.775  1.00  0.00    -0.207 C  
BRANCH  22  23
HETATM   23  C   UNL     1      -9.884   4.044  70.520  1.00  0.00    -0.214 C  
BRANCH  23  24
HETATM   24  C   UNL     1      -8.990   3.782  71.727  1.00  0.00    -0.151 C  
HETATM   25  C   UNL     1      -9.340   2.478  72.407  1.00  0.00    -0.090 C  
HETATM   26  O   UNL     1      -8.539   2.228  73.469  1.00  0.00    -0.062 OA 
HETATM   27  O   UNL     1     -10.226   1.717  72.066  1.00  0.00    -0.158 OA 
ENDBRANCH  23  24
ENDBRANCH  22  23
ENDBRANCH  21  22
ENDBRANCH  20  21
ENDBRANCH  19  20
ENDBRANCH  18  19
ENDBRANCH  17  18
ENDBRANCH  15  16
ENDBRANCH  14  15
ENDBRANCH  13  14
ENDBRANCH  12  13
ENDBRANCH  11  12
ENDBRANCH  10  11
ENDBRANCH   6  10
TORSDOF 15
ENDMDL
MODEL      412
REMARK 921   NORMALIZED FREE ENERGY PREDICTED BY IDOCK:   -2.95 KCAL/MOL
REMARK 922        TOTAL FREE ENERGY PREDICTED BY IDOCK:   -7.49 KCAL/MOL
REMARK 923 INTER-LIGAND FREE ENERGY PREDICTED BY IDOCK:   -6.65 KCAL/MOL
REMARK 924 INTRA-LIGAND FREE ENERGY PREDICTED BY IDOCK:   -0.84 KCAL/MOL
REMARK 927      BINDING AFFINITY PREDICTED BY RF-SCORE:    0.00 PKD
ROOT
ATOM      1  N   GLY A   1     -12.332  12.420  70.932  1.00  0.00    -0.379 NA 
HETATM    2  C   UNL     1     -10.219   5.895  69.764  1.00  0.00    -0.281 C  
ATOM      3  H2  GLY A   1     -11.720  12.459  71.747  1.00  0.00     0.000 HD 
ATOM      4  H1  GLY A   1     -11.932  12.910  70.133  1.00  0.00     0.000 HD 
ATOM      5  CA  GLY A   1     -12.670  11.039  70.564  1.00  0.00    -0.247 C  
HETATM    6  C   UNL     1      -9.506   6.344  68.499  1.00  0.00    -0.120 C  
ENDROOT
BRANCH   5   7
ATOM      7  C   GLY A   1     -13.270  10.303  71.766  1.00  0.00    -0.430 C  
ATOM      8  H   GLY A   1     -13.755   8.457  72.211  1.00  0.00     0.000 HD 
ATOM      9  O   GLY A   1     -13.383   8.914  71.466  1.00  0.00    -0.341 OA 
ENDBRANCH   5   7
BRANCH   6  10
HETATM   10  C   UNL     1     -10.435   6.518  67.298  1.00  0.00    -0.337 C  
BRANCH  10  11
HETATM   11  C   UNL     1     -10.737   7.974  66.935  1.00  0.00    -0.201 C  
BRANCH  11  12
HETATM   12  C   UNL     1      -9.518   8.600  66.251  1.00  0.00    -0.307 C  
BRANCH  12  13
HETATM   13  C   UNL     1      -9.817   9.989  65.691  1.00  0.00    -0.363 C  
BRANCH  13  14
HETATM   14  C   UNL     1     -10.316  10.970  66.761  1.00  0.00    -0.284 C  
BRANCH  14  15
HETATM   15  C   UNL     1     -11.212  12.104  66.247  1.00  0.00    -0.382 C  
BRANCH  15  16
HETATM   16  C   UNL     1     -11.346  13.264  67.197  1.00  0.00    -0.351 C  
HETATM   17  C   UNL     1     -10.519  14.320  67.228  1.00  0.00    -0.269 C  
BRANCH  17  18
HETATM   18  C   UNL     1      -9.308  14.506  66.361  1.00  0.00    -0.300 C  
BRANCH  18  19
HETATM   19  C   UNL     1      -8.097  14.966  67.168  1.00  0.00    -0.239 C  
BRANCH  19  20
HETATM   20  C   UNL     1      -8.332  16.374  67.716  1.00  0.00    -0.172 C  
BRANCH  20  21
HETATM   21  C   UNL     1      -7.157  16.842  68.568  1.00  0.00    -0.198 C  
BRANCH  21  22
HETATM   22  C   UNL     1      -7.435  18.208  69.188  1.00  0.00    -0.099 C  
BRANCH  22  23
HETATM   23  C   UNL     1      -6.349  19.209  68.803  1.00  0.00    -0.274 C  
BRANCH  23  24
HETATM   24  C   UNL     1      -6.051  19.170  67.307  1.00  0.00    -0.179 C  
HETATM   25  C   UNL     1      -7.182  19.762  66.499  1.00  0.00    -0.241 C  
HETATM   26  O   UNL     1      -6.919  19.749  65.171  1.00  0.00    -0.347 OA 
HETATM   27  O   UNL     1      -8.218  20.212  66.952  1.00  0.00    -0.305 OA 
ENDBRANCH  23  24
ENDBRANCH  22  23
ENDBRANCH  21  22
ENDBRANCH  20  21
ENDBRANCH  19  20
ENDBRANCH  18  19
ENDBRANCH  17  18
ENDBRANCH  15  16
ENDBRANCH  14  15
ENDBRANCH  13  14
ENDBRANCH  12  13
ENDBRANCH  11  12
ENDBRANCH  10  11
ENDBRANCH   6  10
TORSDOF 15
ENDMDL
MODEL      413
REMARK 921   NORMALIZED FREE ENERGY PREDICTED BY IDOCK:   -2.95 KCAL/MOL
REMARK 922        TOTAL FREE ENERGY PREDICTED BY IDOCK:   -7.49 KCAL/MOL
REMARK 923 INTER-LIGAND FREE ENERGY PREDICTED BY IDOCK:   -5.18 KCAL/MOL
REMARK 924 INTRA-LIGAND FREE ENERGY PREDICTED BY IDOCK:   -2.31 KCAL/MOL
REMARK 927      BINDING AFFINITY PREDICTED BY RF-SCORE:    0.00 PKD
ROOT
ATOM      1  N   GLY A   1      -7.467  11.903  68.098  1.00  0.00    -0.092 NA 
HETATM    2  C   UNL     1     -13.024   9.983  71.820  1.00  0.00    -0.560 C  
ATOM      3  H2  GLY A   1      -7.260  12.614  68.799  1.00  0.00     0.000 HD 
ATOM      4  H1  GLY A   1      -6.865  11.086  68.195  1.00  0.00     0.000 HD 
ATOM      5  CA  GLY A   1      -8.879  11.499  68.127  1.00  0.00    -0.165 C  
HETATM    6  C   UNL     1     -12.357   8.656  72.145  1.00  0.00    -0.452 C  
ENDROOT
BRANCH   5   7
ATOM      7  C   GLY A   1      -9.784  12.726  67.981  1.00  0.00    -0.220 C  
ATOM      8  H   GLY A   1      -9.767  14.397  66.959  1.00  0.00     0.000 HD 
ATOM      9  O   GLY A   1      -9.206  13.636  67.050  1.00  0.00    -0.232 OA 
ENDBRANCH   5   7
BRANCH   6  10
HETATM   10  C   UNL     1     -12.451   7.628  71.019  1.00  0.00    -0.205 C  
BRANCH  10  11
HETATM   11  C   UNL     1     -11.580   6.385  71.220  1.00  0.00    -0.370 C  
BRANCH  11  12
HETATM   12  C   UNL     1     -11.063   6.344  72.660  1.00  0.00    -0.294 C  
BRANCH  12  13
HETATM   13  C   UNL     1     -11.268   4.977  73.311  1.00  0.00    -0.411 C  
BRANCH  13  14
HETATM   14  C   UNL     1      -9.981   4.408  73.924  1.00  0.00    -0.188 C  
BRANCH  14  15
HETATM   15  C   UNL     1      -9.278   3.326  73.094  1.00  0.00    -0.108 C  
BRANCH  15  16
HETATM   16  C   UNL     1     -10.003   2.949  71.831  1.00  0.00    -0.213 C  
HETATM   17  C   UNL     1      -9.552   3.198  70.592  1.00  0.00    -0.212 C  
BRANCH  17  18
HETATM   18  C   UNL     1      -8.283   3.925  70.256  1.00  0.00    -0.071 C  
BRANCH  18  19
HETATM   19  C   UNL     1      -8.327   4.526  68.853  1.00  0.00    -0.086 C  
BRANCH  19  20
HETATM   20  C   UNL     1      -8.770   5.987  68.918  1.00  0.00    -0.122 C  
BRANCH  20  21
HETATM   21  C   UNL     1      -8.062   6.732  70.046  1.00  0.00    -0.125 C  
BRANCH  21  22
HETATM   22  C   UNL     1      -7.827   8.194  69.679  1.00  0.00    -0.103 C  
BRANCH  22  23
HETATM   23  C   UNL     1      -8.093   9.102  70.878  1.00  0.00    -0.201 C  
BRANCH  23  24
HETATM   24  C   UNL     1      -8.692   8.330  72.049  1.00  0.00    -0.243 C  
HETATM   25  C   UNL     1      -7.721   8.227  73.202  1.00  0.00    -0.125 C  
HETATM   26  O   UNL     1      -8.250   7.559  74.254  1.00  0.00    -0.164 OA 
HETATM   27  O   UNL     1      -6.593   8.681  73.221  1.00  0.00    -0.217 OA 
ENDBRANCH  23  24
ENDBRANCH  22  23
ENDBRANCH  21  22
ENDBRANCH  20  21
ENDBRANCH  19  20
ENDBRANCH  18  19
ENDBRANCH  17  18
ENDBRANCH  15  16
ENDBRANCH  14  15
ENDBRANCH  13  14
ENDBRANCH  12  13
ENDBRANCH  11  12
ENDBRANCH  10  11
ENDBRANCH   6  10
TORSDOF 15
ENDMDL
MODEL      414
REMARK 921   NORMALIZED FREE ENERGY PREDICTED BY IDOCK:   -2.95 KCAL/MOL
REMARK 922        TOTAL FREE ENERGY PREDICTED BY IDOCK:   -7.48 KCAL/MOL
REMARK 923 INTER-LIGAND FREE ENERGY PREDICTED BY IDOCK:   -5.63 KCAL/MOL
REMARK 924 INTRA-LIGAND FREE ENERGY PREDICTED BY IDOCK:   -1.85 KCAL/MOL
REMARK 927      BINDING AFFINITY PREDICTED BY RF-SCORE:    0.00 PKD
ROOT
ATOM      1  N   GLY A   1      -7.921  12.422  66.582  1.00  0.00    -0.396 NA 
HETATM    2  C   UNL     1     -12.910  10.775  71.142  1.00  0.00    -0.513 C  
ATOM      3  H2  GLY A   1      -7.768  13.296  67.084  1.00  0.00     0.000 HD 
ATOM      4  H1  GLY A   1      -7.207  11.728  66.801  1.00  0.00     0.000 HD 
ATOM      5  CA  GLY A   1      -9.259  11.871  66.833  1.00  0.00    -0.193 C  
HETATM    6  C   UNL     1     -12.048   9.649  71.691  1.00  0.00    -0.481 C  
ENDROOT
BRANCH   5   7
ATOM      7  C   GLY A   1     -10.331  12.913  66.503  1.00  0.00    -0.264 C  
ATOM      8  H   GLY A   1     -11.721  13.150  65.142  1.00  0.00     0.000 HD 
ATOM      9  O   GLY A   1     -11.056  12.503  65.347  1.00  0.00    -0.287 OA 
ENDBRANCH   5   7
BRANCH   6  10
HETATM   10  C   UNL     1     -12.072   8.383  70.835  1.00  0.00    -0.152 C  
BRANCH  10  11
HETATM   11  C   UNL     1     -11.091   7.297  71.282  1.00  0.00    -0.270 C  
BRANCH  11  12
HETATM   12  C   UNL     1     -10.277   7.795  72.479  1.00  0.00    -0.320 C  
BRANCH  12  13
HETATM   13  C   UNL     1     -10.501   6.944  73.728  1.00  0.00    -0.390 C  
BRANCH  13  14
HETATM   14  C   UNL     1      -9.192   6.440  74.351  1.00  0.00    -0.204 C  
BRANCH  14  15
HETATM   15  C   UNL     1      -8.706   5.075  73.848  1.00  0.00    -0.112 C  
BRANCH  15  16
HETATM   16  C   UNL     1      -9.808   4.146  73.418  1.00  0.00    -0.160 C  
HETATM   17  C   UNL     1     -10.009   3.736  72.156  1.00  0.00    -0.239 C  
BRANCH  17  18
HETATM   18  C   UNL     1      -9.204   4.161  70.963  1.00  0.00    -0.202 C  
BRANCH  18  19
HETATM   19  C   UNL     1      -8.529   2.973  70.282  1.00  0.00    -0.097 C  
BRANCH  19  20
HETATM   20  C   UNL     1      -9.241   2.644  68.970  1.00  0.00    -0.216 C  
BRANCH  20  21
HETATM   21  C   UNL     1      -9.730   3.908  68.271  1.00  0.00    -0.119 C  
BRANCH  21  22
HETATM   22  C   UNL     1      -9.014   4.113  66.939  1.00  0.00    -0.134 C  
BRANCH  22  23
HETATM   23  C   UNL     1      -8.666   5.585  66.733  1.00  0.00    -0.114 C  
BRANCH  23  24
HETATM   24  C   UNL     1      -9.848   6.495  67.054  1.00  0.00    -0.200 C  
HETATM   25  C   UNL     1      -9.633   7.895  66.526  1.00  0.00    -0.212 C  
HETATM   26  O   UNL     1     -10.685   8.704  66.790  1.00  0.00    -0.221 OA 
HETATM   27  O   UNL     1      -8.648   8.282  65.925  1.00  0.00    -0.133 OA 
ENDBRANCH  23  24
ENDBRANCH  22  23
ENDBRANCH  21  22
ENDBRANCH  20  21
ENDBRANCH  19  20
ENDBRANCH  18  19
ENDBRANCH  17  18
ENDBRANCH  15  16
ENDBRANCH  14  15
ENDBRANCH  13  14
ENDBRANCH  12  13
ENDBRANCH  11  12
ENDBRANCH  10  11
ENDBRANCH   6  10
TORSDOF 15
ENDMDL
MODEL      415
REMARK 921   NORMALIZED FREE ENERGY PREDICTED BY IDOCK:   -2.94 KCAL/MOL
REMARK 922        TOTAL FREE ENERGY PREDICTED BY IDOCK:   -7.47 KCAL/MOL
REMARK 923 INTER-LIGAND FREE ENERGY PREDICTED BY IDOCK:   -6.03 KCAL/MOL
REMARK 924 INTRA-LIGAND FREE ENERGY PREDICTED BY IDOCK:   -1.44 KCAL/MOL
REMARK 927      BINDING AFFINITY PREDICTED BY RF-SCORE:    0.00 PKD
ROOT
ATOM      1  N   GLY A   1      -6.742   9.589  68.123  1.00  0.00    -0.062 NA 
HETATM    2  C   UNL     1     -10.419  14.415  64.716  1.00  0.00    -0.394 C  
ATOM      3  H2  GLY A   1      -5.895  10.132  67.952  1.00  0.00     0.000 HD 
ATOM      4  H1  GLY A   1      -7.083   9.708  69.077  1.00  0.00     0.000 HD 
ATOM      5  CA  GLY A   1      -7.803   9.910  67.160  1.00  0.00    -0.099 C  
HETATM    6  C   UNL     1     -11.099  14.823  66.013  1.00  0.00    -0.330 C  
ENDROOT
BRANCH   5   7
ATOM      7  C   GLY A   1      -7.290   9.731  65.728  1.00  0.00    -0.105 C  
ATOM      8  H   GLY A   1      -6.341  10.823  64.406  1.00  0.00     0.000 HD 
ATOM      9  O   GLY A   1      -6.660  10.933  65.294  1.00  0.00     0.021 OA 
ENDBRANCH   5   7
BRANCH   6  10
HETATM   10  C   UNL     1     -12.240  13.894  66.427  1.00  0.00    -0.487 C  
BRANCH  10  11
HETATM   11  C   UNL     1     -12.136  13.360  67.858  1.00  0.00    -0.289 C  
BRANCH  11  12
HETATM   12  C   UNL     1     -11.612  11.921  67.836  1.00  0.00    -0.393 C  
BRANCH  12  13
HETATM   13  C   UNL     1     -10.565  11.669  68.920  1.00  0.00    -0.224 C  
BRANCH  13  14
HETATM   14  C   UNL     1     -10.992  10.587  69.923  1.00  0.00    -0.359 C  
BRANCH  14  15
HETATM   15  C   UNL     1     -12.505  10.429  70.116  1.00  0.00    -0.247 C  
BRANCH  15  16
HETATM   16  C   UNL     1     -12.925  10.202  71.543  1.00  0.00    -0.547 C  
HETATM   17  C   UNL     1     -12.478   9.202  72.318  1.00  0.00    -0.403 C  
BRANCH  17  18
HETATM   18  C   UNL     1     -11.526   8.124  71.887  1.00  0.00    -0.357 C  
BRANCH  18  19
HETATM   19  C   UNL     1     -12.260   6.923  71.294  1.00  0.00    -0.427 C  
BRANCH  19  20
HETATM   20  C   UNL     1     -11.526   6.420  70.051  1.00  0.00    -0.496 C  
BRANCH  20  21
HETATM   21  C   UNL     1     -10.018   6.380  70.274  1.00  0.00    -0.199 C  
BRANCH  21  22
HETATM   22  C   UNL     1      -9.292   7.310  69.306  1.00  0.00    -0.154 C  
BRANCH  22  23
HETATM   23  C   UNL     1      -9.447   6.822  67.868  1.00  0.00    -0.118 C  
BRANCH  23  24
HETATM   24  C   UNL     1      -8.538   5.631  67.576  1.00  0.00    -0.108 C  
HETATM   25  C   UNL     1      -8.730   5.117  66.167  1.00  0.00    -0.123 C  
HETATM   26  O   UNL     1      -7.914   4.073  65.892  1.00  0.00    -0.093 OA 
HETATM   27  O   UNL     1      -9.510   5.567  65.349  1.00  0.00    -0.034 OA 
ENDBRANCH  23  24
ENDBRANCH  22  23
ENDBRANCH  21  22
ENDBRANCH  20  21
ENDBRANCH  19  20
ENDBRANCH  18  19
ENDBRANCH  17  18
ENDBRANCH  15  16
ENDBRANCH  14  15
ENDBRANCH  13  14
ENDBRANCH  12  13
ENDBRANCH  11  12
ENDBRANCH  10  11
ENDBRANCH   6  10
TORSDOF 15
ENDMDL
MODEL      416
REMARK 921   NORMALIZED FREE ENERGY PREDICTED BY IDOCK:   -2.94 KCAL/MOL
REMARK 922        TOTAL FREE ENERGY PREDICTED BY IDOCK:   -7.47 KCAL/MOL
REMARK 923 INTER-LIGAND FREE ENERGY PREDICTED BY IDOCK:   -5.54 KCAL/MOL
REMARK 924 INTRA-LIGAND FREE ENERGY PREDICTED BY IDOCK:   -1.93 KCAL/MOL
REMARK 927      BINDING AFFINITY PREDICTED BY RF-SCORE:    0.00 PKD
ROOT
ATOM      1  N   GLY A   1      -7.716   9.328  65.834  1.00  0.00    -0.098 NA 
HETATM    2  C   UNL     1      -6.378  15.216  69.291  1.00  0.00    -0.117 C  
ATOM      3  H2  GLY A   1      -7.342   8.797  66.619  1.00  0.00     0.000 HD 
ATOM      4  H1  GLY A   1      -8.736   9.325  65.824  1.00  0.00     0.000 HD 
ATOM      5  CA  GLY A   1      -7.213  10.708  65.814  1.00  0.00    -0.104 C  
HETATM    6  C   UNL     1      -7.869  15.475  69.442  1.00  0.00    -0.231 C  
ENDROOT
BRANCH   5   7
ATOM      7  C   GLY A   1      -5.682  10.713  65.829  1.00  0.00    -0.139 C  
ATOM      8  H   GLY A   1      -4.243  10.871  64.508  1.00  0.00     0.000 HD 
ATOM      9  O   GLY A   1      -5.192  10.868  64.499  1.00  0.00    -0.158 OA 
ENDBRANCH   5   7
BRANCH   6  10
HETATM   10  C   UNL     1      -8.520  16.068  68.193  1.00  0.00    -0.169 C  
BRANCH  10  11
HETATM   11  C   UNL     1      -9.459  17.245  68.465  1.00  0.00    -0.285 C  
BRANCH  11  12
HETATM   12  C   UNL     1     -10.666  17.171  67.526  1.00  0.00    -0.276 C  
BRANCH  12  13
HETATM   13  C   UNL     1     -10.896  15.760  66.987  1.00  0.00    -0.273 C  
BRANCH  13  14
HETATM   14  C   UNL     1     -10.967  15.711  65.454  1.00  0.00    -0.342 C  
BRANCH  14  15
HETATM   15  C   UNL     1     -10.538  14.383  64.817  1.00  0.00    -0.417 C  
BRANCH  15  16
HETATM   16  C   UNL     1     -11.679  13.537  64.322  1.00  0.00    -0.455 C  
HETATM   17  C   UNL     1     -12.309  12.606  65.055  1.00  0.00    -0.561 C  
BRANCH  17  18
HETATM   18  C   UNL     1     -11.960  12.222  66.463  1.00  0.00    -0.274 C  
BRANCH  18  19
HETATM   19  C   UNL     1     -10.812  11.216  66.509  1.00  0.00    -0.302 C  
BRANCH  19  20
HETATM   20  C   UNL     1     -10.605  10.718  67.940  1.00  0.00    -0.258 C  
BRANCH  20  21
HETATM   21  C   UNL     1     -10.761   9.203  68.028  1.00  0.00    -0.205 C  
BRANCH  21  22
HETATM   22  C   UNL     1      -9.926   8.628  69.169  1.00  0.00    -0.193 C  
BRANCH  22  23
HETATM   23  C   UNL     1      -9.242   9.744  69.955  1.00  0.00    -0.263 C  
BRANCH  23  24
HETATM   24  C   UNL     1      -7.732   9.536  70.031  1.00  0.00    -0.146 C  
HETATM   25  C   UNL     1      -6.978  10.719  69.468  1.00  0.00    -0.130 C  
HETATM   26  O   UNL     1      -5.638  10.552  69.549  1.00  0.00    -0.038 OA 
HETATM   27  O   UNL     1      -7.482  11.721  68.996  1.00  0.00    -0.104 OA 
ENDBRANCH  23  24
ENDBRANCH  22  23
ENDBRANCH  21  22
ENDBRANCH  20  21
ENDBRANCH  19  20
ENDBRANCH  18  19
ENDBRANCH  17  18
ENDBRANCH  15  16
ENDBRANCH  14  15
ENDBRANCH  13  14
ENDBRANCH  12  13
ENDBRANCH  11  12
ENDBRANCH  10  11
ENDBRANCH   6  10
TORSDOF 15
ENDMDL
MODEL      417
REMARK 921   NORMALIZED FREE ENERGY PREDICTED BY IDOCK:   -2.94 KCAL/MOL
REMARK 922        TOTAL FREE ENERGY PREDICTED BY IDOCK:   -7.46 KCAL/MOL
REMARK 923 INTER-LIGAND FREE ENERGY PREDICTED BY IDOCK:   -5.79 KCAL/MOL
REMARK 924 INTRA-LIGAND FREE ENERGY PREDICTED BY IDOCK:   -1.67 KCAL/MOL
REMARK 927      BINDING AFFINITY PREDICTED BY RF-SCORE:    0.00 PKD
ROOT
ATOM      1  N   GLY A   1     -14.271  13.251  72.752  1.00  0.00    -0.586 NA 
HETATM    2  C   UNL     1     -12.109  14.331  66.228  1.00  0.00    -0.433 C  
ATOM      3  H2  GLY A   1     -15.236  13.339  72.434  1.00  0.00     0.000 HD 
ATOM      4  H1  GLY A   1     -14.005  12.277  72.897  1.00  0.00     0.000 HD 
ATOM      5  CA  GLY A   1     -13.328  13.904  71.835  1.00  0.00    -0.412 C  
HETATM    6  C   UNL     1     -11.614  12.896  66.146  1.00  0.00    -0.423 C  
ENDROOT
BRANCH   5   7
ATOM      7  C   GLY A   1     -13.727  15.366  71.618  1.00  0.00    -0.509 C  
ATOM      8  H   GLY A   1     -13.934  16.968  72.728  1.00  0.00     0.000 HD 
ATOM      9  O   GLY A   1     -13.686  16.061  72.862  1.00  0.00    -0.565 OA 
ENDBRANCH   5   7
BRANCH   6  10
HETATM   10  C   UNL     1     -10.260  12.673  66.818  1.00  0.00    -0.246 C  
BRANCH  10  11
HETATM   11  C   UNL     1      -9.765  11.225  66.784  1.00  0.00    -0.218 C  
BRANCH  11  12
HETATM   12  C   UNL     1     -10.851  10.295  67.332  1.00  0.00    -0.336 C  
BRANCH  12  13
HETATM   13  C   UNL     1     -11.178  10.585  68.796  1.00  0.00    -0.317 C  
BRANCH  13  14
HETATM   14  C   UNL     1     -10.631   9.518  69.754  1.00  0.00    -0.257 C  
BRANCH  14  15
HETATM   15  C   UNL     1      -9.195   9.746  70.243  1.00  0.00    -0.225 C  
BRANCH  15  16
HETATM   16  C   UNL     1      -8.473   8.489  70.645  1.00  0.00    -0.158 C  
HETATM   17  C   UNL     1      -7.562   7.859  69.886  1.00  0.00    -0.089 C  
BRANCH  17  18
HETATM   18  C   UNL     1      -7.144   8.271  68.504  1.00  0.00    -0.077 C  
BRANCH  18  19
HETATM   19  C   UNL     1      -7.030   7.073  67.565  1.00  0.00    -0.079 C  
BRANCH  19  20
HETATM   20  C   UNL     1      -8.393   6.750  66.955  1.00  0.00    -0.114 C  
BRANCH  20  21
HETATM   21  C   UNL     1      -8.302   5.586  65.974  1.00  0.00    -0.122 C  
BRANCH  21  22
HETATM   22  C   UNL     1      -7.406   5.933  64.788  1.00  0.00    -0.069 C  
BRANCH  22  23
HETATM   23  C   UNL     1      -8.078   6.966  63.886  1.00  0.00     0.001 C  
BRANCH  23  24
HETATM   24  C   UNL     1      -7.156   8.147  63.597  1.00  0.00    -0.082 C  
HETATM   25  C   UNL     1      -7.935   9.427  63.405  1.00  0.00    -0.143 C  
HETATM   26  O   UNL     1      -7.124  10.484  63.166  1.00  0.00    -0.098 OA 
HETATM   27  O   UNL     1      -9.146   9.534  63.456  1.00  0.00    -0.230 OA 
ENDBRANCH  23  24
ENDBRANCH  22  23
ENDBRANCH  21  22
ENDBRANCH  20  21
ENDBRANCH  19  20
ENDBRANCH  18  19
ENDBRANCH  17  18
ENDBRANCH  15  16
ENDBRANCH  14  15
ENDBRANCH  13  14
ENDBRANCH  12  13
ENDBRANCH  11  12
ENDBRANCH  10  11
ENDBRANCH   6  10
TORSDOF 15
ENDMDL
MODEL      418
REMARK 921   NORMALIZED FREE ENERGY PREDICTED BY IDOCK:   -2.93 KCAL/MOL
REMARK 922        TOTAL FREE ENERGY PREDICTED BY IDOCK:   -7.44 KCAL/MOL
REMARK 923 INTER-LIGAND FREE ENERGY PREDICTED BY IDOCK:   -6.05 KCAL/MOL
REMARK 924 INTRA-LIGAND FREE ENERGY PREDICTED BY IDOCK:   -1.39 KCAL/MOL
REMARK 927      BINDING AFFINITY PREDICTED BY RF-SCORE:    0.00 PKD
ROOT
ATOM      1  N   GLY A   1     -14.203  15.156  71.191  1.00  0.00    -0.716 NA 
HETATM    2  C   UNL     1     -10.753  14.545  65.180  1.00  0.00    -0.422 C  
ATOM      3  H2  GLY A   1     -14.443  16.115  70.941  1.00  0.00     0.000 HD 
ATOM      4  H1  GLY A   1     -14.984  14.518  71.043  1.00  0.00     0.000 HD 
ATOM      5  CA  GLY A   1     -13.016  14.681  70.468  1.00  0.00    -0.268 C  
HETATM    6  C   UNL     1     -11.789  13.553  64.677  1.00  0.00    -0.428 C  
ENDROOT
BRANCH   5   7
ATOM      7  C   GLY A   1     -11.843  15.640  70.690  1.00  0.00    -0.376 C  
ATOM      8  H   GLY A   1     -10.601  16.063  72.146  1.00  0.00     0.000 HD 
ATOM      9  O   GLY A   1     -11.328  15.468  72.008  1.00  0.00    -0.415 OA 
ENDBRANCH   5   7
BRANCH   6  10
HETATM   10  C   UNL     1     -11.595  12.136  65.215  1.00  0.00    -0.376 C  
BRANCH  10  11
HETATM   11  C   UNL     1     -10.369  11.408  64.658  1.00  0.00    -0.362 C  
BRANCH  11  12
HETATM   12  C   UNL     1      -9.281  11.330  65.733  1.00  0.00    -0.236 C  
BRANCH  12  13
HETATM   13  C   UNL     1      -8.514  10.009  65.686  1.00  0.00    -0.155 C  
BRANCH  13  14
HETATM   14  C   UNL     1      -9.435   8.781  65.705  1.00  0.00    -0.239 C  
BRANCH  14  15
HETATM   15  C   UNL     1      -9.723   8.195  67.093  1.00  0.00    -0.259 C  
BRANCH  15  16
HETATM   16  C   UNL     1     -11.012   7.424  67.183  1.00  0.00    -0.225 C  
HETATM   17  C   UNL     1     -11.120   6.099  67.003  1.00  0.00    -0.332 C  
BRANCH  17  18
HETATM   18  C   UNL     1      -9.994   5.173  66.644  1.00  0.00    -0.235 C  
BRANCH  18  19
HETATM   19  C   UNL     1      -9.376   4.526  67.881  1.00  0.00    -0.178 C  
BRANCH  19  20
HETATM   20  C   UNL     1      -7.916   4.955  68.026  1.00  0.00    -0.086 C  
BRANCH  20  21
HETATM   21  C   UNL     1      -7.366   4.598  69.404  1.00  0.00    -0.052 C  
BRANCH  21  22
HETATM   22  C   UNL     1      -7.977   5.482  70.488  1.00  0.00    -0.103 C  
BRANCH  22  23
HETATM   23  C   UNL     1      -8.088   6.927  70.009  1.00  0.00    -0.125 C  
BRANCH  23  24
HETATM   24  C   UNL     1      -7.791   7.917  71.131  1.00  0.00    -0.086 C  
HETATM   25  C   UNL     1      -6.594   8.782  70.808  1.00  0.00    -0.050 C  
HETATM   26  O   UNL     1      -6.334   9.676  71.790  1.00  0.00    -0.300 OA 
HETATM   27  O   UNL     1      -5.923   8.713  69.795  1.00  0.00    -0.028 OA 
ENDBRANCH  23  24
ENDBRANCH  22  23
ENDBRANCH  21  22
ENDBRANCH  20  21
ENDBRANCH  19  20
ENDBRANCH  18  19
ENDBRANCH  17  18
ENDBRANCH  15  16
ENDBRANCH  14  15
ENDBRANCH  13  14
ENDBRANCH  12  13
ENDBRANCH  11  12
ENDBRANCH  10  11
ENDBRANCH   6  10
TORSDOF 15
ENDMDL
MODEL      419
REMARK 921   NORMALIZED FREE ENERGY PREDICTED BY IDOCK:   -2.92 KCAL/MOL
REMARK 922        TOTAL FREE ENERGY PREDICTED BY IDOCK:   -7.42 KCAL/MOL
REMARK 923 INTER-LIGAND FREE ENERGY PREDICTED BY IDOCK:   -6.33 KCAL/MOL
REMARK 924 INTRA-LIGAND FREE ENERGY PREDICTED BY IDOCK:   -1.09 KCAL/MOL
REMARK 927      BINDING AFFINITY PREDICTED BY RF-SCORE:    0.00 PKD
ROOT
ATOM      1  N   GLY A   1      -8.793  19.197  68.530  1.00  0.00    -0.357 NA 
HETATM    2  C   UNL     1     -12.774  14.210  65.756  1.00  0.00    -0.443 C  
ATOM      3  H2  GLY A   1      -9.430  19.246  69.324  1.00  0.00     0.000 HD 
ATOM      4  H1  GLY A   1      -7.944  18.678  68.755  1.00  0.00     0.000 HD 
ATOM      5  CA  GLY A   1      -9.439  18.622  67.342  1.00  0.00    -0.297 C  
HETATM    6  C   UNL     1     -11.668  13.191  65.981  1.00  0.00    -0.424 C  
ENDROOT
BRANCH   5   7
ATOM      7  C   GLY A   1     -10.713  19.401  67.004  1.00  0.00    -0.474 C  
ATOM      8  H   GLY A   1     -11.599  20.053  65.383  1.00  0.00     0.000 HD 
ATOM      9  O   GLY A   1     -10.809  19.570  65.592  1.00  0.00    -0.458 OA 
ENDBRANCH   5   7
BRANCH   6  10
HETATM   10  C   UNL     1     -10.565  13.239  64.924  1.00  0.00    -0.381 C  
BRANCH  10  11
HETATM   11  C   UNL     1     -10.916  12.540  63.608  1.00  0.00    -0.507 C  
BRANCH  11  12
HETATM   12  C   UNL     1     -10.447  11.083  63.656  1.00  0.00    -0.388 C  
BRANCH  12  13
HETATM   13  C   UNL     1      -9.290  10.877  64.632  1.00  0.00    -0.256 C  
BRANCH  13  14
HETATM   14  C   UNL     1      -9.222   9.447  65.185  1.00  0.00    -0.287 C  
BRANCH  14  15
HETATM   15  C   UNL     1      -9.918   9.227  66.534  1.00  0.00    -0.344 C  
BRANCH  15  16
HETATM   16  C   UNL     1      -8.979   8.959  67.678  1.00  0.00    -0.141 C  
HETATM   17  C   UNL     1      -9.346   8.429  68.855  1.00  0.00    -0.147 C  
BRANCH  17  18
HETATM   18  C   UNL     1     -10.747   8.055  69.244  1.00  0.00    -0.140 C  
BRANCH  18  19
HETATM   19  C   UNL     1     -10.767   7.035  70.380  1.00  0.00    -0.259 C  
BRANCH  19  20
HETATM   20  C   UNL     1     -10.545   5.627  69.827  1.00  0.00    -0.400 C  
BRANCH  20  21
HETATM   21  C   UNL     1     -10.275   4.627  70.947  1.00  0.00    -0.213 C  
BRANCH  21  22
HETATM   22  C   UNL     1      -9.236   3.592  70.523  1.00  0.00    -0.210 C  
BRANCH  22  23
HETATM   23  C   UNL     1      -7.824   4.083  70.834  1.00  0.00    -0.055 C  
BRANCH  23  24
HETATM   24  C   UNL     1      -6.851   3.750  69.707  1.00  0.00    -0.041 C  
HETATM   25  C   UNL     1      -6.484   4.980  68.908  1.00  0.00    -0.036 C  
HETATM   26  O   UNL     1      -5.607   4.698  67.917  1.00  0.00    -0.015 OA 
HETATM   27  O   UNL     1      -6.904   6.105  69.106  1.00  0.00    -0.058 OA 
ENDBRANCH  23  24
ENDBRANCH  22  23
ENDBRANCH  21  22
ENDBRANCH  20  21
ENDBRANCH  19  20
ENDBRANCH  18  19
ENDBRANCH  17  18
ENDBRANCH  15  16
ENDBRANCH  14  15
ENDBRANCH  13  14
ENDBRANCH  12  13
ENDBRANCH  11  12
ENDBRANCH  10  11
ENDBRANCH   6  10
TORSDOF 15
ENDMDL
MODEL      420
REMARK 921   NORMALIZED FREE ENERGY PREDICTED BY IDOCK:   -2.91 KCAL/MOL
REMARK 922        TOTAL FREE ENERGY PREDICTED BY IDOCK:   -7.41 KCAL/MOL
REMARK 923 INTER-LIGAND FREE ENERGY PREDICTED BY IDOCK:   -5.58 KCAL/MOL
REMARK 924 INTRA-LIGAND FREE ENERGY PREDICTED BY IDOCK:   -1.83 KCAL/MOL
REMARK 927      BINDING AFFINITY PREDICTED BY RF-SCORE:    0.00 PKD
ROOT
ATOM      1  N   GLY A   1     -11.548  16.220  63.951  1.00  0.00    -1.573 NA 
HETATM    2  C   UNL     1      -6.336  13.612  67.752  1.00  0.00    -0.172 C  
ATOM      3  H2  GLY A   1     -10.863  16.613  63.306  1.00  0.00     0.000 HD 
ATOM      4  H1  GLY A   1     -11.975  15.371  63.581  1.00  0.00     0.000 HD 
ATOM      5  CA  GLY A   1     -10.968  15.961  65.276  1.00  0.00    -0.324 C  
HETATM    6  C   UNL     1      -6.743  12.201  67.356  1.00  0.00    -0.143 C  
ENDROOT
BRANCH   5   7
ATOM      7  C   GLY A   1     -10.326  17.236  65.830  1.00  0.00    -0.278 C  
ATOM      8  H   GLY A   1      -8.512  17.871  66.211  1.00  0.00     0.000 HD 
ATOM      9  O   GLY A   1      -8.910  17.080  65.866  1.00  0.00    -0.518 OA 
ENDBRANCH   5   7
BRANCH   6  10
HETATM   10  C   UNL     1      -7.925  11.655  68.155  1.00  0.00    -0.141 C  
BRANCH  10  11
HETATM   11  C   UNL     1      -7.777  10.194  68.588  1.00  0.00    -0.092 C  
BRANCH  11  12
HETATM   12  C   UNL     1      -8.916   9.820  69.541  1.00  0.00    -0.215 C  
BRANCH  12  13
HETATM   13  C   UNL     1     -10.268  10.347  69.064  1.00  0.00    -0.233 C  
BRANCH  13  14
HETATM   14  C   UNL     1     -10.752   9.671  67.774  1.00  0.00    -0.316 C  
BRANCH  14  15
HETATM   15  C   UNL     1     -10.620   8.143  67.741  1.00  0.00    -0.233 C  
BRANCH  15  16
HETATM   16  C   UNL     1      -9.748   7.622  66.631  1.00  0.00    -0.283 C  
HETATM   17  C   UNL     1      -8.624   6.913  66.816  1.00  0.00    -0.120 C  
BRANCH  17  18
HETATM   18  C   UNL     1      -8.028   6.556  68.146  1.00  0.00    -0.110 C  
BRANCH  18  19
HETATM   19  C   UNL     1      -6.612   6.003  68.003  1.00  0.00    -0.055 C  
BRANCH  19  20
HETATM   20  C   UNL     1      -6.234   5.195  69.244  1.00  0.00    -0.033 C  
BRANCH  20  21
HETATM   21  C   UNL     1      -6.570   5.954  70.524  1.00  0.00    -0.047 C  
BRANCH  21  22
HETATM   22  C   UNL     1      -5.465   5.798  71.565  1.00  0.00    -0.020 C  
BRANCH  22  23
HETATM   23  C   UNL     1      -5.166   7.134  72.241  1.00  0.00    -0.036 C  
BRANCH  23  24
HETATM   24  C   UNL     1      -5.430   8.311  71.307  1.00  0.00    -0.033 C  
HETATM   25  C   UNL     1      -5.460   9.622  72.059  1.00  0.00    -0.027 C  
HETATM   26  O   UNL     1      -5.675  10.674  71.235  1.00  0.00    -0.289 OA 
HETATM   27  O   UNL     1      -5.309   9.754  73.258  1.00  0.00    -0.286 OA 
ENDBRANCH  23  24
ENDBRANCH  22  23
ENDBRANCH  21  22
ENDBRANCH  20  21
ENDBRANCH  19  20
ENDBRANCH  18  19
ENDBRANCH  17  18
ENDBRANCH  15  16
ENDBRANCH  14  15
ENDBRANCH  13  14
ENDBRANCH  12  13
ENDBRANCH  11  12
ENDBRANCH  10  11
ENDBRANCH   6  10
TORSDOF 15
ENDMDL
MODEL      421
REMARK 921   NORMALIZED FREE ENERGY PREDICTED BY IDOCK:   -2.91 KCAL/MOL
REMARK 922        TOTAL FREE ENERGY PREDICTED BY IDOCK:   -7.40 KCAL/MOL
REMARK 923 INTER-LIGAND FREE ENERGY PREDICTED BY IDOCK:   -5.04 KCAL/MOL
REMARK 924 INTRA-LIGAND FREE ENERGY PREDICTED BY IDOCK:   -2.36 KCAL/MOL
REMARK 927      BINDING AFFINITY PREDICTED BY RF-SCORE:    0.00 PKD
ROOT
ATOM      1  N   GLY A   1      -8.054   8.861  64.398  1.00  0.00    -0.145 NA 
HETATM    2  C   UNL     1     -10.640  15.316  64.644  1.00  0.00    -0.152 C  
ATOM      3  H2  GLY A   1      -7.132   9.236  64.620  1.00  0.00     0.000 HD 
ATOM      4  H1  GLY A   1      -8.497   8.433  65.210  1.00  0.00     0.000 HD 
ATOM      5  CA  GLY A   1      -8.936   9.882  63.818  1.00  0.00    -0.250 C  
HETATM    6  C   UNL     1     -11.425  14.962  65.897  1.00  0.00    -0.276 C  
ENDROOT
BRANCH   5   7
ATOM      7  C   GLY A   1      -8.271  10.525  62.597  1.00  0.00    -0.174 C  
ATOM      8  H   GLY A   1      -6.457  10.664  61.869  1.00  0.00     0.000 HD 
ATOM      9  O   GLY A   1      -6.870  10.266  62.626  1.00  0.00    -0.130 OA 
ENDBRANCH   5   7
BRANCH   6  10
HETATM   10  C   UNL     1     -12.715  14.193  65.618  1.00  0.00    -0.469 C  
BRANCH  10  11
HETATM   11  C   UNL     1     -12.509  12.725  65.235  1.00  0.00    -0.528 C  
BRANCH  11  12
HETATM   12  C   UNL     1     -11.434  12.103  66.130  1.00  0.00    -0.429 C  
BRANCH  12  13
HETATM   13  C   UNL     1     -11.863  12.041  67.595  1.00  0.00    -0.294 C  
BRANCH  13  14
HETATM   14  C   UNL     1     -10.771  12.522  68.560  1.00  0.00    -0.263 C  
BRANCH  14  15
HETATM   15  C   UNL     1      -9.561  13.197  67.901  1.00  0.00    -0.218 C  
BRANCH  15  16
HETATM   16  C   UNL     1      -9.126  14.473  68.569  1.00  0.00    -0.190 C  
HETATM   17  C   UNL     1      -7.884  14.978  68.508  1.00  0.00    -0.137 C  
BRANCH  17  18
HETATM   18  C   UNL     1      -6.719  14.344  67.806  1.00  0.00    -0.191 C  
BRANCH  18  19
HETATM   19  C   UNL     1      -6.034  13.295  68.679  1.00  0.00    -0.083 C  
BRANCH  19  20
HETATM   20  C   UNL     1      -5.693  12.059  67.847  1.00  0.00    -0.059 C  
BRANCH  20  21
HETATM   21  C   UNL     1      -6.309  10.798  68.446  1.00  0.00    -0.053 C  
BRANCH  21  22
HETATM   22  C   UNL     1      -7.542  10.360  67.661  1.00  0.00    -0.089 C  
BRANCH  22  23
HETATM   23  C   UNL     1      -8.468   9.516  68.534  1.00  0.00    -0.119 C  
BRANCH  23  24
HETATM   24  C   UNL     1      -9.715   9.076  67.773  1.00  0.00    -0.190 C  
HETATM   25  C   UNL     1      -9.681   7.599  67.455  1.00  0.00    -0.156 C  
HETATM   26  O   UNL     1     -10.792   7.196  66.796  1.00  0.00    -0.320 OA 
HETATM   27  O   UNL     1      -8.782   6.833  67.746  1.00  0.00    -0.121 OA 
ENDBRANCH  23  24
ENDBRANCH  22  23
ENDBRANCH  21  22
ENDBRANCH  20  21
ENDBRANCH  19  20
ENDBRANCH  18  19
ENDBRANCH  17  18
ENDBRANCH  15  16
ENDBRANCH  14  15
ENDBRANCH  13  14
ENDBRANCH  12  13
ENDBRANCH  11  12
ENDBRANCH  10  11
ENDBRANCH   6  10
TORSDOF 15
ENDMDL
MODEL      422
REMARK 921   NORMALIZED FREE ENERGY PREDICTED BY IDOCK:   -2.90 KCAL/MOL
REMARK 922        TOTAL FREE ENERGY PREDICTED BY IDOCK:   -7.38 KCAL/MOL
REMARK 923 INTER-LIGAND FREE ENERGY PREDICTED BY IDOCK:   -6.14 KCAL/MOL
REMARK 924 INTRA-LIGAND FREE ENERGY PREDICTED BY IDOCK:   -1.24 KCAL/MOL
REMARK 927      BINDING AFFINITY PREDICTED BY RF-SCORE:    0.00 PKD
ROOT
ATOM      1  N   GLY A   1      -8.464   5.520  73.842  1.00  0.00    -0.113 NA 
HETATM    2  C   UNL     1      -9.312   2.639  67.566  1.00  0.00    -0.188 C  
ATOM      3  H2  GLY A   1      -7.579   5.021  73.937  1.00  0.00     0.000 HD 
ATOM      4  H1  GLY A   1      -8.324   6.500  73.599  1.00  0.00     0.000 HD 
ATOM      5  CA  GLY A   1      -9.354   4.877  72.866  1.00  0.00    -0.130 C  
HETATM    6  C   UNL     1      -9.129   3.998  66.909  1.00  0.00    -0.157 C  
ENDROOT
BRANCH   5   7
ATOM      7  C   GLY A   1      -9.564   3.404  73.231  1.00  0.00    -0.109 C  
ATOM      8  H   GLY A   1      -8.501   1.968  74.036  1.00  0.00     0.000 HD 
ATOM      9  O   GLY A   1      -8.371   2.882  73.810  1.00  0.00    -0.071 OA 
ENDBRANCH   5   7
BRANCH   6  10
HETATM   10  C   UNL     1     -10.381   4.873  66.947  1.00  0.00    -0.237 C  
BRANCH  10  11
HETATM   11  C   UNL     1     -10.362   5.961  68.023  1.00  0.00    -0.257 C  
BRANCH  11  12
HETATM   12  C   UNL     1      -9.562   7.168  67.526  1.00  0.00    -0.159 C  
BRANCH  12  13
HETATM   13  C   UNL     1     -10.456   8.245  66.913  1.00  0.00    -0.365 C  
BRANCH  13  14
HETATM   14  C   UNL     1      -9.672   9.479  66.447  1.00  0.00    -0.295 C  
BRANCH  14  15
HETATM   15  C   UNL     1      -9.654  10.658  67.427  1.00  0.00    -0.180 C  
BRANCH  15  16
HETATM   16  C   UNL     1     -10.745  10.617  68.463  1.00  0.00    -0.252 C  
HETATM   17  C   UNL     1     -11.709  11.542  68.589  1.00  0.00    -0.389 C  
BRANCH  17  18
HETATM   18  C   UNL     1     -11.840  12.784  67.756  1.00  0.00    -0.387 C  
BRANCH  18  19
HETATM   19  C   UNL     1     -11.921  14.040  68.620  1.00  0.00    -0.389 C  
BRANCH  19  20
HETATM   20  C   UNL     1     -10.518  14.566  68.918  1.00  0.00    -0.246 C  
BRANCH  20  21
HETATM   21  C   UNL     1      -9.682  14.671  67.646  1.00  0.00    -0.214 C  
BRANCH  21  22
HETATM   22  C   UNL     1      -8.844  15.947  67.640  1.00  0.00    -0.180 C  
BRANCH  22  23
HETATM   23  C   UNL     1      -9.691  17.152  68.042  1.00  0.00    -0.274 C  
BRANCH  23  24
HETATM   24  C   UNL     1     -10.213  17.906  66.823  1.00  0.00    -0.360 C  
HETATM   25  C   UNL     1      -9.930  19.387  66.921  1.00  0.00    -0.369 C  
HETATM   26  O   UNL     1     -10.374  20.062  65.835  1.00  0.00    -0.485 OA 
HETATM   27  O   UNL     1      -9.369  19.941  67.847  1.00  0.00    -0.336 OA 
ENDBRANCH  23  24
ENDBRANCH  22  23
ENDBRANCH  21  22
ENDBRANCH  20  21
ENDBRANCH  19  20
ENDBRANCH  18  19
ENDBRANCH  17  18
ENDBRANCH  15  16
ENDBRANCH  14  15
ENDBRANCH  13  14
ENDBRANCH  12  13
ENDBRANCH  11  12
ENDBRANCH  10  11
ENDBRANCH   6  10
TORSDOF 15
ENDMDL
MODEL      423
REMARK 921   NORMALIZED FREE ENERGY PREDICTED BY IDOCK:   -2.90 KCAL/MOL
REMARK 922        TOTAL FREE ENERGY PREDICTED BY IDOCK:   -7.38 KCAL/MOL
REMARK 923 INTER-LIGAND FREE ENERGY PREDICTED BY IDOCK:   -6.61 KCAL/MOL
REMARK 924 INTRA-LIGAND FREE ENERGY PREDICTED BY IDOCK:   -0.77 KCAL/MOL
REMARK 927      BINDING AFFINITY PREDICTED BY RF-SCORE:    0.00 PKD
ROOT
ATOM      1  N   GLY A   1     -10.159  10.405  65.025  1.00  0.00    -0.323 NA 
HETATM    2  C   UNL     1     -12.302   8.613  71.397  1.00  0.00    -0.344 C  
ATOM      3  H2  GLY A   1     -10.552   9.536  64.662  1.00  0.00     0.000 HD 
ATOM      4  H1  GLY A   1     -10.757  11.206  64.826  1.00  0.00     0.000 HD 
ATOM      5  CA  GLY A   1      -9.881  10.323  66.465  1.00  0.00    -0.212 C  
HETATM    6  C   UNL     1     -13.318   9.744  71.382  1.00  0.00    -0.449 C  
ENDROOT
BRANCH   5   7
ATOM      7  C   GLY A   1      -8.982   9.120  66.763  1.00  0.00    -0.128 C  
ATOM      8  H   GLY A   1      -7.085   8.672  66.563  1.00  0.00     0.000 HD 
ATOM      9  O   GLY A   1      -7.643   9.418  66.378  1.00  0.00    -0.096 OA 
ENDBRANCH   5   7
BRANCH   6  10
HETATM   10  C   UNL     1     -12.718  11.113  71.702  1.00  0.00    -0.466 C  
BRANCH  10  11
HETATM   11  C   UNL     1     -12.386  11.963  70.473  1.00  0.00    -0.372 C  
BRANCH  11  12
HETATM   12  C   UNL     1     -12.946  13.377  70.655  1.00  0.00    -0.057 C  
BRANCH  12  13
HETATM   13  C   UNL     1     -12.229  14.402  69.778  1.00  0.00    -0.370 C  
BRANCH  13  14
HETATM   14  C   UNL     1     -10.895  13.885  69.223  1.00  0.00    -0.170 C  
BRANCH  14  15
HETATM   15  C   UNL     1     -10.953  13.302  67.805  1.00  0.00    -0.278 C  
BRANCH  15  16
HETATM   16  C   UNL     1     -11.937  13.986  66.896  1.00  0.00    -0.479 C  
HETATM   17  C   UNL     1     -11.615  14.578  65.735  1.00  0.00    -0.347 C  
BRANCH  17  18
HETATM   18  C   UNL     1     -10.229  14.696  65.171  1.00  0.00    -0.414 C  
BRANCH  18  19
HETATM   19  C   UNL     1      -9.492  15.912  65.727  1.00  0.00    -0.316 C  
BRANCH  19  20
HETATM   20  C   UNL     1      -8.845  15.569  67.068  1.00  0.00    -0.255 C  
BRANCH  20  21
HETATM   21  C   UNL     1      -7.371  15.960  67.091  1.00  0.00    -0.258 C  
BRANCH  21  22
HETATM   22  C   UNL     1      -6.882  16.188  68.518  1.00  0.00    -0.135 C  
BRANCH  22  23
HETATM   23  C   UNL     1      -6.191  17.544  68.643  1.00  0.00    -0.181 C  
BRANCH  23  24
HETATM   24  C   UNL     1      -6.264  18.336  67.342  1.00  0.00    -0.184 C  
HETATM   25  C   UNL     1      -6.999  19.645  67.527  1.00  0.00    -0.226 C  
HETATM   26  O   UNL     1      -7.053  20.364  66.382  1.00  0.00    -0.260 OA 
HETATM   27  O   UNL     1      -7.491  20.039  68.568  1.00  0.00    -0.288 OA 
ENDBRANCH  23  24
ENDBRANCH  22  23
ENDBRANCH  21  22
ENDBRANCH  20  21
ENDBRANCH  19  20
ENDBRANCH  18  19
ENDBRANCH  17  18
ENDBRANCH  15  16
ENDBRANCH  14  15
ENDBRANCH  13  14
ENDBRANCH  12  13
ENDBRANCH  11  12
ENDBRANCH  10  11
ENDBRANCH   6  10
TORSDOF 15
ENDMDL
MODEL      424
REMARK 921   NORMALIZED FREE ENERGY PREDICTED BY IDOCK:   -2.89 KCAL/MOL
REMARK 922        TOTAL FREE ENERGY PREDICTED BY IDOCK:   -7.37 KCAL/MOL
REMARK 923 INTER-LIGAND FREE ENERGY PREDICTED BY IDOCK:   -7.16 KCAL/MOL
REMARK 924 INTRA-LIGAND FREE ENERGY PREDICTED BY IDOCK:   -0.21 KCAL/MOL
REMARK 927      BINDING AFFINITY PREDICTED BY RF-SCORE:    0.00 PKD
ROOT
ATOM      1  N   GLY A   1     -10.483  16.024  64.751  1.00  0.00    -0.671 NA 
HETATM    2  C   UNL     1      -5.279  12.477  67.710  1.00  0.00    -0.101 C  
ATOM      3  H2  GLY A   1      -9.809  16.471  64.131  1.00  0.00     0.000 HD 
ATOM      4  H1  GLY A   1     -10.996  15.278  64.281  1.00  0.00     0.000 HD 
ATOM      5  CA  GLY A   1      -9.850  15.511  65.973  1.00  0.00    -0.335 C  
HETATM    6  C   UNL     1      -5.817  11.183  67.121  1.00  0.00    -0.072 C  
ENDROOT
BRANCH   5   7
ATOM      7  C   GLY A   1      -9.079  16.630  66.680  1.00  0.00    -0.250 C  
ATOM      8  H   GLY A   1      -7.931  18.127  66.149  1.00  0.00     0.000 HD 
ATOM      9  O   GLY A   1      -8.409  17.433  65.711  1.00  0.00    -0.538 OA 
ENDBRANCH   5   7
BRANCH   6  10
HETATM   10  C   UNL     1      -6.989  10.592  67.903  1.00  0.00    -0.077 C  
BRANCH  10  11
HETATM   11  C   UNL     1      -6.595   9.894  69.207  1.00  0.00    -0.049 C  
BRANCH  11  12
HETATM   12  C   UNL     1      -7.832   9.717  70.093  1.00  0.00    -0.196 C  
BRANCH  12  13
HETATM   13  C   UNL     1      -8.259   8.255  70.207  1.00  0.00    -0.121 C  
BRANCH  13  14
HETATM   14  C   UNL     1      -9.729   8.030  69.827  1.00  0.00    -0.176 C  
BRANCH  14  15
HETATM   15  C   UNL     1     -10.063   6.636  69.283  1.00  0.00    -0.187 C  
BRANCH  15  16
HETATM   16  C   UNL     1     -10.692   6.640  67.916  1.00  0.00    -0.341 C  
HETATM   17  C   UNL     1     -10.743   7.709  67.106  1.00  0.00    -0.361 C  
BRANCH  17  18
HETATM   18  C   UNL     1     -10.225   9.078  67.436  1.00  0.00    -0.308 C  
BRANCH  18  19
HETATM   19  C   UNL     1     -11.321   9.977  68.003  1.00  0.00    -0.069 C  
BRANCH  19  20
HETATM   20  C   UNL     1     -10.956  11.447  67.795  1.00  0.00    -0.301 C  
BRANCH  20  21
HETATM   21  C   UNL     1     -11.155  12.256  69.073  1.00  0.00    -0.289 C  
BRANCH  21  22
HETATM   22  C   UNL     1     -11.160  13.754  68.783  1.00  0.00    -0.295 C  
BRANCH  22  23
HETATM   23  C   UNL     1     -12.138  14.480  69.704  1.00  0.00    -0.369 C  
BRANCH  23  24
HETATM   24  C   UNL     1     -12.554  13.608  70.884  1.00  0.00    -0.421 C  
HETATM   25  C   UNL     1     -13.628  14.273  71.716  1.00  0.00    -0.395 C  
HETATM   26  O   UNL     1     -14.018  13.498  72.755  1.00  0.00    -0.733 OA 
HETATM   27  O   UNL     1     -14.111  15.369  71.503  1.00  0.00    -0.502 OA 
ENDBRANCH  23  24
ENDBRANCH  22  23
ENDBRANCH  21  22
ENDBRANCH  20  21
ENDBRANCH  19  20
ENDBRANCH  18  19
ENDBRANCH  17  18
ENDBRANCH  15  16
ENDBRANCH  14  15
ENDBRANCH  13  14
ENDBRANCH  12  13
ENDBRANCH  11  12
ENDBRANCH  10  11
ENDBRANCH   6  10
TORSDOF 15
ENDMDL
MODEL      425
REMARK 921   NORMALIZED FREE ENERGY PREDICTED BY IDOCK:   -2.89 KCAL/MOL
REMARK 922        TOTAL FREE ENERGY PREDICTED BY IDOCK:   -7.37 KCAL/MOL
REMARK 923 INTER-LIGAND FREE ENERGY PREDICTED BY IDOCK:   -4.71 KCAL/MOL
REMARK 924 INTRA-LIGAND FREE ENERGY PREDICTED BY IDOCK:   -2.66 KCAL/MOL
REMARK 927      BINDING AFFINITY PREDICTED BY RF-SCORE:    0.00 PKD
ROOT
ATOM      1  N   GLY A   1     -11.341  12.727  65.312  1.00  0.00    -0.295 NA 
HETATM    2  C   UNL     1      -8.157   9.458  70.564  1.00  0.00    -0.212 C  
ATOM      3  H2  GLY A   1     -10.685  13.501  65.413  1.00  0.00     0.000 HD 
ATOM      4  H1  GLY A   1     -11.103  12.126  64.523  1.00  0.00     0.000 HD 
ATOM      5  CA  GLY A   1     -11.446  11.932  66.543  1.00  0.00    -0.314 C  
HETATM    6  C   UNL     1      -7.641   8.399  69.602  1.00  0.00    -0.089 C  
ENDROOT
BRANCH   5   7
ATOM      7  C   GLY A   1     -11.804  12.835  67.727  1.00  0.00    -0.332 C  
ATOM      8  H   GLY A   1     -11.890  12.662  69.677  1.00  0.00     0.000 HD 
ATOM      9  O   GLY A   1     -11.668  12.103  68.942  1.00  0.00    -0.288 OA 
ENDBRANCH   5   7
BRANCH   6  10
HETATM   10  C   UNL     1      -8.677   7.335  69.245  1.00  0.00    -0.137 C  
BRANCH  10  11
HETATM   11  C   UNL     1     -10.080   7.883  68.971  1.00  0.00    -0.204 C  
BRANCH  11  12
HETATM   12  C   UNL     1     -10.304   7.998  67.461  1.00  0.00    -0.330 C  
BRANCH  12  13
HETATM   13  C   UNL     1     -10.979   6.758  66.877  1.00  0.00    -0.370 C  
BRANCH  13  14
HETATM   14  C   UNL     1     -10.056   5.532  66.850  1.00  0.00    -0.237 C  
BRANCH  14  15
HETATM   15  C   UNL     1      -9.102   5.452  65.652  1.00  0.00    -0.148 C  
BRANCH  15  16
HETATM   16  C   UNL     1      -7.775   6.126  65.872  1.00  0.00    -0.093 C  
HETATM   17  C   UNL     1      -7.396   7.270  65.282  1.00  0.00    -0.080 C  
BRANCH  17  18
HETATM   18  C   UNL     1      -8.203   8.043  64.280  1.00  0.00    -0.070 C  
BRANCH  18  19
HETATM   19  C   UNL     1      -8.382   9.501  64.698  1.00  0.00    -0.161 C  
BRANCH  19  20
HETATM   20  C   UNL     1      -7.404   9.850  65.820  1.00  0.00    -0.111 C  
BRANCH  20  21
HETATM   21  C   UNL     1      -8.065  10.724  66.881  1.00  0.00    -0.132 C  
BRANCH  21  22
HETATM   22  C   UNL     1      -7.166  11.893  67.272  1.00  0.00    -0.147 C  
BRANCH  22  23
HETATM   23  C   UNL     1      -7.931  12.903  68.124  1.00  0.00    -0.153 C  
BRANCH  23  24
HETATM   24  C   UNL     1      -8.313  14.143  67.322  1.00  0.00    -0.212 C  
HETATM   25  C   UNL     1      -8.771  15.269  68.221  1.00  0.00    -0.165 C  
HETATM   26  O   UNL     1      -9.094  16.380  67.519  1.00  0.00    -0.193 OA 
HETATM   27  O   UNL     1      -8.847  15.220  69.434  1.00  0.00    -0.238 OA 
ENDBRANCH  23  24
ENDBRANCH  22  23
ENDBRANCH  21  22
ENDBRANCH  20  21
ENDBRANCH  19  20
ENDBRANCH  18  19
ENDBRANCH  17  18
ENDBRANCH  15  16
ENDBRANCH  14  15
ENDBRANCH  13  14
ENDBRANCH  12  13
ENDBRANCH  11  12
ENDBRANCH  10  11
ENDBRANCH   6  10
TORSDOF 15
ENDMDL
MODEL      426
REMARK 921   NORMALIZED FREE ENERGY PREDICTED BY IDOCK:   -2.88 KCAL/MOL
REMARK 922        TOTAL FREE ENERGY PREDICTED BY IDOCK:   -7.36 KCAL/MOL
REMARK 923 INTER-LIGAND FREE ENERGY PREDICTED BY IDOCK:   -5.77 KCAL/MOL
REMARK 924 INTRA-LIGAND FREE ENERGY PREDICTED BY IDOCK:   -1.59 KCAL/MOL
REMARK 927      BINDING AFFINITY PREDICTED BY RF-SCORE:    0.00 PKD
ROOT
ATOM      1  N   GLY A   1     -10.377  20.299  65.752  1.00  0.00    -0.461 NA 
HETATM    2  C   UNL     1      -9.224  13.528  66.860  1.00  0.00    -0.254 C  
ATOM      3  H2  GLY A   1      -9.678  20.283  65.009  1.00  0.00     0.000 HD 
ATOM      4  H1  GLY A   1     -11.327  20.286  65.381  1.00  0.00     0.000 HD 
ATOM      5  CA  GLY A   1     -10.188  19.198  66.706  1.00  0.00    -0.400 C  
HETATM    6  C   UNL     1     -10.613  13.198  66.338  1.00  0.00    -0.293 C  
ENDROOT
BRANCH   5   7
ATOM      7  C   GLY A   1      -8.762  19.217  67.262  1.00  0.00    -0.292 C  
ATOM      8  H   GLY A   1      -7.921  19.323  69.028  1.00  0.00     0.000 HD 
ATOM      9  O   GLY A   1      -8.805  19.311  68.683  1.00  0.00    -0.361 OA 
ENDBRANCH   5   7
BRANCH   6  10
HETATM   10  C   UNL     1     -11.725  13.427  67.361  1.00  0.00    -0.415 C  
BRANCH  10  11
HETATM   11  C   UNL     1     -11.750  12.413  68.508  1.00  0.00    -0.373 C  
BRANCH  11  12
HETATM   12  C   UNL     1     -11.423  11.017  67.971  1.00  0.00    -0.365 C  
BRANCH  12  13
HETATM   13  C   UNL     1     -11.092  10.029  69.089  1.00  0.00    -0.232 C  
BRANCH  13  14
HETATM   14  C   UNL     1     -10.053   8.979  68.670  1.00  0.00    -0.207 C  
BRANCH  14  15
HETATM   15  C   UNL     1     -10.339   8.260  67.346  1.00  0.00    -0.350 C  
BRANCH  15  16
HETATM   16  C   UNL     1      -9.130   8.072  66.471  1.00  0.00    -0.213 C  
HETATM   17  C   UNL     1      -8.756   6.902  65.931  1.00  0.00    -0.146 C  
BRANCH  17  18
HETATM   18  C   UNL     1      -9.447   5.586  66.138  1.00  0.00    -0.166 C  
BRANCH  18  19
HETATM   19  C   UNL     1      -8.526   4.557  66.789  1.00  0.00    -0.105 C  
BRANCH  19  20
HETATM   20  C   UNL     1      -9.150   4.037  68.084  1.00  0.00    -0.179 C  
BRANCH  20  21
HETATM   21  C   UNL     1      -9.280   5.146  69.123  1.00  0.00    -0.150 C  
BRANCH  21  22
HETATM   22  C   UNL     1      -7.989   5.312  69.918  1.00  0.00    -0.083 C  
BRANCH  22  23
HETATM   23  C   UNL     1      -7.811   6.760  70.367  1.00  0.00    -0.109 C  
BRANCH  23  24
HETATM   24  C   UNL     1      -7.071   6.852  71.698  1.00  0.00    -0.074 C  
HETATM   25  C   UNL     1      -7.267   8.201  72.351  1.00  0.00    -0.100 C  
HETATM   26  O   UNL     1      -6.629   8.286  73.542  1.00  0.00    -0.111 OA 
HETATM   27  O   UNL     1      -7.917   9.122  71.894  1.00  0.00    -0.334 OA 
ENDBRANCH  23  24
ENDBRANCH  22  23
ENDBRANCH  21  22
ENDBRANCH  20  21
ENDBRANCH  19  20
ENDBRANCH  18  19
ENDBRANCH  17  18
ENDBRANCH  15  16
ENDBRANCH  14  15
ENDBRANCH  13  14
ENDBRANCH  12  13
ENDBRANCH  11  12
ENDBRANCH  10  11
ENDBRANCH   6  10
TORSDOF 15
ENDMDL
MODEL      427
REMARK 921   NORMALIZED FREE ENERGY PREDICTED BY IDOCK:   -2.87 KCAL/MOL
REMARK 922        TOTAL FREE ENERGY PREDICTED BY IDOCK:   -7.34 KCAL/MOL
REMARK 923 INTER-LIGAND FREE ENERGY PREDICTED BY IDOCK:   -5.94 KCAL/MOL
REMARK 924 INTRA-LIGAND FREE ENERGY PREDICTED BY IDOCK:   -1.40 KCAL/MOL
REMARK 927      BINDING AFFINITY PREDICTED BY RF-SCORE:    0.00 PKD
ROOT
ATOM      1  N   GLY A   1     -14.291  14.798  71.609  1.00  0.00    -0.517 NA 
HETATM    2  C   UNL     1     -10.335  13.404  66.057  1.00  0.00    -0.297 C  
ATOM      3  H2  GLY A   1     -14.607  15.653  71.153  1.00  0.00     0.000 HD 
ATOM      4  H1  GLY A   1     -14.989  14.057  71.553  1.00  0.00     0.000 HD 
ATOM      5  CA  GLY A   1     -13.008  14.329  71.068  1.00  0.00    -0.342 C  
HETATM    6  C   UNL     1     -11.223  12.218  65.713  1.00  0.00    -0.378 C  
ENDROOT
BRANCH   5   7
ATOM      7  C   GLY A   1     -11.960  15.442  71.152  1.00  0.00    -0.362 C  
ATOM      8  H   GLY A   1     -11.129  16.715  69.915  1.00  0.00     0.000 HD 
ATOM      9  O   GLY A   1     -11.779  16.025  69.864  1.00  0.00    -0.325 OA 
ENDBRANCH   5   7
BRANCH   6  10
HETATM   10  C   UNL     1     -10.928  10.969  66.542  1.00  0.00    -0.228 C  
BRANCH  10  11
HETATM   11  C   UNL     1      -9.701  11.086  67.451  1.00  0.00    -0.189 C  
BRANCH  11  12
HETATM   12  C   UNL     1      -9.531   9.795  68.257  1.00  0.00    -0.148 C  
BRANCH  12  13
HETATM   13  C   UNL     1      -9.847   9.990  69.738  1.00  0.00    -0.270 C  
BRANCH  13  14
HETATM   14  C   UNL     1     -11.055   9.166  70.205  1.00  0.00    -0.272 C  
BRANCH  14  15
HETATM   15  C   UNL     1     -11.418   9.312  71.688  1.00  0.00    -0.468 C  
BRANCH  15  16
HETATM   16  C   UNL     1     -11.902   8.042  72.334  1.00  0.00    -0.429 C  
HETATM   17  C   UNL     1     -11.118   6.994  72.632  1.00  0.00    -0.317 C  
BRANCH  17  18
HETATM   18  C   UNL     1      -9.649   6.893  72.340  1.00  0.00    -0.167 C  
BRANCH  18  19
HETATM   19  C   UNL     1      -9.207   5.445  72.148  1.00  0.00    -0.157 C  
BRANCH  19  20
HETATM   20  C   UNL     1     -10.232   4.689  71.303  1.00  0.00    -0.205 C  
BRANCH  20  21
HETATM   21  C   UNL     1      -9.584   4.064  70.071  1.00  0.00    -0.274 C  
BRANCH  21  22
HETATM   22  C   UNL     1      -9.416   5.090  68.955  1.00  0.00    -0.195 C  
BRANCH  22  23
HETATM   23  C   UNL     1      -8.081   4.899  68.239  1.00  0.00    -0.085 C  
BRANCH  23  24
HETATM   24  C   UNL     1      -7.860   5.959  67.165  1.00  0.00    -0.102 C  
HETATM   25  C   UNL     1      -7.079   7.138  67.700  1.00  0.00    -0.089 C  
HETATM   26  O   UNL     1      -6.861   8.077  66.749  1.00  0.00    -0.069 OA 
HETATM   27  O   UNL     1      -6.674   7.261  68.841  1.00  0.00    -0.055 OA 
ENDBRANCH  23  24
ENDBRANCH  22  23
ENDBRANCH  21  22
ENDBRANCH  20  21
ENDBRANCH  19  20
ENDBRANCH  18  19
ENDBRANCH  17  18
ENDBRANCH  15  16
ENDBRANCH  14  15
ENDBRANCH  13  14
ENDBRANCH  12  13
ENDBRANCH  11  12
ENDBRANCH  10  11
ENDBRANCH   6  10
TORSDOF 15
ENDMDL
MODEL      428
REMARK 921   NORMALIZED FREE ENERGY PREDICTED BY IDOCK:   -2.87 KCAL/MOL
REMARK 922        TOTAL FREE ENERGY PREDICTED BY IDOCK:   -7.33 KCAL/MOL
REMARK 923 INTER-LIGAND FREE ENERGY PREDICTED BY IDOCK:   -5.79 KCAL/MOL
REMARK 924 INTRA-LIGAND FREE ENERGY PREDICTED BY IDOCK:   -1.54 KCAL/MOL
REMARK 927      BINDING AFFINITY PREDICTED BY RF-SCORE:    0.00 PKD
ROOT
ATOM      1  N   GLY A   1     -12.455   8.321  72.912  1.00  0.00    -0.650 NA 
HETATM    2  C   UNL     1      -8.402   6.793  67.467  1.00  0.00    -0.122 C  
ATOM      3  H2  GLY A   1     -13.273   8.245  72.308  1.00  0.00     0.000 HD 
ATOM      4  H1  GLY A   1     -12.334   7.493  73.494  1.00  0.00     0.000 HD 
ATOM      5  CA  GLY A   1     -11.230   8.586  72.146  1.00  0.00    -0.362 C  
HETATM    6  C   UNL     1      -8.040   5.459  68.100  1.00  0.00    -0.095 C  
ENDROOT
BRANCH   5   7
ATOM      7  C   GLY A   1     -11.412   9.829  71.270  1.00  0.00    -0.385 C  
ATOM      8  H   GLY A   1     -10.960  10.364  69.440  1.00  0.00     0.000 HD 
ATOM      9  O   GLY A   1     -10.847   9.593  69.983  1.00  0.00    -0.232 OA 
ENDBRANCH   5   7
BRANCH   6  10
HETATM   10  C   UNL     1      -6.966   5.564  69.182  1.00  0.00    -0.063 C  
BRANCH  10  11
HETATM   11  C   UNL     1      -5.859   6.578  68.881  1.00  0.00    -0.021 C  
BRANCH  11  12
HETATM   12  C   UNL     1      -5.689   7.526  70.072  1.00  0.00    -0.024 C  
BRANCH  12  13
HETATM   13  C   UNL     1      -6.870   8.483  70.224  1.00  0.00    -0.039 C  
BRANCH  13  14
HETATM   14  C   UNL     1      -6.599   9.868  69.621  1.00  0.00    -0.056 C  
BRANCH  14  15
HETATM   15  C   UNL     1      -7.375  10.192  68.339  1.00  0.00    -0.081 C  
BRANCH  15  16
HETATM   16  C   UNL     1      -8.150  11.481  68.395  1.00  0.00    -0.149 C  
HETATM   17  C   UNL     1      -9.195  11.775  67.606  1.00  0.00    -0.180 C  
BRANCH  17  18
HETATM   18  C   UNL     1      -9.739  10.897  66.517  1.00  0.00    -0.235 C  
BRANCH  18  19
HETATM   19  C   UNL     1     -10.110  11.701  65.272  1.00  0.00    -0.305 C  
BRANCH  19  20
HETATM   20  C   UNL     1     -11.054  12.843  65.645  1.00  0.00    -0.307 C  
BRANCH  20  21
HETATM   21  C   UNL     1     -11.469  13.644  64.415  1.00  0.00    -0.410 C  
BRANCH  21  22
HETATM   22  C   UNL     1     -11.309  15.143  64.652  1.00  0.00    -0.362 C  
BRANCH  22  23
HETATM   23  C   UNL     1     -10.467  15.407  65.899  1.00  0.00    -0.354 C  
BRANCH  23  24
HETATM   24  C   UNL     1     -10.248  16.899  66.126  1.00  0.00    -0.352 C  
HETATM   25  C   UNL     1     -10.427  17.273  67.580  1.00  0.00    -0.356 C  
HETATM   26  O   UNL     1     -10.216  18.593  67.794  1.00  0.00    -0.347 OA 
HETATM   27  O   UNL     1     -10.720  16.506  68.477  1.00  0.00    -0.299 OA 
ENDBRANCH  23  24
ENDBRANCH  22  23
ENDBRANCH  21  22
ENDBRANCH  20  21
ENDBRANCH  19  20
ENDBRANCH  18  19
ENDBRANCH  17  18
ENDBRANCH  15  16
ENDBRANCH  14  15
ENDBRANCH  13  14
ENDBRANCH  12  13
ENDBRANCH  11  12
ENDBRANCH  10  11
ENDBRANCH   6  10
TORSDOF 15
ENDMDL
MODEL      429
REMARK 921   NORMALIZED FREE ENERGY PREDICTED BY IDOCK:   -2.86 KCAL/MOL
REMARK 922        TOTAL FREE ENERGY PREDICTED BY IDOCK:   -7.32 KCAL/MOL
REMARK 923 INTER-LIGAND FREE ENERGY PREDICTED BY IDOCK:   -5.56 KCAL/MOL
REMARK 924 INTRA-LIGAND FREE ENERGY PREDICTED BY IDOCK:   -1.76 KCAL/MOL
REMARK 927      BINDING AFFINITY PREDICTED BY RF-SCORE:    0.00 PKD
ROOT
ATOM      1  N   GLY A   1      -9.117   8.069  71.807  1.00  0.00    -0.146 NA 
HETATM    2  C   UNL     1     -10.342  14.492  69.430  1.00  0.00    -0.095 C  
ATOM      3  H2  GLY A   1      -8.931   8.460  72.731  1.00  0.00     0.000 HD 
ATOM      4  H1  GLY A   1     -10.045   7.651  71.751  1.00  0.00     0.000 HD 
ATOM      5  CA  GLY A   1      -8.945   9.067  70.743  1.00  0.00    -0.236 C  
HETATM    6  C   UNL     1     -11.813  14.152  69.245  1.00  0.00    -0.381 C  
ENDROOT
BRANCH   5   7
ATOM      7  C   GLY A   1      -7.551   9.696  70.828  1.00  0.00     0.002 C  
ATOM      8  H   GLY A   1      -6.036   9.645  72.069  1.00  0.00     0.000 HD 
ATOM      9  O   GLY A   1      -6.900   9.255  72.016  1.00  0.00    -0.309 OA 
ENDBRANCH   5   7
BRANCH   6  10
HETATM   10  C   UNL     1     -12.105  13.360  67.971  1.00  0.00    -0.283 C  
BRANCH  10  11
HETATM   11  C   UNL     1     -11.975  14.169  66.678  1.00  0.00    -0.470 C  
BRANCH  11  12
HETATM   12  C   UNL     1     -10.625  13.875  66.018  1.00  0.00    -0.293 C  
BRANCH  12  13
HETATM   13  C   UNL     1     -10.776  13.425  64.565  1.00  0.00    -0.434 C  
BRANCH  13  14
HETATM   14  C   UNL     1     -11.499  12.079  64.428  1.00  0.00    -0.413 C  
BRANCH  14  15
HETATM   15  C   UNL     1     -11.068  10.994  65.423  1.00  0.00     0.001 C  
BRANCH  15  16
HETATM   16  C   UNL     1      -9.665  10.490  65.217  1.00  0.00    -0.328 C  
HETATM   17  C   UNL     1      -8.654  10.680  66.079  1.00  0.00    -0.177 C  
BRANCH  17  18
HETATM   18  C   UNL     1      -8.737  11.455  67.362  1.00  0.00    -0.145 C  
BRANCH  18  19
HETATM   19  C   UNL     1      -7.352  11.789  67.913  1.00  0.00    -0.098 C  
BRANCH  19  20
HETATM   20  C   UNL     1      -6.793  13.029  67.216  1.00  0.00    -0.038 C  
BRANCH  20  21
HETATM   21  C   UNL     1      -7.613  14.272  67.552  1.00  0.00    -0.202 C  
BRANCH  21  22
HETATM   22  C   UNL     1      -6.717  15.495  67.721  1.00  0.00    -0.186 C  
BRANCH  22  23
HETATM   23  C   UNL     1      -7.408  16.750  67.194  1.00  0.00    -0.222 C  
BRANCH  23  24
HETATM   24  C   UNL     1      -8.919  16.561  67.094  1.00  0.00    -0.221 C  
HETATM   25  C   UNL     1      -9.657  17.459  68.061  1.00  0.00    -0.276 C  
HETATM   26  O   UNL     1     -10.999  17.312  67.967  1.00  0.00    -0.350 OA 
HETATM   27  O   UNL     1      -9.140  18.237  68.841  1.00  0.00    -0.258 OA 
ENDBRANCH  23  24
ENDBRANCH  22  23
ENDBRANCH  21  22
ENDBRANCH  20  21
ENDBRANCH  19  20
ENDBRANCH  18  19
ENDBRANCH  17  18
ENDBRANCH  15  16
ENDBRANCH  14  15
ENDBRANCH  13  14
ENDBRANCH  12  13
ENDBRANCH  11  12
ENDBRANCH  10  11
ENDBRANCH   6  10
TORSDOF 15
ENDMDL
MODEL      430
REMARK 921   NORMALIZED FREE ENERGY PREDICTED BY IDOCK:   -2.86 KCAL/MOL
REMARK 922        TOTAL FREE ENERGY PREDICTED BY IDOCK:   -7.32 KCAL/MOL
REMARK 923 INTER-LIGAND FREE ENERGY PREDICTED BY IDOCK:   -5.90 KCAL/MOL
REMARK 924 INTRA-LIGAND FREE ENERGY PREDICTED BY IDOCK:   -1.42 KCAL/MOL
REMARK 927      BINDING AFFINITY PREDICTED BY RF-SCORE:    0.00 PKD
ROOT
ATOM      1  N   GLY A   1      -8.683   8.306  65.846  1.00  0.00    -0.152 NA 
HETATM    2  C   UNL     1     -10.260  15.033  65.027  1.00  0.00    -0.349 C  
ATOM      3  H2  GLY A   1      -7.818   8.579  66.314  1.00  0.00     0.000 HD 
ATOM      4  H1  GLY A   1      -9.397   8.008  66.510  1.00  0.00     0.000 HD 
ATOM      5  CA  GLY A   1      -9.203   9.377  64.986  1.00  0.00    -0.218 C  
HETATM    6  C   UNL     1     -11.413  14.890  66.008  1.00  0.00    -0.275 C  
ENDROOT
BRANCH   5   7
ATOM      7  C   GLY A   1      -8.130   9.824  63.989  1.00  0.00    -0.150 C  
ATOM      8  H   GLY A   1      -6.249  10.366  64.066  1.00  0.00     0.000 HD 
ATOM      9  O   GLY A   1      -6.914  10.089  64.684  1.00  0.00    -0.129 OA 
ENDBRANCH   5   7
BRANCH   6  10
HETATM   10  C   UNL     1     -12.668  14.269  65.395  1.00  0.00    -0.385 C  
BRANCH  10  11
HETATM   11  C   UNL     1     -12.652  12.740  65.329  1.00  0.00    -0.460 C  
BRANCH  11  12
HETATM   12  C   UNL     1     -11.482  12.199  66.156  1.00  0.00    -0.429 C  
BRANCH  12  13
HETATM   13  C   UNL     1     -11.779  12.207  67.655  1.00  0.00    -0.386 C  
BRANCH  13  14
HETATM   14  C   UNL     1     -10.556  12.579  68.505  1.00  0.00    -0.262 C  
BRANCH  14  15
HETATM   15  C   UNL     1      -9.194  12.312  67.852  1.00  0.00    -0.190 C  
BRANCH  15  16
HETATM   16  C   UNL     1      -8.094  13.224  68.321  1.00  0.00    -0.156 C  
HETATM   17  C   UNL     1      -6.877  12.812  68.708  1.00  0.00    -0.096 C  
BRANCH  17  18
HETATM   18  C   UNL     1      -6.421  11.383  68.777  1.00  0.00    -0.056 C  
BRANCH  18  19
HETATM   19  C   UNL     1      -6.569  10.808  70.183  1.00  0.00    -0.144 C  
BRANCH  19  20
HETATM   20  C   UNL     1      -6.674   9.284  70.121  1.00  0.00    -0.059 C  
BRANCH  20  21
HETATM   21  C   UNL     1      -7.570   8.743  71.230  1.00  0.00    -0.134 C  
BRANCH  21  22
HETATM   22  C   UNL     1      -8.845   8.130  70.659  1.00  0.00    -0.143 C  
BRANCH  22  23
HETATM   23  C   UNL     1     -10.057   8.518  71.503  1.00  0.00    -0.315 C  
BRANCH  23  24
HETATM   24  C   UNL     1     -10.756   9.756  70.950  1.00  0.00    -0.375 C  
HETATM   25  C   UNL     1     -12.233   9.751  71.270  1.00  0.00    -0.374 C  
HETATM   26  O   UNL     1     -12.858  10.856  70.800  1.00  0.00    -0.331 OA 
HETATM   27  O   UNL     1     -12.823   8.879  71.879  1.00  0.00    -0.332 OA 
ENDBRANCH  23  24
ENDBRANCH  22  23
ENDBRANCH  21  22
ENDBRANCH  20  21
ENDBRANCH  19  20
ENDBRANCH  18  19
ENDBRANCH  17  18
ENDBRANCH  15  16
ENDBRANCH  14  15
ENDBRANCH  13  14
ENDBRANCH  12  13
ENDBRANCH  11  12
ENDBRANCH  10  11
ENDBRANCH   6  10
TORSDOF 15
ENDMDL
MODEL      431
REMARK 921   NORMALIZED FREE ENERGY PREDICTED BY IDOCK:   -2.85 KCAL/MOL
REMARK 922        TOTAL FREE ENERGY PREDICTED BY IDOCK:   -7.29 KCAL/MOL
REMARK 923 INTER-LIGAND FREE ENERGY PREDICTED BY IDOCK:   -6.19 KCAL/MOL
REMARK 924 INTRA-LIGAND FREE ENERGY PREDICTED BY IDOCK:   -1.10 KCAL/MOL
REMARK 927      BINDING AFFINITY PREDICTED BY RF-SCORE:    0.00 PKD
ROOT
ATOM      1  N   GLY A   1      -9.977  11.528  69.339  1.00  0.00    -0.391 NA 
HETATM    2  C   UNL     1      -5.971   7.357  65.470  1.00  0.00    -0.038 C  
ATOM      3  H2  GLY A   1      -9.357  11.366  70.132  1.00  0.00     0.000 HD 
ATOM      4  H1  GLY A   1      -9.808  12.434  68.903  1.00  0.00     0.000 HD 
ATOM      5  CA  GLY A   1      -9.879  10.457  68.338  1.00  0.00    -0.162 C  
HETATM    6  C   UNL     1      -5.524   8.547  64.636  1.00  0.00    -0.043 C  
ENDROOT
BRANCH   5   7
ATOM      7  C   GLY A   1     -10.132   9.096  68.992  1.00  0.00    -0.191 C  
ATOM      8  H   GLY A   1     -11.565   8.259  70.035  1.00  0.00     0.000 HD 
ATOM      9  O   GLY A   1     -11.407   9.103  69.629  1.00  0.00    -0.085 OA 
ENDBRANCH   5   7
BRANCH   6  10
HETATM   10  C   UNL     1      -6.537   8.968  63.572  1.00  0.00    -0.089 C  
BRANCH  10  11
HETATM   11  C   UNL     1      -7.104  10.378  63.757  1.00  0.00     0.019 C  
BRANCH  11  12
HETATM   12  C   UNL     1      -8.634  10.322  63.772  1.00  0.00    -0.190 C  
BRANCH  12  13
HETATM   13  C   UNL     1      -9.254  11.129  62.633  1.00  0.00    -0.357 C  
BRANCH  13  14
HETATM   14  C   UNL     1     -10.377  12.064  63.104  1.00  0.00    -0.276 C  
BRANCH  14  15
HETATM   15  C   UNL     1     -11.205  11.554  64.290  1.00  0.00    -0.358 C  
BRANCH  15  16
HETATM   16  C   UNL     1     -12.167  12.565  64.852  1.00  0.00    -0.534 C  
HETATM   17  C   UNL     1     -11.847  13.491  65.769  1.00  0.00    -0.403 C  
BRANCH  17  18
HETATM   18  C   UNL     1     -10.502  13.649  66.416  1.00  0.00    -0.288 C  
BRANCH  18  19
HETATM   19  C   UNL     1      -9.817  14.945  65.990  1.00  0.00    -0.345 C  
BRANCH  19  20
HETATM   20  C   UNL     1      -9.077  15.565  67.175  1.00  0.00    -0.233 C  
BRANCH  20  21
HETATM   21  C   UNL     1      -7.567  15.549  66.958  1.00  0.00    -0.228 C  
BRANCH  21  22
HETATM   22  C   UNL     1      -6.944  16.894  67.318  1.00  0.00    -0.197 C  
BRANCH  22  23
HETATM   23  C   UNL     1      -8.019  17.896  67.732  1.00  0.00    -0.230 C  
BRANCH  23  24
HETATM   24  C   UNL     1      -8.518  18.711  66.544  1.00  0.00    -0.302 C  
HETATM   25  C   UNL     1      -9.928  19.212  66.765  1.00  0.00    -0.361 C  
HETATM   26  O   UNL     1     -10.373  19.952  65.723  1.00  0.00    -0.489 OA 
HETATM   27  O   UNL     1     -10.608  18.998  67.750  1.00  0.00    -0.418 OA 
ENDBRANCH  23  24
ENDBRANCH  22  23
ENDBRANCH  21  22
ENDBRANCH  20  21
ENDBRANCH  19  20
ENDBRANCH  18  19
ENDBRANCH  17  18
ENDBRANCH  15  16
ENDBRANCH  14  15
ENDBRANCH  13  14
ENDBRANCH  12  13
ENDBRANCH  11  12
ENDBRANCH  10  11
ENDBRANCH   6  10
TORSDOF 15
ENDMDL
MODEL      432
REMARK 921   NORMALIZED FREE ENERGY PREDICTED BY IDOCK:   -2.83 KCAL/MOL
REMARK 922        TOTAL FREE ENERGY PREDICTED BY IDOCK:   -7.25 KCAL/MOL
REMARK 923 INTER-LIGAND FREE ENERGY PREDICTED BY IDOCK:   -5.58 KCAL/MOL
REMARK 924 INTRA-LIGAND FREE ENERGY PREDICTED BY IDOCK:   -1.67 KCAL/MOL
REMARK 927      BINDING AFFINITY PREDICTED BY RF-SCORE:    0.00 PKD
ROOT
ATOM      1  N   GLY A   1     -11.570  16.879  68.870  1.00  0.00    -0.005 NA 
HETATM    2  C   UNL     1      -5.741  13.732  70.999  1.00  0.00    -0.210 C  
ATOM      3  H2  GLY A   1     -11.349  17.670  69.475  1.00  0.00     0.000 HD 
ATOM      4  H1  GLY A   1     -11.351  17.074  67.893  1.00  0.00     0.000 HD 
ATOM      5  CA  GLY A   1     -10.895  15.649  69.306  1.00  0.00    -0.250 C  
HETATM    6  C   UNL     1      -5.138  13.894  69.613  1.00  0.00    -0.084 C  
ENDROOT
BRANCH   5   7
ATOM      7  C   GLY A   1     -11.224  15.356  70.773  1.00  0.00    -0.346 C  
ATOM      8  H   GLY A   1     -12.297  14.048  71.761  1.00  0.00     0.000 HD 
ATOM      9  O   GLY A   1     -12.093  14.230  70.851  1.00  0.00    -0.320 OA 
ENDBRANCH   5   7
BRANCH   6  10
HETATM   10  C   UNL     1      -5.624  12.852  68.606  1.00  0.00    -0.068 C  
BRANCH  10  11
HETATM   11  C   UNL     1      -7.066  12.384  68.822  1.00  0.00    -0.098 C  
BRANCH  11  12
HETATM   12  C   UNL     1      -7.943  12.858  67.660  1.00  0.00    -0.167 C  
BRANCH  12  13
HETATM   13  C   UNL     1      -9.165  11.964  67.454  1.00  0.00    -0.177 C  
BRANCH  13  14
HETATM   14  C   UNL     1      -9.428  11.028  68.641  1.00  0.00    -0.197 C  
BRANCH  14  15
HETATM   15  C   UNL     1     -10.653  10.116  68.502  1.00  0.00    -0.245 C  
BRANCH  15  16
HETATM   16  C   UNL     1     -11.933  10.718  69.016  1.00  0.00    -0.258 C  
HETATM   17  C   UNL     1     -12.324  10.692  70.299  1.00  0.00    -0.406 C  
BRANCH  17  18
HETATM   18  C   UNL     1     -11.582  10.031  71.424  1.00  0.00    -0.383 C  
BRANCH  18  19
HETATM   19  C   UNL     1     -12.128   8.636  71.720  1.00  0.00    -0.403 C  
BRANCH  19  20
HETATM   20  C   UNL     1     -11.147   7.571  71.229  1.00  0.00    -0.267 C  
BRANCH  20  21
HETATM   21  C   UNL     1     -11.776   6.691  70.154  1.00  0.00    -0.412 C  
BRANCH  21  22
HETATM   22  C   UNL     1     -10.729   6.204  69.157  1.00  0.00    -0.381 C  
BRANCH  22  23
HETATM   23  C   UNL     1      -9.557   5.545  69.881  1.00  0.00    -0.217 C  
BRANCH  23  24
HETATM   24  C   UNL     1      -9.697   4.026  69.915  1.00  0.00    -0.263 C  
HETATM   25  C   UNL     1      -9.829   3.511  71.329  1.00  0.00    -0.135 C  
HETATM   26  O   UNL     1      -9.972   2.165  71.368  1.00  0.00    -0.146 OA 
HETATM   27  O   UNL     1      -9.818   4.194  72.336  1.00  0.00    -0.146 OA 
ENDBRANCH  23  24
ENDBRANCH  22  23
ENDBRANCH  21  22
ENDBRANCH  20  21
ENDBRANCH  19  20
ENDBRANCH  18  19
ENDBRANCH  17  18
ENDBRANCH  15  16
ENDBRANCH  14  15
ENDBRANCH  13  14
ENDBRANCH  12  13
ENDBRANCH  11  12
ENDBRANCH  10  11
ENDBRANCH   6  10
TORSDOF 15
ENDMDL
MODEL      433
REMARK 921   NORMALIZED FREE ENERGY PREDICTED BY IDOCK:   -2.82 KCAL/MOL
REMARK 922        TOTAL FREE ENERGY PREDICTED BY IDOCK:   -7.24 KCAL/MOL
REMARK 923 INTER-LIGAND FREE ENERGY PREDICTED BY IDOCK:   -5.21 KCAL/MOL
REMARK 924 INTRA-LIGAND FREE ENERGY PREDICTED BY IDOCK:   -2.03 KCAL/MOL
REMARK 927      BINDING AFFINITY PREDICTED BY RF-SCORE:    0.00 PKD
ROOT
ATOM      1  N   GLY A   1      -5.687   3.516  64.176  1.00  0.00    -0.013 NA 
HETATM    2  C   UNL     1      -7.462   7.110  69.862  1.00  0.00    -0.086 C  
ATOM      3  H2  GLY A   1      -4.835   4.071  64.106  1.00  0.00     0.000 HD 
ATOM      4  H1  GLY A   1      -5.509   2.591  64.566  1.00  0.00     0.000 HD 
ATOM      5  CA  GLY A   1      -6.728   4.203  64.952  1.00  0.00    -0.048 C  
HETATM    6  C   UNL     1      -7.262   5.870  70.718  1.00  0.00    -0.080 C  
ENDROOT
BRANCH   5   7
ATOM      7  C   GLY A   1      -6.996   5.591  64.365  1.00  0.00    -0.048 C  
ATOM      8  H   GLY A   1      -8.540   6.564  63.649  1.00  0.00     0.000 HD 
ATOM      9  O   GLY A   1      -8.373   5.703  64.014  1.00  0.00    -0.127 OA 
ENDBRANCH   5   7
BRANCH   6  10
HETATM   10  C   UNL     1      -8.437   4.894  70.670  1.00  0.00    -0.111 C  
BRANCH  10  11
HETATM   11  C   UNL     1      -9.227   4.916  69.359  1.00  0.00    -0.160 C  
BRANCH  11  12
HETATM   12  C   UNL     1     -10.711   5.151  69.655  1.00  0.00    -0.005 C  
BRANCH  12  13
HETATM   13  C   UNL     1     -11.042   6.633  69.824  1.00  0.00    -0.398 C  
BRANCH  13  14
HETATM   14  C   UNL     1     -11.050   7.080  71.293  1.00  0.00    -0.282 C  
BRANCH  14  15
HETATM   15  C   UNL     1     -12.327   6.749  72.075  1.00  0.00    -0.311 C  
BRANCH  15  16
HETATM   16  C   UNL     1     -13.582   7.326  71.481  1.00  0.00    -0.442 C  
HETATM   17  C   UNL     1     -13.931   8.621  71.551  1.00  0.00    -0.405 C  
BRANCH  17  18
HETATM   18  C   UNL     1     -13.159   9.694  72.260  1.00  0.00    -0.468 C  
BRANCH  18  19
HETATM   19  C   UNL     1     -12.719  10.802  71.306  1.00  0.00    -0.546 C  
BRANCH  19  20
HETATM   20  C   UNL     1     -11.327  10.498  70.753  1.00  0.00    -0.295 C  
BRANCH  20  21
HETATM   21  C   UNL     1     -11.348  10.374  69.233  1.00  0.00    -0.296 C  
BRANCH  21  22
HETATM   22  C   UNL     1     -10.018  10.811  68.625  1.00  0.00    -0.189 C  
BRANCH  22  23
HETATM   23  C   UNL     1      -9.315   9.632  67.956  1.00  0.00    -0.142 C  
BRANCH  23  24
HETATM   24  C   UNL     1      -9.718   9.492  66.492  1.00  0.00    -0.284 C  
HETATM   25  C   UNL     1      -8.588   9.878  65.564  1.00  0.00    -0.145 C  
HETATM   26  O   UNL     1      -8.930   9.739  64.262  1.00  0.00    -0.210 OA 
HETATM   27  O   UNL     1      -7.488  10.266  65.911  1.00  0.00    -0.122 OA 
ENDBRANCH  23  24
ENDBRANCH  22  23
ENDBRANCH  21  22
ENDBRANCH  20  21
ENDBRANCH  19  20
ENDBRANCH  18  19
ENDBRANCH  17  18
ENDBRANCH  15  16
ENDBRANCH  14  15
ENDBRANCH  13  14
ENDBRANCH  12  13
ENDBRANCH  11  12
ENDBRANCH  10  11
ENDBRANCH   6  10
TORSDOF 15
ENDMDL
MODEL      434
REMARK 921   NORMALIZED FREE ENERGY PREDICTED BY IDOCK:   -2.82 KCAL/MOL
REMARK 922        TOTAL FREE ENERGY PREDICTED BY IDOCK:   -7.23 KCAL/MOL
REMARK 923 INTER-LIGAND FREE ENERGY PREDICTED BY IDOCK:   -5.89 KCAL/MOL
REMARK 924 INTRA-LIGAND FREE ENERGY PREDICTED BY IDOCK:   -1.34 KCAL/MOL
REMARK 927      BINDING AFFINITY PREDICTED BY RF-SCORE:    0.00 PKD
ROOT
ATOM      1  N   GLY A   1     -12.759  16.114  69.673  1.00  0.00    -0.430 NA 
HETATM    2  C   UNL     1      -5.869  17.019  70.015  1.00  0.00    -0.215 C  
ATOM      3  H2  GLY A   1     -12.887  17.004  70.154  1.00  0.00     0.000 HD 
ATOM      4  H1  GLY A   1     -12.926  16.196  68.671  1.00  0.00     0.000 HD 
ATOM      5  CA  GLY A   1     -11.429  15.542  69.922  1.00  0.00    -0.327 C  
HETATM    6  C   UNL     1      -5.809  17.195  68.506  1.00  0.00    -0.142 C  
ENDROOT
BRANCH   5   7
ATOM      7  C   GLY A   1     -11.179  15.419  71.427  1.00  0.00    -0.342 C  
ATOM      8  H   GLY A   1     -12.135  14.699  72.979  1.00  0.00     0.000 HD 
ATOM      9  O   GLY A   1     -12.290  14.775  72.045  1.00  0.00    -0.329 OA 
ENDBRANCH   5   7
BRANCH   6  10
HETATM   10  C   UNL     1      -5.844  15.878  67.732  1.00  0.00    -0.166 C  
BRANCH  10  11
HETATM   11  C   UNL     1      -6.623  14.756  68.424  1.00  0.00    -0.101 C  
BRANCH  11  12
HETATM   12  C   UNL     1      -7.919  14.478  67.657  1.00  0.00    -0.190 C  
BRANCH  12  13
HETATM   13  C   UNL     1      -8.744  15.744  67.432  1.00  0.00    -0.199 C  
BRANCH  13  14
HETATM   14  C   UNL     1      -9.337  15.828  66.020  1.00  0.00    -0.384 C  
BRANCH  14  15
HETATM   15  C   UNL     1      -9.964  14.533  65.490  1.00  0.00    -0.373 C  
BRANCH  15  16
HETATM   16  C   UNL     1     -11.206  14.739  64.666  1.00  0.00    -0.350 C  
HETATM   17  C   UNL     1     -12.052  13.761  64.308  1.00  0.00    -0.481 C  
BRANCH  17  18
HETATM   18  C   UNL     1     -11.887  12.304  64.628  1.00  0.00    -0.435 C  
BRANCH  18  19
HETATM   19  C   UNL     1     -10.692  11.695  63.898  1.00  0.00    -0.459 C  
BRANCH  19  20
HETATM   20  C   UNL     1     -10.253  10.406  64.591  1.00  0.00    -0.305 C  
BRANCH  20  21
HETATM   21  C   UNL     1      -8.819  10.510  65.103  1.00  0.00    -0.206 C  
BRANCH  21  22
HETATM   22  C   UNL     1      -8.656   9.789  66.437  1.00  0.00    -0.132 C  
BRANCH  22  23
HETATM   23  C   UNL     1      -8.424  10.788  67.569  1.00  0.00    -0.119 C  
BRANCH  23  24
HETATM   24  C   UNL     1      -7.477  10.231  68.627  1.00  0.00    -0.086 C  
HETATM   25  C   UNL     1      -6.038  10.282  68.168  1.00  0.00    -0.047 C  
HETATM   26  O   UNL     1      -5.188   9.808  69.108  1.00  0.00    -0.036 OA 
HETATM   27  O   UNL     1      -5.652  10.698  67.092  1.00  0.00    -0.041 OA 
ENDBRANCH  23  24
ENDBRANCH  22  23
ENDBRANCH  21  22
ENDBRANCH  20  21
ENDBRANCH  19  20
ENDBRANCH  18  19
ENDBRANCH  17  18
ENDBRANCH  15  16
ENDBRANCH  14  15
ENDBRANCH  13  14
ENDBRANCH  12  13
ENDBRANCH  11  12
ENDBRANCH  10  11
ENDBRANCH   6  10
TORSDOF 15
ENDMDL
MODEL      435
REMARK 921   NORMALIZED FREE ENERGY PREDICTED BY IDOCK:   -2.82 KCAL/MOL
REMARK 922        TOTAL FREE ENERGY PREDICTED BY IDOCK:   -7.23 KCAL/MOL
REMARK 923 INTER-LIGAND FREE ENERGY PREDICTED BY IDOCK:   -6.90 KCAL/MOL
REMARK 924 INTRA-LIGAND FREE ENERGY PREDICTED BY IDOCK:   -0.34 KCAL/MOL
REMARK 927      BINDING AFFINITY PREDICTED BY RF-SCORE:    0.00 PKD
ROOT
ATOM      1  N   GLY A   1      -8.476  18.477  68.710  1.00  0.00    -0.287 NA 
HETATM    2  C   UNL     1     -11.935  14.389  64.268  1.00  0.00    -0.433 C  
ATOM      3  H2  GLY A   1      -8.830  19.294  68.213  1.00  0.00     0.000 HD 
ATOM      4  H1  GLY A   1      -8.984  18.311  69.578  1.00  0.00     0.000 HD 
ATOM      5  CA  GLY A   1      -8.498  17.272  67.870  1.00  0.00    -0.218 C  
HETATM    6  C   UNL     1     -12.873  13.956  65.385  1.00  0.00    -0.466 C  
ENDROOT
BRANCH   5   7
ATOM      7  C   GLY A   1      -7.734  17.522  66.566  1.00  0.00    -0.275 C  
ATOM      8  H   GLY A   1      -7.943  18.664  64.988  1.00  0.00     0.000 HD 
ATOM      9  O   GLY A   1      -8.416  18.509  65.796  1.00  0.00    -0.455 OA 
ENDBRANCH   5   7
BRANCH   6  10
HETATM   10  C   UNL     1     -12.286  12.881  66.298  1.00  0.00    -0.340 C  
BRANCH  10  11
HETATM   11  C   UNL     1     -10.799  12.597  66.070  1.00  0.00    -0.306 C  
BRANCH  11  12
HETATM   12  C   UNL     1     -10.594  11.105  65.796  1.00  0.00    -0.289 C  
BRANCH  12  13
HETATM   13  C   UNL     1     -10.859  10.246  67.032  1.00  0.00    -0.248 C  
BRANCH  13  14
HETATM   14  C   UNL     1     -11.208  11.078  68.274  1.00  0.00    -0.340 C  
BRANCH  14  15
HETATM   15  C   UNL     1     -10.943  10.394  69.620  1.00  0.00    -0.325 C  
BRANCH  15  16
HETATM   16  C   UNL     1     -12.123  10.389  70.554  1.00  0.00    -0.423 C  
HETATM   17  C   UNL     1     -12.270   9.548  71.590  1.00  0.00    -0.477 C  
BRANCH  17  18
HETATM   18  C   UNL     1     -11.314   8.454  71.967  1.00  0.00    -0.411 C  
BRANCH  18  19
HETATM   19  C   UNL     1     -11.716   7.114  71.356  1.00  0.00    -0.330 C  
BRANCH  19  20
HETATM   20  C   UNL     1     -11.738   6.030  72.433  1.00  0.00    -0.322 C  
BRANCH  20  21
HETATM   21  C   UNL     1     -10.375   5.359  72.575  1.00  0.00    -0.251 C  
BRANCH  21  22
HETATM   22  C   UNL     1      -9.749   5.088  71.210  1.00  0.00    -0.235 C  
BRANCH  22  23
HETATM   23  C   UNL     1      -9.584   3.587  70.979  1.00  0.00    -0.243 C  
BRANCH  23  24
HETATM   24  C   UNL     1      -8.166   3.121  71.297  1.00  0.00    -0.075 C  
HETATM   25  C   UNL     1      -8.102   2.401  72.625  1.00  0.00    -0.055 C  
HETATM   26  O   UNL     1      -6.851   1.967  72.907  1.00  0.00    -0.021 OA 
HETATM   27  O   UNL     1      -9.041   2.211  73.374  1.00  0.00    -0.071 OA 
ENDBRANCH  23  24
ENDBRANCH  22  23
ENDBRANCH  21  22
ENDBRANCH  20  21
ENDBRANCH  19  20
ENDBRANCH  18  19
ENDBRANCH  17  18
ENDBRANCH  15  16
ENDBRANCH  14  15
ENDBRANCH  13  14
ENDBRANCH  12  13
ENDBRANCH  11  12
ENDBRANCH  10  11
ENDBRANCH   6  10
TORSDOF 15
ENDMDL
MODEL      436
REMARK 921   NORMALIZED FREE ENERGY PREDICTED BY IDOCK:   -2.81 KCAL/MOL
REMARK 922        TOTAL FREE ENERGY PREDICTED BY IDOCK:   -7.22 KCAL/MOL
REMARK 923 INTER-LIGAND FREE ENERGY PREDICTED BY IDOCK:   -6.95 KCAL/MOL
REMARK 924 INTRA-LIGAND FREE ENERGY PREDICTED BY IDOCK:   -0.27 KCAL/MOL
REMARK 927      BINDING AFFINITY PREDICTED BY RF-SCORE:    0.00 PKD
ROOT
ATOM      1  N   GLY A   1      -6.972  16.057  68.781  1.00  0.00    -0.131 NA 
HETATM    2  C   UNL     1     -10.587  10.255  70.076  1.00  0.00    -0.321 C  
ATOM      3  H2  GLY A   1      -6.548  15.598  67.976  1.00  0.00     0.000 HD 
ATOM      4  H1  GLY A   1      -7.713  16.702  68.505  1.00  0.00     0.000 HD 
ATOM      5  CA  GLY A   1      -7.481  15.088  69.761  1.00  0.00    -0.102 C  
HETATM    6  C   UNL     1     -11.878  10.968  69.706  1.00  0.00    -0.421 C  
ENDROOT
BRANCH   5   7
ATOM      7  C   GLY A   1      -6.369  14.121  70.175  1.00  0.00    -0.125 C  
ATOM      8  H   GLY A   1      -5.480  12.554  69.403  1.00  0.00     0.000 HD 
ATOM      9  O   GLY A   1      -6.170  13.154  69.146  1.00  0.00    -0.088 OA 
ENDBRANCH   5   7
BRANCH   6  10
HETATM   10  C   UNL     1     -12.432  11.854  70.820  1.00  0.00    -0.384 C  
BRANCH  10  11
HETATM   11  C   UNL     1     -12.259  13.356  70.582  1.00  0.00    -0.427 C  
BRANCH  11  12
HETATM   12  C   UNL     1     -11.122  13.593  69.584  1.00  0.00    -0.067 C  
BRANCH  12  13
HETATM   13  C   UNL     1     -11.635  14.053  68.220  1.00  0.00    -0.364 C  
BRANCH  13  14
HETATM   14  C   UNL     1     -10.911  13.375  67.049  1.00  0.00    -0.280 C  
BRANCH  14  15
HETATM   15  C   UNL     1     -11.700  12.267  66.340  1.00  0.00    -0.431 C  
BRANCH  15  16
HETATM   16  C   UNL     1     -11.513  12.235  64.847  1.00  0.00    -0.382 C  
HETATM   17  C   UNL     1     -11.782  13.260  64.024  1.00  0.00    -0.483 C  
BRANCH  17  18
HETATM   18  C   UNL     1     -12.350  14.586  64.440  1.00  0.00    -0.437 C  
BRANCH  18  19
HETATM   19  C   UNL     1     -11.353  15.722  64.226  1.00  0.00    -0.189 C  
BRANCH  19  20
HETATM   20  C   UNL     1     -11.263  16.588  65.482  1.00  0.00     0.191 C  
BRANCH  20  21
HETATM   21  C   UNL     1      -9.837  16.637  66.022  1.00  0.00    -0.335 C  
BRANCH  21  22
HETATM   22  C   UNL     1      -9.698  17.687  67.120  1.00  0.00    -0.291 C  
BRANCH  22  23
HETATM   23  C   UNL     1     -10.389  18.987  66.717  1.00  0.00    -0.486 C  
BRANCH  23  24
HETATM   24  C   UNL     1      -9.492  20.199  66.951  1.00  0.00    -0.543 C  
HETATM   25  C   UNL     1      -8.030  19.813  66.969  1.00  0.00    -0.289 C  
HETATM   26  O   UNL     1      -7.225  20.884  67.157  1.00  0.00    -0.343 OA 
HETATM   27  O   UNL     1      -7.593  18.686  66.829  1.00  0.00    -0.219 OA 
ENDBRANCH  23  24
ENDBRANCH  22  23
ENDBRANCH  21  22
ENDBRANCH  20  21
ENDBRANCH  19  20
ENDBRANCH  18  19
ENDBRANCH  17  18
ENDBRANCH  15  16
ENDBRANCH  14  15
ENDBRANCH  13  14
ENDBRANCH  12  13
ENDBRANCH  11  12
ENDBRANCH  10  11
ENDBRANCH   6  10
TORSDOF 15
ENDMDL
MODEL      437
REMARK 921   NORMALIZED FREE ENERGY PREDICTED BY IDOCK:   -2.79 KCAL/MOL
REMARK 922        TOTAL FREE ENERGY PREDICTED BY IDOCK:   -7.18 KCAL/MOL
REMARK 923 INTER-LIGAND FREE ENERGY PREDICTED BY IDOCK:   -6.24 KCAL/MOL
REMARK 924 INTRA-LIGAND FREE ENERGY PREDICTED BY IDOCK:   -0.94 KCAL/MOL
REMARK 927      BINDING AFFINITY PREDICTED BY RF-SCORE:    0.00 PKD
ROOT
ATOM      1  N   GLY A   1      -9.297   8.986  64.883  1.00  0.00    -0.435 NA 
HETATM    2  C   UNL     1      -9.216  15.839  66.082  1.00  0.00    -0.385 C  
ATOM      3  H2  GLY A   1      -8.286   9.010  64.749  1.00  0.00     0.000 HD 
ATOM      4  H1  GLY A   1      -9.551   8.621  65.800  1.00  0.00     0.000 HD 
ATOM      5  CA  GLY A   1      -9.910  10.304  64.672  1.00  0.00    -0.327 C  
HETATM    6  C   UNL     1      -9.589  15.596  67.536  1.00  0.00    -0.224 C  
ENDROOT
BRANCH   5   7
ATOM      7  C   GLY A   1      -9.529  10.851  63.294  1.00  0.00    -0.324 C  
ATOM      8  H   GLY A   1      -8.773  10.135  61.634  1.00  0.00     0.000 HD 
ATOM      9  O   GLY A   1      -9.010   9.796  62.488  1.00  0.00    -0.230 OA 
ENDBRANCH   5   7
BRANCH   6  10
HETATM   10  C   UNL     1     -11.078  15.329  67.752  1.00  0.00    -0.318 C  
BRANCH  10  11
HETATM   11  C   UNL     1     -11.756  14.558  66.615  1.00  0.00    -0.384 C  
BRANCH  11  12
HETATM   12  C   UNL     1     -12.250  13.204  67.132  1.00  0.00    -0.250 C  
BRANCH  12  13
HETATM   13  C   UNL     1     -11.850  12.956  68.585  1.00  0.00    -0.347 C  
BRANCH  13  14
HETATM   14  C   UNL     1     -11.849  11.468  68.959  1.00  0.00    -0.408 C  
BRANCH  14  15
HETATM   15  C   UNL     1     -11.691  11.164  70.454  1.00  0.00    -0.415 C  
BRANCH  15  16
HETATM   16  C   UNL     1     -12.906  10.545  71.090  1.00  0.00    -0.513 C  
HETATM   17  C   UNL     1     -12.921   9.349  71.697  1.00  0.00    -0.471 C  
BRANCH  17  18
HETATM   18  C   UNL     1     -11.752   8.413  71.809  1.00  0.00    -0.371 C  
BRANCH  18  19
HETATM   19  C   UNL     1     -11.846   7.266  70.806  1.00  0.00    -0.324 C  
BRANCH  19  20
HETATM   20  C   UNL     1     -11.457   5.948  71.475  1.00  0.00    -0.216 C  
BRANCH  20  21
HETATM   21  C   UNL     1     -10.191   5.363  70.856  1.00  0.00    -0.303 C  
BRANCH  21  22
HETATM   22  C   UNL     1     -10.367   3.881  70.539  1.00  0.00     0.550 C  
BRANCH  22  23
HETATM   23  C   UNL     1      -9.200   3.067  71.093  1.00  0.00    -0.197 C  
BRANCH  23  24
HETATM   24  C   UNL     1      -8.301   3.910  71.993  1.00  0.00    -0.100 C  
HETATM   25  C   UNL     1      -8.478   3.549  73.451  1.00  0.00    -0.082 C  
HETATM   26  O   UNL     1      -7.671   4.279  74.256  1.00  0.00    -0.078 OA 
HETATM   27  O   UNL     1      -9.239   2.705  73.884  1.00  0.00    -0.080 OA 
ENDBRANCH  23  24
ENDBRANCH  22  23
ENDBRANCH  21  22
ENDBRANCH  20  21
ENDBRANCH  19  20
ENDBRANCH  18  19
ENDBRANCH  17  18
ENDBRANCH  15  16
ENDBRANCH  14  15
ENDBRANCH  13  14
ENDBRANCH  12  13
ENDBRANCH  11  12
ENDBRANCH  10  11
ENDBRANCH   6  10
TORSDOF 15
ENDMDL
MODEL      438
REMARK 921   NORMALIZED FREE ENERGY PREDICTED BY IDOCK:   -2.79 KCAL/MOL
REMARK 922        TOTAL FREE ENERGY PREDICTED BY IDOCK:   -7.18 KCAL/MOL
REMARK 923 INTER-LIGAND FREE ENERGY PREDICTED BY IDOCK:   -5.85 KCAL/MOL
REMARK 924 INTRA-LIGAND FREE ENERGY PREDICTED BY IDOCK:   -1.33 KCAL/MOL
REMARK 927      BINDING AFFINITY PREDICTED BY RF-SCORE:    0.00 PKD
ROOT
ATOM      1  N   GLY A   1      -5.683   9.906  72.123  1.00  0.00    -0.291 NA 
HETATM    2  C   UNL     1     -10.510  13.562  68.696  1.00  0.00    -0.242 C  
ATOM      3  H2  GLY A   1      -5.678  10.620  72.851  1.00  0.00     0.000 HD 
ATOM      4  H1  GLY A   1      -6.213   9.081  72.403  1.00  0.00     0.000 HD 
ATOM      5  CA  GLY A   1      -6.191  10.427  70.847  1.00  0.00     0.034 C  
HETATM    6  C   UNL     1     -11.540  12.478  68.974  1.00  0.00    -0.365 C  
ENDROOT
BRANCH   5   7
ATOM      7  C   GLY A   1      -5.396  11.667  70.427  1.00  0.00    -0.121 C  
ATOM      8  H   GLY A   1      -5.353  13.566  70.909  1.00  0.00     0.000 HD 
ATOM      9  O   GLY A   1      -5.846  12.797  71.169  1.00  0.00    -0.336 OA 
ENDBRANCH   5   7
BRANCH   6  10
HETATM   10  C   UNL     1     -11.434  11.275  68.037  1.00  0.00    -0.369 C  
BRANCH  10  11
HETATM   11  C   UNL     1     -11.165  11.633  66.573  1.00  0.00    -0.356 C  
BRANCH  11  12
HETATM   12  C   UNL     1      -9.887  10.937  66.097  1.00  0.00    -0.268 C  
BRANCH  12  13
HETATM   13  C   UNL     1     -10.076   9.431  65.928  1.00  0.00    -0.243 C  
BRANCH  13  14
HETATM   14  C   UNL     1     -10.359   8.711  67.254  1.00  0.00    -0.366 C  
BRANCH  14  15
HETATM   15  C   UNL     1      -9.795   7.289  67.365  1.00  0.00    -0.206 C  
BRANCH  15  16
HETATM   16  C   UNL     1     -10.774   6.276  67.894  1.00  0.00    -0.380 C  
HETATM   17  C   UNL     1     -11.275   6.281  69.139  1.00  0.00    -0.439 C  
BRANCH  17  18
HETATM   18  C   UNL     1     -10.919   7.260  70.219  1.00  0.00    -0.281 C  
BRANCH  18  19
HETATM   19  C   UNL     1     -11.991   7.323  71.304  1.00  0.00    -0.359 C  
BRANCH  19  20
HETATM   20  C   UNL     1     -11.899   6.094  72.207  1.00  0.00    -0.326 C  
BRANCH  20  21
HETATM   21  C   UNL     1     -10.477   5.883  72.716  1.00  0.00    -0.239 C  
BRANCH  21  22
HETATM   22  C   UNL     1      -9.912   4.548  72.239  1.00  0.00    -0.239 C  
BRANCH  22  23
HETATM   23  C   UNL     1      -8.406   4.649  72.009  1.00  0.00    -0.117 C  
BRANCH  23  24
HETATM   24  C   UNL     1      -8.082   5.224  70.634  1.00  0.00    -0.108 C  
HETATM   25  C   UNL     1      -7.466   6.601  70.737  1.00  0.00    -0.087 C  
HETATM   26  O   UNL     1      -7.158   7.111  69.522  1.00  0.00    -0.067 OA 
HETATM   27  O   UNL     1      -7.252   7.205  71.771  1.00  0.00    -0.074 OA 
ENDBRANCH  23  24
ENDBRANCH  22  23
ENDBRANCH  21  22
ENDBRANCH  20  21
ENDBRANCH  19  20
ENDBRANCH  18  19
ENDBRANCH  17  18
ENDBRANCH  15  16
ENDBRANCH  14  15
ENDBRANCH  13  14
ENDBRANCH  12  13
ENDBRANCH  11  12
ENDBRANCH  10  11
ENDBRANCH   6  10
TORSDOF 15
ENDMDL
MODEL      439
REMARK 921   NORMALIZED FREE ENERGY PREDICTED BY IDOCK:   -2.79 KCAL/MOL
REMARK 922        TOTAL FREE ENERGY PREDICTED BY IDOCK:   -7.18 KCAL/MOL
REMARK 923 INTER-LIGAND FREE ENERGY PREDICTED BY IDOCK:   -5.67 KCAL/MOL
REMARK 924 INTRA-LIGAND FREE ENERGY PREDICTED BY IDOCK:   -1.51 KCAL/MOL
REMARK 927      BINDING AFFINITY PREDICTED BY RF-SCORE:    0.00 PKD
ROOT
ATOM      1  N   GLY A   1      -9.987  11.517  69.295  1.00  0.00    -0.414 NA 
HETATM    2  C   UNL     1      -5.645   7.314  65.847  1.00  0.00    -0.032 C  
ATOM      3  H2  GLY A   1      -9.425  11.386  70.136  1.00  0.00     0.000 HD 
ATOM      4  H1  GLY A   1      -9.799  12.415  68.848  1.00  0.00     0.000 HD 
ATOM      5  CA  GLY A   1      -9.799  10.422  68.333  1.00  0.00    -0.162 C  
HETATM    6  C   UNL     1      -5.154   8.489  65.016  1.00  0.00    -0.035 C  
ENDROOT
BRANCH   5   7
ATOM      7  C   GLY A   1     -10.081   9.075  69.004  1.00  0.00    -0.195 C  
ATOM      8  H   GLY A   1     -10.111   8.370  70.832  1.00  0.00     0.000 HD 
ATOM      9  O   GLY A   1      -9.936   9.206  70.416  1.00  0.00    -0.188 OA 
ENDBRANCH   5   7
BRANCH   6  10
HETATM   10  C   UNL     1      -6.091   8.865  63.870  1.00  0.00    -0.072 C  
BRANCH  10  11
HETATM   11  C   UNL     1      -6.815  10.202  64.053  1.00  0.00    -0.102 C  
BRANCH  11  12
HETATM   12  C   UNL     1      -8.319  10.009  63.840  1.00  0.00    -0.167 C  
BRANCH  12  13
HETATM   13  C   UNL     1      -8.847  10.825  62.662  1.00  0.00    -0.311 C  
BRANCH  13  14
HETATM   14  C   UNL     1     -10.148  11.572  62.987  1.00  0.00    -0.330 C  
BRANCH  14  15
HETATM   15  C   UNL     1     -10.887  11.093  64.243  1.00  0.00    -0.354 C  
BRANCH  15  16
HETATM   16  C   UNL     1     -11.926  12.053  64.752  1.00  0.00    -0.310 C  
HETATM   17  C   UNL     1     -11.666  13.108  65.540  1.00  0.00    -0.393 C  
BRANCH  17  18
HETATM   18  C   UNL     1     -10.315  13.484  66.076  1.00  0.00    -0.303 C  
BRANCH  18  19
HETATM   19  C   UNL     1      -9.788  14.767  65.438  1.00  0.00    -0.295 C  
BRANCH  19  20
HETATM   20  C   UNL     1      -9.013  15.588  66.468  1.00  0.00    -0.348 C  
BRANCH  20  21
HETATM   21  C   UNL     1      -9.068  17.078  66.146  1.00  0.00    -0.239 C  
BRANCH  21  22
HETATM   22  C   UNL     1      -9.449  17.895  67.377  1.00  0.00    -0.258 C  
BRANCH  22  23
HETATM   23  C   UNL     1      -9.670  16.986  68.583  1.00  0.00    -0.282 C  
BRANCH  23  24
HETATM   24  C   UNL     1     -11.082  16.409  68.604  1.00  0.00    -0.352 C  
HETATM   25  C   UNL     1     -11.126  15.069  69.303  1.00  0.00    -0.272 C  
HETATM   26  O   UNL     1     -12.378  14.558  69.342  1.00  0.00    -0.276 OA 
HETATM   27  O   UNL     1     -10.171  14.492  69.789  1.00  0.00     0.019 OA 
ENDBRANCH  23  24
ENDBRANCH  22  23
ENDBRANCH  21  22
ENDBRANCH  20  21
ENDBRANCH  19  20
ENDBRANCH  18  19
ENDBRANCH  17  18
ENDBRANCH  15  16
ENDBRANCH  14  15
ENDBRANCH  13  14
ENDBRANCH  12  13
ENDBRANCH  11  12
ENDBRANCH  10  11
ENDBRANCH   6  10
TORSDOF 15
ENDMDL
MODEL      440
REMARK 921   NORMALIZED FREE ENERGY PREDICTED BY IDOCK:   -2.78 KCAL/MOL
REMARK 922        TOTAL FREE ENERGY PREDICTED BY IDOCK:   -7.16 KCAL/MOL
REMARK 923 INTER-LIGAND FREE ENERGY PREDICTED BY IDOCK:   -6.01 KCAL/MOL
REMARK 924 INTRA-LIGAND FREE ENERGY PREDICTED BY IDOCK:   -1.15 KCAL/MOL
REMARK 927      BINDING AFFINITY PREDICTED BY RF-SCORE:    0.00 PKD
ROOT
ATOM      1  N   GLY A   1     -10.116   2.260  72.619  1.00  0.00    -0.134 NA 
HETATM    2  C   UNL     1      -7.572   8.707  72.014  1.00  0.00    -0.084 C  
ATOM      3  H2  GLY A   1     -10.532   2.521  73.512  1.00  0.00     0.000 HD 
ATOM      4  H1  GLY A   1     -10.807   2.242  71.868  1.00  0.00     0.000 HD 
ATOM      5  CA  GLY A   1      -8.995   3.138  72.257  1.00  0.00    -0.094 C  
HETATM    6  C   UNL     1      -8.513   8.978  70.851  1.00  0.00    -0.253 C  
ENDROOT
BRANCH   5   7
ATOM      7  C   GLY A   1      -7.959   3.164  73.383  1.00  0.00    -0.069 C  
ATOM      8  H   GLY A   1      -7.034   1.848  74.503  1.00  0.00     0.000 HD 
ATOM      9  O   GLY A   1      -7.677   1.832  73.804  1.00  0.00    -0.039 OA 
ENDBRANCH   5   7
BRANCH   6  10
HETATM   10  C   UNL     1      -8.030   8.399  69.522  1.00  0.00    -0.111 C  
BRANCH  10  11
HETATM   11  C   UNL     1      -7.840   9.435  68.411  1.00  0.00    -0.090 C  
BRANCH  11  12
HETATM   12  C   UNL     1      -8.155   8.800  67.053  1.00  0.00    -0.099 C  
BRANCH  12  13
HETATM   13  C   UNL     1      -8.243   9.837  65.934  1.00  0.00    -0.117 C  
BRANCH  13  14
HETATM   14  C   UNL     1      -9.572  10.605  65.933  1.00  0.00    -0.253 C  
BRANCH  14  15
HETATM   15  C   UNL     1     -10.333  10.601  64.602  1.00  0.00    -0.353 C  
BRANCH  15  16
HETATM   16  C   UNL     1     -10.293  11.912  63.864  1.00  0.00    -0.426 C  
HETATM   17  C   UNL     1     -11.148  12.926  64.068  1.00  0.00    -0.455 C  
BRANCH  17  18
HETATM   18  C   UNL     1     -12.304  12.913  65.025  1.00  0.00    -0.541 C  
BRANCH  18  19
HETATM   19  C   UNL     1     -12.173  14.003  66.087  1.00  0.00    -0.494 C  
BRANCH  19  20
HETATM   20  C   UNL     1     -11.622  13.411  67.384  1.00  0.00    -0.394 C  
BRANCH  20  21
HETATM   21  C   UNL     1     -10.688  14.390  68.088  1.00  0.00    -0.239 C  
BRANCH  21  22
HETATM   22  C   UNL     1     -11.468  15.541  68.718  1.00  0.00    -0.363 C  
BRANCH  22  23
HETATM   23  C   UNL     1     -11.075  16.873  68.082  1.00  0.00    -0.205 C  
BRANCH  23  24
HETATM   24  C   UNL     1      -9.569  16.968  67.858  1.00  0.00    -0.249 C  
HETATM   25  C   UNL     1      -9.000  18.241  68.441  1.00  0.00    -0.309 C  
HETATM   26  O   UNL     1      -7.661  18.326  68.264  1.00  0.00    -0.259 OA 
HETATM   27  O   UNL     1      -9.637  19.105  69.013  1.00  0.00    -0.376 OA 
ENDBRANCH  23  24
ENDBRANCH  22  23
ENDBRANCH  21  22
ENDBRANCH  20  21
ENDBRANCH  19  20
ENDBRANCH  18  19
ENDBRANCH  17  18
ENDBRANCH  15  16
ENDBRANCH  14  15
ENDBRANCH  13  14
ENDBRANCH  12  13
ENDBRANCH  11  12
ENDBRANCH  10  11
ENDBRANCH   6  10
TORSDOF 15
ENDMDL
MODEL      441
REMARK 921   NORMALIZED FREE ENERGY PREDICTED BY IDOCK:   -2.75 KCAL/MOL
REMARK 922        TOTAL FREE ENERGY PREDICTED BY IDOCK:   -7.10 KCAL/MOL
REMARK 923 INTER-LIGAND FREE ENERGY PREDICTED BY IDOCK:   -5.71 KCAL/MOL
REMARK 924 INTRA-LIGAND FREE ENERGY PREDICTED BY IDOCK:   -1.39 KCAL/MOL
REMARK 927      BINDING AFFINITY PREDICTED BY RF-SCORE:    0.00 PKD
ROOT
ATOM      1  N   GLY A   1     -14.089  13.103  72.703  1.00  0.00    -0.710 NA 
HETATM    2  C   UNL     1     -12.932  13.724  65.870  1.00  0.00    -0.240 C  
ATOM      3  H2  GLY A   1     -15.092  13.100  72.520  1.00  0.00     0.000 HD 
ATOM      4  H1  GLY A   1     -13.733  12.165  72.886  1.00  0.00     0.000 HD 
ATOM      5  CA  GLY A   1     -13.333  13.729  71.610  1.00  0.00    -0.354 C  
HETATM    6  C   UNL     1     -12.346  12.321  65.834  1.00  0.00     0.124 C  
ENDROOT
BRANCH   5   7
ATOM      7  C   GLY A   1     -13.868  15.137  71.336  1.00  0.00    -0.502 C  
ATOM      8  H   GLY A   1     -14.390  16.697  72.401  1.00  0.00     0.000 HD 
ATOM      9  O   GLY A   1     -14.059  15.824  72.571  1.00  0.00    -0.554 OA 
ENDBRANCH   5   7
BRANCH   6  10
HETATM   10  C   UNL     1     -10.900  12.247  66.321  1.00  0.00    -0.313 C  
BRANCH  10  11
HETATM   11  C   UNL     1     -10.368  10.824  66.515  1.00  0.00    -0.300 C  
BRANCH  11  12
HETATM   12  C   UNL     1     -10.751  10.315  67.908  1.00  0.00    -0.310 C  
BRANCH  12  13
HETATM   13  C   UNL     1      -9.698  10.657  68.960  1.00  0.00    -0.214 C  
BRANCH  13  14
HETATM   14  C   UNL     1      -8.625   9.570  69.108  1.00  0.00    -0.140 C  
BRANCH  14  15
HETATM   15  C   UNL     1      -7.176  10.048  68.955  1.00  0.00    -0.077 C  
BRANCH  15  16
HETATM   16  C   UNL     1      -6.964  11.024  67.829  1.00  0.00    -0.080 C  
HETATM   17  C   UNL     1      -6.568  12.296  67.989  1.00  0.00    -0.076 C  
BRANCH  17  18
HETATM   18  C   UNL     1      -6.311  12.970  69.306  1.00  0.00    -0.107 C  
BRANCH  18  19
HETATM   19  C   UNL     1      -6.715  14.442  69.278  1.00  0.00    -0.126 C  
BRANCH  19  20
HETATM   20  C   UNL     1      -8.232  14.569  69.143  1.00  0.00    -0.017 C  
BRANCH  20  21
HETATM   21  C   UNL     1      -8.697  15.995  69.422  1.00  0.00    -0.153 C  
BRANCH  21  22
HETATM   22  C   UNL     1     -10.211  16.056  69.607  1.00  0.00    -0.265 C  
BRANCH  22  23
HETATM   23  C   UNL     1     -10.848  16.969  68.563  1.00  0.00    -0.310 C  
BRANCH  23  24
HETATM   24  C   UNL     1     -11.371  16.179  67.367  1.00  0.00     0.061 C  
HETATM   25  C   UNL     1     -10.448  16.297  66.176  1.00  0.00    -0.322 C  
HETATM   26  O   UNL     1     -10.895  15.585  65.115  1.00  0.00    -0.386 OA 
HETATM   27  O   UNL     1      -9.417  16.942  66.139  1.00  0.00    -0.336 OA 
ENDBRANCH  23  24
ENDBRANCH  22  23
ENDBRANCH  21  22
ENDBRANCH  20  21
ENDBRANCH  19  20
ENDBRANCH  18  19
ENDBRANCH  17  18
ENDBRANCH  15  16
ENDBRANCH  14  15
ENDBRANCH  13  14
ENDBRANCH  12  13
ENDBRANCH  11  12
ENDBRANCH  10  11
ENDBRANCH   6  10
TORSDOF 15
ENDMDL
MODEL      442
REMARK 921   NORMALIZED FREE ENERGY PREDICTED BY IDOCK:   -2.74 KCAL/MOL
REMARK 922        TOTAL FREE ENERGY PREDICTED BY IDOCK:   -7.09 KCAL/MOL
REMARK 923 INTER-LIGAND FREE ENERGY PREDICTED BY IDOCK:   -4.97 KCAL/MOL
REMARK 924 INTRA-LIGAND FREE ENERGY PREDICTED BY IDOCK:   -2.11 KCAL/MOL
REMARK 927      BINDING AFFINITY PREDICTED BY RF-SCORE:    0.00 PKD
ROOT
ATOM      1  N   GLY A   1     -11.196  12.410  64.954  1.00  0.00    -0.302 NA 
HETATM    2  C   UNL     1      -8.547   9.447  70.665  1.00  0.00    -0.247 C  
ATOM      3  H2  GLY A   1     -10.366  12.999  64.891  1.00  0.00     0.000 HD 
ATOM      4  H1  GLY A   1     -11.165  11.637  64.290  1.00  0.00     0.000 HD 
ATOM      5  CA  GLY A   1     -11.405  11.902  66.317  1.00  0.00    -0.334 C  
HETATM    6  C   UNL     1      -8.370   8.137  69.913  1.00  0.00    -0.123 C  
ENDROOT
BRANCH   5   7
ATOM      7  C   GLY A   1     -11.451  13.063  67.314  1.00  0.00    -0.332 C  
ATOM      8  H   GLY A   1     -12.402  14.770  67.473  1.00  0.00     0.000 HD 
ATOM      9  O   GLY A   1     -12.373  14.049  66.855  1.00  0.00    -0.418 OA 
ENDBRANCH   5   7
BRANCH   6  10
HETATM   10  C   UNL     1      -9.656   7.321  69.789  1.00  0.00    -0.162 C  
BRANCH  10  11
HETATM   11  C   UNL     1     -10.699   7.920  68.842  1.00  0.00    -0.098 C  
BRANCH  11  12
HETATM   12  C   UNL     1     -10.432   7.446  67.411  1.00  0.00    -0.366 C  
BRANCH  12  13
HETATM   13  C   UNL     1     -11.256   6.213  67.045  1.00  0.00    -0.192 C  
BRANCH  13  14
HETATM   14  C   UNL     1     -10.392   5.039  66.563  1.00  0.00    -0.325 C  
BRANCH  14  15
HETATM   15  C   UNL     1      -9.039   5.424  65.953  1.00  0.00    -0.162 C  
BRANCH  15  16
HETATM   16  C   UNL     1      -7.990   4.350  66.049  1.00  0.00    -0.099 C  
HETATM   17  C   UNL     1      -7.269   4.087  67.151  1.00  0.00    -0.068 C  
BRANCH  17  18
HETATM   18  C   UNL     1      -7.354   4.838  68.447  1.00  0.00    -0.065 C  
BRANCH  18  19
HETATM   19  C   UNL     1      -7.276   3.903  69.651  1.00  0.00    -0.045 C  
BRANCH  19  20
HETATM   20  C   UNL     1      -8.549   4.015  70.489  1.00  0.00    -0.106 C  
BRANCH  20  21
HETATM   21  C   UNL     1      -8.227   4.289  71.955  1.00  0.00    -0.095 C  
BRANCH  21  22
HETATM   22  C   UNL     1      -9.277   3.672  72.875  1.00  0.00    -0.124 C  
BRANCH  22  23
HETATM   23  C   UNL     1      -9.896   4.736  73.779  1.00  0.00    -0.170 C  
BRANCH  23  24
HETATM   24  C   UNL     1     -11.144   5.351  73.153  1.00  0.00    -0.363 C  
HETATM   25  C   UNL     1     -11.003   6.847  72.986  1.00  0.00    -0.274 C  
HETATM   26  O   UNL     1     -12.098   7.399  72.414  1.00  0.00    -0.247 OA 
HETATM   27  O   UNL     1     -10.034   7.507  73.310  1.00  0.00    -0.255 OA 
ENDBRANCH  23  24
ENDBRANCH  22  23
ENDBRANCH  21  22
ENDBRANCH  20  21
ENDBRANCH  19  20
ENDBRANCH  18  19
ENDBRANCH  17  18
ENDBRANCH  15  16
ENDBRANCH  14  15
ENDBRANCH  13  14
ENDBRANCH  12  13
ENDBRANCH  11  12
ENDBRANCH  10  11
ENDBRANCH   6  10
TORSDOF 15
ENDMDL
MODEL      443
REMARK 921   NORMALIZED FREE ENERGY PREDICTED BY IDOCK:   -2.73 KCAL/MOL
REMARK 922        TOTAL FREE ENERGY PREDICTED BY IDOCK:   -7.07 KCAL/MOL
REMARK 923 INTER-LIGAND FREE ENERGY PREDICTED BY IDOCK:   -5.55 KCAL/MOL
REMARK 924 INTRA-LIGAND FREE ENERGY PREDICTED BY IDOCK:   -1.51 KCAL/MOL
REMARK 927      BINDING AFFINITY PREDICTED BY RF-SCORE:    0.00 PKD
ROOT
ATOM      1  N   GLY A   1      -9.964  12.568  63.290  1.00  0.00    -0.582 NA 
HETATM    2  C   UNL     1      -6.999  10.211  69.126  1.00  0.00    -0.062 C  
ATOM      3  H2  GLY A   1      -9.223  13.264  63.210  1.00  0.00     0.000 HD 
ATOM      4  H1  GLY A   1      -9.818  11.783  62.656  1.00  0.00     0.000 HD 
ATOM      5  CA  GLY A   1     -10.117  12.085  64.669  1.00  0.00    -0.264 C  
HETATM    6  C   UNL     1      -6.633   8.912  68.425  1.00  0.00    -0.060 C  
ENDROOT
BRANCH   5   7
ATOM      7  C   GLY A   1     -10.336  13.264  65.621  1.00  0.00    -0.287 C  
ATOM      8  H   GLY A   1     -11.016  15.097  65.489  1.00  0.00     0.000 HD 
ATOM      9  O   GLY A   1     -10.881  14.366  64.899  1.00  0.00    -0.376 OA 
ENDBRANCH   5   7
BRANCH   6  10
HETATM   10  C   UNL     1      -7.792   7.921  68.323  1.00  0.00    -0.120 C  
BRANCH  10  11
HETATM   11  C   UNL     1      -8.438   7.842  66.938  1.00  0.00    -0.125 C  
BRANCH  11  12
HETATM   12  C   UNL     1      -7.396   7.402  65.906  1.00  0.00    -0.075 C  
BRANCH  12  13
HETATM   13  C   UNL     1      -8.016   6.602  64.761  1.00  0.00    -0.118 C  
BRANCH  13  14
HETATM   14  C   UNL     1      -8.358   5.159  65.156  1.00  0.00    -0.141 C  
BRANCH  14  15
HETATM   15  C   UNL     1      -9.360   5.012  66.308  1.00  0.00    -0.151 C  
BRANCH  15  16
HETATM   16  C   UNL     1      -9.254   3.711  67.057  1.00  0.00    -0.208 C  
HETATM   17  C   UNL     1      -9.119   3.609  68.388  1.00  0.00    -0.200 C  
BRANCH  17  18
HETATM   18  C   UNL     1      -9.010   4.760  69.344  1.00  0.00    -0.135 C  
BRANCH  18  19
HETATM   19  C   UNL     1     -10.360   5.113  69.965  1.00  0.00    -0.347 C  
BRANCH  19  20
HETATM   20  C   UNL     1     -10.900   6.404  69.351  1.00  0.00    -0.381 C  
BRANCH  20  21
HETATM   21  C   UNL     1     -11.666   7.230  70.380  1.00  0.00    -0.219 C  
BRANCH  21  22
HETATM   22  C   UNL     1     -11.664   6.550  71.746  1.00  0.00    -0.373 C  
BRANCH  22  23
HETATM   23  C   UNL     1     -11.417   7.568  72.857  1.00  0.00    -0.311 C  
BRANCH  23  24
HETATM   24  C   UNL     1     -10.187   7.210  73.686  1.00  0.00    -0.402 C  
HETATM   25  C   UNL     1      -8.942   7.882  73.153  1.00  0.00    -0.243 C  
HETATM   26  O   UNL     1      -7.849   7.585  73.893  1.00  0.00    -0.116 OA 
HETATM   27  O   UNL     1      -8.892   8.611  72.181  1.00  0.00    -0.262 OA 
ENDBRANCH  23  24
ENDBRANCH  22  23
ENDBRANCH  21  22
ENDBRANCH  20  21
ENDBRANCH  19  20
ENDBRANCH  18  19
ENDBRANCH  17  18
ENDBRANCH  15  16
ENDBRANCH  14  15
ENDBRANCH  13  14
ENDBRANCH  12  13
ENDBRANCH  11  12
ENDBRANCH  10  11
ENDBRANCH   6  10
TORSDOF 15
ENDMDL
MODEL      444
REMARK 921   NORMALIZED FREE ENERGY PREDICTED BY IDOCK:   -2.71 KCAL/MOL
REMARK 922        TOTAL FREE ENERGY PREDICTED BY IDOCK:   -7.03 KCAL/MOL
REMARK 923 INTER-LIGAND FREE ENERGY PREDICTED BY IDOCK:   -5.06 KCAL/MOL
REMARK 924 INTRA-LIGAND FREE ENERGY PREDICTED BY IDOCK:   -1.97 KCAL/MOL
REMARK 927      BINDING AFFINITY PREDICTED BY RF-SCORE:    0.00 PKD
ROOT
ATOM      1  N   GLY A   1     -11.364  14.176  63.996  1.00  0.00    -0.577 NA 
HETATM    2  C   UNL     1      -5.344  10.839  65.014  1.00  0.00    -0.121 C  
ATOM      3  H2  GLY A   1     -10.855  15.059  63.970  1.00  0.00     0.000 HD 
ATOM      4  H1  GLY A   1     -11.619  13.857  63.062  1.00  0.00     0.000 HD 
ATOM      5  CA  GLY A   1     -10.613  13.130  64.703  1.00  0.00    -0.392 C  
HETATM    6  C   UNL     1      -5.452  10.208  63.634  1.00  0.00    -0.125 C  
ENDROOT
BRANCH   5   7
ATOM      7  C   GLY A   1     -10.230  13.610  66.106  1.00  0.00    -0.304 C  
ATOM      8  H   GLY A   1     -10.168  15.320  67.061  1.00  0.00     0.000 HD 
ATOM      9  O   GLY A   1     -10.406  15.022  66.191  1.00  0.00    -0.274 OA 
ENDBRANCH   5   7
BRANCH   6  10
HETATM   10  C   UNL     1      -6.392   9.004  63.581  1.00  0.00    -0.089 C  
BRANCH  10  11
HETATM   11  C   UNL     1      -6.066   7.899  64.590  1.00  0.00    -0.048 C  
BRANCH  11  12
HETATM   12  C   UNL     1      -7.310   7.576  65.423  1.00  0.00    -0.071 C  
BRANCH  12  13
HETATM   13  C   UNL     1      -7.217   8.131  66.843  1.00  0.00    -0.083 C  
BRANCH  13  14
HETATM   14  C   UNL     1      -8.556   8.671  67.363  1.00  0.00    -0.134 C  
BRANCH  14  15
HETATM   15  C   UNL     1      -9.766   8.415  66.457  1.00  0.00    -0.330 C  
BRANCH  15  16
HETATM   16  C   UNL     1     -10.899   7.690  67.131  1.00  0.00    -0.258 C  
HETATM   17  C   UNL     1     -11.082   6.361  67.092  1.00  0.00    -0.422 C  
BRANCH  17  18
HETATM   18  C   UNL     1     -10.222   5.384  66.344  1.00  0.00    -0.268 C  
BRANCH  18  19
HETATM   19  C   UNL     1      -9.118   4.808  67.228  1.00  0.00    -0.127 C  
BRANCH  19  20
HETATM   20  C   UNL     1      -9.691   4.393  68.583  1.00  0.00    -0.190 C  
BRANCH  20  21
HETATM   21  C   UNL     1      -9.554   5.513  69.610  1.00  0.00    -0.210 C  
BRANCH  21  22
HETATM   22  C   UNL     1      -8.252   5.386  70.395  1.00  0.00    -0.105 C  
BRANCH  22  23
HETATM   23  C   UNL     1      -8.138   6.495  71.438  1.00  0.00    -0.112 C  
BRANCH  23  24
HETATM   24  C   UNL     1      -7.328   7.678  70.917  1.00  0.00    -0.066 C  
HETATM   25  C   UNL     1      -8.086   8.978  71.061  1.00  0.00    -0.159 C  
HETATM   26  O   UNL     1      -7.367  10.037  70.618  1.00  0.00    -0.308 OA 
HETATM   27  O   UNL     1      -9.206   9.098  71.520  1.00  0.00    -0.290 OA 
ENDBRANCH  23  24
ENDBRANCH  22  23
ENDBRANCH  21  22
ENDBRANCH  20  21
ENDBRANCH  19  20
ENDBRANCH  18  19
ENDBRANCH  17  18
ENDBRANCH  15  16
ENDBRANCH  14  15
ENDBRANCH  13  14
ENDBRANCH  12  13
ENDBRANCH  11  12
ENDBRANCH  10  11
ENDBRANCH   6  10
TORSDOF 15
ENDMDL
MODEL      445
REMARK 921   NORMALIZED FREE ENERGY PREDICTED BY IDOCK:   -2.71 KCAL/MOL
REMARK 922        TOTAL FREE ENERGY PREDICTED BY IDOCK:   -7.02 KCAL/MOL
REMARK 923 INTER-LIGAND FREE ENERGY PREDICTED BY IDOCK:   -4.91 KCAL/MOL
REMARK 924 INTRA-LIGAND FREE ENERGY PREDICTED BY IDOCK:   -2.12 KCAL/MOL
REMARK 927      BINDING AFFINITY PREDICTED BY RF-SCORE:    0.00 PKD
ROOT
ATOM      1  N   GLY A   1     -11.275  13.674  69.738  1.00  0.00    -0.468 NA 
HETATM    2  C   UNL     1      -9.452  10.312  63.925  1.00  0.00    -0.356 C  
ATOM      3  H2  GLY A   1     -12.241  13.687  69.411  1.00  0.00     0.000 HD 
ATOM      4  H1  GLY A   1     -11.122  12.955  70.445  1.00  0.00     0.000 HD 
ATOM      5  CA  GLY A   1     -10.325  13.507  68.630  1.00  0.00    -0.214 C  
HETATM    6  C   UNL     1      -9.145   9.063  64.735  1.00  0.00    -0.088 C  
ENDROOT
BRANCH   5   7
ATOM      7  C   GLY A   1     -10.555  14.585  67.568  1.00  0.00    -0.262 C  
ATOM      8  H   GLY A   1     -12.056  15.683  66.951  1.00  0.00     0.000 HD 
ATOM      9  O   GLY A   1     -11.913  15.014  67.610  1.00  0.00    -0.277 OA 
ENDBRANCH   5   7
BRANCH   6  10
HETATM   10  C   UNL     1      -7.785   9.101  65.431  1.00  0.00    -0.098 C  
BRANCH  10  11
HETATM   11  C   UNL     1      -7.589  10.289  66.376  1.00  0.00    -0.117 C  
BRANCH  11  12
HETATM   12  C   UNL     1      -8.208   9.972  67.740  1.00  0.00    -0.113 C  
BRANCH  12  13
HETATM   13  C   UNL     1      -7.887   8.554  68.208  1.00  0.00    -0.106 C  
BRANCH  13  14
HETATM   14  C   UNL     1      -7.214   8.518  69.587  1.00  0.00    -0.052 C  
BRANCH  14  15
HETATM   15  C   UNL     1      -7.859   9.406  70.659  1.00  0.00    -0.178 C  
BRANCH  15  16
HETATM   16  C   UNL     1      -8.508   8.645  71.783  1.00  0.00    -0.221 C  
HETATM   17  C   UNL     1      -9.824   8.397  71.874  1.00  0.00    -0.328 C  
BRANCH  17  18
HETATM   18  C   UNL     1     -10.868   8.866  70.903  1.00  0.00    -0.308 C  
BRANCH  18  19
HETATM   19  C   UNL     1     -11.148   7.823  69.823  1.00  0.00    -0.095 C  
BRANCH  19  20
HETATM   20  C   UNL     1     -11.367   6.451  70.460  1.00  0.00    -0.438 C  
BRANCH  20  21
HETATM   21  C   UNL     1     -10.331   5.442  69.974  1.00  0.00    -0.366 C  
BRANCH  21  22
HETATM   22  C   UNL     1     -10.533   5.111  68.498  1.00  0.00    -0.090 C  
BRANCH  22  23
HETATM   23  C   UNL     1      -9.208   5.175  67.742  1.00  0.00    -0.125 C  
BRANCH  23  24
HETATM   24  C   UNL     1      -8.839   3.825  67.135  1.00  0.00    -0.135 C  
HETATM   25  C   UNL     1      -9.322   3.706  65.707  1.00  0.00    -0.164 C  
HETATM   26  O   UNL     1      -8.982   2.519  65.154  1.00  0.00    -0.125 OA 
HETATM   27  O   UNL     1      -9.939   4.557  65.095  1.00  0.00    -0.179 OA 
ENDBRANCH  23  24
ENDBRANCH  22  23
ENDBRANCH  21  22
ENDBRANCH  20  21
ENDBRANCH  19  20
ENDBRANCH  18  19
ENDBRANCH  17  18
ENDBRANCH  15  16
ENDBRANCH  14  15
ENDBRANCH  13  14
ENDBRANCH  12  13
ENDBRANCH  11  12
ENDBRANCH  10  11
ENDBRANCH   6  10
TORSDOF 15
ENDMDL
MODEL      446
REMARK 921   NORMALIZED FREE ENERGY PREDICTED BY IDOCK:   -2.70 KCAL/MOL
REMARK 922        TOTAL FREE ENERGY PREDICTED BY IDOCK:   -7.01 KCAL/MOL
REMARK 923 INTER-LIGAND FREE ENERGY PREDICTED BY IDOCK:   -5.23 KCAL/MOL
REMARK 924 INTRA-LIGAND FREE ENERGY PREDICTED BY IDOCK:   -1.78 KCAL/MOL
REMARK 927      BINDING AFFINITY PREDICTED BY RF-SCORE:    0.00 PKD
ROOT
ATOM      1  N   GLY A   1     -12.374  14.146  63.607  1.00  0.00    -1.092 NA 
HETATM    2  C   UNL     1      -6.850  10.060  64.706  1.00  0.00    -0.133 C  
ATOM      3  H2  GLY A   1     -11.779  14.787  63.083  1.00  0.00     0.000 HD 
ATOM      4  H1  GLY A   1     -12.940  13.562  62.991  1.00  0.00     0.000 HD 
ATOM      5  CA  GLY A   1     -11.598  13.307  64.529  1.00  0.00    -0.369 C  
HETATM    6  C   UNL     1      -7.455   8.990  63.811  1.00  0.00    -0.107 C  
ENDROOT
BRANCH   5   7
ATOM      7  C   GLY A   1     -10.748  14.183  65.454  1.00  0.00    -0.342 C  
ATOM      8  H   GLY A   1     -10.130  16.042  65.487  1.00  0.00     0.000 HD 
ATOM      9  O   GLY A   1     -10.657  15.499  64.913  1.00  0.00    -0.423 OA 
ENDBRANCH   5   7
BRANCH   6  10
HETATM   10  C   UNL     1      -8.525   8.144  64.501  1.00  0.00    -0.013 C  
BRANCH  10  11
HETATM   11  C   UNL     1      -7.986   6.911  65.231  1.00  0.00    -0.127 C  
BRANCH  11  12
HETATM   12  C   UNL     1      -8.989   6.463  66.297  1.00  0.00    -0.166 C  
BRANCH  12  13
HETATM   13  C   UNL     1      -8.861   7.269  67.589  1.00  0.00    -0.123 C  
BRANCH  13  14
HETATM   14  C   UNL     1     -10.216   7.561  68.248  1.00  0.00    -0.218 C  
BRANCH  14  15
HETATM   15  C   UNL     1     -10.958   6.338  68.800  1.00  0.00    -0.424 C  
BRANCH  15  16
HETATM   16  C   UNL     1     -10.890   6.197  70.296  1.00  0.00    -0.385 C  
HETATM   17  C   UNL     1     -10.288   5.184  70.938  1.00  0.00    -0.282 C  
BRANCH  17  18
HETATM   18  C   UNL     1      -9.623   4.009  70.283  1.00  0.00    -0.271 C  
BRANCH  18  19
HETATM   19  C   UNL     1      -8.115   4.210  70.152  1.00  0.00    -0.061 C  
BRANCH  19  20
HETATM   20  C   UNL     1      -7.484   4.374  71.534  1.00  0.00    -0.068 C  
BRANCH  20  21
HETATM   21  C   UNL     1      -6.864   5.758  71.700  1.00  0.00    -0.067 C  
BRANCH  21  22
HETATM   22  C   UNL     1      -6.051   6.150  70.470  1.00  0.00    -0.030 C  
BRANCH  22  23
HETATM   23  C   UNL     1      -5.735   7.644  70.483  1.00  0.00    -0.026 C  
BRANCH  23  24
HETATM   24  C   UNL     1      -6.862   8.464  69.863  1.00  0.00    -0.043 C  
HETATM   25  C   UNL     1      -7.611   9.260  70.908  1.00  0.00    -0.104 C  
HETATM   26  O   UNL     1      -8.601  10.006  70.365  1.00  0.00    -0.070 OA 
HETATM   27  O   UNL     1      -7.376   9.259  72.102  1.00  0.00    -0.289 OA 
ENDBRANCH  23  24
ENDBRANCH  22  23
ENDBRANCH  21  22
ENDBRANCH  20  21
ENDBRANCH  19  20
ENDBRANCH  18  19
ENDBRANCH  17  18
ENDBRANCH  15  16
ENDBRANCH  14  15
ENDBRANCH  13  14
ENDBRANCH  12  13
ENDBRANCH  11  12
ENDBRANCH  10  11
ENDBRANCH   6  10
TORSDOF 15
ENDMDL
MODEL      447
REMARK 921   NORMALIZED FREE ENERGY PREDICTED BY IDOCK:   -2.69 KCAL/MOL
REMARK 922        TOTAL FREE ENERGY PREDICTED BY IDOCK:   -7.00 KCAL/MOL
REMARK 923 INTER-LIGAND FREE ENERGY PREDICTED BY IDOCK:   -6.23 KCAL/MOL
REMARK 924 INTRA-LIGAND FREE ENERGY PREDICTED BY IDOCK:   -0.77 KCAL/MOL
REMARK 927      BINDING AFFINITY PREDICTED BY RF-SCORE:    0.00 PKD
ROOT
ATOM      1  N   GLY A   1      -9.686   5.070  70.359  1.00  0.00    -0.191 NA 
HETATM    2  C   UNL     1      -7.882  10.980  67.161  1.00  0.00    -0.135 C  
ATOM      3  H2  GLY A   1      -8.723   4.745  70.274  1.00  0.00     0.000 HD 
ATOM      4  H1  GLY A   1      -9.893   5.403  71.301  1.00  0.00     0.000 HD 
ATOM      5  CA  GLY A   1     -10.004   6.110  69.372  1.00  0.00    -0.166 C  
HETATM    6  C   UNL     1      -8.105  11.755  68.450  1.00  0.00    -0.150 C  
ENDROOT
BRANCH   5   7
ATOM      7  C   GLY A   1      -9.692   5.610  67.958  1.00  0.00    -0.126 C  
ATOM      8  H   GLY A   1     -10.682   5.349  66.287  1.00  0.00     0.000 HD 
ATOM      9  O   GLY A   1     -10.875   5.659  67.164  1.00  0.00    -0.263 OA 
ENDBRANCH   5   7
BRANCH   6  10
HETATM   10  C   UNL     1      -9.574  12.068  68.731  1.00  0.00     0.004 C  
BRANCH  10  11
HETATM   11  C   UNL     1     -10.568  11.172  67.988  1.00  0.00    -0.233 C  
BRANCH  11  12
HETATM   12  C   UNL     1     -11.208  10.186  68.969  1.00  0.00    -0.223 C  
BRANCH  12  13
HETATM   13  C   UNL     1     -11.396  10.790  70.360  1.00  0.00    -0.342 C  
BRANCH  13  14
HETATM   14  C   UNL     1     -12.615  11.720  70.448  1.00  0.00    -0.186 C  
BRANCH  14  15
HETATM   15  C   UNL     1     -13.005  12.161  71.864  1.00  0.00    -0.419 C  
BRANCH  15  16
HETATM   16  C   UNL     1     -13.597  13.542  71.940  1.00  0.00    -0.510 C  
HETATM   17  C   UNL     1     -13.061  14.632  71.368  1.00  0.00    -0.414 C  
BRANCH  17  18
HETATM   18  C   UNL     1     -11.773  14.669  70.600  1.00  0.00    -0.339 C  
BRANCH  18  19
HETATM   19  C   UNL     1     -11.852  15.614  69.404  1.00  0.00    -0.391 C  
BRANCH  19  20
HETATM   20  C   UNL     1     -10.982  16.847  69.648  1.00  0.00    -0.007 C  
BRANCH  20  21
HETATM   21  C   UNL     1      -9.944  17.022  68.544  1.00  0.00    -0.293 C  
BRANCH  21  22
HETATM   22  C   UNL     1      -9.850  18.480  68.101  1.00  0.00    -0.376 C  
BRANCH  22  23
HETATM   23  C   UNL     1      -8.392  18.906  67.946  1.00  0.00    -0.310 C  
BRANCH  23  24
HETATM   24  C   UNL     1      -7.746  18.268  66.720  1.00  0.00    -0.247 C  
HETATM   25  C   UNL     1      -7.209  19.312  65.767  1.00  0.00    -0.264 C  
HETATM   26  O   UNL     1      -6.617  18.755  64.685  1.00  0.00    -0.444 OA 
HETATM   27  O   UNL     1      -7.278  20.516  65.924  1.00  0.00    -0.203 OA 
ENDBRANCH  23  24
ENDBRANCH  22  23
ENDBRANCH  21  22
ENDBRANCH  20  21
ENDBRANCH  19  20
ENDBRANCH  18  19
ENDBRANCH  17  18
ENDBRANCH  15  16
ENDBRANCH  14  15
ENDBRANCH  13  14
ENDBRANCH  12  13
ENDBRANCH  11  12
ENDBRANCH  10  11
ENDBRANCH   6  10
TORSDOF 15
ENDMDL
MODEL      448
REMARK 921   NORMALIZED FREE ENERGY PREDICTED BY IDOCK:   -2.66 KCAL/MOL
REMARK 922        TOTAL FREE ENERGY PREDICTED BY IDOCK:   -6.94 KCAL/MOL
REMARK 923 INTER-LIGAND FREE ENERGY PREDICTED BY IDOCK:   -5.29 KCAL/MOL
REMARK 924 INTRA-LIGAND FREE ENERGY PREDICTED BY IDOCK:   -1.65 KCAL/MOL
REMARK 927      BINDING AFFINITY PREDICTED BY RF-SCORE:    0.00 PKD
ROOT
ATOM      1  N   GLY A   1      -8.216   7.489  72.481  1.00  0.00    -0.104 NA 
HETATM    2  C   UNL     1      -9.713   8.903  65.835  1.00  0.00    -0.259 C  
ATOM      3  H2  GLY A   1      -7.277   7.211  72.197  1.00  0.00     0.000 HD 
ATOM      4  H1  GLY A   1      -8.228   8.421  72.895  1.00  0.00     0.000 HD 
ATOM      5  CA  GLY A   1      -9.171   7.417  71.367  1.00  0.00    -0.141 C  
HETATM    6  C   UNL     1      -9.789  10.386  66.159  1.00  0.00    -0.278 C  
ENDROOT
BRANCH   5   7
ATOM      7  C   GLY A   1      -9.154   6.018  70.745  1.00  0.00    -0.153 C  
ATOM      8  H   GLY A   1      -8.297   4.297  71.127  1.00  0.00     0.000 HD 
ATOM      9  O   GLY A   1      -8.308   5.165  71.513  1.00  0.00    -0.116 OA 
ENDBRANCH   5   7
BRANCH   6  10
HETATM   10  C   UNL     1     -11.110  10.808  66.802  1.00  0.00    -0.153 C  
BRANCH  10  11
HETATM   11  C   UNL     1     -10.964  11.787  67.969  1.00  0.00    -0.274 C  
BRANCH  11  12
HETATM   12  C   UNL     1     -10.060  11.178  69.045  1.00  0.00    -0.173 C  
BRANCH  12  13
HETATM   13  C   UNL     1     -10.799  10.949  70.362  1.00  0.00     0.210 C  
BRANCH  13  14
HETATM   14  C   UNL     1     -12.217  11.534  70.362  1.00  0.00    -0.442 C  
BRANCH  14  15
HETATM   15  C   UNL     1     -12.369  12.893  71.056  1.00  0.00    -0.318 C  
BRANCH  15  16
HETATM   16  C   UNL     1     -12.737  14.022  70.132  1.00  0.00    -0.207 C  
HETATM   17  C   UNL     1     -11.978  15.108  69.918  1.00  0.00    -0.372 C  
BRANCH  17  18
HETATM   18  C   UNL     1     -10.666  15.401  70.587  1.00  0.00    -0.255 C  
BRANCH  18  19
HETATM   19  C   UNL     1      -9.591  15.797  69.578  1.00  0.00    -0.262 C  
BRANCH  19  20
HETATM   20  C   UNL     1      -8.747  14.579  69.203  1.00  0.00     0.032 C  
BRANCH  20  21
HETATM   21  C   UNL     1      -7.993  14.807  67.896  1.00  0.00    -0.147 C  
BRANCH  21  22
HETATM   22  C   UNL     1      -7.508  16.250  67.783  1.00  0.00    -0.150 C  
BRANCH  22  23
HETATM   23  C   UNL     1      -8.398  17.047  66.833  1.00  0.00    -0.247 C  
BRANCH  23  24
HETATM   24  C   UNL     1      -8.624  18.471  67.333  1.00  0.00    -0.266 C  
HETATM   25  C   UNL     1      -9.877  19.075  66.742  1.00  0.00    -0.344 C  
HETATM   26  O   UNL     1     -10.096  20.332  67.194  1.00  0.00    -0.429 OA 
HETATM   27  O   UNL     1     -10.626  18.527  65.955  1.00  0.00    -0.438 OA 
ENDBRANCH  23  24
ENDBRANCH  22  23
ENDBRANCH  21  22
ENDBRANCH  20  21
ENDBRANCH  19  20
ENDBRANCH  18  19
ENDBRANCH  17  18
ENDBRANCH  15  16
ENDBRANCH  14  15
ENDBRANCH  13  14
ENDBRANCH  12  13
ENDBRANCH  11  12
ENDBRANCH  10  11
ENDBRANCH   6  10
TORSDOF 15
ENDMDL
MODEL      449
REMARK 921   NORMALIZED FREE ENERGY PREDICTED BY IDOCK:   -2.65 KCAL/MOL
REMARK 922        TOTAL FREE ENERGY PREDICTED BY IDOCK:   -6.91 KCAL/MOL
REMARK 923 INTER-LIGAND FREE ENERGY PREDICTED BY IDOCK:   -5.10 KCAL/MOL
REMARK 924 INTRA-LIGAND FREE ENERGY PREDICTED BY IDOCK:   -1.82 KCAL/MOL
REMARK 927      BINDING AFFINITY PREDICTED BY RF-SCORE:    0.00 PKD
ROOT
ATOM      1  N   GLY A   1     -12.180  14.899  67.086  1.00  0.00    -0.357 NA 
HETATM    2  C   UNL     1      -6.257  14.434  70.707  1.00  0.00    -0.116 C  
ATOM      3  H2  GLY A   1     -12.190  15.905  67.258  1.00  0.00     0.000 HD 
ATOM      4  H1  GLY A   1     -11.860  14.678  66.144  1.00  0.00     0.000 HD 
ATOM      5  CA  GLY A   1     -11.369  14.182  68.079  1.00  0.00    -0.299 C  
HETATM    6  C   UNL     1      -5.498  14.084  69.436  1.00  0.00    -0.083 C  
ENDROOT
BRANCH   5   7
ATOM      7  C   GLY A   1     -11.849  14.515  69.495  1.00  0.00    -0.329 C  
ATOM      8  H   GLY A   1     -11.680  16.017  70.742  1.00  0.00     0.000 HD 
ATOM      9  O   GLY A   1     -11.383  15.811  69.864  1.00  0.00    -0.294 OA 
ENDBRANCH   5   7
BRANCH   6  10
HETATM   10  C   UNL     1      -5.643  12.622  69.017  1.00  0.00    -0.069 C  
BRANCH  10  11
HETATM   11  C   UNL     1      -6.002  11.667  70.157  1.00  0.00    -0.161 C  
BRANCH  11  12
HETATM   12  C   UNL     1      -7.216  10.822  69.762  1.00  0.00    -0.106 C  
BRANCH  12  13
HETATM   13  C   UNL     1      -7.867  11.311  68.470  1.00  0.00    -0.138 C  
BRANCH  13  14
HETATM   14  C   UNL     1      -7.736  10.307  67.316  1.00  0.00    -0.095 C  
BRANCH  14  15
HETATM   15  C   UNL     1      -9.042   9.635  66.876  1.00  0.00    -0.160 C  
BRANCH  15  16
HETATM   16  C   UNL     1      -8.872   8.606  65.792  1.00  0.00    -0.231 C  
HETATM   17  C   UNL     1      -8.878   7.279  65.994  1.00  0.00    -0.161 C  
BRANCH  17  18
HETATM   18  C   UNL     1      -9.012   6.602  67.326  1.00  0.00    -0.115 C  
BRANCH  18  19
HETATM   19  C   UNL     1      -7.671   6.501  68.049  1.00  0.00    -0.105 C  
BRANCH  19  20
HETATM   20  C   UNL     1      -7.890   6.426  69.559  1.00  0.00    -0.101 C  
BRANCH  20  21
HETATM   21  C   UNL     1      -8.729   7.599  70.058  1.00  0.00    -0.142 C  
BRANCH  21  22
HETATM   22  C   UNL     1      -9.665   7.169  71.183  1.00  0.00    -0.168 C  
BRANCH  22  23
HETATM   23  C   UNL     1     -10.228   8.386  71.914  1.00  0.00    -0.340 C  
BRANCH  23  24
HETATM   24  C   UNL     1     -11.734   8.268  72.129  1.00  0.00    -0.429 C  
HETATM   25  C   UNL     1     -12.447   9.555  71.783  1.00  0.00    -0.401 C  
HETATM   26  O   UNL     1     -13.786   9.454  71.953  1.00  0.00    -0.366 OA 
HETATM   27  O   UNL     1     -11.916  10.576  71.391  1.00  0.00    -0.330 OA 
ENDBRANCH  23  24
ENDBRANCH  22  23
ENDBRANCH  21  22
ENDBRANCH  20  21
ENDBRANCH  19  20
ENDBRANCH  18  19
ENDBRANCH  17  18
ENDBRANCH  15  16
ENDBRANCH  14  15
ENDBRANCH  13  14
ENDBRANCH  12  13
ENDBRANCH  11  12
ENDBRANCH  10  11
ENDBRANCH   6  10
TORSDOF 15
ENDMDL
MODEL      450
REMARK 921   NORMALIZED FREE ENERGY PREDICTED BY IDOCK:   -2.65 KCAL/MOL
REMARK 922        TOTAL FREE ENERGY PREDICTED BY IDOCK:   -6.91 KCAL/MOL
REMARK 923 INTER-LIGAND FREE ENERGY PREDICTED BY IDOCK:   -6.16 KCAL/MOL
REMARK 924 INTRA-LIGAND FREE ENERGY PREDICTED BY IDOCK:   -0.75 KCAL/MOL
REMARK 927      BINDING AFFINITY PREDICTED BY RF-SCORE:    0.00 PKD
ROOT
ATOM      1  N   GLY A   1     -10.677  19.564  66.222  1.00  0.00    -0.451 NA 
HETATM    2  C   UNL     1      -8.305  13.473  68.606  1.00  0.00    -0.024 C  
ATOM      3  H2  GLY A   1      -9.732  19.800  65.922  1.00  0.00     0.000 HD 
ATOM      4  H1  GLY A   1     -11.260  19.264  65.441  1.00  0.00     0.000 HD 
ATOM      5  CA  GLY A   1     -10.679  18.543  67.278  1.00  0.00    -0.374 C  
HETATM    6  C   UNL     1      -9.076  12.739  67.520  1.00  0.00    -0.193 C  
ENDROOT
BRANCH   5   7
ATOM      7  C   GLY A   1      -9.804  18.993  68.451  1.00  0.00    -0.392 C  
ATOM      8  H   GLY A   1      -8.141  20.003  68.685  1.00  0.00     0.000 HD 
ATOM      9  O   GLY A   1      -8.684  19.723  67.957  1.00  0.00    -0.312 OA 
ENDBRANCH   5   7
BRANCH   6  10
HETATM   10  C   UNL     1     -10.561  12.562  67.834  1.00  0.00    -0.233 C  
BRANCH  10  11
HETATM   11  C   UNL     1     -10.945  11.160  68.316  1.00  0.00    -0.278 C  
BRANCH  11  12
HETATM   12  C   UNL     1      -9.689  10.293  68.437  1.00  0.00    -0.165 C  
BRANCH  12  13
HETATM   13  C   UNL     1      -9.988   8.808  68.239  1.00  0.00    -0.202 C  
BRANCH  13  14
HETATM   14  C   UNL     1      -9.263   7.912  69.252  1.00  0.00    -0.148 C  
BRANCH  14  15
HETATM   15  C   UNL     1      -7.731   7.934  69.173  1.00  0.00    -0.100 C  
BRANCH  15  16
HETATM   16  C   UNL     1      -7.054   8.389  70.437  1.00  0.00    -0.037 C  
HETATM   17  C   UNL     1      -7.381   7.969  71.669  1.00  0.00    -0.078 C  
BRANCH  17  18
HETATM   18  C   UNL     1      -8.492   7.015  71.999  1.00  0.00    -0.115 C  
BRANCH  18  19
HETATM   19  C   UNL     1      -8.526   6.676  73.487  1.00  0.00    -0.133 C  
BRANCH  19  20
HETATM   20  C   UNL     1      -9.942   6.277  73.904  1.00  0.00    -0.252 C  
BRANCH  20  21
HETATM   21  C   UNL     1     -10.992   7.097  73.161  1.00  0.00    -0.344 C  
BRANCH  21  22
HETATM   22  C   UNL     1     -11.512   6.349  71.937  1.00  0.00    -0.352 C  
BRANCH  22  23
HETATM   23  C   UNL     1     -12.590   7.161  71.224  1.00  0.00    -0.421 C  
BRANCH  23  24
HETATM   24  C   UNL     1     -12.202   8.632  71.106  1.00  0.00    -0.272 C  
HETATM   25  C   UNL     1     -13.219   9.531  71.772  1.00  0.00    -0.422 C  
HETATM   26  O   UNL     1     -12.873  10.837  71.689  1.00  0.00    -0.421 OA 
HETATM   27  O   UNL     1     -14.234   9.160  72.330  1.00  0.00    -0.439 OA 
ENDBRANCH  23  24
ENDBRANCH  22  23
ENDBRANCH  21  22
ENDBRANCH  20  21
ENDBRANCH  19  20
ENDBRANCH  18  19
ENDBRANCH  17  18
ENDBRANCH  15  16
ENDBRANCH  14  15
ENDBRANCH  13  14
ENDBRANCH  12  13
ENDBRANCH  11  12
ENDBRANCH  10  11
ENDBRANCH   6  10
TORSDOF 15
ENDMDL
MODEL      451
REMARK 921   NORMALIZED FREE ENERGY PREDICTED BY IDOCK:   -2.64 KCAL/MOL
REMARK 922        TOTAL FREE ENERGY PREDICTED BY IDOCK:   -6.91 KCAL/MOL
REMARK 923 INTER-LIGAND FREE ENERGY PREDICTED BY IDOCK:   -5.77 KCAL/MOL
REMARK 924 INTRA-LIGAND FREE ENERGY PREDICTED BY IDOCK:   -1.14 KCAL/MOL
REMARK 927      BINDING AFFINITY PREDICTED BY RF-SCORE:    0.00 PKD
ROOT
ATOM      1  N   GLY A   1      -9.036  20.168  65.939  1.00  0.00    -0.538 NA 
HETATM    2  C   UNL     1      -8.258  13.776  68.576  1.00  0.00    -0.124 C  
ATOM      3  H2  GLY A   1      -8.039  20.331  66.074  1.00  0.00     0.000 HD 
ATOM      4  H1  GLY A   1      -9.260  19.961  64.966  1.00  0.00     0.000 HD 
ATOM      5  CA  GLY A   1      -9.541  19.102  66.814  1.00  0.00    -0.331 C  
HETATM    6  C   UNL     1      -8.553  13.170  67.213  1.00  0.00    -0.210 C  
ENDROOT
BRANCH   5   7
ATOM      7  C   GLY A   1      -9.205  19.412  68.276  1.00  0.00    -0.346 C  
ATOM      8  H   GLY A   1      -7.794  18.933  69.548  1.00  0.00     0.000 HD 
ATOM      9  O   GLY A   1      -8.003  18.740  68.642  1.00  0.00    -0.328 OA 
ENDBRANCH   5   7
BRANCH   6  10
HETATM   10  C   UNL     1     -10.042  13.115  66.875  1.00  0.00    -0.245 C  
BRANCH  10  11
HETATM   11  C   UNL     1     -10.653  11.712  66.924  1.00  0.00    -0.276 C  
BRANCH  11  12
HETATM   12  C   UNL     1     -10.506  11.036  65.558  1.00  0.00    -0.302 C  
BRANCH  12  13
HETATM   13  C   UNL     1      -9.476   9.907  65.578  1.00  0.00    -0.313 C  
BRANCH  13  14
HETATM   14  C   UNL     1      -9.589   9.016  66.823  1.00  0.00    -0.259 C  
BRANCH  14  15
HETATM   15  C   UNL     1      -9.730   7.514  66.547  1.00  0.00    -0.238 C  
BRANCH  15  16
HETATM   16  C   UNL     1     -10.706   6.809  67.449  1.00  0.00    -0.405 C  
HETATM   17  C   UNL     1     -10.670   5.498  67.733  1.00  0.00    -0.186 C  
BRANCH  17  18
HETATM   18  C   UNL     1      -9.687   4.512  67.172  1.00  0.00    -0.227 C  
BRANCH  18  19
HETATM   19  C   UNL     1      -8.933   3.773  68.276  1.00  0.00    -0.168 C  
BRANCH  19  20
HETATM   20  C   UNL     1      -9.662   3.932  69.609  1.00  0.00    -0.208 C  
BRANCH  20  21
HETATM   21  C   UNL     1      -9.084   3.003  70.672  1.00  0.00    -0.192 C  
BRANCH  21  22
HETATM   22  C   UNL     1      -9.393   3.512  72.077  1.00  0.00    -0.185 C  
BRANCH  22  23
HETATM   23  C   UNL     1      -9.894   4.954  72.033  1.00  0.00    -0.232 C  
BRANCH  23  24
HETATM   24  C   UNL     1      -9.377   5.767  73.215  1.00  0.00    -0.135 C  
HETATM   25  C   UNL     1      -8.384   6.819  72.776  1.00  0.00    -0.110 C  
HETATM   26  O   UNL     1      -7.934   7.558  73.817  1.00  0.00    -0.116 OA 
HETATM   27  O   UNL     1      -8.013   7.010  71.633  1.00  0.00    -0.098 OA 
ENDBRANCH  23  24
ENDBRANCH  22  23
ENDBRANCH  21  22
ENDBRANCH  20  21
ENDBRANCH  19  20
ENDBRANCH  18  19
ENDBRANCH  17  18
ENDBRANCH  15  16
ENDBRANCH  14  15
ENDBRANCH  13  14
ENDBRANCH  12  13
ENDBRANCH  11  12
ENDBRANCH  10  11
ENDBRANCH   6  10
TORSDOF 15
ENDMDL
MODEL      452
REMARK 921   NORMALIZED FREE ENERGY PREDICTED BY IDOCK:   -2.64 KCAL/MOL
REMARK 922        TOTAL FREE ENERGY PREDICTED BY IDOCK:   -6.90 KCAL/MOL
REMARK 923 INTER-LIGAND FREE ENERGY PREDICTED BY IDOCK:   -6.02 KCAL/MOL
REMARK 924 INTRA-LIGAND FREE ENERGY PREDICTED BY IDOCK:   -0.89 KCAL/MOL
REMARK 927      BINDING AFFINITY PREDICTED BY RF-SCORE:    0.00 PKD
ROOT
ATOM      1  N   GLY A   1      -8.705  16.765  68.119  1.00  0.00    -0.212 NA 
HETATM    2  C   UNL     1     -12.553  12.105  71.567  1.00  0.00    -0.267 C  
ATOM      3  H2  GLY A   1      -8.897  16.263  67.253  1.00  0.00     0.000 HD 
ATOM      4  H1  GLY A   1      -9.276  17.606  68.207  1.00  0.00     0.000 HD 
ATOM      5  CA  GLY A   1      -8.879  15.908  69.300  1.00  0.00    -0.249 C  
HETATM    6  C   UNL     1     -13.602  13.169  71.850  1.00  0.00    -0.453 C  
ENDROOT
BRANCH   5   7
ATOM      7  C   GLY A   1      -8.022  14.646  69.167  1.00  0.00    -0.097 C  
ATOM      8  H   GLY A   1      -6.447  13.891  70.057  1.00  0.00     0.000 HD 
ATOM      9  O   GLY A   1      -6.979  14.673  70.139  1.00  0.00    -0.141 OA 
ENDBRANCH   5   7
BRANCH   6  10
HETATM   10  C   UNL     1     -13.241  14.094  73.011  1.00  0.00    -0.436 C  
BRANCH  10  11
HETATM   11  C   UNL     1     -11.949  14.890  72.811  1.00  0.00    -0.338 C  
BRANCH  11  12
HETATM   12  C   UNL     1     -12.204  16.057  71.853  1.00  0.00    -0.560 C  
BRANCH  12  13
HETATM   13  C   UNL     1     -12.996  15.631  70.618  1.00  0.00    -0.342 C  
BRANCH  13  14
HETATM   14  C   UNL     1     -12.138  15.579  69.346  1.00  0.00    -0.302 C  
BRANCH  14  15
HETATM   15  C   UNL     1     -12.221  14.272  68.548  1.00  0.00    -0.194 C  
BRANCH  15  16
HETATM   16  C   UNL     1     -11.739  14.384  67.127  1.00  0.00    -0.424 C  
HETATM   17  C   UNL     1     -10.880  13.532  66.546  1.00  0.00    -0.283 C  
BRANCH  17  18
HETATM   18  C   UNL     1     -10.228  12.359  67.217  1.00  0.00    -0.224 C  
BRANCH  18  19
HETATM   19  C   UNL     1     -11.124  11.123  67.195  1.00  0.00    -0.352 C  
BRANCH  19  20
HETATM   20  C   UNL     1     -10.468   9.983  67.975  1.00  0.00    -0.260 C  
BRANCH  20  21
HETATM   21  C   UNL     1      -9.564  10.516  69.082  1.00  0.00    -0.214 C  
BRANCH  21  22
HETATM   22  C   UNL     1      -8.305   9.665  69.224  1.00  0.00    -0.137 C  
BRANCH  22  23
HETATM   23  C   UNL     1      -8.551   8.487  70.164  1.00  0.00    -0.132 C  
BRANCH  23  24
HETATM   24  C   UNL     1      -7.540   8.458  71.307  1.00  0.00    -0.100 C  
HETATM   25  C   UNL     1      -7.968   7.509  72.403  1.00  0.00    -0.103 C  
HETATM   26  O   UNL     1      -7.068   7.462  73.413  1.00  0.00    -0.068 OA 
HETATM   27  O   UNL     1      -8.988   6.846  72.408  1.00  0.00    -0.133 OA 
ENDBRANCH  23  24
ENDBRANCH  22  23
ENDBRANCH  21  22
ENDBRANCH  20  21
ENDBRANCH  19  20
ENDBRANCH  18  19
ENDBRANCH  17  18
ENDBRANCH  15  16
ENDBRANCH  14  15
ENDBRANCH  13  14
ENDBRANCH  12  13
ENDBRANCH  11  12
ENDBRANCH  10  11
ENDBRANCH   6  10
TORSDOF 15
ENDMDL
MODEL      453
REMARK 921   NORMALIZED FREE ENERGY PREDICTED BY IDOCK:   -2.63 KCAL/MOL
REMARK 922        TOTAL FREE ENERGY PREDICTED BY IDOCK:   -6.88 KCAL/MOL
REMARK 923 INTER-LIGAND FREE ENERGY PREDICTED BY IDOCK:   -5.81 KCAL/MOL
REMARK 924 INTRA-LIGAND FREE ENERGY PREDICTED BY IDOCK:   -1.07 KCAL/MOL
REMARK 927      BINDING AFFINITY PREDICTED BY RF-SCORE:    0.00 PKD
ROOT
ATOM      1  N   GLY A   1      -8.705  16.765  68.119  1.00  0.00    -0.212 NA 
HETATM    2  C   UNL     1     -12.553  12.105  71.567  1.00  0.00    -0.267 C  
ATOM      3  H2  GLY A   1      -8.897  16.263  67.253  1.00  0.00     0.000 HD 
ATOM      4  H1  GLY A   1      -9.276  17.606  68.207  1.00  0.00     0.000 HD 
ATOM      5  CA  GLY A   1      -8.879  15.908  69.300  1.00  0.00    -0.249 C  
HETATM    6  C   UNL     1     -13.602  13.169  71.850  1.00  0.00    -0.453 C  
ENDROOT
BRANCH   5   7
ATOM      7  C   GLY A   1      -8.022  14.646  69.167  1.00  0.00    -0.097 C  
ATOM      8  H   GLY A   1      -6.447  13.891  70.057  1.00  0.00     0.000 HD 
ATOM      9  O   GLY A   1      -6.979  14.673  70.139  1.00  0.00    -0.141 OA 
ENDBRANCH   5   7
BRANCH   6  10
HETATM   10  C   UNL     1     -13.241  14.094  73.011  1.00  0.00    -0.436 C  
BRANCH  10  11
HETATM   11  C   UNL     1     -11.949  14.890  72.811  1.00  0.00    -0.338 C  
BRANCH  11  12
HETATM   12  C   UNL     1     -12.204  16.057  71.853  1.00  0.00    -0.560 C  
BRANCH  12  13
HETATM   13  C   UNL     1     -12.996  15.631  70.618  1.00  0.00    -0.342 C  
BRANCH  13  14
HETATM   14  C   UNL     1     -12.138  15.579  69.346  1.00  0.00    -0.302 C  
BRANCH  14  15
HETATM   15  C   UNL     1     -12.221  14.272  68.548  1.00  0.00    -0.194 C  
BRANCH  15  16
HETATM   16  C   UNL     1     -11.739  14.384  67.127  1.00  0.00    -0.424 C  
HETATM   17  C   UNL     1     -10.880  13.532  66.546  1.00  0.00    -0.283 C  
BRANCH  17  18
HETATM   18  C   UNL     1     -10.228  12.359  67.217  1.00  0.00    -0.224 C  
BRANCH  18  19
HETATM   19  C   UNL     1     -11.124  11.123  67.195  1.00  0.00    -0.352 C  
BRANCH  19  20
HETATM   20  C   UNL     1     -10.468   9.983  67.975  1.00  0.00    -0.260 C  
BRANCH  20  21
HETATM   21  C   UNL     1      -9.564  10.516  69.082  1.00  0.00    -0.214 C  
BRANCH  21  22
HETATM   22  C   UNL     1      -8.305   9.665  69.224  1.00  0.00    -0.137 C  
BRANCH  22  23
HETATM   23  C   UNL     1      -7.351   9.911  68.057  1.00  0.00    -0.084 C  
BRANCH  23  24
HETATM   24  C   UNL     1      -6.989   8.614  67.342  1.00  0.00    -0.078 C  
HETATM   25  C   UNL     1      -6.321   8.880  66.012  1.00  0.00    -0.057 C  
HETATM   26  O   UNL     1      -5.979   7.734  65.377  1.00  0.00    -0.037 OA 
HETATM   27  O   UNL     1      -6.097   9.978  65.539  1.00  0.00    -0.074 OA 
ENDBRANCH  23  24
ENDBRANCH  22  23
ENDBRANCH  21  22
ENDBRANCH  20  21
ENDBRANCH  19  20
ENDBRANCH  18  19
ENDBRANCH  17  18
ENDBRANCH  15  16
ENDBRANCH  14  15
ENDBRANCH  13  14
ENDBRANCH  12  13
ENDBRANCH  11  12
ENDBRANCH  10  11
ENDBRANCH   6  10
TORSDOF 15
ENDMDL
MODEL      454
REMARK 921   NORMALIZED FREE ENERGY PREDICTED BY IDOCK:   -2.60 KCAL/MOL
REMARK 922        TOTAL FREE ENERGY PREDICTED BY IDOCK:   -6.83 KCAL/MOL
REMARK 923 INTER-LIGAND FREE ENERGY PREDICTED BY IDOCK:   -5.90 KCAL/MOL
REMARK 924 INTRA-LIGAND FREE ENERGY PREDICTED BY IDOCK:   -0.93 KCAL/MOL
REMARK 927      BINDING AFFINITY PREDICTED BY RF-SCORE:    0.00 PKD
ROOT
ATOM      1  N   GLY A   1      -7.779   8.673  74.435  1.00  0.00    -0.404 NA 
HETATM    2  C   UNL     1      -8.432   4.140  69.197  1.00  0.00    -0.098 C  
ATOM      3  H2  GLY A   1      -7.310   7.953  74.983  1.00  0.00     0.000 HD 
ATOM      4  H1  GLY A   1      -7.118   9.344  74.043  1.00  0.00     0.000 HD 
ATOM      5  CA  GLY A   1      -8.611   8.098  73.369  1.00  0.00    -0.247 C  
HETATM    6  C   UNL     1      -7.449   4.948  68.365  1.00  0.00    -0.074 C  
ENDROOT
BRANCH   5   7
ATOM      7  C   GLY A   1      -9.603   7.091  73.958  1.00  0.00    -0.272 C  
ATOM      8  H   GLY A   1     -11.535   6.773  73.870  1.00  0.00     0.000 HD 
ATOM      9  O   GLY A   1     -10.919   7.398  73.505  1.00  0.00    -0.344 OA 
ENDBRANCH   5   7
BRANCH   6  10
HETATM   10  C   UNL     1      -8.070   6.177  67.702  1.00  0.00    -0.113 C  
BRANCH  10  11
HETATM   11  C   UNL     1      -8.672   5.917  66.319  1.00  0.00    -0.136 C  
BRANCH  11  12
HETATM   12  C   UNL     1      -8.235   7.018  65.349  1.00  0.00    -0.133 C  
BRANCH  12  13
HETATM   13  C   UNL     1      -7.882   8.319  66.069  1.00  0.00    -0.095 C  
BRANCH  13  14
HETATM   14  C   UNL     1      -8.883   9.448  65.789  1.00  0.00    -0.204 C  
BRANCH  14  15
HETATM   15  C   UNL     1      -8.638  10.241  64.499  1.00  0.00    -0.195 C  
BRANCH  15  16
HETATM   16  C   UNL     1      -9.888  10.563  63.726  1.00  0.00    -0.363 C  
HETATM   17  C   UNL     1     -10.618  11.677  63.891  1.00  0.00    -0.446 C  
BRANCH  17  18
HETATM   18  C   UNL     1     -10.342  12.760  64.892  1.00  0.00    -0.330 C  
BRANCH  18  19
HETATM   19  C   UNL     1     -11.552  13.032  65.782  1.00  0.00    -0.396 C  
BRANCH  19  20
HETATM   20  C   UNL     1     -11.832  14.533  65.847  1.00  0.00    -0.334 C  
BRANCH  20  21
HETATM   21  C   UNL     1     -10.550  15.345  65.689  1.00  0.00    -0.379 C  
BRANCH  21  22
HETATM   22  C   UNL     1     -10.785  16.589  64.838  1.00  0.00    -0.168 C  
BRANCH  22  23
HETATM   23  C   UNL     1     -10.513  17.856  65.645  1.00  0.00    -0.105 C  
BRANCH  23  24
HETATM   24  C   UNL     1     -10.063  17.534  67.067  1.00  0.00    -0.323 C  
HETATM   25  C   UNL     1      -8.583  17.779  67.252  1.00  0.00    -0.233 C  
HETATM   26  O   UNL     1      -8.178  17.513  68.515  1.00  0.00    -0.265 OA 
HETATM   27  O   UNL     1      -7.818  18.173  66.392  1.00  0.00    -0.245 OA 
ENDBRANCH  23  24
ENDBRANCH  22  23
ENDBRANCH  21  22
ENDBRANCH  20  21
ENDBRANCH  19  20
ENDBRANCH  18  19
ENDBRANCH  17  18
ENDBRANCH  15  16
ENDBRANCH  14  15
ENDBRANCH  13  14
ENDBRANCH  12  13
ENDBRANCH  11  12
ENDBRANCH  10  11
ENDBRANCH   6  10
TORSDOF 15
ENDMDL
MODEL      455
REMARK 921   NORMALIZED FREE ENERGY PREDICTED BY IDOCK:   -2.60 KCAL/MOL
REMARK 922        TOTAL FREE ENERGY PREDICTED BY IDOCK:   -6.82 KCAL/MOL
REMARK 923 INTER-LIGAND FREE ENERGY PREDICTED BY IDOCK:   -5.48 KCAL/MOL
REMARK 924 INTRA-LIGAND FREE ENERGY PREDICTED BY IDOCK:   -1.34 KCAL/MOL
REMARK 927      BINDING AFFINITY PREDICTED BY RF-SCORE:    0.00 PKD
ROOT
ATOM      1  N   GLY A   1      -7.489   9.343  71.158  1.00  0.00    -0.326 NA 
HETATM    2  C   UNL     1     -10.382  14.944  68.213  1.00  0.00    -0.232 C  
ATOM      3  H2  GLY A   1      -7.280   9.902  71.985  1.00  0.00     0.000 HD 
ATOM      4  H1  GLY A   1      -8.303   8.744  71.299  1.00  0.00     0.000 HD 
ATOM      5  CA  GLY A   1      -7.675  10.178  69.964  1.00  0.00    -0.136 C  
HETATM    6  C   UNL     1     -11.753  14.292  68.303  1.00  0.00    -0.377 C  
ENDROOT
BRANCH   5   7
ATOM      7  C   GLY A   1      -6.454  11.077  69.751  1.00  0.00    -0.137 C  
ATOM      8  H   GLY A   1      -5.484  11.829  68.223  1.00  0.00     0.000 HD 
ATOM      9  O   GLY A   1      -6.242  11.271  68.355  1.00  0.00    -0.046 OA 
ENDBRANCH   5   7
BRANCH   6  10
HETATM   10  C   UNL     1     -12.021  13.271  67.199  1.00  0.00    -0.400 C  
BRANCH  10  11
HETATM   11  C   UNL     1     -12.080  13.861  65.788  1.00  0.00    -0.449 C  
BRANCH  11  12
HETATM   12  C   UNL     1     -10.736  13.655  65.085  1.00  0.00    -0.359 C  
BRANCH  12  13
HETATM   13  C   UNL     1     -10.840  12.689  63.905  1.00  0.00    -0.468 C  
BRANCH  13  14
HETATM   14  C   UNL     1     -11.031  11.230  64.342  1.00  0.00    -0.331 C  
BRANCH  14  15
HETATM   15  C   UNL     1     -10.127  10.763  65.491  1.00  0.00    -0.335 C  
BRANCH  15  16
HETATM   16  C   UNL     1      -8.655  10.914  65.219  1.00  0.00    -0.103 C  
HETATM   17  C   UNL     1      -7.887   9.972  64.650  1.00  0.00    -0.145 C  
BRANCH  17  18
HETATM   18  C   UNL     1      -8.348   8.608  64.229  1.00  0.00    -0.138 C  
BRANCH  18  19
HETATM   19  C   UNL     1      -7.187   7.621  64.131  1.00  0.00    -0.080 C  
BRANCH  19  20
HETATM   20  C   UNL     1      -7.186   6.688  65.342  1.00  0.00    -0.073 C  
BRANCH  20  21
HETATM   21  C   UNL     1      -8.562   6.629  65.999  1.00  0.00    -0.152 C  
BRANCH  21  22
HETATM   22  C   UNL     1      -9.075   5.194  66.077  1.00  0.00    -0.149 C  
BRANCH  22  23
HETATM   23  C   UNL     1     -10.208   5.079  67.095  1.00  0.00    -0.234 C  
BRANCH  23  24
HETATM   24  C   UNL     1      -9.684   4.743  68.487  1.00  0.00    -0.215 C  
HETATM   25  C   UNL     1     -10.104   5.779  69.505  1.00  0.00    -0.214 C  
HETATM   26  O   UNL     1      -9.659   5.479  70.748  1.00  0.00    -0.160 OA 
HETATM   27  O   UNL     1     -10.767   6.772  69.273  1.00  0.00    -0.222 OA 
ENDBRANCH  23  24
ENDBRANCH  22  23
ENDBRANCH  21  22
ENDBRANCH  20  21
ENDBRANCH  19  20
ENDBRANCH  18  19
ENDBRANCH  17  18
ENDBRANCH  15  16
ENDBRANCH  14  15
ENDBRANCH  13  14
ENDBRANCH  12  13
ENDBRANCH  11  12
ENDBRANCH  10  11
ENDBRANCH   6  10
TORSDOF 15
ENDMDL
MODEL      456
REMARK 921   NORMALIZED FREE ENERGY PREDICTED BY IDOCK:   -2.57 KCAL/MOL
REMARK 922        TOTAL FREE ENERGY PREDICTED BY IDOCK:   -6.77 KCAL/MOL
REMARK 923 INTER-LIGAND FREE ENERGY PREDICTED BY IDOCK:   -4.80 KCAL/MOL
REMARK 924 INTRA-LIGAND FREE ENERGY PREDICTED BY IDOCK:   -1.97 KCAL/MOL
REMARK 927      BINDING AFFINITY PREDICTED BY RF-SCORE:    0.00 PKD
ROOT
ATOM      1  N   GLY A   1      -9.933   4.758  68.045  1.00  0.00    -0.124 NA 
HETATM    2  C   UNL     1      -8.143   8.773  62.652  1.00  0.00    -0.171 C  
ATOM      3  H2  GLY A   1      -9.002   4.342  68.028  1.00  0.00     0.000 HD 
ATOM      4  H1  GLY A   1     -10.027   5.448  68.790  1.00  0.00     0.000 HD 
ATOM      5  CA  GLY A   1     -10.291   5.355  66.752  1.00  0.00    -0.272 C  
HETATM    6  C   UNL     1      -8.196  10.005  63.541  1.00  0.00    -0.163 C  
ENDROOT
BRANCH   5   7
ATOM      7  C   GLY A   1     -10.149   4.319  65.633  1.00  0.00    -0.219 C  
ATOM      8  H   GLY A   1      -9.161   2.650  65.351  1.00  0.00     0.000 HD 
ATOM      9  O   GLY A   1      -9.249   3.293  66.045  1.00  0.00    -0.153 OA 
ENDBRANCH   5   7
BRANCH   6  10
HETATM   10  C   UNL     1      -9.611  10.531  63.778  1.00  0.00    -0.363 C  
BRANCH  10  11
HETATM   11  C   UNL     1      -9.869  11.040  65.199  1.00  0.00    -0.319 C  
BRANCH  11  12
HETATM   12  C   UNL     1      -8.985  10.277  66.190  1.00  0.00    -0.174 C  
BRANCH  12  13
HETATM   13  C   UNL     1      -8.400  11.190  67.266  1.00  0.00    -0.135 C  
BRANCH  13  14
HETATM   14  C   UNL     1      -7.766  10.413  68.428  1.00  0.00    -0.098 C  
BRANCH  14  15
HETATM   15  C   UNL     1      -8.309  10.752  69.822  1.00  0.00     0.336 C  
BRANCH  15  16
HETATM   16  C   UNL     1      -9.138   9.661  70.444  1.00  0.00    -0.245 C  
HETATM   17  C   UNL     1     -10.474   9.573  70.351  1.00  0.00    -0.336 C  
BRANCH  17  18
HETATM   18  C   UNL     1     -11.365  10.559  69.654  1.00  0.00    -0.345 C  
BRANCH  18  19
HETATM   19  C   UNL     1     -12.299  11.269  70.631  1.00  0.00    -0.477 C  
BRANCH  19  20
HETATM   20  C   UNL     1     -12.525  12.714  70.187  1.00  0.00    -0.099 C  
BRANCH  20  21
HETATM   21  C   UNL     1     -11.208  13.477  70.086  1.00  0.00     0.187 C  
BRANCH  21  22
HETATM   22  C   UNL     1     -10.955  13.954  68.659  1.00  0.00    -0.281 C  
BRANCH  22  23
HETATM   23  C   UNL     1      -9.584  14.615  68.544  1.00  0.00    -0.221 C  
BRANCH  23  24
HETATM   24  C   UNL     1      -9.375  15.247  67.171  1.00  0.00    -0.227 C  
HETATM   25  C   UNL     1      -8.833  16.654  67.283  1.00  0.00    -0.192 C  
HETATM   26  O   UNL     1      -8.628  17.217  66.070  1.00  0.00    -0.479 OA 
HETATM   27  O   UNL     1      -8.594  17.241  68.322  1.00  0.00    -0.231 OA 
ENDBRANCH  23  24
ENDBRANCH  22  23
ENDBRANCH  21  22
ENDBRANCH  20  21
ENDBRANCH  19  20
ENDBRANCH  18  19
ENDBRANCH  17  18
ENDBRANCH  15  16
ENDBRANCH  14  15
ENDBRANCH  13  14
ENDBRANCH  12  13
ENDBRANCH  11  12
ENDBRANCH  10  11
ENDBRANCH   6  10
TORSDOF 15
ENDMDL
MODEL      457
REMARK 921   NORMALIZED FREE ENERGY PREDICTED BY IDOCK:   -2.54 KCAL/MOL
REMARK 922        TOTAL FREE ENERGY PREDICTED BY IDOCK:   -6.71 KCAL/MOL
REMARK 923 INTER-LIGAND FREE ENERGY PREDICTED BY IDOCK:   -4.75 KCAL/MOL
REMARK 924 INTRA-LIGAND FREE ENERGY PREDICTED BY IDOCK:   -1.96 KCAL/MOL
REMARK 927      BINDING AFFINITY PREDICTED BY RF-SCORE:    0.00 PKD
ROOT
ATOM      1  N   GLY A   1     -12.078  11.771  68.856  1.00  0.00    -0.341 NA 
HETATM    2  C   UNL     1      -6.831   9.248  65.045  1.00  0.00    -0.086 C  
ATOM      3  H2  GLY A   1     -11.399  12.223  69.468  1.00  0.00     0.000 HD 
ATOM      4  H1  GLY A   1     -12.503  12.431  68.206  1.00  0.00     0.000 HD 
ATOM      5  CA  GLY A   1     -11.489  10.643  68.123  1.00  0.00    -0.228 C  
HETATM    6  C   UNL     1      -7.233  10.145  63.885  1.00  0.00    -0.103 C  
ENDROOT
BRANCH   5   7
ATOM      7  C   GLY A   1     -10.850   9.651  69.099  1.00  0.00    -0.190 C  
ATOM      8  H   GLY A   1      -9.993   7.892  68.991  1.00  0.00     0.000 HD 
ATOM      9  O   GLY A   1     -10.390   8.507  68.385  1.00  0.00    -0.206 OA 
ENDBRANCH   5   7
BRANCH   6  10
HETATM   10  C   UNL     1      -8.408   9.605  63.070  1.00  0.00    -0.168 C  
BRANCH  10  11
HETATM   11  C   UNL     1      -9.763  10.225  63.422  1.00  0.00    -0.243 C  
BRANCH  11  12
HETATM   12  C   UNL     1      -9.744  11.723  63.104  1.00  0.00    -0.321 C  
BRANCH  12  13
HETATM   13  C   UNL     1     -10.631  12.528  64.053  1.00  0.00    -0.451 C  
BRANCH  13  14
HETATM   14  C   UNL     1     -10.175  12.442  65.516  1.00  0.00    -0.297 C  
BRANCH  14  15
HETATM   15  C   UNL     1      -9.655  13.751  66.122  1.00  0.00    -0.234 C  
BRANCH  15  16
HETATM   16  C   UNL     1      -9.383  13.682  67.600  1.00  0.00    -0.215 C  
HETATM   17  C   UNL     1      -8.466  12.884  68.168  1.00  0.00    -0.176 C  
BRANCH  17  18
HETATM   18  C   UNL     1      -7.592  11.904  67.441  1.00  0.00    -0.151 C  
BRANCH  18  19
HETATM   19  C   UNL     1      -7.405  10.614  68.234  1.00  0.00    -0.089 C  
BRANCH  19  20
HETATM   20  C   UNL     1      -7.003  10.934  69.674  1.00  0.00    -0.128 C  
BRANCH  20  21
HETATM   21  C   UNL     1      -7.434   9.827  70.630  1.00  0.00    -0.050 C  
BRANCH  21  22
HETATM   22  C   UNL     1      -7.163   8.447  70.036  1.00  0.00    -0.054 C  
BRANCH  22  23
HETATM   23  C   UNL     1      -7.885   7.364  70.833  1.00  0.00    -0.096 C  
BRANCH  23  24
HETATM   24  C   UNL     1      -8.793   7.961  71.904  1.00  0.00    -0.171 C  
HETATM   25  C   UNL     1     -10.175   7.350  71.866  1.00  0.00    -0.187 C  
HETATM   26  O   UNL     1     -10.982   7.861  72.825  1.00  0.00    -0.344 OA 
HETATM   27  O   UNL     1     -10.551   6.497  71.086  1.00  0.00    -0.219 OA 
ENDBRANCH  23  24
ENDBRANCH  22  23
ENDBRANCH  21  22
ENDBRANCH  20  21
ENDBRANCH  19  20
ENDBRANCH  18  19
ENDBRANCH  17  18
ENDBRANCH  15  16
ENDBRANCH  14  15
ENDBRANCH  13  14
ENDBRANCH  12  13
ENDBRANCH  11  12
ENDBRANCH  10  11
ENDBRANCH   6  10
TORSDOF 15
ENDMDL
MODEL      458
REMARK 921   NORMALIZED FREE ENERGY PREDICTED BY IDOCK:   -2.54 KCAL/MOL
REMARK 922        TOTAL FREE ENERGY PREDICTED BY IDOCK:   -6.71 KCAL/MOL
REMARK 923 INTER-LIGAND FREE ENERGY PREDICTED BY IDOCK:   -5.35 KCAL/MOL
REMARK 924 INTRA-LIGAND FREE ENERGY PREDICTED BY IDOCK:   -1.35 KCAL/MOL
REMARK 927      BINDING AFFINITY PREDICTED BY RF-SCORE:    0.00 PKD
ROOT
ATOM      1  N   GLY A   1     -11.456  16.292  63.722  1.00  0.00    -1.429 NA 
HETATM    2  C   UNL     1      -6.554  13.474  67.777  1.00  0.00    -0.175 C  
ATOM      3  H2  GLY A   1     -10.727  16.779  63.201  1.00  0.00     0.000 HD 
ATOM      4  H1  GLY A   1     -11.801  15.474  63.221  1.00  0.00     0.000 HD 
ATOM      5  CA  GLY A   1     -11.007  15.911  65.068  1.00  0.00    -0.412 C  
HETATM    6  C   UNL     1      -6.848  12.102  67.191  1.00  0.00    -0.119 C  
ENDROOT
BRANCH   5   7
ATOM      7  C   GLY A   1     -10.490  17.139  65.822  1.00  0.00    -0.233 C  
ATOM      8  H   GLY A   1      -8.744  17.920  66.249  1.00  0.00     0.000 HD 
ATOM      9  O   GLY A   1      -9.065  17.158  65.781  1.00  0.00    -0.525 OA 
ENDBRANCH   5   7
BRANCH   6  10
HETATM   10  C   UNL     1      -8.080  11.428  67.794  1.00  0.00    -0.121 C  
BRANCH  10  11
HETATM   11  C   UNL     1      -7.915   9.930  68.065  1.00  0.00    -0.100 C  
BRANCH  11  12
HETATM   12  C   UNL     1      -8.974   9.144  67.288  1.00  0.00    -0.136 C  
BRANCH  12  13
HETATM   13  C   UNL     1      -9.408   9.862  66.011  1.00  0.00    -0.240 C  
BRANCH  13  14
HETATM   14  C   UNL     1      -8.314   9.884  64.935  1.00  0.00    -0.154 C  
BRANCH  14  15
HETATM   15  C   UNL     1      -7.984   8.526  64.303  1.00  0.00    -0.149 C  
BRANCH  15  16
HETATM   16  C   UNL     1      -6.530   8.147  64.378  1.00  0.00    -0.065 C  
HETATM   17  C   UNL     1      -6.033   7.185  65.172  1.00  0.00    -0.037 C  
BRANCH  17  18
HETATM   18  C   UNL     1      -6.828   6.360  66.142  1.00  0.00    -0.057 C  
BRANCH  18  19
HETATM   19  C   UNL     1      -5.931   5.668  67.165  1.00  0.00    -0.018 C  
BRANCH  19  20
HETATM   20  C   UNL     1      -6.647   4.455  67.758  1.00  0.00    -0.046 C  
BRANCH  20  21
HETATM   21  C   UNL     1      -8.088   4.789  68.132  1.00  0.00    -0.085 C  
BRANCH  21  22
HETATM   22  C   UNL     1      -8.476   4.146  69.461  1.00  0.00    -0.093 C  
BRANCH  22  23
HETATM   23  C   UNL     1      -9.495   5.008  70.202  1.00  0.00    -0.234 C  
BRANCH  23  24
HETATM   24  C   UNL     1      -9.428   6.466  69.760  1.00  0.00    -0.160 C  
HETATM   25  C   UNL     1     -10.637   7.245  70.225  1.00  0.00    -0.229 C  
HETATM   26  O   UNL     1     -10.578   8.545  69.853  1.00  0.00    -0.223 OA 
HETATM   27  O   UNL     1     -11.568   6.792  70.864  1.00  0.00    -0.311 OA 
ENDBRANCH  23  24
ENDBRANCH  22  23
ENDBRANCH  21  22
ENDBRANCH  20  21
ENDBRANCH  19  20
ENDBRANCH  18  19
ENDBRANCH  17  18
ENDBRANCH  15  16
ENDBRANCH  14  15
ENDBRANCH  13  14
ENDBRANCH  12  13
ENDBRANCH  11  12
ENDBRANCH  10  11
ENDBRANCH   6  10
TORSDOF 15
ENDMDL
MODEL      459
REMARK 921   NORMALIZED FREE ENERGY PREDICTED BY IDOCK:   -2.52 KCAL/MOL
REMARK 922        TOTAL FREE ENERGY PREDICTED BY IDOCK:   -6.68 KCAL/MOL
REMARK 923 INTER-LIGAND FREE ENERGY PREDICTED BY IDOCK:   -5.43 KCAL/MOL
REMARK 924 INTRA-LIGAND FREE ENERGY PREDICTED BY IDOCK:   -1.26 KCAL/MOL
REMARK 927      BINDING AFFINITY PREDICTED BY RF-SCORE:    0.00 PKD
ROOT
ATOM      1  N   GLY A   1     -10.127   9.882  68.951  1.00  0.00    -0.176 NA 
HETATM    2  C   UNL     1      -5.513   4.699  69.464  1.00  0.00    -0.008 C  
ATOM      3  H2  GLY A   1      -9.395  10.478  68.564  1.00  0.00     0.000 HD 
ATOM      4  H1  GLY A   1     -10.751   9.528  68.227  1.00  0.00     0.000 HD 
ATOM      5  CA  GLY A   1      -9.572   8.769  69.732  1.00  0.00    -0.172 C  
HETATM    6  C   UNL     1      -6.247   3.928  68.379  1.00  0.00    -0.032 C  
ENDROOT
BRANCH   5   7
ATOM      7  C   GLY A   1      -8.634   9.301  70.819  1.00  0.00    -0.203 C  
ATOM      8  H   GLY A   1      -6.710   9.624  71.011  1.00  0.00     0.000 HD 
ATOM      9  O   GLY A   1      -7.292   9.294  70.337  1.00  0.00    -0.080 OA 
ENDBRANCH   5   7
BRANCH   6  10
HETATM   10  C   UNL     1      -7.492   3.197  68.880  1.00  0.00    -0.048 C  
BRANCH  10  11
HETATM   11  C   UNL     1      -8.370   2.606  67.774  1.00  0.00    -0.094 C  
BRANCH  11  12
HETATM   12  C   UNL     1      -8.948   3.733  66.914  1.00  0.00    -0.154 C  
BRANCH  12  13
HETATM   13  C   UNL     1      -8.193   3.904  65.597  1.00  0.00    -0.105 C  
BRANCH  13  14
HETATM   14  C   UNL     1      -8.772   5.020  64.717  1.00  0.00    -0.149 C  
BRANCH  14  15
HETATM   15  C   UNL     1      -8.214   6.424  64.981  1.00  0.00    -0.125 C  
BRANCH  15  16
HETATM   16  C   UNL     1      -9.073   7.271  65.880  1.00  0.00    -0.064 C  
HETATM   17  C   UNL     1      -9.069   8.613  65.893  1.00  0.00    -0.259 C  
BRANCH  17  18
HETATM   18  C   UNL     1      -8.187   9.490  65.053  1.00  0.00    -0.137 C  
BRANCH  18  19
HETATM   19  C   UNL     1      -8.839  10.840  64.765  1.00  0.00    -0.162 C  
BRANCH  19  20
HETATM   20  C   UNL     1     -10.303  10.822  65.202  1.00  0.00    -0.341 C  
BRANCH  20  21
HETATM   21  C   UNL     1     -10.814  12.230  65.489  1.00  0.00    -0.319 C  
BRANCH  21  22
HETATM   22  C   UNL     1     -10.058  12.866  66.652  1.00  0.00    -0.247 C  
BRANCH  22  23
HETATM   23  C   UNL     1     -10.553  14.287  66.908  1.00  0.00    -0.273 C  
BRANCH  23  24
HETATM   24  C   UNL     1     -11.274  14.860  65.692  1.00  0.00    -0.347 C  
HETATM   25  C   UNL     1     -10.574  16.090  65.159  1.00  0.00    -0.370 C  
HETATM   26  O   UNL     1     -11.197  16.595  64.069  1.00  0.00    -1.052 OA 
HETATM   27  O   UNL     1      -9.568  16.590  65.625  1.00  0.00    -0.511 OA 
ENDBRANCH  23  24
ENDBRANCH  22  23
ENDBRANCH  21  22
ENDBRANCH  20  21
ENDBRANCH  19  20
ENDBRANCH  18  19
ENDBRANCH  17  18
ENDBRANCH  15  16
ENDBRANCH  14  15
ENDBRANCH  13  14
ENDBRANCH  12  13
ENDBRANCH  11  12
ENDBRANCH  10  11
ENDBRANCH   6  10
TORSDOF 15
ENDMDL
MODEL      460
REMARK 921   NORMALIZED FREE ENERGY PREDICTED BY IDOCK:   -2.52 KCAL/MOL
REMARK 922        TOTAL FREE ENERGY PREDICTED BY IDOCK:   -6.68 KCAL/MOL
REMARK 923 INTER-LIGAND FREE ENERGY PREDICTED BY IDOCK:   -5.74 KCAL/MOL
REMARK 924 INTRA-LIGAND FREE ENERGY PREDICTED BY IDOCK:   -0.94 KCAL/MOL
REMARK 927      BINDING AFFINITY PREDICTED BY RF-SCORE:    0.00 PKD
ROOT
ATOM      1  N   GLY A   1      -8.035   8.611  74.076  1.00  0.00    -0.388 NA 
HETATM    2  C   UNL     1      -9.303   2.949  70.235  1.00  0.00    -0.219 C  
ATOM      3  H2  GLY A   1      -7.543   8.027  74.752  1.00  0.00     0.000 HD 
ATOM      4  H1  GLY A   1      -7.389   9.124  73.476  1.00  0.00     0.000 HD 
ATOM      5  CA  GLY A   1      -8.977   7.833  73.261  1.00  0.00    -0.231 C  
HETATM    6  C   UNL     1      -8.371   3.467  69.151  1.00  0.00    -0.083 C  
ENDROOT
BRANCH   5   7
ATOM      7  C   GLY A   1      -9.946   7.062  74.162  1.00  0.00    -0.268 C  
ATOM      8  H   GLY A   1     -11.823   6.505  74.092  1.00  0.00     0.000 HD 
ATOM      9  O   GLY A   1     -11.222   6.983  73.533  1.00  0.00    -0.131 OA 
ENDBRANCH   5   7
BRANCH   6  10
HETATM   10  C   UNL     1      -9.007   4.523  68.247  1.00  0.00    -0.143 C  
BRANCH  10  11
HETATM   11  C   UNL     1      -9.606   3.971  66.951  1.00  0.00    -0.232 C  
BRANCH  11  12
HETATM   12  C   UNL     1      -8.829   4.515  65.749  1.00  0.00    -0.124 C  
BRANCH  12  13
HETATM   13  C   UNL     1      -7.943   5.703  66.121  1.00  0.00    -0.106 C  
BRANCH  13  14
HETATM   14  C   UNL     1      -8.509   7.046  65.639  1.00  0.00    -0.144 C  
BRANCH  14  15
HETATM   15  C   UNL     1      -7.495   7.991  64.983  1.00  0.00    -0.087 C  
BRANCH  15  16
HETATM   16  C   UNL     1      -8.097   8.959  64.001  1.00  0.00    -0.161 C  
HETATM   17  C   UNL     1      -8.725  10.095  64.342  1.00  0.00    -0.217 C  
BRANCH  17  18
HETATM   18  C   UNL     1      -8.969  10.570  65.744  1.00  0.00    -0.199 C  
BRANCH  18  19
HETATM   19  C   UNL     1     -10.421  10.367  66.168  1.00  0.00    -0.224 C  
BRANCH  19  20
HETATM   20  C   UNL     1     -11.215  11.657  65.962  1.00  0.00    -0.299 C  
BRANCH  20  21
HETATM   21  C   UNL     1     -10.290  12.859  65.801  1.00  0.00    -0.297 C  
BRANCH  21  22
HETATM   22  C   UNL     1     -10.708  13.721  64.613  1.00  0.00    -0.427 C  
BRANCH  22  23
HETATM   23  C   UNL     1     -11.270  15.059  65.087  1.00  0.00    -0.391 C  
BRANCH  23  24
HETATM   24  C   UNL     1     -10.435  15.654  66.216  1.00  0.00    -0.313 C  
HETATM   25  C   UNL     1     -10.164  17.124  65.993  1.00  0.00    -0.321 C  
HETATM   26  O   UNL     1      -9.439  17.665  66.999  1.00  0.00    -0.252 OA 
HETATM   27  O   UNL     1     -10.541  17.777  65.038  1.00  0.00    -0.487 OA 
ENDBRANCH  23  24
ENDBRANCH  22  23
ENDBRANCH  21  22
ENDBRANCH  20  21
ENDBRANCH  19  20
ENDBRANCH  18  19
ENDBRANCH  17  18
ENDBRANCH  15  16
ENDBRANCH  14  15
ENDBRANCH  13  14
ENDBRANCH  12  13
ENDBRANCH  11  12
ENDBRANCH  10  11
ENDBRANCH   6  10
TORSDOF 15
ENDMDL
MODEL      461
REMARK 921   NORMALIZED FREE ENERGY PREDICTED BY IDOCK:   -2.52 KCAL/MOL
REMARK 922        TOTAL FREE ENERGY PREDICTED BY IDOCK:   -6.67 KCAL/MOL
REMARK 923 INTER-LIGAND FREE ENERGY PREDICTED BY IDOCK:   -5.23 KCAL/MOL
REMARK 924 INTRA-LIGAND FREE ENERGY PREDICTED BY IDOCK:   -1.44 KCAL/MOL
REMARK 927      BINDING AFFINITY PREDICTED BY RF-SCORE:    0.00 PKD
ROOT
ATOM      1  N   GLY A   1     -13.569   6.582  72.291  1.00  0.00    -0.416 NA 
HETATM    2  C   UNL     1     -10.275   8.486  66.465  1.00  0.00    -0.286 C  
ATOM      3  H2  GLY A   1     -14.298   6.150  71.722  1.00  0.00     0.000 HD 
ATOM      4  H1  GLY A   1     -12.925   5.890  72.673  1.00  0.00     0.000 HD 
ATOM      5  CA  GLY A   1     -12.829   7.609  71.546  1.00  0.00    -0.344 C  
HETATM    6  C   UNL     1      -9.148   7.513  66.776  1.00  0.00    -0.176 C  
ENDROOT
BRANCH   5   7
ATOM      7  C   GLY A   1     -13.798   8.648  70.972  1.00  0.00     0.093 C  
ATOM      8  H   GLY A   1     -14.005  10.595  71.039  1.00  0.00     0.000 HD 
ATOM      9  O   GLY A   1     -13.405   9.951  71.395  1.00  0.00    -0.383 OA 
ENDBRANCH   5   7
BRANCH   6  10
HETATM   10  C   UNL     1      -8.148   8.040  67.805  1.00  0.00    -0.128 C  
BRANCH  10  11
HETATM   11  C   UNL     1      -8.620   7.940  69.257  1.00  0.00    -0.138 C  
BRANCH  11  12
HETATM   12  C   UNL     1      -8.887   9.342  69.811  1.00  0.00    -0.193 C  
BRANCH  12  13
HETATM   13  C   UNL     1     -10.309   9.820  69.521  1.00  0.00    -0.247 C  
BRANCH  13  14
HETATM   14  C   UNL     1     -10.404  11.342  69.343  1.00  0.00    -0.037 C  
BRANCH  14  15
HETATM   15  C   UNL     1     -10.621  11.825  67.904  1.00  0.00    -0.231 C  
BRANCH  15  16
HETATM   16  C   UNL     1      -9.382  11.803  67.052  1.00  0.00    -0.187 C  
HETATM   17  C   UNL     1      -8.372  12.681  67.156  1.00  0.00    -0.172 C  
BRANCH  17  18
HETATM   18  C   UNL     1      -8.323  13.845  68.101  1.00  0.00    -0.163 C  
BRANCH  18  19
HETATM   19  C   UNL     1      -6.957  13.975  68.772  1.00  0.00    -0.106 C  
BRANCH  19  20
HETATM   20  C   UNL     1      -6.044  14.873  67.938  1.00  0.00    -0.169 C  
BRANCH  20  21
HETATM   21  C   UNL     1      -6.389  16.347  68.129  1.00  0.00    -0.139 C  
BRANCH  21  22
HETATM   22  C   UNL     1      -6.796  16.994  66.809  1.00  0.00    -0.265 C  
BRANCH  22  23
HETATM   23  C   UNL     1      -7.347  18.399  67.042  1.00  0.00    -0.223 C  
BRANCH  23  24
HETATM   24  C   UNL     1      -8.757  18.551  66.479  1.00  0.00    -0.296 C  
HETATM   25  C   UNL     1      -9.269  19.965  66.637  1.00  0.00    -0.385 C  
HETATM   26  O   UNL     1     -10.512  20.115  66.124  1.00  0.00    -0.417 OA 
HETATM   27  O   UNL     1      -8.662  20.885  67.153  1.00  0.00    -0.221 OA 
ENDBRANCH  23  24
ENDBRANCH  22  23
ENDBRANCH  21  22
ENDBRANCH  20  21
ENDBRANCH  19  20
ENDBRANCH  18  19
ENDBRANCH  17  18
ENDBRANCH  15  16
ENDBRANCH  14  15
ENDBRANCH  13  14
ENDBRANCH  12  13
ENDBRANCH  11  12
ENDBRANCH  10  11
ENDBRANCH   6  10
TORSDOF 15
ENDMDL
MODEL      462
REMARK 921   NORMALIZED FREE ENERGY PREDICTED BY IDOCK:   -2.51 KCAL/MOL
REMARK 922        TOTAL FREE ENERGY PREDICTED BY IDOCK:   -6.66 KCAL/MOL
REMARK 923 INTER-LIGAND FREE ENERGY PREDICTED BY IDOCK:   -4.20 KCAL/MOL
REMARK 924 INTRA-LIGAND FREE ENERGY PREDICTED BY IDOCK:   -2.46 KCAL/MOL
REMARK 927      BINDING AFFINITY PREDICTED BY RF-SCORE:    0.00 PKD
ROOT
ATOM      1  N   GLY A   1      -9.643   9.076  65.130  1.00  0.00    -0.421 NA 
HETATM    2  C   UNL     1      -6.101   9.703  71.085  1.00  0.00    -0.060 C  
ATOM      3  H2  GLY A   1      -8.961   9.684  64.675  1.00  0.00     0.000 HD 
ATOM      4  H1  GLY A   1      -9.489   8.094  64.903  1.00  0.00     0.000 HD 
ATOM      5  CA  GLY A   1      -9.661   9.265  66.586  1.00  0.00    -0.204 C  
HETATM    6  C   UNL     1      -5.696   8.239  71.007  1.00  0.00    -0.033 C  
ENDROOT
BRANCH   5   7
ATOM      7  C   GLY A   1      -9.893  10.740  66.927  1.00  0.00    -0.187 C  
ATOM      8  H   GLY A   1     -11.419  11.967  66.986  1.00  0.00     0.000 HD 
ATOM      9  O   GLY A   1     -11.275  11.052  66.775  1.00  0.00    -0.264 OA 
ENDBRANCH   5   7
BRANCH   6  10
HETATM   10  C   UNL     1      -6.786   7.274  71.472  1.00  0.00    -0.055 C  
BRANCH  10  11
HETATM   11  C   UNL     1      -6.704   6.889  72.951  1.00  0.00    -0.069 C  
BRANCH  11  12
HETATM   12  C   UNL     1      -7.847   7.554  73.723  1.00  0.00    -0.163 C  
BRANCH  12  13
HETATM   13  C   UNL     1      -9.199   6.906  73.428  1.00  0.00    -0.170 C  
BRANCH  13  14
HETATM   14  C   UNL     1     -10.305   7.932  73.143  1.00  0.00    -0.357 C  
BRANCH  14  15
HETATM   15  C   UNL     1     -10.549   8.243  71.661  1.00  0.00    -0.306 C  
BRANCH  15  16
HETATM   16  C   UNL     1     -11.687   7.473  71.048  1.00  0.00    -0.317 C  
HETATM   17  C   UNL     1     -11.544   6.349  70.329  1.00  0.00    -0.451 C  
BRANCH  17  18
HETATM   18  C   UNL     1     -10.239   5.695  69.982  1.00  0.00    -0.321 C  
BRANCH  18  19
HETATM   19  C   UNL     1      -9.433   6.530  68.989  1.00  0.00    -0.130 C  
BRANCH  19  20
HETATM   20  C   UNL     1      -8.105   5.841  68.678  1.00  0.00    -0.101 C  
BRANCH  20  21
HETATM   21  C   UNL     1      -7.623   6.173  67.269  1.00  0.00    -0.093 C  
BRANCH  21  22
HETATM   22  C   UNL     1      -6.218   6.768  67.292  1.00  0.00    -0.036 C  
BRANCH  22  23
HETATM   23  C   UNL     1      -6.088   7.890  66.264  1.00  0.00    -0.045 C  
BRANCH  23  24
HETATM   24  C   UNL     1      -5.974   9.257  66.932  1.00  0.00    -0.060 C  
HETATM   25  C   UNL     1      -6.276  10.376  65.962  1.00  0.00    -0.110 C  
HETATM   26  O   UNL     1      -6.196  11.593  66.550  1.00  0.00    -0.122 OA 
HETATM   27  O   UNL     1      -6.564  10.238  64.789  1.00  0.00    -0.128 OA 
ENDBRANCH  23  24
ENDBRANCH  22  23
ENDBRANCH  21  22
ENDBRANCH  20  21
ENDBRANCH  19  20
ENDBRANCH  18  19
ENDBRANCH  17  18
ENDBRANCH  15  16
ENDBRANCH  14  15
ENDBRANCH  13  14
ENDBRANCH  12  13
ENDBRANCH  11  12
ENDBRANCH  10  11
ENDBRANCH   6  10
TORSDOF 15
ENDMDL
MODEL      463
REMARK 921   NORMALIZED FREE ENERGY PREDICTED BY IDOCK:   -2.51 KCAL/MOL
REMARK 922        TOTAL FREE ENERGY PREDICTED BY IDOCK:   -6.66 KCAL/MOL
REMARK 923 INTER-LIGAND FREE ENERGY PREDICTED BY IDOCK:   -4.91 KCAL/MOL
REMARK 924 INTRA-LIGAND FREE ENERGY PREDICTED BY IDOCK:   -1.74 KCAL/MOL
REMARK 927      BINDING AFFINITY PREDICTED BY RF-SCORE:    0.00 PKD
ROOT
ATOM      1  N   GLY A   1     -12.039  14.793  67.276  1.00  0.00    -0.476 NA 
HETATM    2  C   UNL     1      -5.728  14.582  70.199  1.00  0.00    -0.129 C  
ATOM      3  H2  GLY A   1     -12.020  15.810  67.340  1.00  0.00     0.000 HD 
ATOM      4  H1  GLY A   1     -11.836  14.467  66.331  1.00  0.00     0.000 HD 
ATOM      5  CA  GLY A   1     -11.121  14.166  68.236  1.00  0.00    -0.254 C  
HETATM    6  C   UNL     1      -5.131  14.086  68.892  1.00  0.00    -0.076 C  
ENDROOT
BRANCH   5   7
ATOM      7  C   GLY A   1     -11.425  14.655  69.655  1.00  0.00    -0.289 C  
ATOM      8  H   GLY A   1     -12.476  16.091  70.475  1.00  0.00     0.000 HD 
ATOM      9  O   GLY A   1     -12.288  15.788  69.595  1.00  0.00    -0.294 OA 
ENDBRANCH   5   7
BRANCH   6  10
HETATM   10  C   UNL     1      -5.338  12.591  68.650  1.00  0.00    -0.058 C  
BRANCH  10  11
HETATM   11  C   UNL     1      -5.662  11.783  69.909  1.00  0.00    -0.122 C  
BRANCH  11  12
HETATM   12  C   UNL     1      -7.007  11.071  69.734  1.00  0.00    -0.092 C  
BRANCH  12  13
HETATM   13  C   UNL     1      -7.780  11.583  68.520  1.00  0.00    -0.134 C  
BRANCH  13  14
HETATM   14  C   UNL     1      -7.929  10.527  67.416  1.00  0.00    -0.110 C  
BRANCH  14  15
HETATM   15  C   UNL     1      -9.370  10.123  67.080  1.00  0.00    -0.176 C  
BRANCH  15  16
HETATM   16  C   UNL     1      -9.481   9.014  66.070  1.00  0.00    -0.323 C  
HETATM   17  C   UNL     1      -9.840   7.754  66.360  1.00  0.00    -0.198 C  
BRANCH  17  18
HETATM   18  C   UNL     1     -10.148   7.229  67.732  1.00  0.00    -0.225 C  
BRANCH  18  19
HETATM   19  C   UNL     1      -8.878   6.905  68.515  1.00  0.00    -0.124 C  
BRANCH  19  20
HETATM   20  C   UNL     1      -9.167   6.919  70.016  1.00  0.00    -0.155 C  
BRANCH  20  21
HETATM   21  C   UNL     1      -9.855   8.213  70.438  1.00  0.00    -0.188 C  
BRANCH  21  22
HETATM   22  C   UNL     1     -10.948   7.947  71.468  1.00  0.00    -0.269 C  
BRANCH  22  23
HETATM   23  C   UNL     1     -11.385   6.484  71.428  1.00  0.00    -0.344 C  
BRANCH  23  24
HETATM   24  C   UNL     1     -11.403   5.864  72.822  1.00  0.00    -0.305 C  
HETATM   25  C   UNL     1     -10.753   4.499  72.831  1.00  0.00    -0.208 C  
HETATM   26  O   UNL     1     -10.748   3.948  74.068  1.00  0.00    -0.202 OA 
HETATM   27  O   UNL     1     -10.276   3.934  71.865  1.00  0.00    -0.161 OA 
ENDBRANCH  23  24
ENDBRANCH  22  23
ENDBRANCH  21  22
ENDBRANCH  20  21
ENDBRANCH  19  20
ENDBRANCH  18  19
ENDBRANCH  17  18
ENDBRANCH  15  16
ENDBRANCH  14  15
ENDBRANCH  13  14
ENDBRANCH  12  13
ENDBRANCH  11  12
ENDBRANCH  10  11
ENDBRANCH   6  10
TORSDOF 15
ENDMDL
MODEL      464
REMARK 921   NORMALIZED FREE ENERGY PREDICTED BY IDOCK:   -2.51 KCAL/MOL
REMARK 922        TOTAL FREE ENERGY PREDICTED BY IDOCK:   -6.65 KCAL/MOL
REMARK 923 INTER-LIGAND FREE ENERGY PREDICTED BY IDOCK:   -4.67 KCAL/MOL
REMARK 924 INTRA-LIGAND FREE ENERGY PREDICTED BY IDOCK:   -1.98 KCAL/MOL
REMARK 927      BINDING AFFINITY PREDICTED BY RF-SCORE:    0.00 PKD
ROOT
ATOM      1  N   GLY A   1     -10.869  12.361  65.244  1.00  0.00    -0.281 NA 
HETATM    2  C   UNL     1      -7.936   9.331  70.778  1.00  0.00    -0.187 C  
ATOM      3  H2  GLY A   1     -10.014  12.897  65.100  1.00  0.00     0.000 HD 
ATOM      4  H1  GLY A   1     -10.940  11.577  64.596  1.00  0.00     0.000 HD 
ATOM      5  CA  GLY A   1     -10.994  11.888  66.629  1.00  0.00    -0.291 C  
HETATM    6  C   UNL     1      -7.901   8.001  70.041  1.00  0.00    -0.104 C  
ENDROOT
BRANCH   5   7
ATOM      7  C   GLY A   1     -10.888  13.066  67.602  1.00  0.00    -0.239 C  
ATOM      8  H   GLY A   1     -12.120  14.333  68.449  1.00  0.00     0.000 HD 
ATOM      9  O   GLY A   1     -12.186  13.602  67.846  1.00  0.00    -0.320 OA 
ENDBRANCH   5   7
BRANCH   6  10
HETATM   10  C   UNL     1      -9.240   7.264  70.040  1.00  0.00    -0.148 C  
BRANCH  10  11
HETATM   11  C   UNL     1     -10.426   8.102  69.557  1.00  0.00    -0.227 C  
BRANCH  11  12
HETATM   12  C   UNL     1     -10.195   8.536  68.107  1.00  0.00    -0.254 C  
BRANCH  12  13
HETATM   13  C   UNL     1     -10.646   7.474  67.105  1.00  0.00    -0.415 C  
BRANCH  13  14
HETATM   14  C   UNL     1      -9.475   6.812  66.367  1.00  0.00    -0.166 C  
BRANCH  14  15
HETATM   15  C   UNL     1      -8.484   7.777  65.704  1.00  0.00    -0.153 C  
BRANCH  15  16
HETATM   16  C   UNL     1      -7.094   7.725  66.276  1.00  0.00    -0.070 C  
HETATM   17  C   UNL     1      -6.388   8.800  66.659  1.00  0.00    -0.059 C  
BRANCH  17  18
HETATM   18  C   UNL     1      -6.842  10.226  66.545  1.00  0.00    -0.101 C  
BRANCH  18  19
HETATM   19  C   UNL     1      -5.978  11.165  67.384  1.00  0.00    -0.057 C  
BRANCH  19  20
HETATM   20  C   UNL     1      -6.852  12.218  68.064  1.00  0.00    -0.082 C  
BRANCH  20  21
HETATM   21  C   UNL     1      -6.179  13.587  68.060  1.00  0.00    -0.136 C  
BRANCH  21  22
HETATM   22  C   UNL     1      -6.871  14.546  69.024  1.00  0.00    -0.109 C  
BRANCH  22  23
HETATM   23  C   UNL     1      -6.852  15.971  68.477  1.00  0.00    -0.129 C  
BRANCH  23  24
HETATM   24  C   UNL     1      -8.106  16.280  67.664  1.00  0.00    -0.161 C  
HETATM   25  C   UNL     1      -7.768  16.960  66.357  1.00  0.00    -0.310 C  
HETATM   26  O   UNL     1      -8.873  17.221  65.620  1.00  0.00    -0.476 OA 
HETATM   27  O   UNL     1      -6.649  17.249  65.978  1.00  0.00    -0.200 OA 
ENDBRANCH  23  24
ENDBRANCH  22  23
ENDBRANCH  21  22
ENDBRANCH  20  21
ENDBRANCH  19  20
ENDBRANCH  18  19
ENDBRANCH  17  18
ENDBRANCH  15  16
ENDBRANCH  14  15
ENDBRANCH  13  14
ENDBRANCH  12  13
ENDBRANCH  11  12
ENDBRANCH  10  11
ENDBRANCH   6  10
TORSDOF 15
ENDMDL
MODEL      465
REMARK 921   NORMALIZED FREE ENERGY PREDICTED BY IDOCK:   -2.49 KCAL/MOL
REMARK 922        TOTAL FREE ENERGY PREDICTED BY IDOCK:   -6.63 KCAL/MOL
REMARK 923 INTER-LIGAND FREE ENERGY PREDICTED BY IDOCK:   -5.58 KCAL/MOL
REMARK 924 INTRA-LIGAND FREE ENERGY PREDICTED BY IDOCK:   -1.05 KCAL/MOL
REMARK 927      BINDING AFFINITY PREDICTED BY RF-SCORE:    0.00 PKD
ROOT
ATOM      1  N   GLY A   1     -14.411  15.038  71.506  1.00  0.00    -0.551 NA 
HETATM    2  C   UNL     1      -9.915  14.687  66.207  1.00  0.00    -0.306 C  
ATOM      3  H2  GLY A   1     -14.763  15.919  71.132  1.00  0.00     0.000 HD 
ATOM      4  H1  GLY A   1     -15.034  14.259  71.297  1.00  0.00     0.000 HD 
ATOM      5  CA  GLY A   1     -13.052  14.744  71.030  1.00  0.00    -0.375 C  
HETATM    6  C   UNL     1     -10.664  13.491  65.641  1.00  0.00    -0.284 C  
ENDROOT
BRANCH   5   7
ATOM      7  C   GLY A   1     -12.116  15.915  71.345  1.00  0.00    -0.452 C  
ATOM      8  H   GLY A   1     -10.622  16.824  70.461  1.00  0.00     0.000 HD 
ATOM      9  O   GLY A   1     -11.203  16.098  70.266  1.00  0.00    -0.356 OA 
ENDBRANCH   5   7
BRANCH   6  10
HETATM   10  C   UNL     1     -10.328  12.171  66.334  1.00  0.00    -0.246 C  
BRANCH  10  11
HETATM   11  C   UNL     1      -8.857  12.019  66.730  1.00  0.00    -0.198 C  
BRANCH  11  12
HETATM   12  C   UNL     1      -8.612  10.611  67.279  1.00  0.00    -0.126 C  
BRANCH  12  13
HETATM   13  C   UNL     1      -8.918   9.525  66.249  1.00  0.00    -0.188 C  
BRANCH  13  14
HETATM   14  C   UNL     1      -7.779   8.506  66.099  1.00  0.00    -0.093 C  
BRANCH  14  15
HETATM   15  C   UNL     1      -7.893   7.564  64.894  1.00  0.00    -0.128 C  
BRANCH  15  16
HETATM   16  C   UNL     1      -7.503   6.140  65.184  1.00  0.00    -0.085 C  
HETATM   17  C   UNL     1      -8.238   5.283  65.909  1.00  0.00    -0.117 C  
BRANCH  17  18
HETATM   18  C   UNL     1      -9.540   5.605  66.584  1.00  0.00    -0.166 C  
BRANCH  18  19
HETATM   19  C   UNL     1      -9.922   4.546  67.615  1.00  0.00    -0.138 C  
BRANCH  19  20
HETATM   20  C   UNL     1      -8.698   4.149  68.440  1.00  0.00    -0.122 C  
BRANCH  20  21
HETATM   21  C   UNL     1      -9.035   4.057  69.925  1.00  0.00    -0.161 C  
BRANCH  21  22
HETATM   22  C   UNL     1      -9.118   5.443  70.558  1.00  0.00    -0.171 C  
BRANCH  22  23
HETATM   23  C   UNL     1     -10.236   5.498  71.597  1.00  0.00    -0.265 C  
BRANCH  23  24
HETATM   24  C   UNL     1     -10.373   6.890  72.205  1.00  0.00    -0.219 C  
HETATM   25  C   UNL     1     -11.388   7.726  71.459  1.00  0.00    -0.255 C  
HETATM   26  O   UNL     1     -11.530   8.957  72.004  1.00  0.00    -0.352 OA 
HETATM   27  O   UNL     1     -12.023   7.367  70.486  1.00  0.00    -0.223 OA 
ENDBRANCH  23  24
ENDBRANCH  22  23
ENDBRANCH  21  22
ENDBRANCH  20  21
ENDBRANCH  19  20
ENDBRANCH  18  19
ENDBRANCH  17  18
ENDBRANCH  15  16
ENDBRANCH  14  15
ENDBRANCH  13  14
ENDBRANCH  12  13
ENDBRANCH  11  12
ENDBRANCH  10  11
ENDBRANCH   6  10
TORSDOF 15
ENDMDL
MODEL      466
REMARK 921   NORMALIZED FREE ENERGY PREDICTED BY IDOCK:   -2.48 KCAL/MOL
REMARK 922        TOTAL FREE ENERGY PREDICTED BY IDOCK:   -6.61 KCAL/MOL
REMARK 923 INTER-LIGAND FREE ENERGY PREDICTED BY IDOCK:   -4.85 KCAL/MOL
REMARK 924 INTRA-LIGAND FREE ENERGY PREDICTED BY IDOCK:   -1.75 KCAL/MOL
REMARK 927      BINDING AFFINITY PREDICTED BY RF-SCORE:    0.00 PKD
ROOT
ATOM      1  N   GLY A   1     -12.341  13.453  63.184  1.00  0.00    -0.940 NA 
HETATM    2  C   UNL     1      -6.926  15.061  67.246  1.00  0.00    -0.087 C  
ATOM      3  H2  GLY A   1     -11.801  13.746  62.370  1.00  0.00     0.000 HD 
ATOM      4  H1  GLY A   1     -12.371  12.438  63.276  1.00  0.00     0.000 HD 
ATOM      5  CA  GLY A   1     -11.839  14.061  64.423  1.00  0.00    -0.431 C  
HETATM    6  C   UNL     1      -6.718  13.588  67.564  1.00  0.00    -0.144 C  
ENDROOT
BRANCH   5   7
ATOM      7  C   GLY A   1     -11.794  15.586  64.285  1.00  0.00    -0.173 C  
ATOM      8  H   GLY A   1     -10.454  16.999  64.500  1.00  0.00     0.000 HD 
ATOM      9  O   GLY A   1     -10.482  16.054  64.586  1.00  0.00    -0.502 OA 
ENDBRANCH   5   7
BRANCH   6  10
HETATM   10  C   UNL     1      -7.671  13.049  68.630  1.00  0.00    -0.069 C  
BRANCH  10  11
HETATM   11  C   UNL     1      -7.091  11.921  69.488  1.00  0.00     0.127 C  
BRANCH  11  12
HETATM   12  C   UNL     1      -5.859  11.329  68.799  1.00  0.00    -0.043 C  
BRANCH  12  13
HETATM   13  C   UNL     1      -6.021   9.839  68.500  1.00  0.00    -0.042 C  
BRANCH  13  14
HETATM   14  C   UNL     1      -7.026   9.561  67.374  1.00  0.00    -0.084 C  
BRANCH  14  15
HETATM   15  C   UNL     1      -8.294   8.806  67.794  1.00  0.00    -0.118 C  
BRANCH  15  16
HETATM   16  C   UNL     1      -8.462   7.465  67.134  1.00  0.00    -0.118 C  
HETATM   17  C   UNL     1      -8.150   6.291  67.705  1.00  0.00    -0.114 C  
BRANCH  17  18
HETATM   18  C   UNL     1      -7.549   6.118  69.070  1.00  0.00    -0.091 C  
BRANCH  18  19
HETATM   19  C   UNL     1      -8.586   5.660  70.092  1.00  0.00    -0.127 C  
BRANCH  19  20
HETATM   20  C   UNL     1      -8.048   5.852  71.510  1.00  0.00    -0.115 C  
BRANCH  20  21
HETATM   21  C   UNL     1      -8.941   5.168  72.541  1.00  0.00    -0.136 C  
BRANCH  21  22
HETATM   22  C   UNL     1     -10.165   6.022  72.863  1.00  0.00    -0.207 C  
BRANCH  22  23
HETATM   23  C   UNL     1      -9.765   7.478  73.086  1.00  0.00    -0.301 C  
BRANCH  23  24
HETATM   24  C   UNL     1     -10.488   8.415  72.123  1.00  0.00    -0.396 C  
HETATM   25  C   UNL     1      -9.514   9.252  71.325  1.00  0.00    -0.175 C  
HETATM   26  O   UNL     1     -10.146  10.074  70.455  1.00  0.00    -0.247 OA 
HETATM   27  O   UNL     1      -8.302   9.214  71.423  1.00  0.00    -0.321 OA 
ENDBRANCH  23  24
ENDBRANCH  22  23
ENDBRANCH  21  22
ENDBRANCH  20  21
ENDBRANCH  19  20
ENDBRANCH  18  19
ENDBRANCH  17  18
ENDBRANCH  15  16
ENDBRANCH  14  15
ENDBRANCH  13  14
ENDBRANCH  12  13
ENDBRANCH  11  12
ENDBRANCH  10  11
ENDBRANCH   6  10
TORSDOF 15
ENDMDL
MODEL      467
REMARK 921   NORMALIZED FREE ENERGY PREDICTED BY IDOCK:   -2.48 KCAL/MOL
REMARK 922        TOTAL FREE ENERGY PREDICTED BY IDOCK:   -6.60 KCAL/MOL
REMARK 923 INTER-LIGAND FREE ENERGY PREDICTED BY IDOCK:   -5.32 KCAL/MOL
REMARK 924 INTRA-LIGAND FREE ENERGY PREDICTED BY IDOCK:   -1.28 KCAL/MOL
REMARK 927      BINDING AFFINITY PREDICTED BY RF-SCORE:    0.00 PKD
ROOT
ATOM      1  N   GLY A   1      -5.666   9.908  72.038  1.00  0.00    -0.287 NA 
HETATM    2  C   UNL     1     -10.632  13.505  68.750  1.00  0.00    -0.237 C  
ATOM      3  H2  GLY A   1      -5.750  10.542  72.832  1.00  0.00     0.000 HD 
ATOM      4  H1  GLY A   1      -6.136   9.019  72.209  1.00  0.00     0.000 HD 
ATOM      5  CA  GLY A   1      -6.161  10.515  70.796  1.00  0.00    -0.008 C  
HETATM    6  C   UNL     1     -11.578  12.320  68.868  1.00  0.00    -0.367 C  
ENDROOT
BRANCH   5   7
ATOM      7  C   GLY A   1      -5.454  11.849  70.540  1.00  0.00    -0.154 C  
ATOM      8  H   GLY A   1      -5.564  13.678  71.235  1.00  0.00     0.000 HD 
ATOM      9  O   GLY A   1      -6.002  12.850  71.394  1.00  0.00    -0.244 OA 
ENDBRANCH   5   7
BRANCH   6  10
HETATM   10  C   UNL     1     -11.333  11.232  67.824  1.00  0.00    -0.354 C  
BRANCH  10  11
HETATM   11  C   UNL     1     -11.140  11.753  66.397  1.00  0.00    -0.360 C  
BRANCH  11  12
HETATM   12  C   UNL     1      -9.741  11.382  65.897  1.00  0.00    -0.257 C  
BRANCH  12  13
HETATM   13  C   UNL     1      -9.693   9.977  65.299  1.00  0.00    -0.373 C  
BRANCH  13  14
HETATM   14  C   UNL     1      -9.758   8.872  66.362  1.00  0.00    -0.332 C  
BRANCH  14  15
HETATM   15  C   UNL     1      -8.650   8.911  67.422  1.00  0.00    -0.119 C  
BRANCH  15  16
HETATM   16  C   UNL     1      -7.680   7.764  67.342  1.00  0.00    -0.113 C  
HETATM   17  C   UNL     1      -8.016   6.472  67.478  1.00  0.00    -0.114 C  
BRANCH  17  18
HETATM   18  C   UNL     1      -9.395   5.956  67.769  1.00  0.00    -0.106 C  
BRANCH  18  19
HETATM   19  C   UNL     1      -9.532   4.475  67.423  1.00  0.00    -0.189 C  
BRANCH  19  20
HETATM   20  C   UNL     1      -8.959   3.616  68.549  1.00  0.00    -0.178 C  
BRANCH  20  21
HETATM   21  C   UNL     1      -9.668   3.888  69.872  1.00  0.00    -0.235 C  
BRANCH  21  22
HETATM   22  C   UNL     1      -8.694   4.417  70.922  1.00  0.00    -0.126 C  
BRANCH  22  23
HETATM   23  C   UNL     1      -9.410   5.329  71.914  1.00  0.00    -0.167 C  
BRANCH  23  24
HETATM   24  C   UNL     1      -9.517   6.758  71.391  1.00  0.00    -0.160 C  
HETATM   25  C   UNL     1     -10.943   7.118  71.043  1.00  0.00    -0.252 C  
HETATM   26  O   UNL     1     -11.050   8.391  70.594  1.00  0.00    -0.251 OA 
HETATM   27  O   UNL     1     -11.905   6.381  71.145  1.00  0.00    -0.335 OA 
ENDBRANCH  23  24
ENDBRANCH  22  23
ENDBRANCH  21  22
ENDBRANCH  20  21
ENDBRANCH  19  20
ENDBRANCH  18  19
ENDBRANCH  17  18
ENDBRANCH  15  16
ENDBRANCH  14  15
ENDBRANCH  13  14
ENDBRANCH  12  13
ENDBRANCH  11  12
ENDBRANCH  10  11
ENDBRANCH   6  10
TORSDOF 15
ENDMDL
MODEL      468
REMARK 921   NORMALIZED FREE ENERGY PREDICTED BY IDOCK:   -2.46 KCAL/MOL
REMARK 922        TOTAL FREE ENERGY PREDICTED BY IDOCK:   -6.56 KCAL/MOL
REMARK 923 INTER-LIGAND FREE ENERGY PREDICTED BY IDOCK:   -4.40 KCAL/MOL
REMARK 924 INTRA-LIGAND FREE ENERGY PREDICTED BY IDOCK:   -2.17 KCAL/MOL
REMARK 927      BINDING AFFINITY PREDICTED BY RF-SCORE:    0.00 PKD
ROOT
ATOM      1  N   GLY A   1     -12.110  15.023  66.977  1.00  0.00    -0.245 NA 
HETATM    2  C   UNL     1      -5.734  14.095  69.604  1.00  0.00    -0.101 C  
ATOM      3  H2  GLY A   1     -12.147  15.939  67.425  1.00  0.00     0.000 HD 
ATOM      4  H1  GLY A   1     -11.911  15.095  65.980  1.00  0.00     0.000 HD 
ATOM      5  CA  GLY A   1     -11.138  14.134  67.626  1.00  0.00    -0.282 C  
HETATM    6  C   UNL     1      -5.139  14.171  68.207  1.00  0.00    -0.111 C  
ENDROOT
BRANCH   5   7
ATOM      7  C   GLY A   1     -11.437  14.026  69.124  1.00  0.00    -0.296 C  
ATOM      8  H   GLY A   1     -10.852  14.926  70.764  1.00  0.00     0.000 HD 
ATOM      9  O   GLY A   1     -10.667  14.993  69.835  1.00  0.00    -0.252 OA 
ENDBRANCH   5   7
BRANCH   6  10
HETATM   10  C   UNL     1      -5.267  12.872  67.412  1.00  0.00     0.024 C  
BRANCH  10  11
HETATM   11  C   UNL     1      -5.504  11.625  68.268  1.00  0.00    -0.042 C  
BRANCH  11  12
HETATM   12  C   UNL     1      -6.660  10.809  67.685  1.00  0.00    -0.061 C  
BRANCH  12  13
HETATM   13  C   UNL     1      -7.990  11.559  67.747  1.00  0.00    -0.128 C  
BRANCH  13  14
HETATM   14  C   UNL     1      -8.491  12.002  66.365  1.00  0.00     0.008 C  
BRANCH  14  15
HETATM   15  C   UNL     1      -9.798  11.348  65.898  1.00  0.00    -0.262 C  
BRANCH  15  16
HETATM   16  C   UNL     1     -10.510  12.102  64.808  1.00  0.00    -0.332 C  
HETATM   17  C   UNL     1     -10.609  11.687  63.536  1.00  0.00    -0.496 C  
BRANCH  17  18
HETATM   18  C   UNL     1      -9.997  10.435  62.977  1.00  0.00    -0.062 C  
BRANCH  18  19
HETATM   19  C   UNL     1      -8.636  10.704  62.340  1.00  0.00    -0.294 C  
BRANCH  19  20
HETATM   20  C   UNL     1      -7.717   9.498  62.531  1.00  0.00    -0.117 C  
BRANCH  20  21
HETATM   21  C   UNL     1      -7.232   9.391  63.973  1.00  0.00    -0.102 C  
BRANCH  21  22
HETATM   22  C   UNL     1      -7.537   8.015  64.558  1.00  0.00    -0.114 C  
BRANCH  22  23
HETATM   23  C   UNL     1      -8.198   8.143  65.928  1.00  0.00    -0.122 C  
BRANCH  23  24
HETATM   24  C   UNL     1      -8.960   6.877  66.308  1.00  0.00    -0.172 C  
HETATM   25  C   UNL     1     -10.338   7.196  66.842  1.00  0.00    -0.279 C  
HETATM   26  O   UNL     1     -11.029   6.078  67.164  1.00  0.00    -0.313 OA 
HETATM   27  O   UNL     1     -10.805   8.311  66.975  1.00  0.00    -0.245 OA 
ENDBRANCH  23  24
ENDBRANCH  22  23
ENDBRANCH  21  22
ENDBRANCH  20  21
ENDBRANCH  19  20
ENDBRANCH  18  19
ENDBRANCH  17  18
ENDBRANCH  15  16
ENDBRANCH  14  15
ENDBRANCH  13  14
ENDBRANCH  12  13
ENDBRANCH  11  12
ENDBRANCH  10  11
ENDBRANCH   6  10
TORSDOF 15
ENDMDL
MODEL      469
REMARK 921   NORMALIZED FREE ENERGY PREDICTED BY IDOCK:   -2.46 KCAL/MOL
REMARK 922        TOTAL FREE ENERGY PREDICTED BY IDOCK:   -6.55 KCAL/MOL
REMARK 923 INTER-LIGAND FREE ENERGY PREDICTED BY IDOCK:   -5.48 KCAL/MOL
REMARK 924 INTRA-LIGAND FREE ENERGY PREDICTED BY IDOCK:   -1.08 KCAL/MOL
REMARK 927      BINDING AFFINITY PREDICTED BY RF-SCORE:    0.00 PKD
ROOT
ATOM      1  N   GLY A   1     -11.269  19.004  67.997  1.00  0.00    -0.087 NA 
HETATM    2  C   UNL     1      -5.249  21.159  65.253  1.00  0.00    -0.225 C  
ATOM      3  H2  GLY A   1     -11.643  19.947  67.885  1.00  0.00     0.000 HD 
ATOM      4  H1  GLY A   1     -11.609  18.372  67.273  1.00  0.00     0.000 HD 
ATOM      5  CA  GLY A   1      -9.801  18.996  68.031  1.00  0.00    -0.352 C  
HETATM    6  C   UNL     1      -5.496  20.302  64.021  1.00  0.00    -0.257 C  
ENDROOT
BRANCH   5   7
ATOM      7  C   GLY A   1      -9.291  19.946  69.119  1.00  0.00     0.013 C  
ATOM      8  H   GLY A   1      -7.618  20.223  70.101  1.00  0.00     0.000 HD 
ATOM      9  O   GLY A   1      -7.935  19.634  69.427  1.00  0.00    -0.208 OA 
ENDBRANCH   5   7
BRANCH   6  10
HETATM   10  C   UNL     1      -5.158  18.826  64.221  1.00  0.00    -0.216 C  
BRANCH  10  11
HETATM   11  C   UNL     1      -6.030  18.110  65.256  1.00  0.00    -0.158 C  
BRANCH  11  12
HETATM   12  C   UNL     1      -5.141  17.363  66.254  1.00  0.00    -0.193 C  
BRANCH  12  13
HETATM   13  C   UNL     1      -5.529  17.649  67.704  1.00  0.00    -0.141 C  
BRANCH  13  14
HETATM   14  C   UNL     1      -6.837  16.963  68.119  1.00  0.00    -0.164 C  
BRANCH  14  15
HETATM   15  C   UNL     1      -7.215  15.718  67.306  1.00  0.00    -0.254 C  
BRANCH  15  16
HETATM   16  C   UNL     1      -8.673  15.636  66.944  1.00  0.00    -0.283 C  
HETATM   17  C   UNL     1      -9.668  15.453  67.826  1.00  0.00    -0.211 C  
BRANCH  17  18
HETATM   18  C   UNL     1      -9.496  15.259  69.304  1.00  0.00    -0.242 C  
BRANCH  18  19
HETATM   19  C   UNL     1     -10.584  15.976  70.101  1.00  0.00    -0.269 C  
BRANCH  19  20
HETATM   20  C   UNL     1     -11.958  15.409  69.746  1.00  0.00    -0.381 C  
BRANCH  20  21
HETATM   21  C   UNL     1     -12.258  14.142  70.541  1.00  0.00    -0.431 C  
BRANCH  21  22
HETATM   22  C   UNL     1     -12.084  12.895  69.678  1.00  0.00    -0.290 C  
BRANCH  22  23
HETATM   23  C   UNL     1     -11.913  11.653  70.549  1.00  0.00    -0.413 C  
BRANCH  23  24
HETATM   24  C   UNL     1     -11.832  10.382  69.710  1.00  0.00    -0.278 C  
HETATM   25  C   UNL     1     -10.441   9.789  69.731  1.00  0.00    -0.250 C  
HETATM   26  O   UNL     1     -10.364   8.650  69.004  1.00  0.00    -0.208 OA 
HETATM   27  O   UNL     1      -9.484  10.249  70.324  1.00  0.00     0.025 OA 
ENDBRANCH  23  24
ENDBRANCH  22  23
ENDBRANCH  21  22
ENDBRANCH  20  21
ENDBRANCH  19  20
ENDBRANCH  18  19
ENDBRANCH  17  18
ENDBRANCH  15  16
ENDBRANCH  14  15
ENDBRANCH  13  14
ENDBRANCH  12  13
ENDBRANCH  11  12
ENDBRANCH  10  11
ENDBRANCH   6  10
TORSDOF 15
ENDMDL
MODEL      470
REMARK 921   NORMALIZED FREE ENERGY PREDICTED BY IDOCK:   -2.45 KCAL/MOL
REMARK 922        TOTAL FREE ENERGY PREDICTED BY IDOCK:   -6.55 KCAL/MOL
REMARK 923 INTER-LIGAND FREE ENERGY PREDICTED BY IDOCK:   -5.44 KCAL/MOL
REMARK 924 INTRA-LIGAND FREE ENERGY PREDICTED BY IDOCK:   -1.11 KCAL/MOL
REMARK 927      BINDING AFFINITY PREDICTED BY RF-SCORE:    0.00 PKD
ROOT
ATOM      1  N   GLY A   1     -11.236  14.295  64.279  1.00  0.00    -0.607 NA 
HETATM    2  C   UNL     1      -5.252  10.754  64.514  1.00  0.00    -0.100 C  
ATOM      3  H2  GLY A   1     -10.708  15.166  64.326  1.00  0.00     0.000 HD 
ATOM      4  H1  GLY A   1     -11.555  14.094  63.331  1.00  0.00     0.000 HD 
ATOM      5  CA  GLY A   1     -10.471  13.159  64.809  1.00  0.00    -0.372 C  
HETATM    6  C   UNL     1      -5.458  10.294  63.080  1.00  0.00    -0.132 C  
ENDROOT
BRANCH   5   7
ATOM      7  C   GLY A   1      -9.992  13.461  66.232  1.00  0.00    -0.296 C  
ATOM      8  H   GLY A   1     -10.366  12.792  68.035  1.00  0.00     0.000 HD 
ATOM      9  O   GLY A   1     -10.663  12.605  67.152  1.00  0.00    -0.237 OA 
ENDBRANCH   5   7
BRANCH   6  10
HETATM   10  C   UNL     1      -6.430   9.122  62.944  1.00  0.00    -0.094 C  
BRANCH  10  11
HETATM   11  C   UNL     1      -6.155   7.956  63.897  1.00  0.00    -0.058 C  
BRANCH  11  12
HETATM   12  C   UNL     1      -7.339   7.777  64.850  1.00  0.00    -0.070 C  
BRANCH  12  13
HETATM   13  C   UNL     1      -7.024   8.263  66.264  1.00  0.00    -0.066 C  
BRANCH  13  14
HETATM   14  C   UNL     1      -8.268   8.752  67.019  1.00  0.00    -0.103 C  
BRANCH  14  15
HETATM   15  C   UNL     1      -9.613   8.310  66.429  1.00  0.00    -0.300 C  
BRANCH  15  16
HETATM   16  C   UNL     1     -10.642   7.926  67.457  1.00  0.00    -0.312 C  
HETATM   17  C   UNL     1     -11.109   6.680  67.637  1.00  0.00    -0.357 C  
BRANCH  17  18
HETATM   18  C   UNL     1     -10.722   5.478  66.826  1.00  0.00    -0.329 C  
BRANCH  18  19
HETATM   19  C   UNL     1      -9.253   5.110  67.023  1.00  0.00    -0.117 C  
BRANCH  19  20
HETATM   20  C   UNL     1      -9.127   3.977  68.041  1.00  0.00    -0.179 C  
BRANCH  20  21
HETATM   21  C   UNL     1      -9.978   4.245  69.279  1.00  0.00    -0.086 C  
BRANCH  21  22
HETATM   22  C   UNL     1      -9.105   4.480  70.509  1.00  0.00    -0.172 C  
BRANCH  22  23
HETATM   23  C   UNL     1      -9.966   4.684  71.753  1.00  0.00    -0.260 C  
BRANCH  23  24
HETATM   24  C   UNL     1     -10.650   6.048  71.747  1.00  0.00    -0.277 C  
HETATM   25  C   UNL     1     -10.816   6.594  73.147  1.00  0.00    -0.269 C  
HETATM   26  O   UNL     1     -11.406   7.812  73.150  1.00  0.00    -0.374 OA 
HETATM   27  O   UNL     1     -10.468   6.036  74.170  1.00  0.00    -0.279 OA 
ENDBRANCH  23  24
ENDBRANCH  22  23
ENDBRANCH  21  22
ENDBRANCH  20  21
ENDBRANCH  19  20
ENDBRANCH  18  19
ENDBRANCH  17  18
ENDBRANCH  15  16
ENDBRANCH  14  15
ENDBRANCH  13  14
ENDBRANCH  12  13
ENDBRANCH  11  12
ENDBRANCH  10  11
ENDBRANCH   6  10
TORSDOF 15
ENDMDL
MODEL      471
REMARK 921   NORMALIZED FREE ENERGY PREDICTED BY IDOCK:   -2.42 KCAL/MOL
REMARK 922        TOTAL FREE ENERGY PREDICTED BY IDOCK:   -6.50 KCAL/MOL
REMARK 923 INTER-LIGAND FREE ENERGY PREDICTED BY IDOCK:   -4.91 KCAL/MOL
REMARK 924 INTRA-LIGAND FREE ENERGY PREDICTED BY IDOCK:   -1.58 KCAL/MOL
REMARK 927      BINDING AFFINITY PREDICTED BY RF-SCORE:    0.00 PKD
ROOT
ATOM      1  N   GLY A   1     -13.150   7.219  72.624  1.00  0.00    -0.070 NA 
HETATM    2  C   UNL     1     -10.247   5.784  66.466  1.00  0.00    -0.241 C  
ATOM      3  H2  GLY A   1     -14.062   6.980  72.235  1.00  0.00     0.000 HD 
ATOM      4  H1  GLY A   1     -12.776   6.469  73.205  1.00  0.00     0.000 HD 
ATOM      5  CA  GLY A   1     -12.184   7.580  71.577  1.00  0.00    -0.331 C  
HETATM    6  C   UNL     1      -9.553   4.572  67.067  1.00  0.00    -0.210 C  
ENDROOT
BRANCH   5   7
ATOM      7  C   GLY A   1     -12.746   8.706  70.705  1.00  0.00     0.390 C  
ATOM      8  H   GLY A   1     -12.288  10.570  70.312  1.00  0.00     0.000 HD 
ATOM      9  O   GLY A   1     -11.940   9.872  70.853  1.00  0.00    -0.300 OA 
ENDBRANCH   5   7
BRANCH   6  10
HETATM   10  C   UNL     1      -8.291   4.916  67.857  1.00  0.00    -0.103 C  
BRANCH  10  11
HETATM   11  C   UNL     1      -8.552   5.507  69.245  1.00  0.00    -0.104 C  
BRANCH  11  12
HETATM   12  C   UNL     1      -8.154   6.985  69.260  1.00  0.00    -0.120 C  
BRANCH  12  13
HETATM   13  C   UNL     1      -9.367   7.913  69.308  1.00  0.00    -0.148 C  
BRANCH  13  14
HETATM   14  C   UNL     1      -9.142   9.231  68.555  1.00  0.00    -0.132 C  
BRANCH  14  15
HETATM   15  C   UNL     1      -9.979   9.415  67.283  1.00  0.00    -0.252 C  
BRANCH  15  16
HETATM   16  C   UNL     1      -9.379   8.789  66.053  1.00  0.00    -0.296 C  
HETATM   17  C   UNL     1      -8.957   9.475  64.980  1.00  0.00    -0.258 C  
BRANCH  17  18
HETATM   18  C   UNL     1      -9.047  10.963  64.805  1.00  0.00    -0.197 C  
BRANCH  18  19
HETATM   19  C   UNL     1     -10.200  11.358  63.886  1.00  0.00    -0.415 C  
BRANCH  19  20
HETATM   20  C   UNL     1     -11.214  12.210  64.650  1.00  0.00    -0.374 C  
BRANCH  20  21
HETATM   21  C   UNL     1     -10.697  13.630  64.861  1.00  0.00    -0.400 C  
BRANCH  21  22
HETATM   22  C   UNL     1     -10.495  13.928  66.344  1.00  0.00    -0.284 C  
BRANCH  22  23
HETATM   23  C   UNL     1      -9.445  15.020  66.539  1.00  0.00    -0.306 C  
BRANCH  23  24
HETATM   24  C   UNL     1      -8.236  14.506  67.315  1.00  0.00    -0.230 C  
HETATM   25  C   UNL     1      -8.320  14.869  68.780  1.00  0.00    -0.170 C  
HETATM   26  O   UNL     1      -7.260  14.402  69.480  1.00  0.00    -0.126 OA 
HETATM   27  O   UNL     1      -9.220  15.499  69.303  1.00  0.00    -0.235 OA 
ENDBRANCH  23  24
ENDBRANCH  22  23
ENDBRANCH  21  22
ENDBRANCH  20  21
ENDBRANCH  19  20
ENDBRANCH  18  19
ENDBRANCH  17  18
ENDBRANCH  15  16
ENDBRANCH  14  15
ENDBRANCH  13  14
ENDBRANCH  12  13
ENDBRANCH  11  12
ENDBRANCH  10  11
ENDBRANCH   6  10
TORSDOF 15
ENDMDL
MODEL      472
REMARK 921   NORMALIZED FREE ENERGY PREDICTED BY IDOCK:   -2.41 KCAL/MOL
REMARK 922        TOTAL FREE ENERGY PREDICTED BY IDOCK:   -6.47 KCAL/MOL
REMARK 923 INTER-LIGAND FREE ENERGY PREDICTED BY IDOCK:   -5.73 KCAL/MOL
REMARK 924 INTRA-LIGAND FREE ENERGY PREDICTED BY IDOCK:   -0.74 KCAL/MOL
REMARK 927      BINDING AFFINITY PREDICTED BY RF-SCORE:    0.00 PKD
ROOT
ATOM      1  N   GLY A   1      -8.568   7.935  70.732  1.00  0.00    -0.130 NA 
HETATM    2  C   UNL     1      -8.404  14.145  67.600  1.00  0.00    -0.187 C  
ATOM      3  H2  GLY A   1      -7.728   7.668  70.218  1.00  0.00     0.000 HD 
ATOM      4  H1  GLY A   1      -8.359   8.188  71.698  1.00  0.00     0.000 HD 
ATOM      5  CA  GLY A   1      -9.295   9.024  70.068  1.00  0.00    -0.183 C  
HETATM    6  C   UNL     1      -8.069  14.813  68.924  1.00  0.00    -0.160 C  
ENDROOT
BRANCH   5   7
ATOM      7  C   GLY A   1      -9.609   8.644  68.618  1.00  0.00    -0.155 C  
ATOM      8  H   GLY A   1     -10.288   7.069  67.671  1.00  0.00     0.000 HD 
ATOM      9  O   GLY A   1     -10.094   7.305  68.570  1.00  0.00    -0.161 OA 
ENDBRANCH   5   7
BRANCH   6  10
HETATM   10  C   UNL     1      -9.282  15.028  69.829  1.00  0.00     0.089 C  
BRANCH  10  11
HETATM   11  C   UNL     1     -10.627  15.028  69.097  1.00  0.00    -0.251 C  
BRANCH  11  12
HETATM   12  C   UNL     1     -11.310  13.669  69.270  1.00  0.00    -0.323 C  
BRANCH  12  13
HETATM   13  C   UNL     1     -12.135  13.275  68.047  1.00  0.00    -0.260 C  
BRANCH  13  14
HETATM   14  C   UNL     1     -11.274  13.017  66.802  1.00  0.00    -0.333 C  
BRANCH  14  15
HETATM   15  C   UNL     1     -12.010  12.394  65.610  1.00  0.00    -0.449 C  
BRANCH  15  16
HETATM   16  C   UNL     1     -12.457  13.387  64.572  1.00  0.00    -0.359 C  
HETATM   17  C   UNL     1     -11.823  14.538  64.298  1.00  0.00    -0.368 C  
BRANCH  17  18
HETATM   18  C   UNL     1     -10.598  15.047  65.000  1.00  0.00    -0.437 C  
BRANCH  18  19
HETATM   19  C   UNL     1     -10.699  16.539  65.309  1.00  0.00    -0.269 C  
BRANCH  19  20
HETATM   20  C   UNL     1     -11.261  16.748  66.715  1.00  0.00     0.424 C  
BRANCH  20  21
HETATM   21  C   UNL     1     -10.513  17.853  67.453  1.00  0.00    -0.390 C  
BRANCH  21  22
HETATM   22  C   UNL     1     -10.062  18.951  66.494  1.00  0.00    -0.447 C  
BRANCH  22  23
HETATM   23  C   UNL     1      -8.540  19.077  66.493  1.00  0.00    -0.316 C  
BRANCH  23  24
HETATM   24  C   UNL     1      -7.921  18.440  67.733  1.00  0.00    -0.258 C  
HETATM   25  C   UNL     1      -7.156  19.452  68.555  1.00  0.00    -0.315 C  
HETATM   26  O   UNL     1      -6.618  18.900  69.668  1.00  0.00    -0.261 OA 
HETATM   27  O   UNL     1      -7.024  20.630  68.284  1.00  0.00    -0.232 OA 
ENDBRANCH  23  24
ENDBRANCH  22  23
ENDBRANCH  21  22
ENDBRANCH  20  21
ENDBRANCH  19  20
ENDBRANCH  18  19
ENDBRANCH  17  18
ENDBRANCH  15  16
ENDBRANCH  14  15
ENDBRANCH  13  14
ENDBRANCH  12  13
ENDBRANCH  11  12
ENDBRANCH  10  11
ENDBRANCH   6  10
TORSDOF 15
ENDMDL
MODEL      473
REMARK 921   NORMALIZED FREE ENERGY PREDICTED BY IDOCK:   -2.40 KCAL/MOL
REMARK 922        TOTAL FREE ENERGY PREDICTED BY IDOCK:   -6.45 KCAL/MOL
REMARK 923 INTER-LIGAND FREE ENERGY PREDICTED BY IDOCK:   -4.92 KCAL/MOL
REMARK 924 INTRA-LIGAND FREE ENERGY PREDICTED BY IDOCK:   -1.53 KCAL/MOL
REMARK 927      BINDING AFFINITY PREDICTED BY RF-SCORE:    0.00 PKD
ROOT
ATOM      1  N   GLY A   1      -8.589  20.040  68.676  1.00  0.00    -0.062 NA 
HETATM    2  C   UNL     1     -11.972  14.273  66.752  1.00  0.00    -0.462 C  
ATOM      3  H2  GLY A   1      -9.457  20.566  68.579  1.00  0.00     0.000 HD 
ATOM      4  H1  GLY A   1      -8.375  19.835  69.652  1.00  0.00     0.000 HD 
ATOM      5  CA  GLY A   1      -8.608  18.800  67.889  1.00  0.00    -0.296 C  
HETATM    6  C   UNL     1     -11.810  13.701  68.152  1.00  0.00    -0.407 C  
ENDROOT
BRANCH   5   7
ATOM      7  C   GLY A   1      -8.930  19.108  66.423  1.00  0.00    -0.342 C  
ATOM      8  H   GLY A   1     -10.240  18.511  65.094  1.00  0.00     0.000 HD 
ATOM      9  O   GLY A   1     -10.041  18.320  66.003  1.00  0.00    -0.493 OA 
ENDBRANCH   5   7
BRANCH   6  10
HETATM   10  C   UNL     1     -10.430  13.099  68.413  1.00  0.00    -0.261 C  
BRANCH  10  11
HETATM   11  C   UNL     1      -9.760  12.488  67.179  1.00  0.00    -0.205 C  
BRANCH  11  12
HETATM   12  C   UNL     1      -9.928  10.966  67.200  1.00  0.00    -0.221 C  
BRANCH  12  13
HETATM   13  C   UNL     1      -8.590  10.234  67.110  1.00  0.00    -0.126 C  
BRANCH  13  14
HETATM   14  C   UNL     1      -8.748   8.710  67.017  1.00  0.00    -0.135 C  
BRANCH  14  15
HETATM   15  C   UNL     1      -8.189   7.915  68.203  1.00  0.00    -0.123 C  
BRANCH  15  16
HETATM   16  C   UNL     1      -6.973   8.531  68.841  1.00  0.00    -0.062 C  
HETATM   17  C   UNL     1      -6.956   9.095  70.058  1.00  0.00    -0.054 C  
BRANCH  17  18
HETATM   18  C   UNL     1      -8.141   9.245  70.966  1.00  0.00    -0.115 C  
BRANCH  18  19
HETATM   19  C   UNL     1      -7.860   8.696  72.363  1.00  0.00    -0.041 C  
BRANCH  19  20
HETATM   20  C   UNL     1      -7.418   7.236  72.275  1.00  0.00    -0.083 C  
BRANCH  20  21
HETATM   21  C   UNL     1      -7.934   6.427  73.462  1.00  0.00    -0.099 C  
BRANCH  21  22
HETATM   22  C   UNL     1      -9.226   7.022  74.015  1.00  0.00    -0.261 C  
BRANCH  22  23
HETATM   23  C   UNL     1     -10.408   6.095  73.744  1.00  0.00    -0.288 C  
BRANCH  23  24
HETATM   24  C   UNL     1     -11.520   6.808  72.980  1.00  0.00    -0.026 C  
HETATM   25  C   UNL     1     -11.317   6.712  71.485  1.00  0.00    -0.281 C  
HETATM   26  O   UNL     1     -12.309   7.326  70.798  1.00  0.00    -0.278 OA 
HETATM   27  O   UNL     1     -10.389   6.154  70.930  1.00  0.00    -0.201 OA 
ENDBRANCH  23  24
ENDBRANCH  22  23
ENDBRANCH  21  22
ENDBRANCH  20  21
ENDBRANCH  19  20
ENDBRANCH  18  19
ENDBRANCH  17  18
ENDBRANCH  15  16
ENDBRANCH  14  15
ENDBRANCH  13  14
ENDBRANCH  12  13
ENDBRANCH  11  12
ENDBRANCH  10  11
ENDBRANCH   6  10
TORSDOF 15
ENDMDL
MODEL      474
REMARK 921   NORMALIZED FREE ENERGY PREDICTED BY IDOCK:   -2.40 KCAL/MOL
REMARK 922        TOTAL FREE ENERGY PREDICTED BY IDOCK:   -6.45 KCAL/MOL
REMARK 923 INTER-LIGAND FREE ENERGY PREDICTED BY IDOCK:   -6.33 KCAL/MOL
REMARK 924 INTRA-LIGAND FREE ENERGY PREDICTED BY IDOCK:   -0.12 KCAL/MOL
REMARK 927      BINDING AFFINITY PREDICTED BY RF-SCORE:    0.00 PKD
ROOT
ATOM      1  N   GLY A   1      -8.717  17.300  68.030  1.00  0.00    -0.225 NA 
HETATM    2  C   UNL     1     -12.360  12.245  71.125  1.00  0.00    -0.251 C  
ATOM      3  H2  GLY A   1      -8.873  16.845  67.130  1.00  0.00     0.000 HD 
ATOM      4  H1  GLY A   1      -9.331  18.104  68.161  1.00  0.00     0.000 HD 
ATOM      5  CA  GLY A   1      -8.859  16.363  69.152  1.00  0.00    -0.186 C  
HETATM    6  C   UNL     1     -13.465  13.235  71.458  1.00  0.00    -0.257 C  
ENDROOT
BRANCH   5   7
ATOM      7  C   GLY A   1      -7.938  15.156  68.954  1.00  0.00    -0.178 C  
ATOM      8  H   GLY A   1      -6.085  14.853  68.391  1.00  0.00     0.000 HD 
ATOM      9  O   GLY A   1      -6.657  15.602  68.514  1.00  0.00    -0.109 OA 
ENDBRANCH   5   7
BRANCH   6  10
HETATM   10  C   UNL     1     -13.165  14.102  72.680  1.00  0.00    -0.612 C  
BRANCH  10  11
HETATM   11  C   UNL     1     -11.845  14.872  72.603  1.00  0.00    -0.316 C  
BRANCH  11  12
HETATM   12  C   UNL     1     -12.012  16.097  71.700  1.00  0.00    -0.528 C  
BRANCH  12  13
HETATM   13  C   UNL     1     -12.768  15.770  70.413  1.00  0.00    -0.202 C  
BRANCH  13  14
HETATM   14  C   UNL     1     -11.841  15.609  69.200  1.00  0.00    -0.378 C  
BRANCH  14  15
HETATM   15  C   UNL     1     -12.034  14.320  68.390  1.00  0.00    -0.344 C  
BRANCH  15  16
HETATM   16  C   UNL     1     -11.334  14.317  67.058  1.00  0.00    -0.354 C  
HETATM   17  C   UNL     1     -10.576  13.309  66.600  1.00  0.00    -0.283 C  
BRANCH  17  18
HETATM   18  C   UNL     1     -10.265  12.043  67.344  1.00  0.00    -0.216 C  
BRANCH  18  19
HETATM   19  C   UNL     1     -10.082  10.859  66.399  1.00  0.00    -0.280 C  
BRANCH  19  20
HETATM   20  C   UNL     1      -9.919   9.566  67.199  1.00  0.00    -0.261 C  
BRANCH  20  21
HETATM   21  C   UNL     1      -9.945   8.343  66.288  1.00  0.00    -0.216 C  
BRANCH  21  22
HETATM   22  C   UNL     1     -10.675   7.178  66.950  1.00  0.00    -0.363 C  
BRANCH  22  23
HETATM   23  C   UNL     1      -9.725   6.378  67.838  1.00  0.00    -0.124 C  
BRANCH  23  24
HETATM   24  C   UNL     1      -9.707   4.900  67.458  1.00  0.00    -0.198 C  
HETATM   25  C   UNL     1      -9.590   4.013  68.676  1.00  0.00    -0.120 C  
HETATM   26  O   UNL     1      -9.593   2.700  68.350  1.00  0.00    -0.185 OA 
HETATM   27  O   UNL     1      -9.507   4.398  69.827  1.00  0.00    -0.146 OA 
ENDBRANCH  23  24
ENDBRANCH  22  23
ENDBRANCH  21  22
ENDBRANCH  20  21
ENDBRANCH  19  20
ENDBRANCH  18  19
ENDBRANCH  17  18
ENDBRANCH  15  16
ENDBRANCH  14  15
ENDBRANCH  13  14
ENDBRANCH  12  13
ENDBRANCH  11  12
ENDBRANCH  10  11
ENDBRANCH   6  10
TORSDOF 15
ENDMDL
MODEL      475
REMARK 921   NORMALIZED FREE ENERGY PREDICTED BY IDOCK:   -2.40 KCAL/MOL
REMARK 922        TOTAL FREE ENERGY PREDICTED BY IDOCK:   -6.45 KCAL/MOL
REMARK 923 INTER-LIGAND FREE ENERGY PREDICTED BY IDOCK:   -5.27 KCAL/MOL
REMARK 924 INTRA-LIGAND FREE ENERGY PREDICTED BY IDOCK:   -1.18 KCAL/MOL
REMARK 927      BINDING AFFINITY PREDICTED BY RF-SCORE:    0.00 PKD
ROOT
ATOM      1  N   GLY A   1      -9.661  14.666  65.648  1.00  0.00    -0.521 NA 
HETATM    2  C   UNL     1     -12.907  10.698  70.352  1.00  0.00    -0.277 C  
ATOM      3  H2  GLY A   1     -10.260  15.447  65.912  1.00  0.00     0.000 HD 
ATOM      4  H1  GLY A   1      -8.730  14.746  66.056  1.00  0.00     0.000 HD 
ATOM      5  CA  GLY A   1     -10.260  13.371  65.998  1.00  0.00    -0.300 C  
HETATM    6  C   UNL     1     -11.642  10.647  71.193  1.00  0.00    -0.127 C  
ENDROOT
BRANCH   5   7
ATOM      7  C   GLY A   1     -11.658  13.252  65.385  1.00  0.00    -0.321 C  
ATOM      8  H   GLY A   1     -13.408  14.094  65.647  1.00  0.00     0.000 HD 
ATOM      9  O   GLY A   1     -12.541  14.168  66.028  1.00  0.00    -0.478 OA 
ENDBRANCH   5   7
BRANCH   6  10
HETATM   10  C   UNL     1     -10.611   9.636  70.691  1.00  0.00    -0.386 C  
BRANCH  10  11
HETATM   11  C   UNL     1     -10.185   8.596  71.730  1.00  0.00    -0.378 C  
BRANCH  11  12
HETATM   12  C   UNL     1     -11.408   8.119  72.516  1.00  0.00    -0.469 C  
BRANCH  12  13
HETATM   13  C   UNL     1     -12.194   7.042  71.769  1.00  0.00    -0.387 C  
BRANCH  13  14
HETATM   14  C   UNL     1     -11.484   5.682  71.759  1.00  0.00    -0.118 C  
BRANCH  14  15
HETATM   15  C   UNL     1     -11.421   4.961  73.112  1.00  0.00    -0.362 C  
BRANCH  15  16
HETATM   16  C   UNL     1     -10.038   4.534  73.521  1.00  0.00    -0.200 C  
HETATM   17  C   UNL     1      -9.344   3.544  72.938  1.00  0.00    -0.133 C  
BRANCH  17  18
HETATM   18  C   UNL     1      -9.838   2.674  71.819  1.00  0.00    -0.223 C  
BRANCH  18  19
HETATM   19  C   UNL     1      -8.711   1.853  71.198  1.00  0.00    -0.104 C  
BRANCH  19  20
HETATM   20  C   UNL     1      -7.759   2.765  70.424  1.00  0.00    -0.043 C  
BRANCH  20  21
HETATM   21  C   UNL     1      -6.721   1.957  69.652  1.00  0.00    -0.033 C  
BRANCH  21  22
HETATM   22  C   UNL     1      -7.222   1.605  68.255  1.00  0.00    -0.043 C  
BRANCH  22  23
HETATM   23  C   UNL     1      -6.434   2.364  67.190  1.00  0.00    -0.035 C  
BRANCH  23  24
HETATM   24  C   UNL     1      -7.350   3.196  66.297  1.00  0.00    -0.071 C  
HETATM   25  C   UNL     1      -7.531   4.597  66.838  1.00  0.00    -0.086 C  
HETATM   26  O   UNL     1      -8.327   5.349  66.043  1.00  0.00    -0.114 OA 
HETATM   27  O   UNL     1      -7.032   5.032  67.858  1.00  0.00    -0.059 OA 
ENDBRANCH  23  24
ENDBRANCH  22  23
ENDBRANCH  21  22
ENDBRANCH  20  21
ENDBRANCH  19  20
ENDBRANCH  18  19
ENDBRANCH  17  18
ENDBRANCH  15  16
ENDBRANCH  14  15
ENDBRANCH  13  14
ENDBRANCH  12  13
ENDBRANCH  11  12
ENDBRANCH  10  11
ENDBRANCH   6  10
TORSDOF 15
ENDMDL
MODEL      476
REMARK 921   NORMALIZED FREE ENERGY PREDICTED BY IDOCK:   -2.37 KCAL/MOL
REMARK 922        TOTAL FREE ENERGY PREDICTED BY IDOCK:   -6.39 KCAL/MOL
REMARK 923 INTER-LIGAND FREE ENERGY PREDICTED BY IDOCK:   -5.03 KCAL/MOL
REMARK 924 INTRA-LIGAND FREE ENERGY PREDICTED BY IDOCK:   -1.36 KCAL/MOL
REMARK 927      BINDING AFFINITY PREDICTED BY RF-SCORE:    0.00 PKD
ROOT
ATOM      1  N   GLY A   1      -8.201  10.117  69.643  1.00  0.00    -0.216 NA 
HETATM    2  C   UNL     1      -8.152   8.678  62.836  1.00  0.00    -0.177 C  
ATOM      3  H2  GLY A   1      -7.233   9.801  69.704  1.00  0.00     0.000 HD 
ATOM      4  H1  GLY A   1      -8.269  11.134  69.636  1.00  0.00     0.000 HD 
ATOM      5  CA  GLY A   1      -8.890   9.553  68.474  1.00  0.00    -0.124 C  
HETATM    6  C   UNL     1      -8.244  10.161  62.514  1.00  0.00    -0.165 C  
ENDROOT
BRANCH   5   7
ATOM      7  C   GLY A   1      -8.788   8.025  68.485  1.00  0.00    -0.134 C  
ATOM      8  H   GLY A   1      -9.760   6.536  69.307  1.00  0.00     0.000 HD 
ATOM      9  O   GLY A   1      -9.824   7.484  69.300  1.00  0.00    -0.165 OA 
ENDBRANCH   5   7
BRANCH   6  10
HETATM   10  C   UNL     1      -9.657  10.729  62.633  1.00  0.00    -0.296 C  
BRANCH  10  11
HETATM   11  C   UNL     1      -9.810  11.836  63.679  1.00  0.00    -0.357 C  
BRANCH  11  12
HETATM   12  C   UNL     1     -10.451  11.264  64.947  1.00  0.00    -0.375 C  
BRANCH  12  13
HETATM   13  C   UNL     1     -11.899  11.718  65.121  1.00  0.00    -0.073 C  
BRANCH  13  14
HETATM   14  C   UNL     1     -12.137  12.464  66.441  1.00  0.00    -0.215 C  
BRANCH  14  15
HETATM   15  C   UNL     1     -12.023  11.611  67.710  1.00  0.00    -0.119 C  
BRANCH  15  16
HETATM   16  C   UNL     1     -12.123  12.393  68.991  1.00  0.00    -0.185 C  
HETATM   17  C   UNL     1     -11.360  13.454  69.297  1.00  0.00    -0.314 C  
BRANCH  17  18
HETATM   18  C   UNL     1     -10.259  14.011  68.443  1.00  0.00    -0.239 C  
BRANCH  18  19
HETATM   19  C   UNL     1      -9.594  15.221  69.093  1.00  0.00    -0.243 C  
BRANCH  19  20
HETATM   20  C   UNL     1     -10.602  16.359  69.243  1.00  0.00    -0.311 C  
BRANCH  20  21
HETATM   21  C   UNL     1     -10.240  17.544  68.353  1.00  0.00    -0.372 C  
BRANCH  21  22
HETATM   22  C   UNL     1      -8.993  17.251  67.525  1.00  0.00    -0.222 C  
BRANCH  22  23
HETATM   23  C   UNL     1      -9.302  17.334  66.032  1.00  0.00    -0.128 C  
BRANCH  23  24
HETATM   24  C   UNL     1     -10.772  17.047  65.744  1.00  0.00    -0.146 C  
HETATM   25  C   UNL     1     -10.940  15.825  64.871  1.00  0.00    -0.427 C  
HETATM   26  O   UNL     1     -12.243  15.552  64.625  1.00  0.00    -0.151 OA 
HETATM   27  O   UNL     1     -10.037  15.141  64.428  1.00  0.00     0.125 OA 
ENDBRANCH  23  24
ENDBRANCH  22  23
ENDBRANCH  21  22
ENDBRANCH  20  21
ENDBRANCH  19  20
ENDBRANCH  18  19
ENDBRANCH  17  18
ENDBRANCH  15  16
ENDBRANCH  14  15
ENDBRANCH  13  14
ENDBRANCH  12  13
ENDBRANCH  11  12
ENDBRANCH  10  11
ENDBRANCH   6  10
TORSDOF 15
ENDMDL
MODEL      477
REMARK 921   NORMALIZED FREE ENERGY PREDICTED BY IDOCK:   -2.33 KCAL/MOL
REMARK 922        TOTAL FREE ENERGY PREDICTED BY IDOCK:   -6.31 KCAL/MOL
REMARK 923 INTER-LIGAND FREE ENERGY PREDICTED BY IDOCK:   -5.22 KCAL/MOL
REMARK 924 INTRA-LIGAND FREE ENERGY PREDICTED BY IDOCK:   -1.10 KCAL/MOL
REMARK 927      BINDING AFFINITY PREDICTED BY RF-SCORE:    0.00 PKD
ROOT
ATOM      1  N   GLY A   1     -11.542  16.225  63.945  1.00  0.00    -1.573 NA 
HETATM    2  C   UNL     1      -6.315  13.705  67.785  1.00  0.00    -0.172 C  
ATOM      3  H2  GLY A   1     -10.860  16.606  63.290  1.00  0.00     0.000 HD 
ATOM      4  H1  GLY A   1     -11.968  15.368  63.594  1.00  0.00     0.000 HD 
ATOM      5  CA  GLY A   1     -10.958  15.994  65.273  1.00  0.00    -0.299 C  
HETATM    6  C   UNL     1      -6.720  12.286  67.419  1.00  0.00    -0.150 C  
ENDROOT
BRANCH   5   7
ATOM      7  C   GLY A   1     -10.318  17.281  65.800  1.00  0.00    -0.234 C  
ATOM      8  H   GLY A   1      -8.531  18.086  65.809  1.00  0.00     0.000 HD 
ATOM      9  O   GLY A   1      -8.928  17.288  65.482  1.00  0.00    -0.288 OA 
ENDBRANCH   5   7
BRANCH   6  10
HETATM   10  C   UNL     1      -7.899  11.753  68.232  1.00  0.00    -0.137 C  
BRANCH  10  11
HETATM   11  C   UNL     1      -7.747  10.302  68.694  1.00  0.00    -0.094 C  
BRANCH  11  12
HETATM   12  C   UNL     1      -8.885   9.943  69.654  1.00  0.00    -0.224 C  
BRANCH  12  13
HETATM   13  C   UNL     1     -10.239  10.458  69.168  1.00  0.00    -0.239 C  
BRANCH  13  14
HETATM   14  C   UNL     1     -10.745   9.723  67.919  1.00  0.00    -0.312 C  
BRANCH  14  15
HETATM   15  C   UNL     1     -10.751   8.192  68.013  1.00  0.00    -0.108 C  
BRANCH  15  16
HETATM   16  C   UNL     1      -9.906   7.505  66.975  1.00  0.00    -0.280 C  
HETATM   17  C   UNL     1      -9.036   6.517  67.233  1.00  0.00    -0.117 C  
BRANCH  17  18
HETATM   18  C   UNL     1      -8.729   5.960  68.593  1.00  0.00    -0.109 C  
BRANCH  18  19
HETATM   19  C   UNL     1      -7.952   6.955  69.451  1.00  0.00    -0.115 C  
BRANCH  19  20
HETATM   20  C   UNL     1      -6.789   6.252  70.152  1.00  0.00    -0.054 C  
BRANCH  20  21
HETATM   21  C   UNL     1      -7.245   4.960  70.823  1.00  0.00    -0.059 C  
BRANCH  21  22
HETATM   22  C   UNL     1      -6.593   4.789  72.191  1.00  0.00    -0.042 C  
BRANCH  22  23
HETATM   23  C   UNL     1      -7.615   4.323  73.225  1.00  0.00    -0.081 C  
BRANCH  23  24
HETATM   24  C   UNL     1      -9.045   4.552  72.745  1.00  0.00    -0.134 C  
HETATM   25  C   UNL     1     -10.044   3.802  73.597  1.00  0.00    -0.131 C  
HETATM   26  O   UNL     1     -11.318   4.014  73.191  1.00  0.00    -0.168 OA 
HETATM   27  O   UNL     1      -9.773   3.089  74.545  1.00  0.00    -0.096 OA 
ENDBRANCH  23  24
ENDBRANCH  22  23
ENDBRANCH  21  22
ENDBRANCH  20  21
ENDBRANCH  19  20
ENDBRANCH  18  19
ENDBRANCH  17  18
ENDBRANCH  15  16
ENDBRANCH  14  15
ENDBRANCH  13  14
ENDBRANCH  12  13
ENDBRANCH  11  12
ENDBRANCH  10  11
ENDBRANCH   6  10
TORSDOF 15
ENDMDL
MODEL      478
REMARK 921   NORMALIZED FREE ENERGY PREDICTED BY IDOCK:   -2.32 KCAL/MOL
REMARK 922        TOTAL FREE ENERGY PREDICTED BY IDOCK:   -6.30 KCAL/MOL
REMARK 923 INTER-LIGAND FREE ENERGY PREDICTED BY IDOCK:   -4.32 KCAL/MOL
REMARK 924 INTRA-LIGAND FREE ENERGY PREDICTED BY IDOCK:   -1.99 KCAL/MOL
REMARK 927      BINDING AFFINITY PREDICTED BY RF-SCORE:    0.00 PKD
ROOT
ATOM      1  N   GLY A   1     -11.642   7.606  73.190  1.00  0.00    -0.636 NA 
HETATM    2  C   UNL     1      -9.824   8.244  66.504  1.00  0.00    -0.323 C  
ATOM      3  H2  GLY A   1     -11.387   6.619  73.151  1.00  0.00     0.000 HD 
ATOM      4  H1  GLY A   1     -10.925   8.166  73.650  1.00  0.00     0.000 HD 
ATOM      5  CA  GLY A   1     -11.933   8.150  71.857  1.00  0.00    -0.320 C  
HETATM    6  C   UNL     1      -8.644   9.118  66.900  1.00  0.00    -0.129 C  
ENDROOT
BRANCH   5   7
ATOM      7  C   GLY A   1     -13.009   7.308  71.165  1.00  0.00    -0.259 C  
ATOM      8  H   GLY A   1     -14.967   7.263  71.108  1.00  0.00     0.000 HD 
ATOM      9  O   GLY A   1     -14.300   7.785  71.537  1.00  0.00    -0.429 OA 
ENDBRANCH   5   7
BRANCH   6  10
HETATM   10  C   UNL     1      -9.025  10.570  67.189  1.00  0.00    -0.147 C  
BRANCH  10  11
HETATM   11  C   UNL     1      -7.890  11.576  66.982  1.00  0.00    -0.161 C  
BRANCH  11  12
HETATM   12  C   UNL     1      -7.244  11.910  68.329  1.00  0.00    -0.089 C  
BRANCH  12  13
HETATM   13  C   UNL     1      -6.256  10.835  68.781  1.00  0.00    -0.040 C  
BRANCH  13  14
HETATM   14  C   UNL     1      -6.054  10.810  70.302  1.00  0.00    -0.133 C  
BRANCH  14  15
HETATM   15  C   UNL     1      -6.752   9.662  71.041  1.00  0.00    -0.020 C  
BRANCH  15  16
HETATM   16  C   UNL     1      -8.083   9.271  70.458  1.00  0.00    -0.198 C  
HETATM   17  C   UNL     1      -8.463   8.008  70.209  1.00  0.00    -0.127 C  
BRANCH  17  18
HETATM   18  C   UNL     1      -7.621   6.785  70.428  1.00  0.00    -0.095 C  
BRANCH  18  19
HETATM   19  C   UNL     1      -8.391   5.691  71.163  1.00  0.00    -0.122 C  
BRANCH  19  20
HETATM   20  C   UNL     1      -7.906   4.313  70.713  1.00  0.00    -0.060 C  
BRANCH  20  21
HETATM   21  C   UNL     1      -7.676   4.270  69.205  1.00  0.00    -0.054 C  
BRANCH  21  22
HETATM   22  C   UNL     1      -8.939   3.838  68.466  1.00  0.00    -0.173 C  
BRANCH  22  23
HETATM   23  C   UNL     1      -9.290   4.836  67.365  1.00  0.00    -0.153 C  
BRANCH  23  24
HETATM   24  C   UNL     1     -10.245   4.232  66.341  1.00  0.00    -0.095 C  
HETATM   25  C   UNL     1      -9.737   4.417  64.929  1.00  0.00    -0.145 C  
HETATM   26  O   UNL     1     -10.569   3.868  64.014  1.00  0.00    -0.255 OA 
HETATM   27  O   UNL     1      -8.706   4.982  64.616  1.00  0.00    -0.151 OA 
ENDBRANCH  23  24
ENDBRANCH  22  23
ENDBRANCH  21  22
ENDBRANCH  20  21
ENDBRANCH  19  20
ENDBRANCH  18  19
ENDBRANCH  17  18
ENDBRANCH  15  16
ENDBRANCH  14  15
ENDBRANCH  13  14
ENDBRANCH  12  13
ENDBRANCH  11  12
ENDBRANCH  10  11
ENDBRANCH   6  10
TORSDOF 15
ENDMDL
MODEL      479
REMARK 921   NORMALIZED FREE ENERGY PREDICTED BY IDOCK:   -2.30 KCAL/MOL
REMARK 922        TOTAL FREE ENERGY PREDICTED BY IDOCK:   -6.27 KCAL/MOL
REMARK 923 INTER-LIGAND FREE ENERGY PREDICTED BY IDOCK:   -5.82 KCAL/MOL
REMARK 924 INTRA-LIGAND FREE ENERGY PREDICTED BY IDOCK:   -0.45 KCAL/MOL
REMARK 927      BINDING AFFINITY PREDICTED BY RF-SCORE:    0.00 PKD
ROOT
ATOM      1  N   GLY A   1      -5.131  18.546  63.243  1.00  0.00    -0.029 NA 
HETATM    2  C   UNL     1      -5.417  20.931  69.773  1.00  0.00    -0.370 C  
ATOM      3  H2  GLY A   1      -4.117  18.654  63.262  1.00  0.00     0.000 HD 
ATOM      4  H1  GLY A   1      -5.412  17.574  63.369  1.00  0.00     0.000 HD 
ATOM      5  CA  GLY A   1      -5.792  19.399  64.240  1.00  0.00    -0.281 C  
HETATM    6  C   UNL     1      -5.849  19.558  70.264  1.00  0.00    -0.293 C  
ENDROOT
BRANCH   5   7
ATOM      7  C   GLY A   1      -5.369  20.858  64.051  1.00  0.00    -0.210 C  
ATOM      8  H   GLY A   1      -5.707  22.285  62.751  1.00  0.00     0.000 HD 
ATOM      9  O   GLY A   1      -5.969  21.380  62.868  1.00  0.00    -0.271 OA 
ENDBRANCH   5   7
BRANCH   6  10
HETATM   10  C   UNL     1      -7.333  19.266  70.045  1.00  0.00     0.407 C  
BRANCH  10  11
HETATM   11  C   UNL     1      -7.763  19.227  68.577  1.00  0.00    -0.380 C  
BRANCH  11  12
HETATM   12  C   UNL     1      -9.249  19.579  68.463  1.00  0.00    -0.413 C  
BRANCH  12  13
HETATM   13  C   UNL     1     -10.010  18.600  67.571  1.00  0.00    -0.371 C  
BRANCH  13  14
HETATM   14  C   UNL     1      -9.363  17.209  67.521  1.00  0.00    -0.238 C  
BRANCH  14  15
HETATM   15  C   UNL     1      -9.985  16.158  68.449  1.00  0.00    -0.230 C  
BRANCH  15  16
HETATM   16  C   UNL     1      -9.248  14.847  68.478  1.00  0.00    -0.192 C  
HETATM   17  C   UNL     1      -9.832  13.644  68.357  1.00  0.00    -0.223 C  
BRANCH  17  18
HETATM   18  C   UNL     1     -11.306  13.401  68.214  1.00  0.00    -0.330 C  
BRANCH  18  19
HETATM   19  C   UNL     1     -11.688  11.980  68.622  1.00  0.00    -0.380 C  
BRANCH  19  20
HETATM   20  C   UNL     1     -10.453  11.080  68.616  1.00  0.00    -0.214 C  
BRANCH  20  21
HETATM   21  C   UNL     1     -10.521  10.050  67.492  1.00  0.00    -0.307 C  
BRANCH  21  22
HETATM   22  C   UNL     1      -9.398   9.025  67.615  1.00  0.00    -0.154 C  
BRANCH  22  23
HETATM   23  C   UNL     1      -9.731   7.761  66.825  1.00  0.00    -0.296 C  
BRANCH  23  24
HETATM   24  C   UNL     1     -10.692   6.855  67.589  1.00  0.00    -0.344 C  
HETATM   25  C   UNL     1     -10.194   6.569  68.988  1.00  0.00    -0.177 C  
HETATM   26  O   UNL     1     -11.050   5.782  69.680  1.00  0.00    -0.372 OA 
HETATM   27  O   UNL     1      -9.157   6.985  69.469  1.00  0.00    -0.146 OA 
ENDBRANCH  23  24
ENDBRANCH  22  23
ENDBRANCH  21  22
ENDBRANCH  20  21
ENDBRANCH  19  20
ENDBRANCH  18  19
ENDBRANCH  17  18
ENDBRANCH  15  16
ENDBRANCH  14  15
ENDBRANCH  13  14
ENDBRANCH  12  13
ENDBRANCH  11  12
ENDBRANCH  10  11
ENDBRANCH   6  10
TORSDOF 15
ENDMDL
MODEL      480
REMARK 921   NORMALIZED FREE ENERGY PREDICTED BY IDOCK:   -2.29 KCAL/MOL
REMARK 922        TOTAL FREE ENERGY PREDICTED BY IDOCK:   -6.24 KCAL/MOL
REMARK 923 INTER-LIGAND FREE ENERGY PREDICTED BY IDOCK:   -4.24 KCAL/MOL
REMARK 924 INTRA-LIGAND FREE ENERGY PREDICTED BY IDOCK:   -2.00 KCAL/MOL
REMARK 927      BINDING AFFINITY PREDICTED BY RF-SCORE:    0.00 PKD
ROOT
ATOM      1  N   GLY A   1     -12.211   7.143  72.560  1.00  0.00    -0.502 NA 
HETATM    2  C   UNL     1     -11.446  11.324  67.051  1.00  0.00    -0.177 C  
ATOM      3  H2  GLY A   1     -12.835   6.553  72.009  1.00  0.00     0.000 HD 
ATOM      4  H1  GLY A   1     -11.278   6.739  72.640  1.00  0.00     0.000 HD 
ATOM      5  CA  GLY A   1     -12.130   8.507  72.022  1.00  0.00    -0.364 C  
HETATM    6  C   UNL     1      -9.994  10.893  66.916  1.00  0.00    -0.232 C  
ENDROOT
BRANCH   5   7
ATOM      7  C   GLY A   1     -13.531   9.113  71.900  1.00  0.00    -0.430 C  
ATOM      8  H   GLY A   1     -14.407  10.469  70.789  1.00  0.00     0.000 HD 
ATOM      9  O   GLY A   1     -13.539  10.093  70.865  1.00  0.00    -0.274 OA 
ENDBRANCH   5   7
BRANCH   6  10
HETATM   10  C   UNL     1      -9.051  11.598  67.891  1.00  0.00    -0.171 C  
BRANCH  10  11
HETATM   11  C   UNL     1      -7.696  11.987  67.294  1.00  0.00    -0.168 C  
BRANCH  11  12
HETATM   12  C   UNL     1      -6.570  11.328  68.095  1.00  0.00    -0.057 C  
BRANCH  12  13
HETATM   13  C   UNL     1      -6.311   9.888  67.654  1.00  0.00    -0.059 C  
BRANCH  13  14
HETATM   14  C   UNL     1      -6.047   8.940  68.832  1.00  0.00    -0.044 C  
BRANCH  14  15
HETATM   15  C   UNL     1      -7.132   7.885  69.084  1.00  0.00    -0.069 C  
BRANCH  15  16
HETATM   16  C   UNL     1      -8.412   8.438  69.650  1.00  0.00    -0.127 C  
HETATM   17  C   UNL     1      -8.590   8.778  70.936  1.00  0.00    -0.229 C  
BRANCH  17  18
HETATM   18  C   UNL     1      -7.571   8.629  72.027  1.00  0.00    -0.084 C  
BRANCH  18  19
HETATM   19  C   UNL     1      -8.218   8.282  73.366  1.00  0.00    -0.242 C  
BRANCH  19  20
HETATM   20  C   UNL     1      -7.721   6.922  73.855  1.00  0.00    -0.112 C  
BRANCH  20  21
HETATM   21  C   UNL     1      -7.009   6.158  72.743  1.00  0.00    -0.076 C  
BRANCH  21  22
HETATM   22  C   UNL     1      -7.887   5.036  72.195  1.00  0.00    -0.110 C  
BRANCH  22  23
HETATM   23  C   UNL     1      -9.289   5.103  72.796  1.00  0.00    -0.149 C  
BRANCH  23  24
HETATM   24  C   UNL     1     -10.123   3.883  72.417  1.00  0.00    -0.237 C  
HETATM   25  C   UNL     1     -10.087   2.826  73.497  1.00  0.00    -0.110 C  
HETATM   26  O   UNL     1     -10.840   1.748  73.177  1.00  0.00    -0.129 OA 
HETATM   27  O   UNL     1      -9.470   2.903  74.542  1.00  0.00    -0.085 OA 
ENDBRANCH  23  24
ENDBRANCH  22  23
ENDBRANCH  21  22
ENDBRANCH  20  21
ENDBRANCH  19  20
ENDBRANCH  18  19
ENDBRANCH  17  18
ENDBRANCH  15  16
ENDBRANCH  14  15
ENDBRANCH  13  14
ENDBRANCH  12  13
ENDBRANCH  11  12
ENDBRANCH  10  11
ENDBRANCH   6  10
TORSDOF 15
ENDMDL
MODEL      481
REMARK 921   NORMALIZED FREE ENERGY PREDICTED BY IDOCK:   -2.28 KCAL/MOL
REMARK 922        TOTAL FREE ENERGY PREDICTED BY IDOCK:   -6.23 KCAL/MOL
REMARK 923 INTER-LIGAND FREE ENERGY PREDICTED BY IDOCK:   -5.05 KCAL/MOL
REMARK 924 INTRA-LIGAND FREE ENERGY PREDICTED BY IDOCK:   -1.18 KCAL/MOL
REMARK 927      BINDING AFFINITY PREDICTED BY RF-SCORE:    0.00 PKD
ROOT
ATOM      1  N   GLY A   1      -8.530  19.495  68.639  1.00  0.00    -0.354 NA 
HETATM    2  C   UNL     1     -12.262  14.292  65.915  1.00  0.00    -0.422 C  
ATOM      3  H2  GLY A   1      -9.388  20.034  68.752  1.00  0.00     0.000 HD 
ATOM      4  H1  GLY A   1      -8.220  19.084  69.519  1.00  0.00     0.000 HD 
ATOM      5  CA  GLY A   1      -8.668  18.453  67.612  1.00  0.00    -0.260 C  
HETATM    6  C   UNL     1     -11.968  13.433  67.134  1.00  0.00    -0.415 C  
ENDROOT
BRANCH   5   7
ATOM      7  C   GLY A   1      -9.134  19.070  66.291  1.00  0.00    -0.287 C  
ATOM      8  H   GLY A   1      -8.497  20.455  65.060  1.00  0.00     0.000 HD 
ATOM      9  O   GLY A   1      -8.208  20.072  65.880  1.00  0.00    -0.334 OA 
ENDBRANCH   5   7
BRANCH   6  10
HETATM   10  C   UNL     1     -10.586  12.781  67.108  1.00  0.00    -0.249 C  
BRANCH  10  11
HETATM   11  C   UNL     1     -10.034  12.521  65.705  1.00  0.00    -0.259 C  
BRANCH  11  12
HETATM   12  C   UNL     1     -10.067  11.020  65.406  1.00  0.00    -0.326 C  
BRANCH  12  13
HETATM   13  C   UNL     1      -8.706  10.486  64.963  1.00  0.00    -0.193 C  
BRANCH  13  14
HETATM   14  C   UNL     1      -8.752   9.013  64.533  1.00  0.00    -0.153 C  
BRANCH  14  15
HETATM   15  C   UNL     1      -7.880   8.058  65.357  1.00  0.00    -0.106 C  
BRANCH  15  16
HETATM   16  C   UNL     1      -6.612   8.676  65.881  1.00  0.00    -0.057 C  
HETATM   17  C   UNL     1      -6.372   8.936  67.176  1.00  0.00    -0.060 C  
BRANCH  17  18
HETATM   18  C   UNL     1      -7.331   8.697  68.305  1.00  0.00    -0.087 C  
BRANCH  18  19
HETATM   19  C   UNL     1      -6.688   7.895  69.435  1.00  0.00    -0.039 C  
BRANCH  19  20
HETATM   20  C   UNL     1      -6.353   6.483  68.954  1.00  0.00    -0.035 C  
BRANCH  20  21
HETATM   21  C   UNL     1      -6.547   5.457  70.066  1.00  0.00    -0.046 C  
BRANCH  21  22
HETATM   22  C   UNL     1      -7.666   5.876  71.015  1.00  0.00    -0.101 C  
BRANCH  22  23
HETATM   23  C   UNL     1      -8.859   4.930  70.894  1.00  0.00    -0.155 C  
BRANCH  23  24
HETATM   24  C   UNL     1     -10.033   5.392  71.753  1.00  0.00    -0.235 C  
HETATM   25  C   UNL     1     -11.176   5.900  70.905  1.00  0.00    -0.207 C  
HETATM   26  O   UNL     1     -12.230   6.295  71.657  1.00  0.00    -0.279 OA 
HETATM   27  O   UNL     1     -11.186   5.958  69.690  1.00  0.00    -0.395 OA 
ENDBRANCH  23  24
ENDBRANCH  22  23
ENDBRANCH  21  22
ENDBRANCH  20  21
ENDBRANCH  19  20
ENDBRANCH  18  19
ENDBRANCH  17  18
ENDBRANCH  15  16
ENDBRANCH  14  15
ENDBRANCH  13  14
ENDBRANCH  12  13
ENDBRANCH  11  12
ENDBRANCH  10  11
ENDBRANCH   6  10
TORSDOF 15
ENDMDL
MODEL      482
REMARK 921   NORMALIZED FREE ENERGY PREDICTED BY IDOCK:   -2.26 KCAL/MOL
REMARK 922        TOTAL FREE ENERGY PREDICTED BY IDOCK:   -6.19 KCAL/MOL
REMARK 923 INTER-LIGAND FREE ENERGY PREDICTED BY IDOCK:   -5.22 KCAL/MOL
REMARK 924 INTRA-LIGAND FREE ENERGY PREDICTED BY IDOCK:   -0.97 KCAL/MOL
REMARK 927      BINDING AFFINITY PREDICTED BY RF-SCORE:    0.00 PKD
ROOT
ATOM      1  N   GLY A   1      -7.278  16.125  69.370  1.00  0.00    -0.223 NA 
HETATM    2  C   UNL     1     -12.313  14.275  64.940  1.00  0.00    -0.435 C  
ATOM      3  H2  GLY A   1      -7.938  16.742  69.843  1.00  0.00     0.000 HD 
ATOM      4  H1  GLY A   1      -7.131  15.258  69.886  1.00  0.00     0.000 HD 
ATOM      5  CA  GLY A   1      -7.690  15.832  67.991  1.00  0.00    -0.129 C  
HETATM    6  C   UNL     1     -12.327  12.874  65.529  1.00  0.00    -0.517 C  
ENDROOT
BRANCH   5   7
ATOM      7  C   GLY A   1      -7.910  17.135  67.217  1.00  0.00    -0.178 C  
ATOM      8  H   GLY A   1      -8.569  18.937  67.614  1.00  0.00     0.000 HD 
ATOM      9  O   GLY A   1      -8.433  18.129  68.094  1.00  0.00    -0.259 OA 
ENDBRANCH   5   7
BRANCH   6  10
HETATM   10  C   UNL     1     -11.204  11.977  65.009  1.00  0.00    -0.374 C  
BRANCH  10  11
HETATM   11  C   UNL     1     -10.653  10.989  66.040  1.00  0.00    -0.275 C  
BRANCH  11  12
HETATM   12  C   UNL     1      -9.889   9.870  65.326  1.00  0.00    -0.373 C  
BRANCH  12  13
HETATM   13  C   UNL     1      -8.626  10.379  64.634  1.00  0.00    -0.192 C  
BRANCH  13  14
HETATM   14  C   UNL     1      -7.473  10.642  65.613  1.00  0.00    -0.093 C  
BRANCH  14  15
HETATM   15  C   UNL     1      -7.412   9.705  66.826  1.00  0.00    -0.094 C  
BRANCH  15  16
HETATM   16  C   UNL     1      -7.675  10.381  68.143  1.00  0.00    -0.092 C  
HETATM   17  C   UNL     1      -8.537   9.934  69.069  1.00  0.00    -0.149 C  
BRANCH  17  18
HETATM   18  C   UNL     1      -9.408   8.719  68.935  1.00  0.00    -0.145 C  
BRANCH  18  19
HETATM   19  C   UNL     1      -8.689   7.583  68.210  1.00  0.00    -0.123 C  
BRANCH  19  20
HETATM   20  C   UNL     1      -8.059   6.627  69.223  1.00  0.00    -0.116 C  
BRANCH  20  21
HETATM   21  C   UNL     1      -8.529   5.193  69.000  1.00  0.00    -0.090 C  
BRANCH  21  22
HETATM   22  C   UNL     1      -8.755   4.474  70.327  1.00  0.00    -0.116 C  
BRANCH  22  23
HETATM   23  C   UNL     1     -10.153   4.762  70.868  1.00  0.00    -0.275 C  
BRANCH  23  24
HETATM   24  C   UNL     1     -10.152   4.898  72.388  1.00  0.00    -0.240 C  
HETATM   25  C   UNL     1     -10.433   6.320  72.819  1.00  0.00    -0.214 C  
HETATM   26  O   UNL     1     -10.452   6.447  74.166  1.00  0.00    -0.320 OA 
HETATM   27  O   UNL     1     -10.628   7.261  72.073  1.00  0.00    -0.204 OA 
ENDBRANCH  23  24
ENDBRANCH  22  23
ENDBRANCH  21  22
ENDBRANCH  20  21
ENDBRANCH  19  20
ENDBRANCH  18  19
ENDBRANCH  17  18
ENDBRANCH  15  16
ENDBRANCH  14  15
ENDBRANCH  13  14
ENDBRANCH  12  13
ENDBRANCH  11  12
ENDBRANCH  10  11
ENDBRANCH   6  10
TORSDOF 15
ENDMDL
MODEL      483
REMARK 921   NORMALIZED FREE ENERGY PREDICTED BY IDOCK:   -2.26 KCAL/MOL
REMARK 922        TOTAL FREE ENERGY PREDICTED BY IDOCK:   -6.18 KCAL/MOL
REMARK 923 INTER-LIGAND FREE ENERGY PREDICTED BY IDOCK:   -4.30 KCAL/MOL
REMARK 924 INTRA-LIGAND FREE ENERGY PREDICTED BY IDOCK:   -1.89 KCAL/MOL
REMARK 927      BINDING AFFINITY PREDICTED BY RF-SCORE:    0.00 PKD
ROOT
ATOM      1  N   GLY A   1     -12.172  14.959  67.051  1.00  0.00    -0.317 NA 
HETATM    2  C   UNL     1      -6.388  14.384  70.876  1.00  0.00     0.026 C  
ATOM      3  H2  GLY A   1     -12.276  15.920  67.377  1.00  0.00     0.000 HD 
ATOM      4  H1  GLY A   1     -11.795  14.917  66.104  1.00  0.00     0.000 HD 
ATOM      5  CA  GLY A   1     -11.345  14.157  67.962  1.00  0.00    -0.299 C  
HETATM    6  C   UNL     1      -5.550  14.304  69.610  1.00  0.00    -0.096 C  
ENDROOT
BRANCH   5   7
ATOM      7  C   GLY A   1     -11.911  14.220  69.384  1.00  0.00    -0.326 C  
ATOM      8  H   GLY A   1     -11.616  15.303  70.990  1.00  0.00     0.000 HD 
ATOM      9  O   GLY A   1     -11.265  15.264  70.108  1.00  0.00    -0.252 OA 
ENDBRANCH   5   7
BRANCH   6  10
HETATM   10  C   UNL     1      -5.550  12.921  68.959  1.00  0.00    -0.070 C  
BRANCH  10  11
HETATM   11  C   UNL     1      -6.074  11.798  69.857  1.00  0.00    -0.151 C  
BRANCH  11  12
HETATM   12  C   UNL     1      -7.124  10.979  69.102  1.00  0.00    -0.116 C  
BRANCH  12  13
HETATM   13  C   UNL     1      -8.358  11.807  68.745  1.00  0.00    -0.010 C  
BRANCH  13  14
HETATM   14  C   UNL     1      -8.513  12.030  67.234  1.00  0.00    -0.175 C  
BRANCH  14  15
HETATM   15  C   UNL     1      -9.761  11.403  66.601  1.00  0.00    -0.224 C  
BRANCH  15  16
HETATM   16  C   UNL     1      -9.783  11.455  65.097  1.00  0.00    -0.280 C  
HETATM   17  C   UNL     1      -9.570  10.399  64.296  1.00  0.00    -0.377 C  
BRANCH  17  18
HETATM   18  C   UNL     1      -9.236   9.010  64.756  1.00  0.00     0.005 C  
BRANCH  18  19
HETATM   19  C   UNL     1      -7.745   8.850  65.043  1.00  0.00    -0.103 C  
BRANCH  19  20
HETATM   20  C   UNL     1      -7.529   7.809  66.140  1.00  0.00    -0.079 C  
BRANCH  20  21
HETATM   21  C   UNL     1      -8.218   8.219  67.438  1.00  0.00    -0.121 C  
BRANCH  21  22
HETATM   22  C   UNL     1      -8.909   7.027  68.096  1.00  0.00    -0.129 C  
BRANCH  22  23
HETATM   23  C   UNL     1      -9.213   7.320  69.563  1.00  0.00    -0.149 C  
BRANCH  23  24
HETATM   24  C   UNL     1     -10.673   7.037  69.904  1.00  0.00    -0.265 C  
HETATM   25  C   UNL     1     -11.244   8.093  70.824  1.00  0.00    -0.261 C  
HETATM   26  O   UNL     1     -12.544   7.860  71.117  1.00  0.00    -0.273 OA 
HETATM   27  O   UNL     1     -10.638   9.052  71.263  1.00  0.00    -0.254 OA 
ENDBRANCH  23  24
ENDBRANCH  22  23
ENDBRANCH  21  22
ENDBRANCH  20  21
ENDBRANCH  19  20
ENDBRANCH  18  19
ENDBRANCH  17  18
ENDBRANCH  15  16
ENDBRANCH  14  15
ENDBRANCH  13  14
ENDBRANCH  12  13
ENDBRANCH  11  12
ENDBRANCH  10  11
ENDBRANCH   6  10
TORSDOF 15
ENDMDL
MODEL      484
REMARK 921   NORMALIZED FREE ENERGY PREDICTED BY IDOCK:   -2.23 KCAL/MOL
REMARK 922        TOTAL FREE ENERGY PREDICTED BY IDOCK:   -6.14 KCAL/MOL
REMARK 923 INTER-LIGAND FREE ENERGY PREDICTED BY IDOCK:   -5.16 KCAL/MOL
REMARK 924 INTRA-LIGAND FREE ENERGY PREDICTED BY IDOCK:   -0.97 KCAL/MOL
REMARK 927      BINDING AFFINITY PREDICTED BY RF-SCORE:    0.00 PKD
ROOT
ATOM      1  N   GLY A   1     -10.577   1.933  72.885  1.00  0.00    -0.141 NA 
HETATM    2  C   UNL     1      -8.150   8.404  72.078  1.00  0.00    -0.194 C  
ATOM      3  H2  GLY A   1     -11.106   2.247  73.698  1.00  0.00     0.000 HD 
ATOM      4  H1  GLY A   1     -11.168   1.833  72.061  1.00  0.00     0.000 HD 
ATOM      5  CA  GLY A   1      -9.443   2.821  72.592  1.00  0.00    -0.105 C  
HETATM    6  C   UNL     1      -8.947   8.550  70.791  1.00  0.00    -0.193 C  
ENDROOT
BRANCH   5   7
ATOM      7  C   GLY A   1      -8.555   2.971  73.830  1.00  0.00    -0.073 C  
ATOM      8  H   GLY A   1      -7.737   1.778  75.152  1.00  0.00     0.000 HD 
ATOM      9  O   GLY A   1      -8.288   1.685  74.384  1.00  0.00    -0.051 OA 
ENDBRANCH   5   7
BRANCH   6  10
HETATM   10  C   UNL     1      -8.288   7.890  69.581  1.00  0.00    -0.131 C  
BRANCH  10  11
HETATM   11  C   UNL     1      -8.005   8.841  68.415  1.00  0.00    -0.109 C  
BRANCH  11  12
HETATM   12  C   UNL     1      -8.088   8.075  67.092  1.00  0.00    -0.117 C  
BRANCH  12  13
HETATM   13  C   UNL     1      -7.927   8.992  65.880  1.00  0.00    -0.103 C  
BRANCH  13  14
HETATM   14  C   UNL     1      -9.209   9.765  65.541  1.00  0.00    -0.270 C  
BRANCH  14  15
HETATM   15  C   UNL     1      -9.709   9.612  64.099  1.00  0.00     0.268 C  
BRANCH  15  16
HETATM   16  C   UNL     1      -9.377  10.775  63.204  1.00  0.00    -0.336 C  
HETATM   17  C   UNL     1     -10.096  11.906  63.129  1.00  0.00    -0.341 C  
BRANCH  17  18
HETATM   18  C   UNL     1     -11.363  12.185  63.883  1.00  0.00    -0.501 C  
BRANCH  18  19
HETATM   19  C   UNL     1     -11.275  13.485  64.679  1.00  0.00    -0.377 C  
BRANCH  19  20
HETATM   20  C   UNL     1     -10.867  13.192  66.123  1.00  0.00    -0.293 C  
BRANCH  20  21
HETATM   21  C   UNL     1     -10.105  14.364  66.733  1.00  0.00    -0.266 C  
BRANCH  21  22
HETATM   22  C   UNL     1     -11.054  15.487  67.142  1.00  0.00    -0.256 C  
BRANCH  22  23
HETATM   23  C   UNL     1     -11.131  15.604  68.663  1.00  0.00    -0.317 C  
BRANCH  23  24
HETATM   24  C   UNL     1     -11.104  14.235  69.335  1.00  0.00    -0.283 C  
HETATM   25  C   UNL     1     -12.294  14.038  70.246  1.00  0.00    -0.358 C  
HETATM   26  O   UNL     1     -12.289  12.819  70.833  1.00  0.00    -0.372 OA 
HETATM   27  O   UNL     1     -13.174  14.854  70.447  1.00  0.00    -0.248 OA 
ENDBRANCH  23  24
ENDBRANCH  22  23
ENDBRANCH  21  22
ENDBRANCH  20  21
ENDBRANCH  19  20
ENDBRANCH  18  19
ENDBRANCH  17  18
ENDBRANCH  15  16
ENDBRANCH  14  15
ENDBRANCH  13  14
ENDBRANCH  12  13
ENDBRANCH  11  12
ENDBRANCH  10  11
ENDBRANCH   6  10
TORSDOF 15
ENDMDL
MODEL      485
REMARK 921   NORMALIZED FREE ENERGY PREDICTED BY IDOCK:   -2.21 KCAL/MOL
REMARK 922        TOTAL FREE ENERGY PREDICTED BY IDOCK:   -6.09 KCAL/MOL
REMARK 923 INTER-LIGAND FREE ENERGY PREDICTED BY IDOCK:   -4.63 KCAL/MOL
REMARK 924 INTRA-LIGAND FREE ENERGY PREDICTED BY IDOCK:   -1.46 KCAL/MOL
REMARK 927      BINDING AFFINITY PREDICTED BY RF-SCORE:    0.00 PKD
ROOT
ATOM      1  N   GLY A   1     -11.567   9.163  70.138  1.00  0.00    -0.458 NA 
HETATM    2  C   UNL     1      -6.973   4.124  71.519  1.00  0.00    -0.035 C  
ATOM      3  H2  GLY A   1     -10.801   9.835  70.105  1.00  0.00     0.000 HD 
ATOM      4  H1  GLY A   1     -11.884   8.900  69.206  1.00  0.00     0.000 HD 
ATOM      5  CA  GLY A   1     -11.213   7.965  70.911  1.00  0.00    -0.270 C  
HETATM    6  C   UNL     1      -7.238   3.498  70.159  1.00  0.00    -0.041 C  
ENDROOT
BRANCH   5   7
ATOM      7  C   GLY A   1     -10.737   8.360  72.312  1.00  0.00    -0.347 C  
ATOM      8  H   GLY A   1     -11.559   8.665  74.065  1.00  0.00     0.000 HD 
ATOM      9  O   GLY A   1     -11.854   8.420  73.196  1.00  0.00    -0.130 OA 
ENDBRANCH   5   7
BRANCH   6  10
HETATM   10  C   UNL     1      -8.514   2.658  70.107  1.00  0.00    -0.087 C  
BRANCH  10  11
HETATM   11  C   UNL     1      -9.168   2.584  68.725  1.00  0.00    -0.227 C  
BRANCH  11  12
HETATM   12  C   UNL     1      -9.100   3.954  68.046  1.00  0.00    -0.183 C  
BRANCH  12  13
HETATM   13  C   UNL     1      -8.517   3.875  66.636  1.00  0.00    -0.105 C  
BRANCH  13  14
HETATM   14  C   UNL     1      -8.851   5.105  65.781  1.00  0.00    -0.143 C  
BRANCH  14  15
HETATM   15  C   UNL     1      -7.714   6.121  65.616  1.00  0.00    -0.092 C  
BRANCH  15  16
HETATM   16  C   UNL     1      -8.162   7.479  65.149  1.00  0.00    -0.122 C  
HETATM   17  C   UNL     1      -8.858   8.349  65.897  1.00  0.00    -0.212 C  
BRANCH  17  18
HETATM   18  C   UNL     1      -9.339   8.105  67.297  1.00  0.00    -0.174 C  
BRANCH  18  19
HETATM   19  C   UNL     1      -8.739   9.103  68.285  1.00  0.00    -0.129 C  
BRANCH  19  20
HETATM   20  C   UNL     1      -7.631   9.911  67.610  1.00  0.00    -0.091 C  
BRANCH  20  21
HETATM   21  C   UNL     1      -7.754  11.398  67.931  1.00  0.00    -0.114 C  
BRANCH  21  22
HETATM   22  C   UNL     1      -9.211  11.799  68.142  1.00  0.00    -0.186 C  
BRANCH  22  23
HETATM   23  C   UNL     1      -9.553  13.043  67.326  1.00  0.00    -0.225 C  
BRANCH  23  24
HETATM   24  C   UNL     1      -9.812  12.704  65.862  1.00  0.00    -0.251 C  
HETATM   25  C   UNL     1     -11.199  13.123  65.430  1.00  0.00    -0.291 C  
HETATM   26  O   UNL     1     -11.431  12.843  64.127  1.00  0.00    -0.350 OA 
HETATM   27  O   UNL     1     -12.031  13.655  66.140  1.00  0.00    -0.370 OA 
ENDBRANCH  23  24
ENDBRANCH  22  23
ENDBRANCH  21  22
ENDBRANCH  20  21
ENDBRANCH  19  20
ENDBRANCH  18  19
ENDBRANCH  17  18
ENDBRANCH  15  16
ENDBRANCH  14  15
ENDBRANCH  13  14
ENDBRANCH  12  13
ENDBRANCH  11  12
ENDBRANCH  10  11
ENDBRANCH   6  10
TORSDOF 15
ENDMDL
MODEL      486
REMARK 921   NORMALIZED FREE ENERGY PREDICTED BY IDOCK:   -2.12 KCAL/MOL
REMARK 922        TOTAL FREE ENERGY PREDICTED BY IDOCK:   -5.93 KCAL/MOL
REMARK 923 INTER-LIGAND FREE ENERGY PREDICTED BY IDOCK:   -4.56 KCAL/MOL
REMARK 924 INTRA-LIGAND FREE ENERGY PREDICTED BY IDOCK:   -1.37 KCAL/MOL
REMARK 927      BINDING AFFINITY PREDICTED BY RF-SCORE:    0.00 PKD
ROOT
ATOM      1  N   GLY A   1     -10.581   9.749  68.834  1.00  0.00    -0.213 NA 
HETATM    2  C   UNL     1      -6.564   4.360  70.631  1.00  0.00    -0.035 C  
ATOM      3  H2  GLY A   1      -9.745  10.261  68.552  1.00  0.00     0.000 HD 
ATOM      4  H1  GLY A   1     -11.084   9.370  68.032  1.00  0.00     0.000 HD 
ATOM      5  CA  GLY A   1     -10.271   8.679  69.792  1.00  0.00    -0.206 C  
HETATM    6  C   UNL     1      -7.140   3.540  69.487  1.00  0.00    -0.042 C  
ENDROOT
BRANCH   5   7
ATOM      7  C   GLY A   1      -9.515   9.249  70.996  1.00  0.00    -0.243 C  
ATOM      8  H   GLY A   1      -8.814   8.566  72.693  1.00  0.00     0.000 HD 
ATOM      9  O   GLY A   1      -9.283   8.213  71.946  1.00  0.00    -0.148 OA 
ENDBRANCH   5   7
BRANCH   6  10
HETATM   10  C   UNL     1      -8.509   2.935  69.792  1.00  0.00    -0.098 C  
BRANCH  10  11
HETATM   11  C   UNL     1      -9.299   2.495  68.557  1.00  0.00    -0.254 C  
BRANCH  11  12
HETATM   12  C   UNL     1      -9.700   3.723  67.735  1.00  0.00    -0.132 C  
BRANCH  12  13
HETATM   13  C   UNL     1      -9.304   3.593  66.265  1.00  0.00    -0.187 C  
BRANCH  13  14
HETATM   14  C   UNL     1      -9.672   4.830  65.435  1.00  0.00    -0.138 C  
BRANCH  14  15
HETATM   15  C   UNL     1      -8.713   6.020  65.565  1.00  0.00    -0.120 C  
BRANCH  15  16
HETATM   16  C   UNL     1      -9.269   7.177  66.351  1.00  0.00    -0.196 C  
HETATM   17  C   UNL     1      -9.155   8.465  65.991  1.00  0.00    -0.235 C  
BRANCH  17  18
HETATM   18  C   UNL     1      -8.426   8.971  64.780  1.00  0.00    -0.197 C  
BRANCH  18  19
HETATM   19  C   UNL     1      -9.014  10.285  64.272  1.00  0.00    -0.261 C  
BRANCH  19  20
HETATM   20  C   UNL     1     -10.397  10.514  64.882  1.00  0.00    -0.307 C  
BRANCH  20  21
HETATM   21  C   UNL     1     -10.629  11.989  65.195  1.00  0.00    -0.330 C  
BRANCH  21  22
HETATM   22  C   UNL     1      -9.913  12.400  66.478  1.00  0.00    -0.242 C  
BRANCH  22  23
HETATM   23  C   UNL     1      -9.875  13.920  66.614  1.00  0.00    -0.288 C  
BRANCH  23  24
HETATM   24  C   UNL     1      -9.431  14.351  68.008  1.00  0.00    -0.209 C  
HETATM   25  C   UNL     1      -8.064  14.995  67.983  1.00  0.00    -0.130 C  
HETATM   26  O   UNL     1      -7.669  15.397  69.214  1.00  0.00    -0.187 OA 
HETATM   27  O   UNL     1      -7.374  15.155  66.994  1.00  0.00    -0.167 OA 
ENDBRANCH  23  24
ENDBRANCH  22  23
ENDBRANCH  21  22
ENDBRANCH  20  21
ENDBRANCH  19  20
ENDBRANCH  18  19
ENDBRANCH  17  18
ENDBRANCH  15  16
ENDBRANCH  14  15
ENDBRANCH  13  14
ENDBRANCH  12  13
ENDBRANCH  11  12
ENDBRANCH  10  11
ENDBRANCH   6  10
TORSDOF 15
ENDMDL
MODEL      487
REMARK 921   NORMALIZED FREE ENERGY PREDICTED BY IDOCK:   -2.11 KCAL/MOL
REMARK 922        TOTAL FREE ENERGY PREDICTED BY IDOCK:   -5.91 KCAL/MOL
REMARK 923 INTER-LIGAND FREE ENERGY PREDICTED BY IDOCK:   -3.58 KCAL/MOL
REMARK 924 INTRA-LIGAND FREE ENERGY PREDICTED BY IDOCK:   -2.33 KCAL/MOL
REMARK 927      BINDING AFFINITY PREDICTED BY RF-SCORE:    0.00 PKD
ROOT
ATOM      1  N   GLY A   1     -10.754   2.029  72.170  1.00  0.00     0.095 NA 
HETATM    2  C   UNL     1      -7.719   7.826  74.533  1.00  0.00    -0.233 C  
ATOM      3  H2  GLY A   1     -11.607   2.289  72.664  1.00  0.00     0.000 HD 
ATOM      4  H1  GLY A   1     -10.818   2.224  71.171  1.00  0.00     0.000 HD 
ATOM      5  CA  GLY A   1      -9.568   2.681  72.741  1.00  0.00    -0.102 C  
HETATM    6  C   UNL     1      -7.686   8.393  73.122  1.00  0.00    -0.125 C  
ENDROOT
BRANCH   5   7
ATOM      7  C   GLY A   1      -9.472   2.387  74.240  1.00  0.00    -0.081 C  
ATOM      8  H   GLY A   1      -8.082   1.810  75.495  1.00  0.00     0.000 HD 
ATOM      9  O   GLY A   1      -8.142   1.992  74.565  1.00  0.00    -0.044 OA 
ENDBRANCH   5   7
BRANCH   6  10
HETATM   10  C   UNL     1      -6.542   7.850  72.268  1.00  0.00    -0.063 C  
BRANCH  10  11
HETATM   11  C   UNL     1      -6.159   8.737  71.081  1.00  0.00    -0.048 C  
BRANCH  11  12
HETATM   12  C   UNL     1      -5.335   7.929  70.075  1.00  0.00    -0.023 C  
BRANCH  12  13
HETATM   13  C   UNL     1      -5.918   7.991  68.664  1.00  0.00    -0.040 C  
BRANCH  13  14
HETATM   14  C   UNL     1      -6.914   6.859  68.378  1.00  0.00    -0.080 C  
BRANCH  14  15
HETATM   15  C   UNL     1      -6.796   5.631  69.290  1.00  0.00    -0.062 C  
BRANCH  15  16
HETATM   16  C   UNL     1      -6.643   4.328  68.555  1.00  0.00    -0.046 C  
HETATM   17  C   UNL     1      -7.651   3.659  67.973  1.00  0.00    -0.065 C  
BRANCH  17  18
HETATM   18  C   UNL     1      -9.094   4.070  67.991  1.00  0.00    -0.179 C  
BRANCH  18  19
HETATM   19  C   UNL     1      -9.493   4.799  66.710  1.00  0.00    -0.163 C  
BRANCH  19  20
HETATM   20  C   UNL     1     -10.778   5.594  66.934  1.00  0.00    -0.350 C  
BRANCH  20  21
HETATM   21  C   UNL     1     -10.548   6.766  67.883  1.00  0.00    -0.296 C  
BRANCH  21  22
HETATM   22  C   UNL     1     -11.507   6.712  69.069  1.00  0.00    -0.153 C  
BRANCH  22  23
HETATM   23  C   UNL     1     -10.820   7.197  70.343  1.00  0.00    -0.269 C  
BRANCH  23  24
HETATM   24  C   UNL     1     -10.702   6.084  71.380  1.00  0.00    -0.314 C  
HETATM   25  C   UNL     1     -10.952   6.598  72.779  1.00  0.00    -0.258 C  
HETATM   26  O   UNL     1     -10.868   5.614  73.704  1.00  0.00    -0.276 OA 
HETATM   27  O   UNL     1     -11.207   7.750  73.076  1.00  0.00    -0.405 OA 
ENDBRANCH  23  24
ENDBRANCH  22  23
ENDBRANCH  21  22
ENDBRANCH  20  21
ENDBRANCH  19  20
ENDBRANCH  18  19
ENDBRANCH  17  18
ENDBRANCH  15  16
ENDBRANCH  14  15
ENDBRANCH  13  14
ENDBRANCH  12  13
ENDBRANCH  11  12
ENDBRANCH  10  11
ENDBRANCH   6  10
TORSDOF 15
ENDMDL
MODEL      488
REMARK 921   NORMALIZED FREE ENERGY PREDICTED BY IDOCK:   -2.06 KCAL/MOL
REMARK 922        TOTAL FREE ENERGY PREDICTED BY IDOCK:   -5.81 KCAL/MOL
REMARK 923 INTER-LIGAND FREE ENERGY PREDICTED BY IDOCK:   -4.39 KCAL/MOL
REMARK 924 INTRA-LIGAND FREE ENERGY PREDICTED BY IDOCK:   -1.42 KCAL/MOL
REMARK 927      BINDING AFFINITY PREDICTED BY RF-SCORE:    0.00 PKD
ROOT
ATOM      1  N   GLY A   1     -11.569   9.600  69.601  1.00  0.00    -0.450 NA 
HETATM    2  C   UNL     1      -7.050   4.478  70.923  1.00  0.00    -0.037 C  
ATOM      3  H2  GLY A   1     -10.789  10.208  69.354  1.00  0.00     0.000 HD 
ATOM      4  H1  GLY A   1     -12.049   9.241  68.776  1.00  0.00     0.000 HD 
ATOM      5  CA  GLY A   1     -11.148   8.491  70.467  1.00  0.00    -0.244 C  
HETATM    6  C   UNL     1      -7.566   3.702  69.721  1.00  0.00    -0.051 C  
ENDROOT
BRANCH   5   7
ATOM      7  C   GLY A   1     -10.429   9.030  71.706  1.00  0.00    -0.348 C  
ATOM      8  H   GLY A   1      -8.573   9.330  72.261  1.00  0.00     0.000 HD 
ATOM      9  O   GLY A   1      -9.020   8.996  71.492  1.00  0.00    -0.273 OA 
ENDBRANCH   5   7
BRANCH   6  10
HETATM   10  C   UNL     1      -8.870   2.952  69.988  1.00  0.00    -0.148 C  
BRANCH  10  11
HETATM   11  C   UNL     1      -9.366   2.103  68.815  1.00  0.00    -0.221 C  
BRANCH  11  12
HETATM   12  C   UNL     1      -9.400   2.951  67.541  1.00  0.00    -0.218 C  
BRANCH  12  13
HETATM   13  C   UNL     1      -8.151   2.760  66.682  1.00  0.00    -0.082 C  
BRANCH  13  14
HETATM   14  C   UNL     1      -8.092   3.723  65.489  1.00  0.00    -0.097 C  
BRANCH  14  15
HETATM   15  C   UNL     1      -7.326   5.029  65.734  1.00  0.00    -0.077 C  
BRANCH  15  16
HETATM   16  C   UNL     1      -8.092   6.057  66.521  1.00  0.00    -0.109 C  
HETATM   17  C   UNL     1      -7.751   7.351  66.617  1.00  0.00    -0.101 C  
BRANCH  17  18
HETATM   18  C   UNL     1      -6.537   7.981  65.999  1.00  0.00    -0.046 C  
BRANCH  18  19
HETATM   19  C   UNL     1      -6.620   9.505  66.010  1.00  0.00    -0.077 C  
BRANCH  19  20
HETATM   20  C   UNL     1      -7.618   9.986  64.958  1.00  0.00    -0.139 C  
BRANCH  20  21
HETATM   21  C   UNL     1      -8.685  10.886  65.574  1.00  0.00    -0.178 C  
BRANCH  21  22
HETATM   22  C   UNL     1      -9.831  10.064  66.156  1.00  0.00    -0.309 C  
BRANCH  22  23
HETATM   23  C   UNL     1     -11.020  10.959  66.497  1.00  0.00    -0.187 C  
BRANCH  23  24
HETATM   24  C   UNL     1     -10.641  12.436  66.468  1.00  0.00    -0.261 C  
HETATM   25  C   UNL     1     -10.798  13.078  67.827  1.00  0.00    -0.240 C  
HETATM   26  O   UNL     1     -10.446  14.385  67.815  1.00  0.00    -0.243 OA 
HETATM   27  O   UNL     1     -11.186  12.518  68.835  1.00  0.00    -0.251 OA 
ENDBRANCH  23  24
ENDBRANCH  22  23
ENDBRANCH  21  22
ENDBRANCH  20  21
ENDBRANCH  19  20
ENDBRANCH  18  19
ENDBRANCH  17  18
ENDBRANCH  15  16
ENDBRANCH  14  15
ENDBRANCH  13  14
ENDBRANCH  12  13
ENDBRANCH  11  12
ENDBRANCH  10  11
ENDBRANCH   6  10
TORSDOF 15
ENDMDL
MODEL      489
REMARK 921   NORMALIZED FREE ENERGY PREDICTED BY IDOCK:   -2.04 KCAL/MOL
REMARK 922        TOTAL FREE ENERGY PREDICTED BY IDOCK:   -5.78 KCAL/MOL
REMARK 923 INTER-LIGAND FREE ENERGY PREDICTED BY IDOCK:   -4.33 KCAL/MOL
REMARK 924 INTRA-LIGAND FREE ENERGY PREDICTED BY IDOCK:   -1.46 KCAL/MOL
REMARK 927      BINDING AFFINITY PREDICTED BY RF-SCORE:    0.00 PKD
ROOT
ATOM      1  N   GLY A   1     -11.480  16.776  68.827  1.00  0.00    -0.129 NA 
HETATM    2  C   UNL     1      -5.987  12.874  70.560  1.00  0.00    -0.075 C  
ATOM      3  H2  GLY A   1     -11.236  17.428  69.572  1.00  0.00     0.000 HD 
ATOM      4  H1  GLY A   1     -11.202  17.125  67.910  1.00  0.00     0.000 HD 
ATOM      5  CA  GLY A   1     -10.912  15.442  69.057  1.00  0.00    -0.252 C  
HETATM    6  C   UNL     1      -5.308  13.233  69.248  1.00  0.00    -0.075 C  
ENDROOT
BRANCH   5   7
ATOM      7  C   GLY A   1     -11.331  14.918  70.434  1.00  0.00    -0.243 C  
ATOM      8  H   GLY A   1     -12.451  15.540  71.916  1.00  0.00     0.000 HD 
ATOM      9  O   GLY A   1     -12.192  15.865  71.062  1.00  0.00    -0.404 OA 
ENDBRANCH   5   7
BRANCH   6  10
HETATM   10  C   UNL     1      -5.813  12.426  68.053  1.00  0.00    -0.073 C  
BRANCH  10  11
HETATM   11  C   UNL     1      -6.957  11.462  68.376  1.00  0.00    -0.075 C  
BRANCH  11  12
HETATM   12  C   UNL     1      -8.300  12.137  68.084  1.00  0.00    -0.170 C  
BRANCH  12  13
HETATM   13  C   UNL     1      -9.438  11.127  67.941  1.00  0.00    -0.178 C  
BRANCH  13  14
HETATM   14  C   UNL     1      -9.653  10.286  69.207  1.00  0.00    -0.239 C  
BRANCH  14  15
HETATM   15  C   UNL     1     -10.915   9.415  69.213  1.00  0.00    -0.137 C  
BRANCH  15  16
HETATM   16  C   UNL     1     -11.697   9.468  70.497  1.00  0.00    -0.285 C  
HETATM   17  C   UNL     1     -11.526   8.625  71.527  1.00  0.00    -0.363 C  
BRANCH  17  18
HETATM   18  C   UNL     1     -10.566   7.472  71.560  1.00  0.00    -0.236 C  
BRANCH  18  19
HETATM   19  C   UNL     1     -11.059   6.300  70.715  1.00  0.00    -0.377 C  
BRANCH  19  20
HETATM   20  C   UNL     1      -9.904   5.718  69.899  1.00  0.00    -0.234 C  
BRANCH  20  21
HETATM   21  C   UNL     1     -10.396   4.654  68.922  1.00  0.00     0.116 C  
BRANCH  21  22
HETATM   22  C   UNL     1      -9.870   4.913  67.513  1.00  0.00    -0.207 C  
BRANCH  22  23
HETATM   23  C   UNL     1      -8.885   6.079  67.509  1.00  0.00    -0.109 C  
BRANCH  23  24
HETATM   24  C   UNL     1      -9.340   7.198  66.577  1.00  0.00    -0.208 C  
HETATM   25  C   UNL     1      -8.226   7.643  65.657  1.00  0.00    -0.136 C  
HETATM   26  O   UNL     1      -8.625   8.623  64.813  1.00  0.00    -0.172 OA 
HETATM   27  O   UNL     1      -7.095   7.194  65.644  1.00  0.00    -0.065 OA 
ENDBRANCH  23  24
ENDBRANCH  22  23
ENDBRANCH  21  22
ENDBRANCH  20  21
ENDBRANCH  19  20
ENDBRANCH  18  19
ENDBRANCH  17  18
ENDBRANCH  15  16
ENDBRANCH  14  15
ENDBRANCH  13  14
ENDBRANCH  12  13
ENDBRANCH  11  12
ENDBRANCH  10  11
ENDBRANCH   6  10
TORSDOF 15
ENDMDL
MODEL      490
REMARK 921   NORMALIZED FREE ENERGY PREDICTED BY IDOCK:   -2.04 KCAL/MOL
REMARK 922        TOTAL FREE ENERGY PREDICTED BY IDOCK:   -5.77 KCAL/MOL
REMARK 923 INTER-LIGAND FREE ENERGY PREDICTED BY IDOCK:   -4.17 KCAL/MOL
REMARK 924 INTRA-LIGAND FREE ENERGY PREDICTED BY IDOCK:   -1.60 KCAL/MOL
REMARK 927      BINDING AFFINITY PREDICTED BY RF-SCORE:    0.00 PKD
ROOT
ATOM      1  N   GLY A   1     -11.499  16.301  63.591  1.00  0.00    -1.207 NA 
HETATM    2  C   UNL     1      -7.551  13.355  68.505  1.00  0.00    -0.127 C  
ATOM      3  H2  GLY A   1     -10.652  16.568  63.089  1.00  0.00     0.000 HD 
ATOM      4  H1  GLY A   1     -11.948  15.486  63.174  1.00  0.00     0.000 HD 
ATOM      5  CA  GLY A   1     -11.239  16.065  65.018  1.00  0.00    -0.261 C  
HETATM    6  C   UNL     1      -8.047  11.979  68.089  1.00  0.00    -0.160 C  
ENDROOT
BRANCH   5   7
ATOM      7  C   GLY A   1     -10.565  17.289  65.643  1.00  0.00    -0.166 C  
ATOM      8  H   GLY A   1      -9.450  17.658  67.212  1.00  0.00     0.000 HD 
ATOM      9  O   GLY A   1      -9.868  16.898  66.824  1.00  0.00    -0.257 OA 
ENDBRANCH   5   7
BRANCH   6  10
HETATM   10  C   UNL     1      -9.427  11.630  68.643  1.00  0.00    -0.129 C  
BRANCH  10  11
HETATM   11  C   UNL     1      -9.511  10.258  69.318  1.00  0.00    -0.230 C  
BRANCH  11  12
HETATM   12  C   UNL     1     -10.966   9.781  69.339  1.00  0.00    -0.241 C  
BRANCH  12  13
HETATM   13  C   UNL     1     -11.654   9.958  67.986  1.00  0.00     0.507 C  
BRANCH  13  14
HETATM   14  C   UNL     1     -11.142   8.977  66.922  1.00  0.00     0.505 C  
BRANCH  14  15
HETATM   15  C   UNL     1     -10.927   7.537  67.402  1.00  0.00    -0.165 C  
BRANCH  15  16
HETATM   16  C   UNL     1      -9.494   7.080  67.365  1.00  0.00    -0.155 C  
HETATM   17  C   UNL     1      -8.800   6.667  68.437  1.00  0.00    -0.121 C  
BRANCH  17  18
HETATM   18  C   UNL     1      -9.313   6.628  69.846  1.00  0.00    -0.153 C  
BRANCH  18  19
HETATM   19  C   UNL     1     -10.687   5.967  69.932  1.00  0.00    -0.406 C  
BRANCH  19  20
HETATM   20  C   UNL     1     -11.494   6.577  71.078  1.00  0.00    -0.392 C  
BRANCH  20  21
HETATM   21  C   UNL     1     -10.604   6.901  72.273  1.00  0.00    -0.244 C  
BRANCH  21  22
HETATM   22  C   UNL     1     -10.899   5.974  73.449  1.00  0.00    -0.256 C  
BRANCH  22  23
HETATM   23  C   UNL     1      -9.603   5.451  74.064  1.00  0.00    -0.142 C  
BRANCH  23  24
HETATM   24  C   UNL     1      -8.466   5.425  73.048  1.00  0.00    -0.118 C  
HETATM   25  C   UNL     1      -8.430   4.119  72.287  1.00  0.00    -0.103 C  
HETATM   26  O   UNL     1      -7.435   4.094  71.369  1.00  0.00    -0.055 OA 
HETATM   27  O   UNL     1      -9.190   3.184  72.449  1.00  0.00    -0.093 OA 
ENDBRANCH  23  24
ENDBRANCH  22  23
ENDBRANCH  21  22
ENDBRANCH  20  21
ENDBRANCH  19  20
ENDBRANCH  18  19
ENDBRANCH  17  18
ENDBRANCH  15  16
ENDBRANCH  14  15
ENDBRANCH  13  14
ENDBRANCH  12  13
ENDBRANCH  11  12
ENDBRANCH  10  11
ENDBRANCH   6  10
TORSDOF 15
ENDMDL
MODEL      491
REMARK 921   NORMALIZED FREE ENERGY PREDICTED BY IDOCK:   -1.98 KCAL/MOL
REMARK 922        TOTAL FREE ENERGY PREDICTED BY IDOCK:   -5.66 KCAL/MOL
REMARK 923 INTER-LIGAND FREE ENERGY PREDICTED BY IDOCK:   -5.49 KCAL/MOL
REMARK 924 INTRA-LIGAND FREE ENERGY PREDICTED BY IDOCK:   -0.17 KCAL/MOL
REMARK 927      BINDING AFFINITY PREDICTED BY RF-SCORE:    0.00 PKD
ROOT
ATOM      1  N   GLY A   1     -10.825  19.040  67.151  1.00  0.00    -0.448 NA 
HETATM    2  C   UNL     1      -6.250  14.712  70.110  1.00  0.00    -0.165 C  
ATOM      3  H2  GLY A   1     -10.904  19.540  68.036  1.00  0.00     0.000 HD 
ATOM      4  H1  GLY A   1     -10.234  19.537  66.485  1.00  0.00     0.000 HD 
ATOM      5  CA  GLY A   1     -10.336  17.667  67.338  1.00  0.00    -0.360 C  
HETATM    6  C   UNL     1      -5.140  15.277  69.238  1.00  0.00    -0.092 C  
ENDROOT
BRANCH   5   7
ATOM      7  C   GLY A   1     -11.223  16.921  68.339  1.00  0.00    -0.109 C  
ATOM      8  H   GLY A   1     -11.076  16.304  70.193  1.00  0.00     0.000 HD 
ATOM      9  O   GLY A   1     -10.526  16.767  69.572  1.00  0.00    -0.310 OA 
ENDBRANCH   5   7
BRANCH   6  10
HETATM   10  C   UNL     1      -5.126  14.713  67.818  1.00  0.00     0.004 C  
BRANCH  10  11
HETATM   11  C   UNL     1      -6.354  13.874  67.457  1.00  0.00    -0.047 C  
BRANCH  11  12
HETATM   12  C   UNL     1      -5.951  12.405  67.308  1.00  0.00    -0.134 C  
BRANCH  12  13
HETATM   13  C   UNL     1      -7.146  11.460  67.424  1.00  0.00    -0.114 C  
BRANCH  13  14
HETATM   14  C   UNL     1      -7.831  11.194  66.076  1.00  0.00    -0.020 C  
BRANCH  14  15
HETATM   15  C   UNL     1      -9.265  10.657  66.160  1.00  0.00    -0.196 C  
BRANCH  15  16
HETATM   16  C   UNL     1      -9.628   9.690  65.066  1.00  0.00    -0.284 C  
HETATM   17  C   UNL     1      -9.550   9.961  63.754  1.00  0.00    -0.065 C  
BRANCH  17  18
HETATM   18  C   UNL     1      -9.133  11.274  63.158  1.00  0.00    -0.209 C  
BRANCH  18  19
HETATM   19  C   UNL     1      -9.805  12.453  63.858  1.00  0.00    -0.150 C  
BRANCH  19  20
HETATM   20  C   UNL     1     -11.318  12.244  63.907  1.00  0.00    -0.501 C  
BRANCH  20  21
HETATM   21  C   UNL     1     -12.031  13.472  64.464  1.00  0.00    -0.451 C  
BRANCH  21  22
HETATM   22  C   UNL     1     -12.651  13.179  65.828  1.00  0.00    -0.351 C  
BRANCH  22  23
HETATM   23  C   UNL     1     -11.567  12.907  66.868  1.00  0.00    -0.425 C  
BRANCH  23  24
HETATM   24  C   UNL     1     -12.025  11.885  67.904  1.00  0.00    -0.189 C  
HETATM   25  C   UNL     1     -11.872  12.413  69.312  1.00  0.00    -0.304 C  
HETATM   26  O   UNL     1     -12.293  11.520  70.238  1.00  0.00    -0.304 OA 
HETATM   27  O   UNL     1     -11.433  13.507  69.615  1.00  0.00    -0.264 OA 
ENDBRANCH  23  24
ENDBRANCH  22  23
ENDBRANCH  21  22
ENDBRANCH  20  21
ENDBRANCH  19  20
ENDBRANCH  18  19
ENDBRANCH  17  18
ENDBRANCH  15  16
ENDBRANCH  14  15
ENDBRANCH  13  14
ENDBRANCH  12  13
ENDBRANCH  11  12
ENDBRANCH  10  11
ENDBRANCH   6  10
TORSDOF 15
ENDMDL
MODEL      492
REMARK 921   NORMALIZED FREE ENERGY PREDICTED BY IDOCK:   -1.86 KCAL/MOL
REMARK 922        TOTAL FREE ENERGY PREDICTED BY IDOCK:   -5.44 KCAL/MOL
REMARK 923 INTER-LIGAND FREE ENERGY PREDICTED BY IDOCK:   -5.24 KCAL/MOL
REMARK 924 INTRA-LIGAND FREE ENERGY PREDICTED BY IDOCK:   -0.19 KCAL/MOL
REMARK 927      BINDING AFFINITY PREDICTED BY RF-SCORE:    0.00 PKD
ROOT
ATOM      1  N   GLY A   1     -12.494  16.775  73.991  1.00  0.00    -0.524 NA 
HETATM    2  C   UNL     1     -11.872  11.405  69.610  1.00  0.00    -0.431 C  
ATOM      3  H2  GLY A   1     -12.571  16.117  74.766  1.00  0.00     0.000 HD 
ATOM      4  H1  GLY A   1     -11.564  17.191  73.936  1.00  0.00     0.000 HD 
ATOM      5  CA  GLY A   1     -12.849  16.155  72.707  1.00  0.00    -0.360 C  
HETATM    6  C   UNL     1     -10.426  11.788  69.334  1.00  0.00     0.115 C  
ENDROOT
BRANCH   5   7
ATOM      7  C   GLY A   1     -14.244  15.530  72.790  1.00  0.00    -0.167 C  
ATOM      8  H   GLY A   1     -15.064  13.806  72.344  1.00  0.00     0.000 HD 
ATOM      9  O   GLY A   1     -14.198  14.194  72.293  1.00  0.00    -0.513 OA 
ENDBRANCH   5   7
BRANCH   6  10
HETATM   10  C   UNL     1     -10.274  12.936  68.336  1.00  0.00    -0.238 C  
BRANCH  10  11
HETATM   11  C   UNL     1     -10.935  14.246  68.771  1.00  0.00    -0.271 C  
BRANCH  11  12
HETATM   12  C   UNL     1     -10.014  15.424  68.442  1.00  0.00    -0.215 C  
BRANCH  12  13
HETATM   13  C   UNL     1      -8.961  15.062  67.396  1.00  0.00    -0.196 C  
BRANCH  13  14
HETATM   14  C   UNL     1      -9.319  15.561  65.989  1.00  0.00    -0.379 C  
BRANCH  14  15
HETATM   15  C   UNL     1     -10.743  15.240  65.519  1.00  0.00    -0.385 C  
BRANCH  15  16
HETATM   16  C   UNL     1     -10.808  14.326  64.326  1.00  0.00     0.013 C  
HETATM   17  C   UNL     1     -10.543  13.011  64.360  1.00  0.00    -0.429 C  
BRANCH  17  18
HETATM   18  C   UNL     1     -10.101  12.241  65.570  1.00  0.00    -0.279 C  
BRANCH  18  19
HETATM   19  C   UNL     1      -9.415  10.931  65.190  1.00  0.00    -0.268 C  
BRANCH  19  20
HETATM   20  C   UNL     1      -8.431  10.516  66.284  1.00  0.00    -0.150 C  
BRANCH  20  21
HETATM   21  C   UNL     1      -7.433   9.483  65.770  1.00  0.00    -0.100 C  
BRANCH  21  22
HETATM   22  C   UNL     1      -8.138   8.365  65.008  1.00  0.00    -0.147 C  
BRANCH  22  23
HETATM   23  C   UNL     1      -8.061   8.603  63.502  1.00  0.00    -0.167 C  
BRANCH  23  24
HETATM   24  C   UNL     1      -7.112   7.621  62.823  1.00  0.00    -0.078 C  
HETATM   25  C   UNL     1      -7.603   6.197  62.947  1.00  0.00    -0.081 C  
HETATM   26  O   UNL     1      -6.776   5.320  62.331  1.00  0.00    -0.025 OA 
HETATM   27  O   UNL     1      -8.617   5.844  63.519  1.00  0.00     0.032 OA 
ENDBRANCH  23  24
ENDBRANCH  22  23
ENDBRANCH  21  22
ENDBRANCH  20  21
ENDBRANCH  19  20
ENDBRANCH  18  19
ENDBRANCH  17  18
ENDBRANCH  15  16
ENDBRANCH  14  15
ENDBRANCH  13  14
ENDBRANCH  12  13
ENDBRANCH  11  12
ENDBRANCH  10  11
ENDBRANCH   6  10
TORSDOF 15
ENDMDL
MODEL      493
REMARK 921   NORMALIZED FREE ENERGY PREDICTED BY IDOCK:   -1.86 KCAL/MOL
REMARK 922        TOTAL FREE ENERGY PREDICTED BY IDOCK:   -5.43 KCAL/MOL
REMARK 923 INTER-LIGAND FREE ENERGY PREDICTED BY IDOCK:   -4.20 KCAL/MOL
REMARK 924 INTRA-LIGAND FREE ENERGY PREDICTED BY IDOCK:   -1.23 KCAL/MOL
REMARK 927      BINDING AFFINITY PREDICTED BY RF-SCORE:    0.00 PKD
ROOT
ATOM      1  N   GLY A   1     -11.403  14.181  63.984  1.00  0.00    -0.577 NA 
HETATM    2  C   UNL     1      -5.794  10.224  65.121  1.00  0.00    -0.129 C  
ATOM      3  H2  GLY A   1     -10.806  15.007  63.995  1.00  0.00     0.000 HD 
ATOM      4  H1  GLY A   1     -11.656  13.907  63.035  1.00  0.00     0.000 HD 
ATOM      5  CA  GLY A   1     -10.788  13.050  64.691  1.00  0.00    -0.354 C  
HETATM    6  C   UNL     1      -5.918   9.634  63.725  1.00  0.00    -0.100 C  
ENDROOT
BRANCH   5   7
ATOM      7  C   GLY A   1     -10.407  13.460  66.117  1.00  0.00    -0.295 C  
ATOM      8  H   GLY A   1     -10.203  15.136  67.112  1.00  0.00     0.000 HD 
ATOM      9  O   GLY A   1     -10.439  14.881  66.228  1.00  0.00    -0.284 OA 
ENDBRANCH   5   7
BRANCH   6  10
HETATM   10  C   UNL     1      -6.973   8.534  63.613  1.00  0.00    -0.088 C  
BRANCH  10  11
HETATM   11  C   UNL     1      -6.800   7.385  64.610  1.00  0.00    -0.047 C  
BRANCH  11  12
HETATM   12  C   UNL     1      -8.110   7.157  65.368  1.00  0.00    -0.137 C  
BRANCH  12  13
HETATM   13  C   UNL     1      -8.018   7.592  66.830  1.00  0.00    -0.115 C  
BRANCH  13  14
HETATM   14  C   UNL     1      -9.287   8.300  67.325  1.00  0.00    -0.181 C  
BRANCH  14  15
HETATM   15  C   UNL     1     -10.345   7.389  67.959  1.00  0.00    -0.247 C  
BRANCH  15  16
HETATM   16  C   UNL     1     -10.737   7.778  69.358  1.00  0.00    -0.177 C  
HETATM   17  C   UNL     1     -10.246   7.213  70.471  1.00  0.00    -0.206 C  
BRANCH  17  18
HETATM   18  C   UNL     1      -9.263   6.079  70.512  1.00  0.00    -0.168 C  
BRANCH  18  19
HETATM   19  C   UNL     1      -7.825   6.579  70.625  1.00  0.00    -0.106 C  
BRANCH  19  20
HETATM   20  C   UNL     1      -7.728   7.668  71.693  1.00  0.00    -0.086 C  
BRANCH  20  21
HETATM   21  C   UNL     1      -7.836   9.060  71.078  1.00  0.00    -0.174 C  
BRANCH  21  22
HETATM   22  C   UNL     1      -6.459   9.615  70.724  1.00  0.00    -0.104 C  
BRANCH  22  23
HETATM   23  C   UNL     1      -6.581  10.988  70.067  1.00  0.00    -0.134 C  
BRANCH  23  24
HETATM   24  C   UNL     1      -6.581  10.887  68.545  1.00  0.00    -0.055 C  
HETATM   25  C   UNL     1      -7.788  11.568  67.942  1.00  0.00    -0.123 C  
HETATM   26  O   UNL     1      -7.787  11.500  66.590  1.00  0.00    -0.154 OA 
HETATM   27  O   UNL     1      -8.672  12.126  68.565  1.00  0.00    -0.157 OA 
ENDBRANCH  23  24
ENDBRANCH  22  23
ENDBRANCH  21  22
ENDBRANCH  20  21
ENDBRANCH  19  20
ENDBRANCH  18  19
ENDBRANCH  17  18
ENDBRANCH  15  16
ENDBRANCH  14  15
ENDBRANCH  13  14
ENDBRANCH  12  13
ENDBRANCH  11  12
ENDBRANCH  10  11
ENDBRANCH   6  10
TORSDOF 15
ENDMDL
MODEL      494
REMARK 921   NORMALIZED FREE ENERGY PREDICTED BY IDOCK:   -1.83 KCAL/MOL
REMARK 922        TOTAL FREE ENERGY PREDICTED BY IDOCK:   -5.39 KCAL/MOL
REMARK 923 INTER-LIGAND FREE ENERGY PREDICTED BY IDOCK:   -4.39 KCAL/MOL
REMARK 924 INTRA-LIGAND FREE ENERGY PREDICTED BY IDOCK:   -1.00 KCAL/MOL
REMARK 927      BINDING AFFINITY PREDICTED BY RF-SCORE:    0.00 PKD
ROOT
ATOM      1  N   GLY A   1     -11.905  14.708  64.027  1.00  0.00    -0.753 NA 
HETATM    2  C   UNL     1      -6.125  15.789  67.746  1.00  0.00    -0.171 C  
ATOM      3  H2  GLY A   1     -11.428  15.073  63.203  1.00  0.00     0.000 HD 
ATOM      4  H1  GLY A   1     -11.954  13.690  64.018  1.00  0.00     0.000 HD 
ATOM      5  CA  GLY A   1     -11.284  15.176  65.273  1.00  0.00    -0.358 C  
HETATM    6  C   UNL     1      -5.931  14.288  67.895  1.00  0.00    -0.145 C  
ENDROOT
BRANCH   5   7
ATOM      7  C   GLY A   1     -11.210  16.706  65.286  1.00  0.00     0.094 C  
ATOM      8  H   GLY A   1      -9.800  18.065  65.349  1.00  0.00     0.000 HD 
ATOM      9  O   GLY A   1      -9.846  17.117  65.341  1.00  0.00    -0.490 OA 
ENDBRANCH   5   7
BRANCH   6  10
HETATM   10  C   UNL     1      -6.804  13.660  68.979  1.00  0.00    -0.110 C  
BRANCH  10  11
HETATM   11  C   UNL     1      -6.342  12.277  69.445  1.00  0.00    -0.118 C  
BRANCH  11  12
HETATM   12  C   UNL     1      -5.597  11.572  68.309  1.00  0.00    -0.045 C  
BRANCH  12  13
HETATM   13  C   UNL     1      -6.447  10.495  67.637  1.00  0.00    -0.057 C  
BRANCH  13  14
HETATM   14  C   UNL     1      -7.293  11.038  66.477  1.00  0.00    -0.144 C  
BRANCH  14  15
HETATM   15  C   UNL     1      -8.701  11.516  66.856  1.00  0.00    -0.181 C  
BRANCH  15  16
HETATM   16  C   UNL     1      -9.732  11.312  65.779  1.00  0.00    -0.263 C  
HETATM   17  C   UNL     1     -10.012  10.131  65.207  1.00  0.00    -0.381 C  
BRANCH  17  18
HETATM   18  C   UNL     1      -9.324   8.832  65.508  1.00  0.00    -0.165 C  
BRANCH  18  19
HETATM   19  C   UNL     1      -9.696   8.299  66.890  1.00  0.00    -0.291 C  
BRANCH  19  20
HETATM   20  C   UNL     1      -8.659   7.280  67.359  1.00  0.00    -0.121 C  
BRANCH  20  21
HETATM   21  C   UNL     1      -9.232   6.356  68.429  1.00  0.00    -0.120 C  
BRANCH  21  22
HETATM   22  C   UNL     1      -8.877   6.846  69.830  1.00  0.00    -0.141 C  
BRANCH  22  23
HETATM   23  C   UNL     1      -8.738   5.672  70.796  1.00  0.00    -0.135 C  
BRANCH  23  24
HETATM   24  C   UNL     1      -8.412   6.141  72.210  1.00  0.00    -0.116 C  
HETATM   25  C   UNL     1      -6.928   6.367  72.393  1.00  0.00    -0.074 C  
HETATM   26  O   UNL     1      -6.631   6.801  73.640  1.00  0.00    -0.067 OA 
HETATM   27  O   UNL     1      -6.076   6.194  71.543  1.00  0.00    -0.037 OA 
ENDBRANCH  23  24
ENDBRANCH  22  23
ENDBRANCH  21  22
ENDBRANCH  20  21
ENDBRANCH  19  20
ENDBRANCH  18  19
ENDBRANCH  17  18
ENDBRANCH  15  16
ENDBRANCH  14  15
ENDBRANCH  13  14
ENDBRANCH  12  13
ENDBRANCH  11  12
ENDBRANCH  10  11
ENDBRANCH   6  10
TORSDOF 15
ENDMDL
MODEL      495
REMARK 921   NORMALIZED FREE ENERGY PREDICTED BY IDOCK:   -1.81 KCAL/MOL
REMARK 922        TOTAL FREE ENERGY PREDICTED BY IDOCK:   -5.35 KCAL/MOL
REMARK 923 INTER-LIGAND FREE ENERGY PREDICTED BY IDOCK:   -5.27 KCAL/MOL
REMARK 924 INTRA-LIGAND FREE ENERGY PREDICTED BY IDOCK:   -0.07 KCAL/MOL
REMARK 927      BINDING AFFINITY PREDICTED BY RF-SCORE:    0.00 PKD
ROOT
ATOM      1  N   GLY A   1      -6.425  14.629  71.477  1.00  0.00     0.173 NA 
HETATM    2  C   UNL     1      -5.943   9.066  67.326  1.00  0.00    -0.050 C  
ATOM      3  H2  GLY A   1      -7.231  14.945  70.938  1.00  0.00     0.000 HD 
ATOM      4  H1  GLY A   1      -6.702  14.201  72.360  1.00  0.00     0.000 HD 
ATOM      5  CA  GLY A   1      -5.579  13.706  70.709  1.00  0.00    -0.187 C  
HETATM    6  C   UNL     1      -6.352   8.161  68.478  1.00  0.00    -0.053 C  
ENDROOT
BRANCH   5   7
ATOM      7  C   GLY A   1      -5.163  14.349  69.383  1.00  0.00    -0.089 C  
ATOM      8  H   GLY A   1      -6.046  14.879  67.716  1.00  0.00     0.000 HD 
ATOM      9  O   GLY A   1      -6.303  14.481  68.538  1.00  0.00    -0.079 OA 
ENDBRANCH   5   7
BRANCH   6  10
HETATM   10  C   UNL     1      -5.211   7.844  69.445  1.00  0.00    -0.026 C  
BRANCH  10  11
HETATM   11  C   UNL     1      -5.535   6.756  70.472  1.00  0.00    -0.023 C  
BRANCH  11  12
HETATM   12  C   UNL     1      -6.888   7.049  71.126  1.00  0.00    -0.060 C  
BRANCH  12  13
HETATM   13  C   UNL     1      -7.082   8.536  71.417  1.00  0.00    -0.083 C  
BRANCH  13  14
HETATM   14  C   UNL     1      -8.557   8.960  71.407  1.00  0.00    -0.238 C  
BRANCH  14  15
HETATM   15  C   UNL     1      -9.003   9.762  70.179  1.00  0.00    -0.235 C  
BRANCH  15  16
HETATM   16  C   UNL     1     -10.451  10.173  70.202  1.00  0.00    -0.311 C  
HETATM   17  C   UNL     1     -11.283  10.086  69.153  1.00  0.00    -0.197 C  
BRANCH  17  18
HETATM   18  C   UNL     1     -10.908   9.609  67.780  1.00  0.00    -0.278 C  
BRANCH  18  19
HETATM   19  C   UNL     1      -9.424   9.820  67.492  1.00  0.00    -0.170 C  
BRANCH  19  20
HETATM   20  C   UNL     1      -9.019   9.058  66.230  1.00  0.00    -0.199 C  
BRANCH  20  21
HETATM   21  C   UNL     1      -9.657   9.665  64.985  1.00  0.00    -0.284 C  
BRANCH  21  22
HETATM   22  C   UNL     1      -9.307  11.144  64.851  1.00  0.00    -0.219 C  
BRANCH  22  23
HETATM   23  C   UNL     1     -10.113  11.792  63.728  1.00  0.00    -0.421 C  
BRANCH  23  24
HETATM   24  C   UNL     1     -10.677  13.147  64.148  1.00  0.00    -0.399 C  
HETATM   25  C   UNL     1     -12.178  13.201  63.980  1.00  0.00    -0.414 C  
HETATM   26  O   UNL     1     -12.689  14.393  64.367  1.00  0.00    -0.665 OA 
HETATM   27  O   UNL     1     -12.876  12.300  63.555  1.00  0.00    -0.768 OA 
ENDBRANCH  23  24
ENDBRANCH  22  23
ENDBRANCH  21  22
ENDBRANCH  20  21
ENDBRANCH  19  20
ENDBRANCH  18  19
ENDBRANCH  17  18
ENDBRANCH  15  16
ENDBRANCH  14  15
ENDBRANCH  13  14
ENDBRANCH  12  13
ENDBRANCH  11  12
ENDBRANCH  10  11
ENDBRANCH   6  10
TORSDOF 15
ENDMDL
MODEL      496
REMARK 921   NORMALIZED FREE ENERGY PREDICTED BY IDOCK:   -1.80 KCAL/MOL
REMARK 922        TOTAL FREE ENERGY PREDICTED BY IDOCK:   -5.33 KCAL/MOL
REMARK 923 INTER-LIGAND FREE ENERGY PREDICTED BY IDOCK:   -3.90 KCAL/MOL
REMARK 924 INTRA-LIGAND FREE ENERGY PREDICTED BY IDOCK:   -1.42 KCAL/MOL
REMARK 927      BINDING AFFINITY PREDICTED BY RF-SCORE:    0.00 PKD
ROOT
ATOM      1  N   GLY A   1     -11.834  14.718  63.884  1.00  0.00    -0.817 NA 
HETATM    2  C   UNL     1      -6.338  14.529  68.146  1.00  0.00    -0.145 C  
ATOM      3  H2  GLY A   1     -11.273  15.230  63.203  1.00  0.00     0.000 HD 
ATOM      4  H1  GLY A   1     -11.932  13.735  63.634  1.00  0.00     0.000 HD 
ATOM      5  CA  GLY A   1     -11.297  14.846  65.245  1.00  0.00    -0.358 C  
HETATM    6  C   UNL     1      -6.230  13.025  67.953  1.00  0.00    -0.134 C  
ENDROOT
BRANCH   5   7
ATOM      7  C   GLY A   1     -11.149  16.323  65.620  1.00  0.00     0.012 C  
ATOM      8  H   GLY A   1     -10.195  17.361  66.982  1.00  0.00     0.000 HD 
ATOM      9  O   GLY A   1     -10.287  16.445  66.749  1.00  0.00    -0.286 OA 
ENDBRANCH   5   7
BRANCH   6  10
HETATM   10  C   UNL     1      -7.221  12.224  68.797  1.00  0.00    -0.098 C  
BRANCH  10  11
HETATM   11  C   UNL     1      -6.801  10.777  69.067  1.00  0.00    -0.075 C  
BRANCH  11  12
HETATM   12  C   UNL     1      -5.623  10.404  68.162  1.00  0.00    -0.036 C  
BRANCH  12  13
HETATM   13  C   UNL     1      -6.040   9.479  67.019  1.00  0.00    -0.063 C  
BRANCH  13  14
HETATM   14  C   UNL     1      -6.463  10.243  65.757  1.00  0.00    -0.119 C  
BRANCH  14  15
HETATM   15  C   UNL     1      -7.975  10.338  65.520  1.00  0.00    -0.151 C  
BRANCH  15  16
HETATM   16  C   UNL     1      -8.460   9.580  64.315  1.00  0.00    -0.193 C  
HETATM   17  C   UNL     1      -8.347   8.252  64.155  1.00  0.00    -0.050 C  
BRANCH  17  18
HETATM   18  C   UNL     1      -7.687   7.311  65.121  1.00  0.00    -0.113 C  
BRANCH  18  19
HETATM   19  C   UNL     1      -8.641   6.877  66.231  1.00  0.00    -0.138 C  
BRANCH  19  20
HETATM   20  C   UNL     1      -7.865   6.182  67.350  1.00  0.00    -0.098 C  
BRANCH  20  21
HETATM   21  C   UNL     1      -8.762   5.239  68.146  1.00  0.00    -0.102 C  
BRANCH  21  22
HETATM   22  C   UNL     1      -9.120   5.834  69.505  1.00  0.00    -0.143 C  
BRANCH  22  23
HETATM   23  C   UNL     1      -8.280   7.077  69.790  1.00  0.00    -0.131 C  
BRANCH  23  24
HETATM   24  C   UNL     1      -8.592   7.666  71.162  1.00  0.00    -0.132 C  
HETATM   25  C   UNL     1      -9.738   8.650  71.098  1.00  0.00    -0.224 C  
HETATM   26  O   UNL     1     -10.034   9.164  72.315  1.00  0.00    -0.114 OA 
HETATM   27  O   UNL     1     -10.347   8.964  70.093  1.00  0.00    -0.193 OA 
ENDBRANCH  23  24
ENDBRANCH  22  23
ENDBRANCH  21  22
ENDBRANCH  20  21
ENDBRANCH  19  20
ENDBRANCH  18  19
ENDBRANCH  17  18
ENDBRANCH  15  16
ENDBRANCH  14  15
ENDBRANCH  13  14
ENDBRANCH  12  13
ENDBRANCH  11  12
ENDBRANCH  10  11
ENDBRANCH   6  10
TORSDOF 15
ENDMDL
MODEL      497
REMARK 921   NORMALIZED FREE ENERGY PREDICTED BY IDOCK:   -1.64 KCAL/MOL
REMARK 922        TOTAL FREE ENERGY PREDICTED BY IDOCK:   -5.02 KCAL/MOL
REMARK 923 INTER-LIGAND FREE ENERGY PREDICTED BY IDOCK:   -4.70 KCAL/MOL
REMARK 924 INTRA-LIGAND FREE ENERGY PREDICTED BY IDOCK:   -0.32 KCAL/MOL
REMARK 927      BINDING AFFINITY PREDICTED BY RF-SCORE:    0.00 PKD
ROOT
ATOM      1  N   GLY A   1     -11.145  18.267  68.071  1.00  0.00    -0.113 NA 
HETATM    2  C   UNL     1      -6.148  14.370  70.944  1.00  0.00    -0.142 C  
ATOM      3  H2  GLY A   1     -11.205  18.805  68.935  1.00  0.00     0.000 HD 
ATOM      4  H1  GLY A   1     -10.626  18.764  67.348  1.00  0.00     0.000 HD 
ATOM      5  CA  GLY A   1     -10.562  16.937  68.291  1.00  0.00    -0.363 C  
HETATM    6  C   UNL     1      -5.127  14.956  69.981  1.00  0.00    -0.095 C  
ENDROOT
BRANCH   5   7
ATOM      7  C   GLY A   1     -11.342  16.190  69.377  1.00  0.00    -0.323 C  
ATOM      8  H   GLY A   1     -11.010  14.697  70.601  1.00  0.00     0.000 HD 
ATOM      9  O   GLY A   1     -10.526  15.160  69.928  1.00  0.00    -0.255 OA 
ENDBRANCH   5   7
BRANCH   6  10
HETATM   10  C   UNL     1      -5.160  14.324  68.590  1.00  0.00    -0.095 C  
BRANCH  10  11
HETATM   11  C   UNL     1      -6.411  13.489  68.302  1.00  0.00    -0.104 C  
BRANCH  11  12
HETATM   12  C   UNL     1      -7.599  14.416  68.031  1.00  0.00    -0.139 C  
BRANCH  12  13
HETATM   13  C   UNL     1      -8.712  13.719  67.249  1.00  0.00    -0.226 C  
BRANCH  13  14
HETATM   14  C   UNL     1      -9.698  12.967  68.154  1.00  0.00    -0.228 C  
BRANCH  14  15
HETATM   15  C   UNL     1     -10.565  11.914  67.452  1.00  0.00    -0.257 C  
BRANCH  15  16
HETATM   16  C   UNL     1     -11.923  11.722  68.069  1.00  0.00    -0.195 C  
HETATM   17  C   UNL     1     -12.142  11.157  69.267  1.00  0.00    -0.377 C  
BRANCH  17  18
HETATM   18  C   UNL     1     -11.084  10.589  70.168  1.00  0.00    -0.369 C  
BRANCH  18  19
HETATM   19  C   UNL     1     -10.142   9.651  69.418  1.00  0.00    -0.213 C  
BRANCH  19  20
HETATM   20  C   UNL     1      -8.768   9.638  70.088  1.00  0.00    -0.263 C  
BRANCH  20  21
HETATM   21  C   UNL     1      -7.788   8.750  69.327  1.00  0.00    -0.100 C  
BRANCH  21  22
HETATM   22  C   UNL     1      -7.459   7.488  70.119  1.00  0.00    -0.086 C  
BRANCH  22  23
HETATM   23  C   UNL     1      -8.666   6.555  70.177  1.00  0.00    -0.140 C  
BRANCH  23  24
HETATM   24  C   UNL     1      -8.509   5.369  69.231  1.00  0.00    -0.099 C  
HETATM   25  C   UNL     1      -9.676   5.259  68.277  1.00  0.00    -0.140 C  
HETATM   26  O   UNL     1      -9.536   4.220  67.422  1.00  0.00    -0.167 OA 
HETATM   27  O   UNL     1     -10.640   6.000  68.249  1.00  0.00    -0.210 OA 
ENDBRANCH  23  24
ENDBRANCH  22  23
ENDBRANCH  21  22
ENDBRANCH  20  21
ENDBRANCH  19  20
ENDBRANCH  18  19
ENDBRANCH  17  18
ENDBRANCH  15  16
ENDBRANCH  14  15
ENDBRANCH  13  14
ENDBRANCH  12  13
ENDBRANCH  11  12
ENDBRANCH  10  11
ENDBRANCH   6  10
TORSDOF 15
ENDMDL
MODEL      498
REMARK 921   NORMALIZED FREE ENERGY PREDICTED BY IDOCK:   -1.59 KCAL/MOL
REMARK 922        TOTAL FREE ENERGY PREDICTED BY IDOCK:   -4.92 KCAL/MOL
REMARK 923 INTER-LIGAND FREE ENERGY PREDICTED BY IDOCK:   -3.62 KCAL/MOL
REMARK 924 INTRA-LIGAND FREE ENERGY PREDICTED BY IDOCK:   -1.31 KCAL/MOL
REMARK 927      BINDING AFFINITY PREDICTED BY RF-SCORE:    0.00 PKD
ROOT
ATOM      1  N   GLY A   1     -11.092  20.285  69.330  1.00  0.00     0.642 NA 
HETATM    2  C   UNL     1      -5.149  21.186  65.827  1.00  0.00    -0.236 C  
ATOM      3  H2  GLY A   1     -11.105  21.283  69.539  1.00  0.00     0.000 HD 
ATOM      4  H1  GLY A   1     -11.738  20.045  68.578  1.00  0.00     0.000 HD 
ATOM      5  CA  GLY A   1      -9.740  19.809  69.010  1.00  0.00    -0.292 C  
HETATM    6  C   UNL     1      -5.862  20.872  64.521  1.00  0.00    -0.305 C  
ENDROOT
BRANCH   5   7
ATOM      7  C   GLY A   1      -8.771  20.169  70.139  1.00  0.00     1.361 C  
ATOM      8  H   GLY A   1      -6.830  20.159  70.411  1.00  0.00     0.000 HD 
ATOM      9  O   GLY A   1      -7.431  19.936  69.711  1.00  0.00    -0.105 OA 
ENDBRANCH   5   7
BRANCH   6  10
HETATM   10  C   UNL     1      -6.065  19.377  64.276  1.00  0.00    -0.181 C  
BRANCH  10  11
HETATM   11  C   UNL     1      -6.911  18.670  65.337  1.00  0.00    -0.107 C  
BRANCH  11  12
HETATM   12  C   UNL     1      -6.230  17.364  65.756  1.00  0.00     0.122 C  
BRANCH  12  13
HETATM   13  C   UNL     1      -6.366  17.094  67.254  1.00  0.00    -0.189 C  
BRANCH  13  14
HETATM   14  C   UNL     1      -7.819  17.160  67.744  1.00  0.00    -0.189 C  
BRANCH  14  15
HETATM   15  C   UNL     1      -8.862  16.548  66.800  1.00  0.00    -0.255 C  
BRANCH  15  16
HETATM   16  C   UNL     1      -9.965  15.802  67.499  1.00  0.00    -0.236 C  
HETATM   17  C   UNL     1      -9.961  14.480  67.732  1.00  0.00    -0.225 C  
BRANCH  17  18
HETATM   18  C   UNL     1      -8.888  13.523  67.302  1.00  0.00    -0.225 C  
BRANCH  18  19
HETATM   19  C   UNL     1      -8.880  12.258  68.158  1.00  0.00    -0.187 C  
BRANCH  19  20
HETATM   20  C   UNL     1      -8.886  11.018  67.265  1.00  0.00    -0.135 C  
BRANCH  20  21
HETATM   21  C   UNL     1     -10.036  11.060  66.264  1.00  0.00    -0.282 C  
BRANCH  21  22
HETATM   22  C   UNL     1      -9.526  10.928  64.831  1.00  0.00    -0.277 C  
BRANCH  22  23
HETATM   23  C   UNL     1     -10.467  11.631  63.855  1.00  0.00    -0.433 C  
BRANCH  23  24
HETATM   24  C   UNL     1     -11.804  11.971  64.507  1.00  0.00    -0.363 C  
HETATM   25  C   UNL     1     -11.940  13.457  64.754  1.00  0.00    -0.390 C  
HETATM   26  O   UNL     1     -13.131  13.771  65.315  1.00  0.00    -0.756 OA 
HETATM   27  O   UNL     1     -11.102  14.298  64.490  1.00  0.00    -0.371 OA 
ENDBRANCH  23  24
ENDBRANCH  22  23
ENDBRANCH  21  22
ENDBRANCH  20  21
ENDBRANCH  19  20
ENDBRANCH  18  19
ENDBRANCH  17  18
ENDBRANCH  15  16
ENDBRANCH  14  15
ENDBRANCH  13  14
ENDBRANCH  12  13
ENDBRANCH  11  12
ENDBRANCH  10  11
ENDBRANCH   6  10
TORSDOF 15
ENDMDL
MODEL      499
REMARK 921   NORMALIZED FREE ENERGY PREDICTED BY IDOCK:   -1.41 KCAL/MOL
REMARK 922        TOTAL FREE ENERGY PREDICTED BY IDOCK:   -4.59 KCAL/MOL
REMARK 923 INTER-LIGAND FREE ENERGY PREDICTED BY IDOCK:   -3.89 KCAL/MOL
REMARK 924 INTRA-LIGAND FREE ENERGY PREDICTED BY IDOCK:   -0.70 KCAL/MOL
REMARK 927      BINDING AFFINITY PREDICTED BY RF-SCORE:    0.00 PKD
ROOT
ATOM      1  N   GLY A   1     -12.191  13.515  70.828  1.00  0.00    -0.418 NA 
HETATM    2  C   UNL     1      -6.806   9.137  70.331  1.00  0.00    -0.062 C  
ATOM      3  H2  GLY A   1     -12.662  12.846  71.437  1.00  0.00     0.000 HD 
ATOM      4  H1  GLY A   1     -11.780  14.285  71.356  1.00  0.00     0.000 HD 
ATOM      5  CA  GLY A   1     -11.170  12.871  69.991  1.00  0.00     0.290 C  
HETATM    6  C   UNL     1      -5.937  10.104  71.119  1.00  0.00     0.011 C  
ENDROOT
BRANCH   5   7
ATOM      7  C   GLY A   1     -11.788  11.714  69.199  1.00  0.00    -0.326 C  
ATOM      8  H   GLY A   1     -13.140  10.331  69.514  1.00  0.00     0.000 HD 
ATOM      9  O   GLY A   1     -12.757  11.048  70.005  1.00  0.00    -0.230 OA 
ENDBRANCH   5   7
BRANCH   6  10
HETATM   10  C   UNL     1      -5.390  11.260  70.283  1.00  0.00    -0.099 C  
BRANCH  10  11
HETATM   11  C   UNL     1      -6.389  12.392  70.034  1.00  0.00    -0.005 C  
BRANCH  11  12
HETATM   12  C   UNL     1      -7.021  12.229  68.649  1.00  0.00    -0.097 C  
BRANCH  12  13
HETATM   13  C   UNL     1      -8.294  13.058  68.491  1.00  0.00    -0.057 C  
BRANCH  13  14
HETATM   14  C   UNL     1      -8.324  13.866  67.186  1.00  0.00    -0.171 C  
BRANCH  14  15
HETATM   15  C   UNL     1      -9.113  15.180  67.242  1.00  0.00    -0.210 C  
BRANCH  15  16
HETATM   16  C   UNL     1     -10.143  15.328  66.156  1.00  0.00    -0.315 C  
HETATM   17  C   UNL     1     -10.980  14.355  65.762  1.00  0.00    -0.314 C  
BRANCH  17  18
HETATM   18  C   UNL     1     -11.004  12.955  66.302  1.00  0.00    -0.305 C  
BRANCH  18  19
HETATM   19  C   UNL     1     -10.515  11.941  65.272  1.00  0.00    -0.317 C  
BRANCH  19  20
HETATM   20  C   UNL     1     -10.657  10.521  65.821  1.00  0.00    -0.137 C  
BRANCH  20  21
HETATM   21  C   UNL     1      -9.571  10.211  66.846  1.00  0.00    -0.219 C  
BRANCH  21  22
HETATM   22  C   UNL     1      -9.961   9.021  67.719  1.00  0.00    -0.235 C  
BRANCH  22  23
HETATM   23  C   UNL     1      -9.188   7.771  67.306  1.00  0.00    -0.162 C  
BRANCH  23  24
HETATM   24  C   UNL     1      -9.251   6.689  68.379  1.00  0.00    -0.122 C  
HETATM   25  C   UNL     1     -10.346   5.686  68.095  1.00  0.00    -0.197 C  
HETATM   26  O   UNL     1     -10.397   4.711  69.033  1.00  0.00    -0.061 OA 
HETATM   27  O   UNL     1     -11.105   5.716  67.145  1.00  0.00    -0.131 OA 
ENDBRANCH  23  24
ENDBRANCH  22  23
ENDBRANCH  21  22
ENDBRANCH  20  21
ENDBRANCH  19  20
ENDBRANCH  18  19
ENDBRANCH  17  18
ENDBRANCH  15  16
ENDBRANCH  14  15
ENDBRANCH  13  14
ENDBRANCH  12  13
ENDBRANCH  11  12
ENDBRANCH  10  11
ENDBRANCH   6  10
TORSDOF 15
ENDMDL
MODEL      500
REMARK 921   NORMALIZED FREE ENERGY PREDICTED BY IDOCK:   -1.39 KCAL/MOL
REMARK 922        TOTAL FREE ENERGY PREDICTED BY IDOCK:   -4.56 KCAL/MOL
REMARK 923 INTER-LIGAND FREE ENERGY PREDICTED BY IDOCK:   -3.32 KCAL/MOL
REMARK 924 INTRA-LIGAND FREE ENERGY PREDICTED BY IDOCK:   -1.24 KCAL/MOL
REMARK 927      BINDING AFFINITY PREDICTED BY RF-SCORE:    0.00 PKD
ROOT
ATOM      1  N   GLY A   1     -11.486   9.522  69.489  1.00  0.00    -0.442 NA 
HETATM    2  C   UNL     1      -7.155   4.292  71.007  1.00  0.00    -0.037 C  
ATOM      3  H2  GLY A   1     -10.683  10.145  69.406  1.00  0.00     0.000 HD 
ATOM      4  H1  GLY A   1     -11.841   9.235  68.577  1.00  0.00     0.000 HD 
ATOM      5  CA  GLY A   1     -11.182   8.343  70.310  1.00  0.00    -0.173 C  
HETATM    6  C   UNL     1      -7.490   3.621  69.684  1.00  0.00    -0.051 C  
ENDROOT
BRANCH   5   7
ATOM      7  C   GLY A   1     -10.649   8.774  71.680  1.00  0.00    -0.331 C  
ATOM      8  H   GLY A   1      -8.894   8.985  72.526  1.00  0.00     0.000 HD 
ATOM      9  O   GLY A   1      -9.225   8.718  71.676  1.00  0.00    -0.231 OA 
ENDBRANCH   5   7
BRANCH   6  10
HETATM   10  C   UNL     1      -8.812   2.855  69.701  1.00  0.00    -0.147 C  
BRANCH  10  11
HETATM   11  C   UNL     1      -9.117   2.087  68.413  1.00  0.00    -0.210 C  
BRANCH  11  12
HETATM   12  C   UNL     1      -8.808   2.968  67.200  1.00  0.00    -0.161 C  
BRANCH  12  13
HETATM   13  C   UNL     1      -7.348   2.860  66.762  1.00  0.00    -0.070 C  
BRANCH  13  14
HETATM   14  C   UNL     1      -6.957   3.917  65.720  1.00  0.00    -0.062 C  
BRANCH  14  15
HETATM   15  C   UNL     1      -6.419   5.236  66.289  1.00  0.00    -0.044 C  
BRANCH  15  16
HETATM   16  C   UNL     1      -7.482   6.155  66.829  1.00  0.00    -0.087 C  
HETATM   17  C   UNL     1      -7.265   7.419  67.223  1.00  0.00    -0.093 C  
BRANCH  17  18
HETATM   18  C   UNL     1      -5.935   8.114  67.232  1.00  0.00    -0.050 C  
BRANCH  18  19
HETATM   19  C   UNL     1      -6.067   9.588  67.607  1.00  0.00    -0.053 C  
BRANCH  19  20
HETATM   20  C   UNL     1      -6.703  10.369  66.457  1.00  0.00    -0.099 C  
BRANCH  20  21
HETATM   21  C   UNL     1      -8.012  11.024  66.888  1.00  0.00    -0.143 C  
BRANCH  21  22
HETATM   22  C   UNL     1      -9.180  10.047  66.781  1.00  0.00    -0.173 C  
BRANCH  22  23
HETATM   23  C   UNL     1      -9.903  10.213  65.447  1.00  0.00    -0.375 C  
BRANCH  23  24
HETATM   24  C   UNL     1      -9.522   9.114  64.459  1.00  0.00     0.330 C  
HETATM   25  C   UNL     1      -8.834   9.679  63.237  1.00  0.00    -0.238 C  
HETATM   26  O   UNL     1      -8.475   8.710  62.363  1.00  0.00    -0.200 OA 
HETATM   27  O   UNL     1      -8.608  10.857  63.032  1.00  0.00    -0.178 OA 
ENDBRANCH  23  24
ENDBRANCH  22  23
ENDBRANCH  21  22
ENDBRANCH  20  21
ENDBRANCH  19  20
ENDBRANCH  18  19
ENDBRANCH  17  18
ENDBRANCH  15  16
ENDBRANCH  14  15
ENDBRANCH  13  14
ENDBRANCH  12  13
ENDBRANCH  11  12
ENDBRANCH  10  11
ENDBRANCH   6  10
TORSDOF 15
ENDMDL
MODEL      501
REMARK 921   NORMALIZED FREE ENERGY PREDICTED BY IDOCK:   -1.28 KCAL/MOL
REMARK 922        TOTAL FREE ENERGY PREDICTED BY IDOCK:   -4.35 KCAL/MOL
REMARK 923 INTER-LIGAND FREE ENERGY PREDICTED BY IDOCK:   -5.01 KCAL/MOL
REMARK 924 INTRA-LIGAND FREE ENERGY PREDICTED BY IDOCK:    0.66 KCAL/MOL
REMARK 927      BINDING AFFINITY PREDICTED BY RF-SCORE:    0.00 PKD
ROOT
ATOM      1  N   GLY A   1      -7.582   8.807  74.100  1.00  0.00    -0.421 NA 
HETATM    2  C   UNL     1      -8.601   3.062  70.311  1.00  0.00    -0.109 C  
ATOM      3  H2  GLY A   1      -6.980   8.272  74.726  1.00  0.00     0.000 HD 
ATOM      4  H1  GLY A   1      -7.043   9.384  73.455  1.00  0.00     0.000 HD 
ATOM      5  CA  GLY A   1      -8.507   7.942  73.357  1.00  0.00    -0.216 C  
HETATM    6  C   UNL     1      -7.820   3.673  69.159  1.00  0.00    -0.052 C  
ENDROOT
BRANCH   5   7
ATOM      7  C   GLY A   1      -9.316   7.076  74.326  1.00  0.00    -0.227 C  
ATOM      8  H   GLY A   1     -11.203   6.619  74.597  1.00  0.00     0.000 HD 
ATOM      9  O   GLY A   1     -10.701   7.156  73.996  1.00  0.00    -0.283 OA 
ENDBRANCH   5   7
BRANCH   6  10
HETATM   10  C   UNL     1      -8.630   4.664  68.324  1.00  0.00    -0.105 C  
BRANCH  10  11
HETATM   11  C   UNL     1      -9.639   4.015  67.373  1.00  0.00    -0.222 C  
BRANCH  11  12
HETATM   12  C   UNL     1      -9.150   4.154  65.928  1.00  0.00    -0.136 C  
BRANCH  12  13
HETATM   13  C   UNL     1      -7.742   4.740  65.846  1.00  0.00    -0.091 C  
BRANCH  13  14
HETATM   14  C   UNL     1      -7.709   6.253  66.099  1.00  0.00    -0.096 C  
BRANCH  14  15
HETATM   15  C   UNL     1      -7.082   7.095  64.980  1.00  0.00    -0.064 C  
BRANCH  15  16
HETATM   16  C   UNL     1      -7.985   8.167  64.433  1.00  0.00    -0.145 C  
HETATM   17  C   UNL     1      -8.730   8.991  65.186  1.00  0.00    -0.223 C  
BRANCH  17  18
HETATM   18  C   UNL     1      -8.821   8.959  66.684  1.00  0.00    -0.150 C  
BRANCH  18  19
HETATM   19  C   UNL     1     -10.242   8.664  67.160  1.00  0.00    -0.353 C  
BRANCH  19  20
HETATM   20  C   UNL     1     -10.792   9.855  67.944  1.00  0.00    -0.312 C  
BRANCH  20  21
HETATM   21  C   UNL     1      -9.676  10.618  68.651  1.00  0.00    -0.178 C  
BRANCH  21  22
HETATM   22  C   UNL     1      -9.496  12.011  68.054  1.00  0.00    -0.199 C  
BRANCH  22  23
HETATM   23  C   UNL     1     -10.774  12.833  68.202  1.00  0.00    -0.243 C  
BRANCH  23  24
HETATM   24  C   UNL     1     -11.471  13.038  66.861  1.00  0.00    -0.387 C  
HETATM   25  C   UNL     1     -10.514  13.548  65.808  1.00  0.00    -0.291 C  
HETATM   26  O   UNL     1     -11.119  13.715  64.609  1.00  0.00    -0.347 OA 
HETATM   27  O   UNL     1      -9.333  13.786  65.980  1.00  0.00    -0.160 OA 
ENDBRANCH  23  24
ENDBRANCH  22  23
ENDBRANCH  21  22
ENDBRANCH  20  21
ENDBRANCH  19  20
ENDBRANCH  18  19
ENDBRANCH  17  18
ENDBRANCH  15  16
ENDBRANCH  14  15
ENDBRANCH  13  14
ENDBRANCH  12  13
ENDBRANCH  11  12
ENDBRANCH  10  11
ENDBRANCH   6  10
TORSDOF 15
ENDMDL
MODEL      502
REMARK 921   NORMALIZED FREE ENERGY PREDICTED BY IDOCK:   -1.28 KCAL/MOL
REMARK 922        TOTAL FREE ENERGY PREDICTED BY IDOCK:   -4.35 KCAL/MOL
REMARK 923 INTER-LIGAND FREE ENERGY PREDICTED BY IDOCK:   -3.15 KCAL/MOL
REMARK 924 INTRA-LIGAND FREE ENERGY PREDICTED BY IDOCK:   -1.20 KCAL/MOL
REMARK 927      BINDING AFFINITY PREDICTED BY RF-SCORE:    0.00 PKD
ROOT
ATOM      1  N   GLY A   1     -10.522  20.394  70.307  1.00  0.00    -0.392 NA 
HETATM    2  C   UNL     1      -5.172  21.281  65.948  1.00  0.00    -0.239 C  
ATOM      3  H2  GLY A   1     -10.491  21.389  70.527  1.00  0.00     0.000 HD 
ATOM      4  H1  GLY A   1     -11.278  20.171  69.660  1.00  0.00     0.000 HD 
ATOM      5  CA  GLY A   1      -9.241  19.908  69.778  1.00  0.00     0.627 C  
HETATM    6  C   UNL     1      -6.080  20.991  64.763  1.00  0.00    -0.273 C  
ENDROOT
BRANCH   5   7
ATOM      7  C   GLY A   1      -8.106  20.243  70.750  1.00  0.00     1.741 C  
ATOM      8  H   GLY A   1      -6.147  20.248  70.709  1.00  0.00     0.000 HD 
ATOM      9  O   GLY A   1      -6.851  20.040  70.106  1.00  0.00    -0.269 OA 
ENDBRANCH   5   7
BRANCH   6  10
HETATM   10  C   UNL     1      -6.337  19.502  64.534  1.00  0.00    -0.131 C  
BRANCH  10  11
HETATM   11  C   UNL     1      -7.199  18.835  65.608  1.00  0.00    -0.175 C  
BRANCH  11  12
HETATM   12  C   UNL     1      -6.900  17.334  65.652  1.00  0.00     0.429 C  
BRANCH  12  13
HETATM   13  C   UNL     1      -7.389  16.682  66.944  1.00  0.00    -0.260 C  
BRANCH  13  14
HETATM   14  C   UNL     1      -8.915  16.736  67.101  1.00  0.00    -0.218 C  
BRANCH  14  15
HETATM   15  C   UNL     1      -9.719  16.441  65.828  1.00  0.00    -0.271 C  
BRANCH  15  16
HETATM   16  C   UNL     1     -10.982  15.658  66.063  1.00  0.00    -0.213 C  
HETATM   17  C   UNL     1     -11.023  14.347  66.343  1.00  0.00    -0.319 C  
BRANCH  17  18
HETATM   18  C   UNL     1      -9.833  13.436  66.429  1.00  0.00    -0.299 C  
BRANCH  18  19
HETATM   19  C   UNL     1      -9.955  12.451  67.589  1.00  0.00    -0.200 C  
BRANCH  19  20
HETATM   20  C   UNL     1     -10.680  13.107  68.764  1.00  0.00    -0.253 C  
BRANCH  20  21
HETATM   21  C   UNL     1     -11.686  12.153  69.400  1.00  0.00    -0.391 C  
BRANCH  21  22
HETATM   22  C   UNL     1     -11.484  10.725  68.901  1.00  0.00    -0.362 C  
BRANCH  22  23
HETATM   23  C   UNL     1     -11.266   9.769  70.071  1.00  0.00    -0.297 C  
BRANCH  23  24
HETATM   24  C   UNL     1     -12.126  10.144  71.274  1.00  0.00    -0.489 C  
HETATM   25  C   UNL     1     -12.696   8.920  71.954  1.00  0.00    -0.376 C  
HETATM   26  O   UNL     1     -13.446   9.243  73.034  1.00  0.00    -0.218 OA 
HETATM   27  O   UNL     1     -12.519   7.769  71.604  1.00  0.00    -0.306 OA 
ENDBRANCH  23  24
ENDBRANCH  22  23
ENDBRANCH  21  22
ENDBRANCH  20  21
ENDBRANCH  19  20
ENDBRANCH  18  19
ENDBRANCH  17  18
ENDBRANCH  15  16
ENDBRANCH  14  15
ENDBRANCH  13  14
ENDBRANCH  12  13
ENDBRANCH  11  12
ENDBRANCH  10  11
ENDBRANCH   6  10
TORSDOF 15
ENDMDL
MODEL      503
REMARK 921   NORMALIZED FREE ENERGY PREDICTED BY IDOCK:   -1.11 KCAL/MOL
REMARK 922        TOTAL FREE ENERGY PREDICTED BY IDOCK:   -4.03 KCAL/MOL
REMARK 923 INTER-LIGAND FREE ENERGY PREDICTED BY IDOCK:   -3.22 KCAL/MOL
REMARK 924 INTRA-LIGAND FREE ENERGY PREDICTED BY IDOCK:   -0.81 KCAL/MOL
REMARK 927      BINDING AFFINITY PREDICTED BY RF-SCORE:    0.00 PKD
ROOT
ATOM      1  N   GLY A   1     -11.899  18.261  67.167  1.00  0.00     1.933 NA 
HETATM    2  C   UNL     1      -5.126  17.165  68.326  1.00  0.00    -0.123 C  
ATOM      3  H2  GLY A   1     -11.656  18.803  66.338  1.00  0.00     0.000 HD 
ATOM      4  H1  GLY A   1     -12.219  17.323  66.929  1.00  0.00     0.000 HD 
ATOM      5  CA  GLY A   1     -10.784  18.189  68.122  1.00  0.00    -0.221 C  
HETATM    6  C   UNL     1      -5.303  15.688  68.006  1.00  0.00    -0.133 C  
ENDROOT
BRANCH   5   7
ATOM      7  C   GLY A   1     -10.303  19.598  68.480  1.00  0.00    -0.347 C  
ATOM      8  H   GLY A   1      -9.240  21.004  67.624  1.00  0.00     0.000 HD 
ATOM      9  O   GLY A   1      -9.538  20.130  67.401  1.00  0.00    -0.368 OA 
ENDBRANCH   5   7
BRANCH   6  10
HETATM   10  C   UNL     1      -5.883  14.874  69.162  1.00  0.00    -0.096 C  
BRANCH  10  11
HETATM   11  C   UNL     1      -7.399  14.674  69.099  1.00  0.00    -0.143 C  
BRANCH  11  12
HETATM   12  C   UNL     1      -8.047  15.859  68.377  1.00  0.00    -0.149 C  
BRANCH  12  13
HETATM   13  C   UNL     1      -8.374  15.541  66.919  1.00  0.00    -0.290 C  
BRANCH  13  14
HETATM   14  C   UNL     1      -9.679  14.749  66.758  1.00  0.00    -0.264 C  
BRANCH  14  15
HETATM   15  C   UNL     1     -10.046  14.370  65.318  1.00  0.00    -0.387 C  
BRANCH  15  16
HETATM   16  C   UNL     1     -11.445  14.753  64.916  1.00  0.00    -0.412 C  
HETATM   17  C   UNL     1     -12.385  13.884  64.511  1.00  0.00    -0.408 C  
BRANCH  17  18
HETATM   18  C   UNL     1     -12.193  12.404  64.352  1.00  0.00    -0.519 C  
BRANCH  18  19
HETATM   19  C   UNL     1     -11.431  12.066  63.073  1.00  0.00    -0.061 C  
BRANCH  19  20
HETATM   20  C   UNL     1     -10.152  11.300  63.409  1.00  0.00    -0.445 C  
BRANCH  20  21
HETATM   21  C   UNL     1     -10.362  10.360  64.592  1.00  0.00    -0.190 C  
BRANCH  21  22
HETATM   22  C   UNL     1      -9.132  10.325  65.494  1.00  0.00    -0.211 C  
BRANCH  22  23
HETATM   23  C   UNL     1      -8.173   9.219  65.059  1.00  0.00    -0.146 C  
BRANCH  23  24
HETATM   24  C   UNL     1      -7.866   8.257  66.203  1.00  0.00    -0.098 C  
HETATM   25  C   UNL     1      -6.797   7.259  65.818  1.00  0.00    -0.056 C  
HETATM   26  O   UNL     1      -6.505   6.412  66.833  1.00  0.00    -0.043 OA 
HETATM   27  O   UNL     1      -6.241   7.198  64.738  1.00  0.00    -0.036 OA 
ENDBRANCH  23  24
ENDBRANCH  22  23
ENDBRANCH  21  22
ENDBRANCH  20  21
ENDBRANCH  19  20
ENDBRANCH  18  19
ENDBRANCH  17  18
ENDBRANCH  15  16
ENDBRANCH  14  15
ENDBRANCH  13  14
ENDBRANCH  12  13
ENDBRANCH  11  12
ENDBRANCH  10  11
ENDBRANCH   6  10
TORSDOF 15
ENDMDL
MODEL      504
REMARK 921   NORMALIZED FREE ENERGY PREDICTED BY IDOCK:   -1.06 KCAL/MOL
REMARK 922        TOTAL FREE ENERGY PREDICTED BY IDOCK:   -3.94 KCAL/MOL
REMARK 923 INTER-LIGAND FREE ENERGY PREDICTED BY IDOCK:   -3.63 KCAL/MOL
REMARK 924 INTRA-LIGAND FREE ENERGY PREDICTED BY IDOCK:   -0.31 KCAL/MOL
REMARK 927      BINDING AFFINITY PREDICTED BY RF-SCORE:    0.00 PKD
ROOT
ATOM      1  N   GLY A   1     -11.892  14.743  63.985  1.00  0.00    -0.789 NA 
HETATM    2  C   UNL     1      -6.020  15.576  67.624  1.00  0.00    -0.147 C  
ATOM      3  H2  GLY A   1     -11.398  15.040  63.144  1.00  0.00     0.000 HD 
ATOM      4  H1  GLY A   1     -12.011  13.731  64.019  1.00  0.00     0.000 HD 
ATOM      5  CA  GLY A   1     -11.230  15.218  65.208  1.00  0.00    -0.336 C  
HETATM    6  C   UNL     1      -5.928  14.072  67.834  1.00  0.00    -0.144 C  
ENDROOT
BRANCH   5   7
ATOM      7  C   GLY A   1     -11.051  16.738  65.157  1.00  0.00    -0.033 C  
ATOM      8  H   GLY A   1      -9.558  17.993  64.971  1.00  0.00     0.000 HD 
ATOM      9  O   GLY A   1      -9.669  17.051  65.002  1.00  0.00     0.268 OA 
ENDBRANCH   5   7
BRANCH   6  10
HETATM   10  C   UNL     1      -6.834  13.551  68.948  1.00  0.00    -0.111 C  
BRANCH  10  11
HETATM   11  C   UNL     1      -6.501  12.135  69.426  1.00  0.00    -0.110 C  
BRANCH  11  12
HETATM   12  C   UNL     1      -5.717  11.393  68.340  1.00  0.00    -0.045 C  
BRANCH  12  13
HETATM   13  C   UNL     1      -6.618  10.518  67.470  1.00  0.00    -0.066 C  
BRANCH  13  14
HETATM   14  C   UNL     1      -7.318  11.305  66.353  1.00  0.00    -0.058 C  
BRANCH  14  15
HETATM   15  C   UNL     1      -8.726  11.813  66.687  1.00  0.00    -0.186 C  
BRANCH  15  16
HETATM   16  C   UNL     1      -9.617  11.998  65.489  1.00  0.00    -0.174 C  
HETATM   17  C   UNL     1      -9.749  11.106  64.495  1.00  0.00    -0.310 C  
BRANCH  17  18
HETATM   18  C   UNL     1      -9.009   9.805  64.386  1.00  0.00    -0.284 C  
BRANCH  18  19
HETATM   19  C   UNL     1      -9.445   8.813  65.462  1.00  0.00    -0.096 C  
BRANCH  19  20
HETATM   20  C   UNL     1      -8.406   7.702  65.606  1.00  0.00    -0.143 C  
BRANCH  20  21
HETATM   21  C   UNL     1      -9.013   6.451  66.234  1.00  0.00    -0.166 C  
BRANCH  21  22
HETATM   22  C   UNL     1      -8.876   5.246  65.308  1.00  0.00    -0.144 C  
BRANCH  22  23
HETATM   23  C   UNL     1     -10.053   4.290  65.487  1.00  0.00    -0.235 C  
BRANCH  23  24
HETATM   24  C   UNL     1      -9.930   3.069  64.581  1.00  0.00    -0.008 C  
HETATM   25  C   UNL     1     -10.428   3.361  63.183  1.00  0.00    -0.219 C  
HETATM   26  O   UNL     1     -10.305   2.289  62.367  1.00  0.00    -0.095 OA 
HETATM   27  O   UNL     1     -10.885   4.421  62.801  1.00  0.00     0.003 OA 
ENDBRANCH  23  24
ENDBRANCH  22  23
ENDBRANCH  21  22
ENDBRANCH  20  21
ENDBRANCH  19  20
ENDBRANCH  18  19
ENDBRANCH  17  18
ENDBRANCH  15  16
ENDBRANCH  14  15
ENDBRANCH  13  14
ENDBRANCH  12  13
ENDBRANCH  11  12
ENDBRANCH  10  11
ENDBRANCH   6  10
TORSDOF 15
ENDMDL
MODEL      505
REMARK 921   NORMALIZED FREE ENERGY PREDICTED BY IDOCK:   -1.02 KCAL/MOL
REMARK 922        TOTAL FREE ENERGY PREDICTED BY IDOCK:   -3.86 KCAL/MOL
REMARK 923 INTER-LIGAND FREE ENERGY PREDICTED BY IDOCK:   -2.33 KCAL/MOL
REMARK 924 INTRA-LIGAND FREE ENERGY PREDICTED BY IDOCK:   -1.52 KCAL/MOL
REMARK 927      BINDING AFFINITY PREDICTED BY RF-SCORE:    0.00 PKD
ROOT
ATOM      1  N   GLY A   1     -11.096   2.377  71.846  1.00  0.00     1.120 NA 
HETATM    2  C   UNL     1      -7.998   8.338  73.659  1.00  0.00    -0.233 C  
ATOM      3  H2  GLY A   1     -11.967   2.723  72.249  1.00  0.00     0.000 HD 
ATOM      4  H1  GLY A   1     -11.093   2.447  70.829  1.00  0.00     0.000 HD 
ATOM      5  CA  GLY A   1      -9.923   3.063  72.406  1.00  0.00    -0.164 C  
HETATM    6  C   UNL     1      -7.861   8.721  72.194  1.00  0.00    -0.006 C  
ENDROOT
BRANCH   5   7
ATOM      7  C   GLY A   1      -9.928   2.957  73.933  1.00  0.00    -0.108 C  
ATOM      8  H   GLY A   1      -9.338   4.062  75.441  1.00  0.00     0.000 HD 
ATOM      9  O   GLY A   1      -9.335   4.127  74.494  1.00  0.00    -0.104 OA 
ENDBRANCH   5   7
BRANCH   6  10
HETATM   10  C   UNL     1      -6.688   8.042  71.489  1.00  0.00    -0.053 C  
BRANCH  10  11
HETATM   11  C   UNL     1      -6.213   8.753  70.219  1.00  0.00    -0.038 C  
BRANCH  11  12
HETATM   12  C   UNL     1      -5.168   7.892  69.504  1.00  0.00    -0.023 C  
BRANCH  12  13
HETATM   13  C   UNL     1      -5.657   7.396  68.144  1.00  0.00    -0.026 C  
BRANCH  13  14
HETATM   14  C   UNL     1      -6.833   6.417  68.252  1.00  0.00    -0.071 C  
BRANCH  14  15
HETATM   15  C   UNL     1      -6.481   5.019  68.776  1.00  0.00    -0.036 C  
BRANCH  15  16
HETATM   16  C   UNL     1      -6.811   3.901  67.824  1.00  0.00    -0.047 C  
HETATM   17  C   UNL     1      -8.049   3.605  67.398  1.00  0.00    -0.090 C  
BRANCH  17  18
HETATM   18  C   UNL     1      -9.308   4.303  67.825  1.00  0.00    -0.200 C  
BRANCH  18  19
HETATM   19  C   UNL     1     -10.277   4.488  66.660  1.00  0.00    -0.200 C  
BRANCH  19  20
HETATM   20  C   UNL     1     -10.845   5.907  66.667  1.00  0.00    -0.292 C  
BRANCH  20  21
HETATM   21  C   UNL     1      -9.759   6.941  66.388  1.00  0.00    -0.127 C  
BRANCH  21  22
HETATM   22  C   UNL     1     -10.238   8.350  66.728  1.00  0.00    -0.376 C  
BRANCH  22  23
HETATM   23  C   UNL     1     -10.620   8.450  68.203  1.00  0.00    -0.175 C  
BRANCH  23  24
HETATM   24  C   UNL     1     -10.839   9.898  68.631  1.00  0.00    -0.244 C  
HETATM   25  C   UNL     1     -11.427   9.984  70.021  1.00  0.00    -0.248 C  
HETATM   26  O   UNL     1     -11.607  11.266  70.417  1.00  0.00    -0.311 OA 
HETATM   27  O   UNL     1     -11.711   9.038  70.730  1.00  0.00    -0.281 OA 
ENDBRANCH  23  24
ENDBRANCH  22  23
ENDBRANCH  21  22
ENDBRANCH  20  21
ENDBRANCH  19  20
ENDBRANCH  18  19
ENDBRANCH  17  18
ENDBRANCH  15  16
ENDBRANCH  14  15
ENDBRANCH  13  14
ENDBRANCH  12  13
ENDBRANCH  11  12
ENDBRANCH  10  11
ENDBRANCH   6  10
TORSDOF 15
ENDMDL
MODEL      506
REMARK 921   NORMALIZED FREE ENERGY PREDICTED BY IDOCK:   -0.92 KCAL/MOL
REMARK 922        TOTAL FREE ENERGY PREDICTED BY IDOCK:   -3.68 KCAL/MOL
REMARK 923 INTER-LIGAND FREE ENERGY PREDICTED BY IDOCK:   -4.56 KCAL/MOL
REMARK 924 INTRA-LIGAND FREE ENERGY PREDICTED BY IDOCK:    0.89 KCAL/MOL
REMARK 927      BINDING AFFINITY PREDICTED BY RF-SCORE:    0.00 PKD
ROOT
ATOM      1  N   GLY A   1      -6.497  14.600  71.354  1.00  0.00     0.097 NA 
HETATM    2  C   UNL     1      -7.315   9.429  66.772  1.00  0.00    -0.086 C  
ATOM      3  H2  GLY A   1      -7.174  15.154  70.830  1.00  0.00     0.000 HD 
ATOM      4  H1  GLY A   1      -6.906  14.194  72.195  1.00  0.00     0.000 HD 
ATOM      5  CA  GLY A   1      -5.890  13.549  70.527  1.00  0.00    -0.164 C  
HETATM    6  C   UNL     1      -7.985   8.578  67.840  1.00  0.00    -0.108 C  
ENDROOT
BRANCH   5   7
ATOM      7  C   GLY A   1      -5.274  14.159  69.264  1.00  0.00    -0.081 C  
ATOM      8  H   GLY A   1      -5.929  15.025  67.633  1.00  0.00     0.000 HD 
ATOM      9  O   GLY A   1      -6.311  14.647  68.416  1.00  0.00    -0.086 OA 
ENDBRANCH   5   7
BRANCH   6  10
HETATM   10  C   UNL     1      -7.001   7.904  68.795  1.00  0.00    -0.066 C  
BRANCH  10  11
HETATM   11  C   UNL     1      -7.534   6.634  69.462  1.00  0.00    -0.093 C  
BRANCH  11  12
HETATM   12  C   UNL     1      -8.881   6.926  70.129  1.00  0.00    -0.145 C  
BRANCH  12  13
HETATM   13  C   UNL     1      -8.885   8.264  70.867  1.00  0.00    -0.171 C  
BRANCH  13  14
HETATM   14  C   UNL     1     -10.276   8.911  70.923  1.00  0.00    -0.304 C  
BRANCH  14  15
HETATM   15  C   UNL     1     -10.411  10.247  70.182  1.00  0.00    -0.259 C  
BRANCH  15  16
HETATM   16  C   UNL     1     -11.681  10.995  70.484  1.00  0.00    -0.416 C  
HETATM   17  C   UNL     1     -12.448  11.596  69.562  1.00  0.00    -0.017 C  
BRANCH  17  18
HETATM   18  C   UNL     1     -12.154  11.661  68.091  1.00  0.00    -0.031 C  
BRANCH  18  19
HETATM   19  C   UNL     1     -10.654  11.607  67.810  1.00  0.00    -0.227 C  
BRANCH  19  20
HETATM   20  C   UNL     1     -10.406  11.330  66.327  1.00  0.00    -0.294 C  
BRANCH  20  21
HETATM   21  C   UNL     1     -10.767  12.538  65.468  1.00  0.00    -0.303 C  
BRANCH  21  22
HETATM   22  C   UNL     1      -9.913  13.749  65.834  1.00  0.00    -0.308 C  
BRANCH  22  23
HETATM   23  C   UNL     1     -10.322  14.968  65.010  1.00  0.00    -0.390 C  
BRANCH  23  24
HETATM   24  C   UNL     1     -10.231  16.255  65.824  1.00  0.00    -0.390 C  
HETATM   25  C   UNL     1      -9.975  15.971  67.286  1.00  0.00    -0.242 C  
HETATM   26  O   UNL     1      -9.874  17.108  68.014  1.00  0.00    -0.265 OA 
HETATM   27  O   UNL     1      -9.862  14.867  67.784  1.00  0.00    -0.215 OA 
ENDBRANCH  23  24
ENDBRANCH  22  23
ENDBRANCH  21  22
ENDBRANCH  20  21
ENDBRANCH  19  20
ENDBRANCH  18  19
ENDBRANCH  17  18
ENDBRANCH  15  16
ENDBRANCH  14  15
ENDBRANCH  13  14
ENDBRANCH  12  13
ENDBRANCH  11  12
ENDBRANCH  10  11
ENDBRANCH   6  10
TORSDOF 15
ENDMDL
MODEL      507
REMARK 921   NORMALIZED FREE ENERGY PREDICTED BY IDOCK:   -0.82 KCAL/MOL
REMARK 922        TOTAL FREE ENERGY PREDICTED BY IDOCK:   -3.48 KCAL/MOL
REMARK 923 INTER-LIGAND FREE ENERGY PREDICTED BY IDOCK:   -3.02 KCAL/MOL
REMARK 924 INTRA-LIGAND FREE ENERGY PREDICTED BY IDOCK:   -0.46 KCAL/MOL
REMARK 927      BINDING AFFINITY PREDICTED BY RF-SCORE:    0.00 PKD
ROOT
ATOM      1  N   GLY A   1     -11.963  14.762  64.052  1.00  0.00    -0.838 NA 
HETATM    2  C   UNL     1      -5.788  15.607  67.146  1.00  0.00     0.257 C  
ATOM      3  H2  GLY A   1     -11.573  15.154  63.196  1.00  0.00     0.000 HD 
ATOM      4  H1  GLY A   1     -12.031  13.746  64.009  1.00  0.00     0.000 HD 
ATOM      5  CA  GLY A   1     -11.199  15.169  65.240  1.00  0.00    -0.358 C  
HETATM    6  C   UNL     1      -5.606  14.099  67.212  1.00  0.00     0.582 C  
ENDROOT
BRANCH   5   7
ATOM      7  C   GLY A   1     -11.096  16.695  65.305  1.00  0.00    -0.033 C  
ATOM      8  H   GLY A   1      -9.694  18.042  65.063  1.00  0.00     0.000 HD 
ATOM      9  O   GLY A   1      -9.758  17.096  65.022  1.00  0.00     0.364 OA 
ENDBRANCH   5   7
BRANCH   6  10
HETATM   10  C   UNL     1      -6.367  13.438  68.362  1.00  0.00    -0.088 C  
BRANCH  10  11
HETATM   11  C   UNL     1      -5.802  12.085  68.800  1.00  0.00    -0.051 C  
BRANCH  11  12
HETATM   12  C   UNL     1      -5.173  11.373  67.599  1.00  0.00    -0.046 C  
BRANCH  12  13
HETATM   13  C   UNL     1      -6.109  10.333  66.986  1.00  0.00    -0.055 C  
BRANCH  13  14
HETATM   14  C   UNL     1      -7.044  10.923  65.921  1.00  0.00    -0.029 C  
BRANCH  14  15
HETATM   15  C   UNL     1      -8.245  11.709  66.461  1.00  0.00    -0.101 C  
BRANCH  15  16
HETATM   16  C   UNL     1      -9.488  11.589  65.623  1.00  0.00    -0.244 C  
HETATM   17  C   UNL     1     -10.069  10.428  65.285  1.00  0.00    -0.370 C  
BRANCH  17  18
HETATM   18  C   UNL     1      -9.561   9.062  65.645  1.00  0.00    -0.237 C  
BRANCH  18  19
HETATM   19  C   UNL     1      -9.697   8.782  67.140  1.00  0.00    -0.248 C  
BRANCH  19  20
HETATM   20  C   UNL     1     -11.127   9.064  67.601  1.00  0.00     0.211 C  
BRANCH  20  21
HETATM   21  C   UNL     1     -11.153   9.616  69.023  1.00  0.00    -0.104 C  
BRANCH  21  22
HETATM   22  C   UNL     1     -11.024   8.497  70.052  1.00  0.00    -0.197 C  
BRANCH  22  23
HETATM   23  C   UNL     1     -12.114   8.610  71.115  1.00  0.00    -0.297 C  
BRANCH  23  24
HETATM   24  C   UNL     1     -11.580   8.286  72.507  1.00  0.00    -0.454 C  
HETATM   25  C   UNL     1     -11.358   6.801  72.686  1.00  0.00    -0.222 C  
HETATM   26  O   UNL     1     -10.867   6.506  73.912  1.00  0.00    -0.193 OA 
HETATM   27  O   UNL     1     -11.578   5.946  71.849  1.00  0.00    -0.270 OA 
ENDBRANCH  23  24
ENDBRANCH  22  23
ENDBRANCH  21  22
ENDBRANCH  20  21
ENDBRANCH  19  20
ENDBRANCH  18  19
ENDBRANCH  17  18
ENDBRANCH  15  16
ENDBRANCH  14  15
ENDBRANCH  13  14
ENDBRANCH  12  13
ENDBRANCH  11  12
ENDBRANCH  10  11
ENDBRANCH   6  10
TORSDOF 15
ENDMDL
MODEL      508
REMARK 921   NORMALIZED FREE ENERGY PREDICTED BY IDOCK:   -0.75 KCAL/MOL
REMARK 922        TOTAL FREE ENERGY PREDICTED BY IDOCK:   -3.35 KCAL/MOL
REMARK 923 INTER-LIGAND FREE ENERGY PREDICTED BY IDOCK:   -4.23 KCAL/MOL
REMARK 924 INTRA-LIGAND FREE ENERGY PREDICTED BY IDOCK:    0.88 KCAL/MOL
REMARK 927      BINDING AFFINITY PREDICTED BY RF-SCORE:    0.00 PKD
ROOT
ATOM      1  N   GLY A   1     -11.242  14.216  64.417  1.00  0.00    -0.577 NA 
HETATM    2  C   UNL     1      -5.859  10.105  66.007  1.00  0.00    -0.074 C  
ATOM      3  H2  GLY A   1     -10.613  15.019  64.420  1.00  0.00     0.000 HD 
ATOM      4  H1  GLY A   1     -11.461  13.908  63.470  1.00  0.00     0.000 HD 
ATOM      5  CA  GLY A   1     -10.707  13.098  65.204  1.00  0.00    -0.315 C  
HETATM    6  C   UNL     1      -5.940   9.455  64.635  1.00  0.00    -0.072 C  
ENDROOT
BRANCH   5   7
ATOM      7  C   GLY A   1     -10.378  13.561  66.626  1.00  0.00    -0.271 C  
ATOM      8  H   GLY A   1     -11.055  13.215  68.432  1.00  0.00     0.000 HD 
ATOM      9  O   GLY A   1     -11.259  12.928  67.550  1.00  0.00    -0.263 OA 
ENDBRANCH   5   7
BRANCH   6  10
HETATM   10  C   UNL     1      -7.033   8.393  64.522  1.00  0.00    -0.073 C  
BRANCH  10  11
HETATM   11  C   UNL     1      -6.997   7.326  65.619  1.00  0.00    -0.060 C  
BRANCH  11  12
HETATM   12  C   UNL     1      -8.089   7.610  66.653  1.00  0.00    -0.119 C  
BRANCH  12  13
HETATM   13  C   UNL     1      -7.542   8.303  67.900  1.00  0.00    -0.102 C  
BRANCH  13  14
HETATM   14  C   UNL     1      -8.615   9.088  68.667  1.00  0.00    -0.129 C  
BRANCH  14  15
HETATM   15  C   UNL     1     -10.066   8.698  68.355  1.00  0.00    -0.217 C  
BRANCH  15  16
HETATM   16  C   UNL     1     -10.967   8.656  69.559  1.00  0.00    -0.067 C  
HETATM   17  C   UNL     1     -11.499   7.536  70.072  1.00  0.00    -0.049 C  
BRANCH  17  18
HETATM   18  C   UNL     1     -11.323   6.153  69.516  1.00  0.00    -0.426 C  
BRANCH  18  19
HETATM   19  C   UNL     1      -9.852   5.822  69.273  1.00  0.00    -0.220 C  
BRANCH  19  20
HETATM   20  C   UNL     1      -9.268   5.100  70.487  1.00  0.00    -0.191 C  
BRANCH  20  21
HETATM   21  C   UNL     1      -9.549   5.864  71.777  1.00  0.00    -0.171 C  
BRANCH  21  22
HETATM   22  C   UNL     1      -9.057   5.089  72.996  1.00  0.00    -0.128 C  
BRANCH  22  23
HETATM   23  C   UNL     1      -9.549   5.740  74.286  1.00  0.00    -0.169 C  
BRANCH  23  24
HETATM   24  C   UNL     1      -8.861   7.077  74.541  1.00  0.00    -0.227 C  
HETATM   25  C   UNL     1      -7.413   7.049  74.108  1.00  0.00    -0.106 C  
HETATM   26  O   UNL     1      -6.798   8.237  74.314  1.00  0.00    -0.129 OA 
HETATM   27  O   UNL     1      -6.836   6.093  73.625  1.00  0.00    -0.078 OA 
ENDBRANCH  23  24
ENDBRANCH  22  23
ENDBRANCH  21  22
ENDBRANCH  20  21
ENDBRANCH  19  20
ENDBRANCH  18  19
ENDBRANCH  17  18
ENDBRANCH  15  16
ENDBRANCH  14  15
ENDBRANCH  13  14
ENDBRANCH  12  13
ENDBRANCH  11  12
ENDBRANCH  10  11
ENDBRANCH   6  10
TORSDOF 15
ENDMDL
MODEL      509
REMARK 921   NORMALIZED FREE ENERGY PREDICTED BY IDOCK:   -0.64 KCAL/MOL
REMARK 922        TOTAL FREE ENERGY PREDICTED BY IDOCK:   -3.15 KCAL/MOL
REMARK 923 INTER-LIGAND FREE ENERGY PREDICTED BY IDOCK:   -2.51 KCAL/MOL
REMARK 924 INTRA-LIGAND FREE ENERGY PREDICTED BY IDOCK:   -0.64 KCAL/MOL
REMARK 927      BINDING AFFINITY PREDICTED BY RF-SCORE:    0.00 PKD
ROOT
ATOM      1  N   GLY A   1     -11.993  18.769  67.508  1.00  0.00     1.820 NA 
HETATM    2  C   UNL     1      -5.126  18.570  66.411  1.00  0.00    -0.164 C  
ATOM      3  H2  GLY A   1     -12.078  19.466  66.768  1.00  0.00     0.000 HD 
ATOM      4  H1  GLY A   1     -12.277  17.842  67.193  1.00  0.00     0.000 HD 
ATOM      5  CA  GLY A   1     -10.635  18.723  68.065  1.00  0.00    -0.296 C  
HETATM    6  C   UNL     1      -5.245  17.154  65.872  1.00  0.00     0.312 C  
ENDROOT
BRANCH   5   7
ATOM      7  C   GLY A   1     -10.208  20.116  68.538  1.00  0.00    -0.270 C  
ATOM      8  H   GLY A   1      -8.525  21.027  68.958  1.00  0.00     0.000 HD 
ATOM      9  O   GLY A   1      -8.789  20.163  68.664  1.00  0.00    -0.049 OA 
ENDBRANCH   5   7
BRANCH   6  10
HETATM   10  C   UNL     1      -5.349  16.088  66.962  1.00  0.00     0.240 C  
BRANCH  10  11
HETATM   11  C   UNL     1      -6.776  15.800  67.434  1.00  0.00    -0.228 C  
BRANCH  11  12
HETATM   12  C   UNL     1      -7.665  17.017  67.165  1.00  0.00    -0.205 C  
BRANCH  12  13
HETATM   13  C   UNL     1      -8.601  16.800  65.977  1.00  0.00    -0.213 C  
BRANCH  13  14
HETATM   14  C   UNL     1      -9.855  15.994  66.343  1.00  0.00    -0.308 C  
BRANCH  14  15
HETATM   15  C   UNL     1     -10.112  14.749  65.485  1.00  0.00    -0.409 C  
BRANCH  15  16
HETATM   16  C   UNL     1     -11.530  14.614  65.001  1.00  0.00    -0.386 C  
HETATM   17  C   UNL     1     -12.353  13.607  65.331  1.00  0.00    -0.510 C  
BRANCH  17  18
HETATM   18  C   UNL     1     -11.992  12.433  66.195  1.00  0.00    -0.397 C  
BRANCH  18  19
HETATM   19  C   UNL     1     -11.295  11.334  65.397  1.00  0.00     0.027 C  
BRANCH  19  20
HETATM   20  C   UNL     1      -9.871  11.131  65.913  1.00  0.00    -0.275 C  
BRANCH  20  21
HETATM   21  C   UNL     1      -9.794  11.331  67.423  1.00  0.00    -0.201 C  
BRANCH  21  22
HETATM   22  C   UNL     1      -8.463  10.832  67.979  1.00  0.00    -0.124 C  
BRANCH  22  23
HETATM   23  C   UNL     1      -8.625  10.348  69.418  1.00  0.00    -0.143 C  
BRANCH  23  24
HETATM   24  C   UNL     1      -8.613   8.825  69.506  1.00  0.00    -0.130 C  
HETATM   25  C   UNL     1      -9.998   8.272  69.754  1.00  0.00    -0.191 C  
HETATM   26  O   UNL     1     -10.001   6.920  69.815  1.00  0.00    -0.176 OA 
HETATM   27  O   UNL     1     -11.012   8.932  69.882  1.00  0.00    -0.235 OA 
ENDBRANCH  23  24
ENDBRANCH  22  23
ENDBRANCH  21  22
ENDBRANCH  20  21
ENDBRANCH  19  20
ENDBRANCH  18  19
ENDBRANCH  17  18
ENDBRANCH  15  16
ENDBRANCH  14  15
ENDBRANCH  13  14
ENDBRANCH  12  13
ENDBRANCH  11  12
ENDBRANCH  10  11
ENDBRANCH   6  10
TORSDOF 15
ENDMDL
MODEL      510
REMARK 921   NORMALIZED FREE ENERGY PREDICTED BY IDOCK:   -0.63 KCAL/MOL
REMARK 922        TOTAL FREE ENERGY PREDICTED BY IDOCK:   -3.13 KCAL/MOL
REMARK 923 INTER-LIGAND FREE ENERGY PREDICTED BY IDOCK:   -3.70 KCAL/MOL
REMARK 924 INTRA-LIGAND FREE ENERGY PREDICTED BY IDOCK:    0.56 KCAL/MOL
REMARK 927      BINDING AFFINITY PREDICTED BY RF-SCORE:    0.00 PKD
ROOT
ATOM      1  N   GLY A   1      -9.381  11.121  62.876  1.00  0.00    -0.346 NA 
HETATM    2  C   UNL     1      -5.309   8.132  67.661  1.00  0.00    -0.034 C  
ATOM      3  H2  GLY A   1      -8.658  11.824  62.719  1.00  0.00     0.000 HD 
ATOM      4  H1  GLY A   1      -9.389  10.412  62.143  1.00  0.00     0.000 HD 
ATOM      5  CA  GLY A   1      -9.252  10.487  64.195  1.00  0.00    -0.249 C  
HETATM    6  C   UNL     1      -5.127   6.920  66.760  1.00  0.00    -0.017 C  
ENDROOT
BRANCH   5   7
ATOM      7  C   GLY A   1      -9.240  11.552  65.295  1.00  0.00    -0.080 C  
ATOM      8  H   GLY A   1      -9.358  11.584  67.251  1.00  0.00     0.000 HD 
ATOM      9  O   GLY A   1      -9.365  10.924  66.569  1.00  0.00    -0.167 OA 
ENDBRANCH   5   7
BRANCH   6  10
HETATM   10  C   UNL     1      -6.303   5.945  66.797  1.00  0.00    -0.045 C  
BRANCH  10  11
HETATM   11  C   UNL     1      -7.321   6.136  65.670  1.00  0.00    -0.080 C  
BRANCH  11  12
HETATM   12  C   UNL     1      -6.601   6.153  64.319  1.00  0.00    -0.034 C  
BRANCH  12  13
HETATM   13  C   UNL     1      -7.537   5.820  63.158  1.00  0.00    -0.084 C  
BRANCH  13  14
HETATM   14  C   UNL     1      -8.612   4.791  63.533  1.00  0.00    -0.132 C  
BRANCH  14  15
HETATM   15  C   UNL     1      -9.387   5.089  64.823  1.00  0.00     0.048 C  
BRANCH  15  16
HETATM   16  C   UNL     1      -9.722   3.869  65.638  1.00  0.00    -0.170 C  
HETATM   17  C   UNL     1      -9.639   3.801  66.976  1.00  0.00    -0.213 C  
BRANCH  17  18
HETATM   18  C   UNL     1      -9.164   4.904  67.876  1.00  0.00    -0.142 C  
BRANCH  18  19
HETATM   19  C   UNL     1     -10.267   5.383  68.817  1.00  0.00    -0.252 C  
BRANCH  19  20
HETATM   20  C   UNL     1     -10.458   6.893  68.678  1.00  0.00    -0.217 C  
BRANCH  20  21
HETATM   21  C   UNL     1     -11.159   7.480  69.899  1.00  0.00    -0.185 C  
BRANCH  21  22
HETATM   22  C   UNL     1     -11.830   6.387  70.728  1.00  0.00    -0.319 C  
BRANCH  22  23
HETATM   23  C   UNL     1     -11.815   6.747  72.211  1.00  0.00    -0.277 C  
BRANCH  23  24
HETATM   24  C   UNL     1     -10.936   5.793  73.014  1.00  0.00    -0.314 C  
HETATM   25  C   UNL     1      -9.486   6.220  72.993  1.00  0.00    -0.142 C  
HETATM   26  O   UNL     1      -8.702   5.390  73.718  1.00  0.00    -0.116 OA 
HETATM   27  O   UNL     1      -9.043   7.191  72.409  1.00  0.00    -0.131 OA 
ENDBRANCH  23  24
ENDBRANCH  22  23
ENDBRANCH  21  22
ENDBRANCH  20  21
ENDBRANCH  19  20
ENDBRANCH  18  19
ENDBRANCH  17  18
ENDBRANCH  15  16
ENDBRANCH  14  15
ENDBRANCH  13  14
ENDBRANCH  12  13
ENDBRANCH  11  12
ENDBRANCH  10  11
ENDBRANCH   6  10
TORSDOF 15
ENDMDL
MODEL      511
REMARK 921   NORMALIZED FREE ENERGY PREDICTED BY IDOCK:   -0.62 KCAL/MOL
REMARK 922        TOTAL FREE ENERGY PREDICTED BY IDOCK:   -3.11 KCAL/MOL
REMARK 923 INTER-LIGAND FREE ENERGY PREDICTED BY IDOCK:   -2.06 KCAL/MOL
REMARK 924 INTRA-LIGAND FREE ENERGY PREDICTED BY IDOCK:   -1.05 KCAL/MOL
REMARK 927      BINDING AFFINITY PREDICTED BY RF-SCORE:    0.00 PKD
ROOT
ATOM      1  N   GLY A   1     -10.889  20.392  69.853  1.00  0.00    -0.041 NA 
HETATM    2  C   UNL     1      -5.127  20.909  65.988  1.00  0.00    -0.223 C  
ATOM      3  H2  GLY A   1     -10.853  21.398  70.018  1.00  0.00     0.000 HD 
ATOM      4  H1  GLY A   1     -11.585  20.146  69.150  1.00  0.00     0.000 HD 
ATOM      5  CA  GLY A   1      -9.576  19.850  69.480  1.00  0.00     0.150 C  
HETATM    6  C   UNL     1      -5.924  20.567  64.740  1.00  0.00    -0.304 C  
ENDROOT
BRANCH   5   7
ATOM      7  C   GLY A   1      -8.531  20.220  70.536  1.00  0.00     1.732 C  
ATOM      8  H   GLY A   1      -6.577  20.176  70.688  1.00  0.00     0.000 HD 
ATOM      9  O   GLY A   1      -7.226  19.947  70.032  1.00  0.00    -0.113 OA 
ENDBRANCH   5   7
BRANCH   6  10
HETATM   10  C   UNL     1      -6.196  19.072  64.574  1.00  0.00    -0.087 C  
BRANCH  10  11
HETATM   11  C   UNL     1      -7.132  18.477  65.628  1.00  0.00    -0.205 C  
BRANCH  11  12
HETATM   12  C   UNL     1      -6.846  16.981  65.788  1.00  0.00     0.552 C  
BRANCH  12  13
HETATM   13  C   UNL     1      -7.380  16.426  67.108  1.00  0.00    -0.230 C  
BRANCH  13  14
HETATM   14  C   UNL     1      -8.909  16.509  67.216  1.00  0.00    -0.206 C  
BRANCH  14  15
HETATM   15  C   UNL     1      -9.676  16.258  65.912  1.00  0.00    -0.354 C  
BRANCH  15  16
HETATM   16  C   UNL     1     -10.974  15.519  66.092  1.00  0.00    -0.247 C  
HETATM   17  C   UNL     1     -11.073  14.201  66.323  1.00  0.00    -0.318 C  
BRANCH  17  18
HETATM   18  C   UNL     1      -9.922  13.240  66.400  1.00  0.00    -0.288 C  
BRANCH  18  19
HETATM   19  C   UNL     1     -10.322  11.838  65.946  1.00  0.00    -0.280 C  
BRANCH  19  20
HETATM   20  C   UNL     1      -9.295  11.295  64.953  1.00  0.00    -0.181 C  
BRANCH  20  21
HETATM   21  C   UNL     1      -8.990   9.824  65.218  1.00  0.00    -0.233 C  
BRANCH  21  22
HETATM   22  C   UNL     1      -9.995   9.219  66.195  1.00  0.00    -0.348 C  
BRANCH  22  23
HETATM   23  C   UNL     1      -9.277   8.474  67.317  1.00  0.00    -0.168 C  
BRANCH  23  24
HETATM   24  C   UNL     1      -8.847   9.417  68.436  1.00  0.00    -0.128 C  
HETATM   25  C   UNL     1      -9.049   8.793  69.799  1.00  0.00    -0.151 C  
HETATM   26  O   UNL     1      -8.653   9.616  70.798  1.00  0.00    -0.227 OA 
HETATM   27  O   UNL     1      -9.504   7.685  70.010  1.00  0.00    -0.161 OA 
ENDBRANCH  23  24
ENDBRANCH  22  23
ENDBRANCH  21  22
ENDBRANCH  20  21
ENDBRANCH  19  20
ENDBRANCH  18  19
ENDBRANCH  17  18
ENDBRANCH  15  16
ENDBRANCH  14  15
ENDBRANCH  13  14
ENDBRANCH  12  13
ENDBRANCH  11  12
ENDBRANCH  10  11
ENDBRANCH   6  10
TORSDOF 15
ENDMDL
MODEL      512
REMARK 921   NORMALIZED FREE ENERGY PREDICTED BY IDOCK:   -0.51 KCAL/MOL
REMARK 922        TOTAL FREE ENERGY PREDICTED BY IDOCK:   -2.91 KCAL/MOL
REMARK 923 INTER-LIGAND FREE ENERGY PREDICTED BY IDOCK:   -3.20 KCAL/MOL
REMARK 924 INTRA-LIGAND FREE ENERGY PREDICTED BY IDOCK:    0.28 KCAL/MOL
REMARK 927      BINDING AFFINITY PREDICTED BY RF-SCORE:    0.00 PKD
ROOT
ATOM      1  N   GLY A   1     -10.224  14.409  64.306  1.00  0.00    -0.462 NA 
HETATM    2  C   UNL     1      -5.164   9.692  65.049  1.00  0.00    -0.046 C  
ATOM      3  H2  GLY A   1      -9.537  15.150  64.446  1.00  0.00     0.000 HD 
ATOM      4  H1  GLY A   1     -10.466  14.295  63.322  1.00  0.00     0.000 HD 
ATOM      5  CA  GLY A   1      -9.774  13.129  64.870  1.00  0.00     0.120 C  
HETATM    6  C   UNL     1      -5.294   9.310  63.583  1.00  0.00    -0.066 C  
ENDROOT
BRANCH   5   7
ATOM      7  C   GLY A   1      -9.411  13.300  66.347  1.00  0.00    -0.217 C  
ATOM      8  H   GLY A   1      -9.502  12.212  67.974  1.00  0.00     0.000 HD 
ATOM      9  O   GLY A   1      -9.727  12.106  67.058  1.00  0.00    -0.197 OA 
ENDBRANCH   5   7
BRANCH   6  10
HETATM   10  C   UNL     1      -6.463   8.370  63.295  1.00  0.00    -0.085 C  
BRANCH  10  11
HETATM   11  C   UNL     1      -6.445   7.068  64.100  1.00  0.00    -0.039 C  
BRANCH  11  12
HETATM   12  C   UNL     1      -7.328   7.216  65.342  1.00  0.00    -0.080 C  
BRANCH  12  13
HETATM   13  C   UNL     1      -6.523   7.594  66.584  1.00  0.00    -0.053 C  
BRANCH  13  14
HETATM   14  C   UNL     1      -7.394   8.177  67.706  1.00  0.00    -0.093 C  
BRANCH  14  15
HETATM   15  C   UNL     1      -8.902   7.945  67.558  1.00  0.00    -0.128 C  
BRANCH  15  16
HETATM   16  C   UNL     1      -9.568   7.400  68.792  1.00  0.00    -0.147 C  
HETATM   17  C   UNL     1     -10.438   6.378  68.799  1.00  0.00    -0.260 C  
BRANCH  17  18
HETATM   18  C   UNL     1     -10.923   5.638  67.587  1.00  0.00    -0.024 C  
BRANCH  18  19
HETATM   19  C   UNL     1      -9.788   5.347  66.608  1.00  0.00    -0.193 C  
BRANCH  19  20
HETATM   20  C   UNL     1      -9.190   3.969  66.888  1.00  0.00    -0.182 C  
BRANCH  20  21
HETATM   21  C   UNL     1      -9.473   3.522  68.319  1.00  0.00    -0.210 C  
BRANCH  21  22
HETATM   22  C   UNL     1      -8.978   2.098  68.560  1.00  0.00    -0.174 C  
BRANCH  22  23
HETATM   23  C   UNL     1      -9.421   1.596  69.932  1.00  0.00    -0.134 C  
BRANCH  23  24
HETATM   24  C   UNL     1      -8.918   2.500  71.053  1.00  0.00    -0.155 C  
HETATM   25  C   UNL     1      -9.739   2.334  72.312  1.00  0.00    -0.122 C  
HETATM   26  O   UNL     1      -9.289   3.119  73.318  1.00  0.00    -0.089 OA 
HETATM   27  O   UNL     1     -10.693   1.590  72.443  1.00  0.00    -0.162 OA 
ENDBRANCH  23  24
ENDBRANCH  22  23
ENDBRANCH  21  22
ENDBRANCH  20  21
ENDBRANCH  19  20
ENDBRANCH  18  19
ENDBRANCH  17  18
ENDBRANCH  15  16
ENDBRANCH  14  15
ENDBRANCH  13  14
ENDBRANCH  12  13
ENDBRANCH  11  12
ENDBRANCH  10  11
ENDBRANCH   6  10
TORSDOF 15
ENDMDL
MODEL      513
REMARK 921   NORMALIZED FREE ENERGY PREDICTED BY IDOCK:   -0.30 KCAL/MOL
REMARK 922        TOTAL FREE ENERGY PREDICTED BY IDOCK:   -2.51 KCAL/MOL
REMARK 923 INTER-LIGAND FREE ENERGY PREDICTED BY IDOCK:   -2.93 KCAL/MOL
REMARK 924 INTRA-LIGAND FREE ENERGY PREDICTED BY IDOCK:    0.42 KCAL/MOL
REMARK 927      BINDING AFFINITY PREDICTED BY RF-SCORE:    0.00 PKD
ROOT
ATOM      1  N   GLY A   1      -9.161  10.504  62.346  1.00  0.00    -0.371 NA 
HETATM    2  C   UNL     1      -5.308   7.404  67.240  1.00  0.00    -0.029 C  
ATOM      3  H2  GLY A   1      -8.415  11.185  62.209  1.00  0.00     0.000 HD 
ATOM      4  H1  GLY A   1      -9.169   9.795  61.613  1.00  0.00     0.000 HD 
ATOM      5  CA  GLY A   1      -9.086   9.867  63.668  1.00  0.00    -0.259 C  
HETATM    6  C   UNL     1      -5.135   6.187  66.344  1.00  0.00    -0.009 C  
ENDROOT
BRANCH   5   7
ATOM      7  C   GLY A   1      -9.075  10.932  64.768  1.00  0.00    -0.178 C  
ATOM      8  H   GLY A   1      -9.951  12.654  65.097  1.00  0.00     0.000 HD 
ATOM      9  O   GLY A   1      -9.958  11.993  64.414  1.00  0.00    -0.269 OA 
ENDBRANCH   5   7
BRANCH   6  10
HETATM   10  C   UNL     1      -6.339   5.245  66.348  1.00  0.00    -0.039 C  
BRANCH  10  11
HETATM   11  C   UNL     1      -7.328   5.475  65.204  1.00  0.00    -0.068 C  
BRANCH  11  12
HETATM   12  C   UNL     1      -6.571   5.573  63.877  1.00  0.00    -0.033 C  
BRANCH  12  13
HETATM   13  C   UNL     1      -7.467   5.282  62.674  1.00  0.00    -0.048 C  
BRANCH  13  14
HETATM   14  C   UNL     1      -8.539   4.224  62.970  1.00  0.00    -0.103 C  
BRANCH  14  15
HETATM   15  C   UNL     1      -9.376   4.469  64.232  1.00  0.00    -0.087 C  
BRANCH  15  16
HETATM   16  C   UNL     1      -9.718   3.220  64.997  1.00  0.00    -0.084 C  
HETATM   17  C   UNL     1      -9.717   3.124  66.336  1.00  0.00     0.141 C  
BRANCH  17  18
HETATM   18  C   UNL     1      -9.339   4.221  67.288  1.00  0.00    -0.186 C  
BRANCH  18  19
HETATM   19  C   UNL     1      -8.860   3.669  68.629  1.00  0.00    -0.159 C  
BRANCH  19  20
HETATM   20  C   UNL     1      -9.678   4.274  69.770  1.00  0.00    -0.290 C  
BRANCH  20  21
HETATM   21  C   UNL     1      -8.795   4.611  70.967  1.00  0.00    -0.149 C  
BRANCH  21  22
HETATM   22  C   UNL     1      -7.706   5.610  70.587  1.00  0.00    -0.092 C  
BRANCH  22  23
HETATM   23  C   UNL     1      -8.286   7.015  70.443  1.00  0.00    -0.124 C  
BRANCH  23  24
HETATM   24  C   UNL     1      -7.837   7.929  71.578  1.00  0.00    -0.100 C  
HETATM   25  C   UNL     1      -6.683   8.812  71.159  1.00  0.00    -0.075 C  
HETATM   26  O   UNL     1      -6.290   9.640  72.155  1.00  0.00    -0.289 OA 
HETATM   27  O   UNL     1      -6.151   8.809  70.066  1.00  0.00    -0.036 OA 
ENDBRANCH  23  24
ENDBRANCH  22  23
ENDBRANCH  21  22
ENDBRANCH  20  21
ENDBRANCH  19  20
ENDBRANCH  18  19
ENDBRANCH  17  18
ENDBRANCH  15  16
ENDBRANCH  14  15
ENDBRANCH  13  14
ENDBRANCH  12  13
ENDBRANCH  11  12
ENDBRANCH  10  11
ENDBRANCH   6  10
TORSDOF 15
ENDMDL
MODEL      514
REMARK 921   NORMALIZED FREE ENERGY PREDICTED BY IDOCK:   -0.30 KCAL/MOL
REMARK 922        TOTAL FREE ENERGY PREDICTED BY IDOCK:   -2.50 KCAL/MOL
REMARK 923 INTER-LIGAND FREE ENERGY PREDICTED BY IDOCK:   -3.30 KCAL/MOL
REMARK 924 INTRA-LIGAND FREE ENERGY PREDICTED BY IDOCK:    0.80 KCAL/MOL
REMARK 927      BINDING AFFINITY PREDICTED BY RF-SCORE:    0.00 PKD
ROOT
ATOM      1  N   GLY A   1      -6.811   4.368  72.019  1.00  0.00    -0.043 NA 
HETATM    2  C   UNL     1     -10.128   9.853  69.314  1.00  0.00    -0.214 C  
ATOM      3  H2  GLY A   1      -5.933   4.881  71.949  1.00  0.00     0.000 HD 
ATOM      4  H1  GLY A   1      -7.173   4.361  72.972  1.00  0.00     0.000 HD 
ATOM      5  CA  GLY A   1      -7.827   4.890  71.094  1.00  0.00    -0.088 C  
HETATM    6  C   UNL     1     -10.823  10.099  70.645  1.00  0.00    -0.305 C  
ENDROOT
BRANCH   5   7
ATOM      7  C   GLY A   1      -7.283   4.900  69.663  1.00  0.00    -0.055 C  
ATOM      8  H   GLY A   1      -6.357   3.643  68.479  1.00  0.00     0.000 HD 
ATOM      9  O   GLY A   1      -6.694   3.637  69.367  1.00  0.00    -0.036 OA 
ENDBRANCH   5   7
BRANCH   6  10
HETATM   10  C   UNL     1     -12.023   9.185  70.889  1.00  0.00    -0.299 C  
BRANCH  10  11
HETATM   11  C   UNL     1     -11.839   8.190  72.039  1.00  0.00    -0.392 C  
BRANCH  11  12
HETATM   12  C   UNL     1     -11.535   6.800  71.475  1.00  0.00    -0.329 C  
BRANCH  12  13
HETATM   13  C   UNL     1     -11.996   6.647  70.027  1.00  0.00    -0.187 C  
BRANCH  13  14
HETATM   14  C   UNL     1     -10.900   6.092  69.106  1.00  0.00    -0.418 C  
BRANCH  14  15
HETATM   15  C   UNL     1     -10.843   6.709  67.703  1.00  0.00    -0.393 C  
BRANCH  15  16
HETATM   16  C   UNL     1     -11.465   5.860  66.629  1.00  0.00     0.598 C  
HETATM   17  C   UNL     1     -10.779   5.053  65.804  1.00  0.00    -0.132 C  
BRANCH  17  18
HETATM   18  C   UNL     1      -9.287   4.892  65.784  1.00  0.00    -0.165 C  
BRANCH  18  19
HETATM   19  C   UNL     1      -8.659   5.260  67.126  1.00  0.00    -0.105 C  
BRANCH  19  20
HETATM   20  C   UNL     1      -7.691   6.430  66.951  1.00  0.00    -0.100 C  
BRANCH  20  21
HETATM   21  C   UNL     1      -6.562   6.078  65.987  1.00  0.00    -0.048 C  
BRANCH  21  22
HETATM   22  C   UNL     1      -5.747   7.314  65.616  1.00  0.00    -0.036 C  
BRANCH  22  23
HETATM   23  C   UNL     1      -6.264   7.934  64.321  1.00  0.00    -0.057 C  
BRANCH  23  24
HETATM   24  C   UNL     1      -7.572   8.689  64.539  1.00  0.00    -0.113 C  
HETATM   25  C   UNL     1      -7.329  10.159  64.795  1.00  0.00    -0.134 C  
HETATM   26  O   UNL     1      -8.485  10.841  64.972  1.00  0.00    -0.163 OA 
HETATM   27  O   UNL     1      -6.240  10.700  64.839  1.00  0.00    -0.087 OA 
ENDBRANCH  23  24
ENDBRANCH  22  23
ENDBRANCH  21  22
ENDBRANCH  20  21
ENDBRANCH  19  20
ENDBRANCH  18  19
ENDBRANCH  17  18
ENDBRANCH  15  16
ENDBRANCH  14  15
ENDBRANCH  13  14
ENDBRANCH  12  13
ENDBRANCH  11  12
ENDBRANCH  10  11
ENDBRANCH   6  10
TORSDOF 15
ENDMDL
MODEL      515
REMARK 921   NORMALIZED FREE ENERGY PREDICTED BY IDOCK:   -0.13 KCAL/MOL
REMARK 922        TOTAL FREE ENERGY PREDICTED BY IDOCK:   -2.19 KCAL/MOL
REMARK 923 INTER-LIGAND FREE ENERGY PREDICTED BY IDOCK:   -3.81 KCAL/MOL
REMARK 924 INTRA-LIGAND FREE ENERGY PREDICTED BY IDOCK:    1.62 KCAL/MOL
REMARK 927      BINDING AFFINITY PREDICTED BY RF-SCORE:    0.00 PKD
ROOT
ATOM      1  N   GLY A   1      -8.449   7.940  70.696  1.00  0.00    -0.123 NA 
HETATM    2  C   UNL     1      -6.083  13.851  67.891  1.00  0.00    -0.153 C  
ATOM      3  H2  GLY A   1      -7.990   7.418  69.950  1.00  0.00     0.000 HD 
ATOM      4  H1  GLY A   1      -7.921   7.902  71.568  1.00  0.00     0.000 HD 
ATOM      5  CA  GLY A   1      -8.700   9.336  70.314  1.00  0.00    -0.219 C  
HETATM    6  C   UNL     1      -5.164  14.059  69.085  1.00  0.00    -0.074 C  
ENDROOT
BRANCH   5   7
ATOM      7  C   GLY A   1      -9.493   9.393  69.005  1.00  0.00    -0.160 C  
ATOM      8  H   GLY A   1      -9.800  10.701  67.579  1.00  0.00     0.000 HD 
ATOM      9  O   GLY A   1      -9.308  10.665  68.391  1.00  0.00    -0.150 OA 
ENDBRANCH   5   7
BRANCH   6  10
HETATM   10  C   UNL     1      -5.871  14.637  70.311  1.00  0.00    -0.146 C  
BRANCH  10  11
HETATM   11  C   UNL     1      -7.024  15.590  69.988  1.00  0.00     0.011 C  
BRANCH  11  12
HETATM   12  C   UNL     1      -8.261  14.786  69.579  1.00  0.00     0.050 C  
BRANCH  12  13
HETATM   13  C   UNL     1      -8.371  14.620  68.065  1.00  0.00    -0.146 C  
BRANCH  13  14
HETATM   14  C   UNL     1      -9.792  14.272  67.603  1.00  0.00    -0.224 C  
BRANCH  14  15
HETATM   15  C   UNL     1     -10.618  15.449  67.068  1.00  0.00    -0.309 C  
BRANCH  15  16
HETATM   16  C   UNL     1     -11.074  15.287  65.644  1.00  0.00    -0.308 C  
HETATM   17  C   UNL     1     -11.190  14.109  65.011  1.00  0.00    -0.356 C  
BRANCH  17  18
HETATM   18  C   UNL     1     -10.850  12.769  65.595  1.00  0.00    -0.300 C  
BRANCH  18  19
HETATM   19  C   UNL     1     -10.347  11.797  64.530  1.00  0.00    -0.340 C  
BRANCH  19  20
HETATM   20  C   UNL     1     -10.355  10.369  65.074  1.00  0.00    -0.249 C  
BRANCH  20  21
HETATM   21  C   UNL     1      -9.244   9.530  64.451  1.00  0.00    -0.192 C  
BRANCH  21  22
HETATM   22  C   UNL     1      -8.565   8.649  65.495  1.00  0.00    -0.200 C  
BRANCH  22  23
HETATM   23  C   UNL     1      -7.064   8.926  65.544  1.00  0.00    -0.080 C  
BRANCH  23  24
HETATM   24  C   UNL     1      -6.262   7.647  65.767  1.00  0.00    -0.038 C  
HETATM   25  C   UNL     1      -6.054   7.370  67.238  1.00  0.00    -0.046 C  
HETATM   26  O   UNL     1      -5.359   6.228  67.447  1.00  0.00    -0.005 OA 
HETATM   27  O   UNL     1      -6.453   8.066  68.153  1.00  0.00    -0.052 OA 
ENDBRANCH  23  24
ENDBRANCH  22  23
ENDBRANCH  21  22
ENDBRANCH  20  21
ENDBRANCH  19  20
ENDBRANCH  18  19
ENDBRANCH  17  18
ENDBRANCH  15  16
ENDBRANCH  14  15
ENDBRANCH  13  14
ENDBRANCH  12  13
ENDBRANCH  11  12
ENDBRANCH  10  11
ENDBRANCH   6  10
TORSDOF 15
ENDMDL
MODEL      516
REMARK 921   NORMALIZED FREE ENERGY PREDICTED BY IDOCK:   -0.05 KCAL/MOL
REMARK 922        TOTAL FREE ENERGY PREDICTED BY IDOCK:   -2.04 KCAL/MOL
REMARK 923 INTER-LIGAND FREE ENERGY PREDICTED BY IDOCK:   -1.28 KCAL/MOL
REMARK 924 INTRA-LIGAND FREE ENERGY PREDICTED BY IDOCK:   -0.76 KCAL/MOL
REMARK 927      BINDING AFFINITY PREDICTED BY RF-SCORE:    0.00 PKD
ROOT
ATOM      1  N   GLY A   1     -11.992  18.769  67.508  1.00  0.00     1.820 NA 
HETATM    2  C   UNL     1      -5.127  18.656  66.383  1.00  0.00    -0.160 C  
ATOM      3  H2  GLY A   1     -12.087  19.474  66.777  1.00  0.00     0.000 HD 
ATOM      4  H1  GLY A   1     -12.267  17.843  67.183  1.00  0.00     0.000 HD 
ATOM      5  CA  GLY A   1     -10.631  18.730  68.059  1.00  0.00    -0.296 C  
HETATM    6  C   UNL     1      -5.233  17.244  65.827  1.00  0.00     0.268 C  
ENDROOT
BRANCH   5   7
ATOM      7  C   GLY A   1     -10.217  20.121  68.548  1.00  0.00    -0.270 C  
ATOM      8  H   GLY A   1      -9.832  21.863  67.736  1.00  0.00     0.000 HD 
ATOM      9  O   GLY A   1     -10.088  21.000  67.433  1.00  0.00    -0.227 OA 
ENDBRANCH   5   7
BRANCH   6  10
HETATM   10  C   UNL     1      -5.322  16.164  66.904  1.00  0.00     0.288 C  
BRANCH  10  11
HETATM   11  C   UNL     1      -6.745  15.852  67.375  1.00  0.00    -0.229 C  
BRANCH  11  12
HETATM   12  C   UNL     1      -7.648  17.063  67.128  1.00  0.00    -0.205 C  
BRANCH  12  13
HETATM   13  C   UNL     1      -8.580  16.859  65.936  1.00  0.00    -0.048 C  
BRANCH  13  14
HETATM   14  C   UNL     1      -9.820  16.023  66.282  1.00  0.00    -0.331 C  
BRANCH  14  15
HETATM   15  C   UNL     1     -10.576  15.437  65.083  1.00  0.00    -0.458 C  
BRANCH  15  16
HETATM   16  C   UNL     1     -12.068  15.621  65.144  1.00  0.00     0.480 C  
HETATM   17  C   UNL     1     -12.957  14.617  65.201  1.00  0.00     0.180 C  
BRANCH  17  18
HETATM   18  C   UNL     1     -12.622  13.154  65.172  1.00  0.00    -0.525 C  
BRANCH  18  19
HETATM   19  C   UNL     1     -12.445  12.641  63.745  1.00  0.00    -0.514 C  
BRANCH  19  20
HETATM   20  C   UNL     1     -11.011  12.155  63.534  1.00  0.00    -0.521 C  
BRANCH  20  21
HETATM   21  C   UNL     1     -10.454  11.505  64.797  1.00  0.00    -0.354 C  
BRANCH  21  22
HETATM   22  C   UNL     1      -8.972  11.824  64.974  1.00  0.00     0.321 C  
BRANCH  22  23
HETATM   23  C   UNL     1      -8.258  10.691  65.708  1.00  0.00    -0.161 C  
BRANCH  23  24
HETATM   24  C   UNL     1      -7.522  11.197  66.944  1.00  0.00    -0.138 C  
HETATM   25  C   UNL     1      -7.004  10.055  67.789  1.00  0.00    -0.085 C  
HETATM   26  O   UNL     1      -6.333  10.494  68.879  1.00  0.00    -0.046 OA 
HETATM   27  O   UNL     1      -7.149   8.872  67.547  1.00  0.00    -0.075 OA 
ENDBRANCH  23  24
ENDBRANCH  22  23
ENDBRANCH  21  22
ENDBRANCH  20  21
ENDBRANCH  19  20
ENDBRANCH  18  19
ENDBRANCH  17  18
ENDBRANCH  15  16
ENDBRANCH  14  15
ENDBRANCH  13  14
ENDBRANCH  12  13
ENDBRANCH  11  12
ENDBRANCH  10  11
ENDBRANCH   6  10
TORSDOF 15
ENDMDL
MODEL      517
REMARK 921   NORMALIZED FREE ENERGY PREDICTED BY IDOCK:    0.02 KCAL/MOL
REMARK 922        TOTAL FREE ENERGY PREDICTED BY IDOCK:   -1.90 KCAL/MOL
REMARK 923 INTER-LIGAND FREE ENERGY PREDICTED BY IDOCK:   -1.21 KCAL/MOL
REMARK 924 INTRA-LIGAND FREE ENERGY PREDICTED BY IDOCK:   -0.69 KCAL/MOL
REMARK 927      BINDING AFFINITY PREDICTED BY RF-SCORE:    0.00 PKD
ROOT
ATOM      1  N   GLY A   1      -6.446  14.812  71.567  1.00  0.00     0.306 NA 
HETATM    2  C   UNL     1      -6.358   8.480  68.683  1.00  0.00    -0.053 C  
ATOM      3  H2  GLY A   1      -7.350  14.985  71.128  1.00  0.00     0.000 HD 
ATOM      4  H1  GLY A   1      -6.541  14.584  72.556  1.00  0.00     0.000 HD 
ATOM      5  CA  GLY A   1      -5.692  13.759  70.873  1.00  0.00    -0.206 C  
HETATM    6  C   UNL     1      -6.508   7.844  70.056  1.00  0.00    -0.033 C  
ENDROOT
BRANCH   5   7
ATOM      7  C   GLY A   1      -5.550  14.102  69.387  1.00  0.00    -0.084 C  
ATOM      8  H   GLY A   1      -6.737  14.233  67.834  1.00  0.00     0.000 HD 
ATOM      9  O   GLY A   1      -6.825  14.020  68.755  1.00  0.00    -0.091 OA 
ENDBRANCH   5   7
BRANCH   6  10
HETATM   10  C   UNL     1      -5.201   7.771  70.845  1.00  0.00    -0.026 C  
BRANCH  10  11
HETATM   11  C   UNL     1      -5.208   6.755  71.990  1.00  0.00    -0.032 C  
BRANCH  11  12
HETATM   12  C   UNL     1      -6.507   6.886  72.790  1.00  0.00    -0.058 C  
BRANCH  12  13
HETATM   13  C   UNL     1      -6.953   8.340  72.939  1.00  0.00    -0.124 C  
BRANCH  13  14
HETATM   14  C   UNL     1      -8.469   8.519  72.783  1.00  0.00    -0.157 C  
BRANCH  14  15
HETATM   15  C   UNL     1      -8.923   9.190  71.481  1.00  0.00    -0.079 C  
BRANCH  15  16
HETATM   16  C   UNL     1     -10.416   9.245  71.302  1.00  0.00    -0.408 C  
HETATM   17  C   UNL     1     -11.057   8.937  70.163  1.00  0.00    -0.217 C  
BRANCH  17  18
HETATM   18  C   UNL     1     -10.401   8.531  68.876  1.00  0.00    -0.226 C  
BRANCH  18  19
HETATM   19  C   UNL     1     -11.397   7.897  67.907  1.00  0.00     0.788 C  
BRANCH  19  20
HETATM   20  C   UNL     1     -10.767   7.756  66.522  1.00  0.00     0.327 C  
BRANCH  20  21
HETATM   21  C   UNL     1      -9.614   6.756  66.535  1.00  0.00    -0.191 C  
BRANCH  21  22
HETATM   22  C   UNL     1     -10.063   5.404  67.083  1.00  0.00    -0.231 C  
BRANCH  22  23
HETATM   23  C   UNL     1      -8.861   4.497  67.337  1.00  0.00    -0.113 C  
BRANCH  23  24
HETATM   24  C   UNL     1      -8.961   3.793  68.687  1.00  0.00    -0.176 C  
HETATM   25  C   UNL     1      -7.597   3.562  69.296  1.00  0.00    -0.052 C  
HETATM   26  O   UNL     1      -7.677   2.954  70.503  1.00  0.00    -0.043 OA 
HETATM   27  O   UNL     1      -6.535   3.876  68.794  1.00  0.00    -0.035 OA 
ENDBRANCH  23  24
ENDBRANCH  22  23
ENDBRANCH  21  22
ENDBRANCH  20  21
ENDBRANCH  19  20
ENDBRANCH  18  19
ENDBRANCH  17  18
ENDBRANCH  15  16
ENDBRANCH  14  15
ENDBRANCH  13  14
ENDBRANCH  12  13
ENDBRANCH  11  12
ENDBRANCH  10  11
ENDBRANCH   6  10
TORSDOF 15
ENDMDL
MODEL      518
REMARK 921   NORMALIZED FREE ENERGY PREDICTED BY IDOCK:    0.08 KCAL/MOL
REMARK 922        TOTAL FREE ENERGY PREDICTED BY IDOCK:   -1.80 KCAL/MOL
REMARK 923 INTER-LIGAND FREE ENERGY PREDICTED BY IDOCK:   -2.40 KCAL/MOL
REMARK 924 INTRA-LIGAND FREE ENERGY PREDICTED BY IDOCK:    0.60 KCAL/MOL
REMARK 927      BINDING AFFINITY PREDICTED BY RF-SCORE:    0.00 PKD
ROOT
ATOM      1  N   GLY A   1     -11.339   9.954  69.600  1.00  0.00    -0.387 NA 
HETATM    2  C   UNL     1      -7.928   3.905  70.036  1.00  0.00    -0.053 C  
ATOM      3  H2  GLY A   1     -10.479  10.442  69.850  1.00  0.00     0.000 HD 
ATOM      4  H1  GLY A   1     -11.531  10.008  68.601  1.00  0.00     0.000 HD 
ATOM      5  CA  GLY A   1     -11.321   8.552  70.039  1.00  0.00    -0.007 C  
HETATM    6  C   UNL     1      -8.056   3.716  68.532  1.00  0.00    -0.076 C  
ENDROOT
BRANCH   5   7
ATOM      7  C   GLY A   1     -11.032   8.471  71.541  1.00  0.00    -0.269 C  
ATOM      8  H   GLY A   1      -9.492   8.048  72.676  1.00  0.00     0.000 HD 
ATOM      9  O   GLY A   1      -9.671   8.098  71.745  1.00  0.00    -0.164 OA 
ENDBRANCH   5   7
BRANCH   6  10
HETATM   10  C   UNL     1      -9.424   3.194  68.093  1.00  0.00    -0.217 C  
BRANCH  10  11
HETATM   11  C   UNL     1      -9.530   2.868  66.601  1.00  0.00    -0.002 C  
BRANCH  11  12
HETATM   12  C   UNL     1      -8.611   3.798  65.803  1.00  0.00    -0.112 C  
BRANCH  12  13
HETATM   13  C   UNL     1      -7.315   4.113  66.549  1.00  0.00    -0.080 C  
BRANCH  13  14
HETATM   14  C   UNL     1      -6.693   5.451  66.127  1.00  0.00    -0.057 C  
BRANCH  14  15
HETATM   15  C   UNL     1      -6.457   6.455  67.262  1.00  0.00    -0.052 C  
BRANCH  15  16
HETATM   16  C   UNL     1      -7.437   7.597  67.290  1.00  0.00    -0.100 C  
HETATM   17  C   UNL     1      -7.434   8.579  68.205  1.00  0.00    -0.096 C  
BRANCH  17  18
HETATM   18  C   UNL     1      -6.491   8.684  69.368  1.00  0.00    -0.045 C  
BRANCH  18  19
HETATM   19  C   UNL     1      -6.717   9.965  70.168  1.00  0.00    -0.112 C  
BRANCH  19  20
HETATM   20  C   UNL     1      -6.101  11.158  69.437  1.00  0.00    -0.071 C  
BRANCH  20  21
HETATM   21  C   UNL     1      -7.000  12.387  69.525  1.00  0.00     0.161 C  
BRANCH  21  22
HETATM   22  C   UNL     1      -8.128  12.321  68.499  1.00  0.00    -0.101 C  
BRANCH  22  23
HETATM   23  C   UNL     1      -7.597  12.587  67.093  1.00  0.00    -0.087 C  
BRANCH  23  24
HETATM   24  C   UNL     1      -7.669  11.340  66.218  1.00  0.00    -0.053 C  
HETATM   25  C   UNL     1      -6.300  10.923  65.730  1.00  0.00    -0.038 C  
HETATM   26  O   UNL     1      -6.352   9.805  64.968  1.00  0.00    -0.083 OA 
HETATM   27  O   UNL     1      -5.256  11.495  65.977  1.00  0.00    -0.299 OA 
ENDBRANCH  23  24
ENDBRANCH  22  23
ENDBRANCH  21  22
ENDBRANCH  20  21
ENDBRANCH  19  20
ENDBRANCH  18  19
ENDBRANCH  17  18
ENDBRANCH  15  16
ENDBRANCH  14  15
ENDBRANCH  13  14
ENDBRANCH  12  13
ENDBRANCH  11  12
ENDBRANCH  10  11
ENDBRANCH   6  10
TORSDOF 15
ENDMDL
MODEL      519
REMARK 921   NORMALIZED FREE ENERGY PREDICTED BY IDOCK:    0.41 KCAL/MOL
REMARK 922        TOTAL FREE ENERGY PREDICTED BY IDOCK:   -1.18 KCAL/MOL
REMARK 923 INTER-LIGAND FREE ENERGY PREDICTED BY IDOCK:   -2.42 KCAL/MOL
REMARK 924 INTRA-LIGAND FREE ENERGY PREDICTED BY IDOCK:    1.25 KCAL/MOL
REMARK 927      BINDING AFFINITY PREDICTED BY RF-SCORE:    0.00 PKD
ROOT
ATOM      1  N   GLY A   1      -8.705  14.334  66.674  1.00  0.00    -0.439 NA 
HETATM    2  C   UNL     1      -9.857   8.980  70.966  1.00  0.00    -0.352 C  
ATOM      3  H2  GLY A   1      -9.419  14.868  67.169  1.00  0.00     0.000 HD 
ATOM      4  H1  GLY A   1      -7.763  14.614  66.946  1.00  0.00     0.000 HD 
ATOM      5  CA  GLY A   1      -8.877  12.887  66.856  1.00  0.00    -0.187 C  
HETATM    6  C   UNL     1      -8.480   9.169  71.582  1.00  0.00     0.128 C  
ENDROOT
BRANCH   5   7
ATOM      7  C   GLY A   1     -10.291  12.466  66.448  1.00  0.00    -0.234 C  
ATOM      8  H   GLY A   1     -12.016  13.350  66.162  1.00  0.00     0.000 HD 
ATOM      9  O   GLY A   1     -11.139  13.611  66.415  1.00  0.00    -0.299 OA 
ENDBRANCH   5   7
BRANCH   6  10
HETATM   10  C   UNL     1      -7.346   8.573  70.748  1.00  0.00    -0.066 C  
BRANCH  10  11
HETATM   11  C   UNL     1      -6.309   7.788  71.556  1.00  0.00    -0.038 C  
BRANCH  11  12
HETATM   12  C   UNL     1      -6.802   7.609  72.994  1.00  0.00    -0.077 C  
BRANCH  12  13
HETATM   13  C   UNL     1      -7.639   6.343  73.169  1.00  0.00    -0.094 C  
BRANCH  13  14
HETATM   14  C   UNL     1      -6.945   5.088  72.621  1.00  0.00    -0.080 C  
BRANCH  14  15
HETATM   15  C   UNL     1      -5.486   5.277  72.189  1.00  0.00    -0.016 C  
BRANCH  15  16
HETATM   16  C   UNL     1      -5.144   4.636  70.871  1.00  0.00     0.000 C  
HETATM   17  C   UNL     1      -5.924   3.752  70.231  1.00  0.00    -0.018 C  
BRANCH  17  18
HETATM   18  C   UNL     1      -7.236   3.223  70.732  1.00  0.00    -0.033 C  
BRANCH  18  19
HETATM   19  C   UNL     1      -7.050   2.001  71.628  1.00  0.00    -0.031 C  
BRANCH  19  20
HETATM   20  C   UNL     1      -8.307   1.767  72.467  1.00  0.00    -0.054 C  
BRANCH  20  21
HETATM   21  C   UNL     1      -9.557   1.720  71.593  1.00  0.00    -0.197 C  
BRANCH  21  22
HETATM   22  C   UNL     1     -10.498   2.878  71.914  1.00  0.00     0.236 C  
BRANCH  22  23
HETATM   23  C   UNL     1      -9.885   4.209  71.484  1.00  0.00    -0.255 C  
BRANCH  23  24
HETATM   24  C   UNL     1     -10.868   5.045  70.671  1.00  0.00     0.114 C  
HETATM   25  C   UNL     1     -11.789   5.846  71.564  1.00  0.00     0.119 C  
HETATM   26  O   UNL     1     -12.653   6.606  70.852  1.00  0.00    -0.285 OA 
HETATM   27  O   UNL     1     -11.779   5.837  72.781  1.00  0.00    -0.264 OA 
ENDBRANCH  23  24
ENDBRANCH  22  23
ENDBRANCH  21  22
ENDBRANCH  20  21
ENDBRANCH  19  20
ENDBRANCH  18  19
ENDBRANCH  17  18
ENDBRANCH  15  16
ENDBRANCH  14  15
ENDBRANCH  13  14
ENDBRANCH  12  13
ENDBRANCH  11  12
ENDBRANCH  10  11
ENDBRANCH   6  10
TORSDOF 15
ENDMDL
MODEL      520
REMARK 921   NORMALIZED FREE ENERGY PREDICTED BY IDOCK:    0.50 KCAL/MOL
REMARK 922        TOTAL FREE ENERGY PREDICTED BY IDOCK:   -1.01 KCAL/MOL
REMARK 923 INTER-LIGAND FREE ENERGY PREDICTED BY IDOCK:   -2.59 KCAL/MOL
REMARK 924 INTRA-LIGAND FREE ENERGY PREDICTED BY IDOCK:    1.57 KCAL/MOL
REMARK 927      BINDING AFFINITY PREDICTED BY RF-SCORE:    0.00 PKD
ROOT
ATOM      1  N   GLY A   1     -11.455   9.921  69.547  1.00  0.00    -0.435 NA 
HETATM    2  C   UNL     1      -8.165   3.907  68.360  1.00  0.00    -0.082 C  
ATOM      3  H2  GLY A   1     -10.583  10.313  69.903  1.00  0.00     0.000 HD 
ATOM      4  H1  GLY A   1     -11.654  10.236  68.598  1.00  0.00     0.000 HD 
ATOM      5  CA  GLY A   1     -11.462   8.454  69.608  1.00  0.00     0.349 C  
HETATM    6  C   UNL     1      -8.309   4.115  66.860  1.00  0.00    -0.100 C  
ENDROOT
BRANCH   5   7
ATOM      7  C   GLY A   1     -11.164   7.981  71.034  1.00  0.00    -0.266 C  
ATOM      8  H   GLY A   1     -11.492   6.372  72.102  1.00  0.00     0.000 HD 
ATOM      9  O   GLY A   1     -11.677   6.664  71.217  1.00  0.00    -0.303 OA 
ENDBRANCH   5   7
BRANCH   6  10
HETATM   10  C   UNL     1      -9.690   3.749  66.318  1.00  0.00    -0.138 C  
BRANCH  10  11
HETATM   11  C   UNL     1      -9.830   3.876  64.799  1.00  0.00    -0.197 C  
BRANCH  11  12
HETATM   12  C   UNL     1      -9.006   5.067  64.302  1.00  0.00    -0.015 C  
BRANCH  12  13
HETATM   13  C   UNL     1      -7.818   5.371  65.213  1.00  0.00    -0.097 C  
BRANCH  13  14
HETATM   14  C   UNL     1      -7.482   6.867  65.279  1.00  0.00    -0.089 C  
BRANCH  14  15
HETATM   15  C   UNL     1      -7.248   7.429  66.687  1.00  0.00    -0.080 C  
BRANCH  15  16
HETATM   16  C   UNL     1      -8.408   8.211  67.240  1.00  0.00    -0.121 C  
HETATM   17  C   UNL     1      -8.477   8.687  68.493  1.00  0.00    -0.131 C  
BRANCH  17  18
HETATM   18  C   UNL     1      -7.439   8.487  69.559  1.00  0.00    -0.080 C  
BRANCH  18  19
HETATM   19  C   UNL     1      -7.845   9.145  70.876  1.00  0.00    -0.163 C  
BRANCH  19  20
HETATM   20  C   UNL     1      -8.317   8.085  71.871  1.00  0.00    -0.167 C  
BRANCH  20  21
HETATM   21  C   UNL     1      -7.950   8.464  73.302  1.00  0.00    -0.155 C  
BRANCH  21  22
HETATM   22  C   UNL     1      -6.460   8.260  73.563  1.00  0.00    -0.131 C  
BRANCH  22  23
HETATM   23  C   UNL     1      -6.093   6.780  73.479  1.00  0.00    -0.062 C  
BRANCH  23  24
HETATM   24  C   UNL     1      -5.220   6.484  72.263  1.00  0.00    -0.031 C  
HETATM   25  C   UNL     1      -5.932   5.591  71.272  1.00  0.00    -0.032 C  
HETATM   26  O   UNL     1      -5.172   5.338  70.181  1.00  0.00    -0.004 OA 
HETATM   27  O   UNL     1      -7.054   5.141  71.402  1.00  0.00    -0.057 OA 
ENDBRANCH  23  24
ENDBRANCH  22  23
ENDBRANCH  21  22
ENDBRANCH  20  21
ENDBRANCH  19  20
ENDBRANCH  18  19
ENDBRANCH  17  18
ENDBRANCH  15  16
ENDBRANCH  14  15
ENDBRANCH  13  14
ENDBRANCH  12  13
ENDBRANCH  11  12
ENDBRANCH  10  11
ENDBRANCH   6  10
TORSDOF 15
ENDMDL
MODEL      521
REMARK 921   NORMALIZED FREE ENERGY PREDICTED BY IDOCK:    0.60 KCAL/MOL
REMARK 922        TOTAL FREE ENERGY PREDICTED BY IDOCK:   -0.82 KCAL/MOL
REMARK 923 INTER-LIGAND FREE ENERGY PREDICTED BY IDOCK:   -3.05 KCAL/MOL
REMARK 924 INTRA-LIGAND FREE ENERGY PREDICTED BY IDOCK:    2.22 KCAL/MOL
REMARK 927      BINDING AFFINITY PREDICTED BY RF-SCORE:    0.00 PKD
ROOT
ATOM      1  N   GLY A   1      -8.449   7.940  70.696  1.00  0.00    -0.123 NA 
HETATM    2  C   UNL     1      -6.087  13.831  67.845  1.00  0.00    -0.154 C  
ATOM      3  H2  GLY A   1      -7.990   7.412  69.954  1.00  0.00     0.000 HD 
ATOM      4  H1  GLY A   1      -7.920   7.909  71.567  1.00  0.00     0.000 HD 
ATOM      5  CA  GLY A   1      -8.700   9.333  70.304  1.00  0.00    -0.219 C  
HETATM    6  C   UNL     1      -5.168  14.048  69.036  1.00  0.00    -0.074 C  
ENDROOT
BRANCH   5   7
ATOM      7  C   GLY A   1      -9.494   9.379  68.995  1.00  0.00    -0.160 C  
ATOM      8  H   GLY A   1      -9.818  10.683  67.568  1.00  0.00     0.000 HD 
ATOM      9  O   GLY A   1      -9.326  10.654  68.380  1.00  0.00    -0.150 OA 
ENDBRANCH   5   7
BRANCH   6  10
HETATM   10  C   UNL     1      -5.874  14.634  70.258  1.00  0.00    -0.146 C  
BRANCH  10  11
HETATM   11  C   UNL     1      -7.028  15.584  69.929  1.00  0.00    -0.073 C  
BRANCH  11  12
HETATM   12  C   UNL     1      -8.265  14.776  69.529  1.00  0.00     0.050 C  
BRANCH  12  13
HETATM   13  C   UNL     1      -8.376  14.594  68.016  1.00  0.00    -0.146 C  
BRANCH  13  14
HETATM   14  C   UNL     1      -9.798  14.242  67.559  1.00  0.00    -0.231 C  
BRANCH  14  15
HETATM   15  C   UNL     1     -10.623  15.413  67.011  1.00  0.00    -0.309 C  
BRANCH  15  16
HETATM   16  C   UNL     1     -11.080  15.235  65.589  1.00  0.00    -0.308 C  
HETATM   17  C   UNL     1     -11.198  14.050  64.970  1.00  0.00    -0.352 C  
BRANCH  17  18
HETATM   18  C   UNL     1     -10.859  12.716  65.570  1.00  0.00    -0.310 C  
BRANCH  18  19
HETATM   19  C   UNL     1     -10.360  11.731  64.516  1.00  0.00    -0.340 C  
BRANCH  19  20
HETATM   20  C   UNL     1     -10.370  10.309  65.077  1.00  0.00    -0.174 C  
BRANCH  20  21
HETATM   21  C   UNL     1      -9.262   9.461  64.462  1.00  0.00    -0.155 C  
BRANCH  21  22
HETATM   22  C   UNL     1      -8.583   8.590  65.516  1.00  0.00    -0.204 C  
BRANCH  22  23
HETATM   23  C   UNL     1      -7.082   8.862  65.558  1.00  0.00    -0.080 C  
BRANCH  23  24
HETATM   24  C   UNL     1      -6.751  10.272  65.078  1.00  0.00    -0.108 C  
HETATM   25  C   UNL     1      -6.510  10.311  63.586  1.00  0.00    -0.095 C  
HETATM   26  O   UNL     1      -6.234  11.561  63.149  1.00  0.00     0.909 OA 
HETATM   27  O   UNL     1      -6.556   9.354  62.837  1.00  0.00    -0.097 OA 
ENDBRANCH  23  24
ENDBRANCH  22  23
ENDBRANCH  21  22
ENDBRANCH  20  21
ENDBRANCH  19  20
ENDBRANCH  18  19
ENDBRANCH  17  18
ENDBRANCH  15  16
ENDBRANCH  14  15
ENDBRANCH  13  14
ENDBRANCH  12  13
ENDBRANCH  11  12
ENDBRANCH  10  11
ENDBRANCH   6  10
TORSDOF 15
ENDMDL
MODEL      522
REMARK 921   NORMALIZED FREE ENERGY PREDICTED BY IDOCK:    0.69 KCAL/MOL
REMARK 922        TOTAL FREE ENERGY PREDICTED BY IDOCK:   -0.66 KCAL/MOL
REMARK 923 INTER-LIGAND FREE ENERGY PREDICTED BY IDOCK:   -1.33 KCAL/MOL
REMARK 924 INTRA-LIGAND FREE ENERGY PREDICTED BY IDOCK:    0.67 KCAL/MOL
REMARK 927      BINDING AFFINITY PREDICTED BY RF-SCORE:    0.00 PKD
ROOT
ATOM      1  N   GLY A   1      -5.522   3.960  70.524  1.00  0.00    -0.011 NA 
HETATM    2  C   UNL     1      -9.201   9.349  68.109  1.00  0.00    -0.135 C  
ATOM      3  H2  GLY A   1      -4.687   4.545  70.521  1.00  0.00     0.000 HD 
ATOM      4  H1  GLY A   1      -5.909   3.853  71.462  1.00  0.00     0.000 HD 
ATOM      5  CA  GLY A   1      -6.551   4.466  69.605  1.00  0.00    -0.033 C  
HETATM    6  C   UNL     1      -9.950   9.439  69.429  1.00  0.00    -0.189 C  
ENDROOT
BRANCH   5   7
ATOM      7  C   GLY A   1      -5.970   4.627  68.198  1.00  0.00    -0.027 C  
ATOM      8  H   GLY A   1      -4.773   3.612  67.023  1.00  0.00     0.000 HD 
ATOM      9  O   GLY A   1      -5.134   3.512  67.896  1.00  0.00    -0.007 OA 
ENDBRANCH   5   7
BRANCH   6  10
HETATM   10  C   UNL     1     -11.078   8.416  69.566  1.00  0.00     0.040 C  
BRANCH  10  11
HETATM   11  C   UNL     1     -10.960   7.502  70.787  1.00  0.00    -0.265 C  
BRANCH  11  12
HETATM   12  C   UNL     1     -10.793   6.049  70.332  1.00  0.00    -0.386 C  
BRANCH  12  13
HETATM   13  C   UNL     1     -11.102   5.868  68.847  1.00  0.00    -0.254 C  
BRANCH  13  14
HETATM   14  C   UNL     1     -10.221   4.804  68.178  1.00  0.00    -0.058 C  
BRANCH  14  15
HETATM   15  C   UNL     1      -9.956   5.013  66.682  1.00  0.00    -0.246 C  
BRANCH  15  16
HETATM   16  C   UNL     1     -11.189   4.950  65.822  1.00  0.00     0.342 C  
HETATM   17  C   UNL     1     -11.316   4.179  64.730  1.00  0.00     0.571 C  
BRANCH  17  18
HETATM   18  C   UNL     1     -10.248   3.290  64.162  1.00  0.00    -0.170 C  
BRANCH  18  19
HETATM   19  C   UNL     1      -9.372   2.685  65.256  1.00  0.00    -0.080 C  
BRANCH  19  20
HETATM   20  C   UNL     1      -8.024   3.403  65.309  1.00  0.00    -0.086 C  
BRANCH  20  21
HETATM   21  C   UNL     1      -7.203   3.137  64.051  1.00  0.00    -0.057 C  
BRANCH  21  22
HETATM   22  C   UNL     1      -6.025   4.101  63.947  1.00  0.00    -0.017 C  
BRANCH  22  23
HETATM   23  C   UNL     1      -6.408   5.338  63.137  1.00  0.00    -0.022 C  
BRANCH  23  24
HETATM   24  C   UNL     1      -7.766   5.890  63.559  1.00  0.00    -0.095 C  
HETATM   25  C   UNL     1      -7.672   6.674  64.848  1.00  0.00    -0.109 C  
HETATM   26  O   UNL     1      -8.869   7.183  65.221  1.00  0.00     0.009 OA 
HETATM   27  O   UNL     1      -6.658   6.851  65.497  1.00  0.00    -0.048 OA 
ENDBRANCH  23  24
ENDBRANCH  22  23
ENDBRANCH  21  22
ENDBRANCH  20  21
ENDBRANCH  19  20
ENDBRANCH  18  19
ENDBRANCH  17  18
ENDBRANCH  15  16
ENDBRANCH  14  15
ENDBRANCH  13  14
ENDBRANCH  12  13
ENDBRANCH  11  12
ENDBRANCH  10  11
ENDBRANCH   6  10
TORSDOF 15
ENDMDL
MODEL      523
REMARK 921   NORMALIZED FREE ENERGY PREDICTED BY IDOCK:    1.25 KCAL/MOL
REMARK 922        TOTAL FREE ENERGY PREDICTED BY IDOCK:    0.39 KCAL/MOL
REMARK 923 INTER-LIGAND FREE ENERGY PREDICTED BY IDOCK:   -3.29 KCAL/MOL
REMARK 924 INTRA-LIGAND FREE ENERGY PREDICTED BY IDOCK:    3.68 KCAL/MOL
REMARK 927      BINDING AFFINITY PREDICTED BY RF-SCORE:    0.00 PKD
ROOT
ATOM      1  N   GLY A   1     -11.237  14.178  64.442  1.00  0.00    -0.577 NA 
HETATM    2  C   UNL     1      -5.883   9.828  65.351  1.00  0.00    -0.069 C  
ATOM      3  H2  GLY A   1     -10.596  14.965  64.539  1.00  0.00     0.000 HD 
ATOM      4  H1  GLY A   1     -11.479  14.002  63.467  1.00  0.00     0.000 HD 
ATOM      5  CA  GLY A   1     -10.703  12.957  65.060  1.00  0.00    -0.305 C  
HETATM    6  C   UNL     1      -6.001   9.369  63.906  1.00  0.00    -0.090 C  
ENDROOT
BRANCH   5   7
ATOM      7  C   GLY A   1     -10.339  13.221  66.524  1.00  0.00    -0.285 C  
ATOM      8  H   GLY A   1     -10.348  12.207  68.202  1.00  0.00     0.000 HD 
ATOM      9  O   GLY A   1     -10.574  12.044  67.294  1.00  0.00    -0.214 OA 
ENDBRANCH   5   7
BRANCH   6  10
HETATM   10  C   UNL     1      -7.111   8.344  63.675  1.00  0.00    -0.089 C  
BRANCH  10  11
HETATM   11  C   UNL     1      -7.009   7.090  64.547  1.00  0.00    -0.051 C  
BRANCH  11  12
HETATM   12  C   UNL     1      -7.897   7.247  65.784  1.00  0.00    -0.108 C  
BRANCH  12  13
HETATM   13  C   UNL     1      -7.113   7.729  67.004  1.00  0.00    -0.085 C  
BRANCH  13  14
HETATM   14  C   UNL     1      -8.011   8.334  68.091  1.00  0.00    -0.123 C  
BRANCH  14  15
HETATM   15  C   UNL     1      -9.505   8.009  67.968  1.00  0.00    -0.157 C  
BRANCH  15  16
HETATM   16  C   UNL     1     -10.144   7.550  69.250  1.00  0.00    -0.188 C  
HETATM   17  C   UNL     1     -10.566   6.297  69.484  1.00  0.00    -0.331 C  
BRANCH  17  18
HETATM   18  C   UNL     1     -10.510   5.162  68.504  1.00  0.00    -0.090 C  
BRANCH  18  19
HETATM   19  C   UNL     1      -9.171   5.108  67.773  1.00  0.00    -0.125 C  
BRANCH  19  20
HETATM   20  C   UNL     1      -8.210   4.170  68.505  1.00  0.00    -0.088 C  
BRANCH  20  21
HETATM   21  C   UNL     1      -8.123   4.511  69.989  1.00  0.00    -0.067 C  
BRANCH  21  22
HETATM   22  C   UNL     1      -7.257   3.502  70.737  1.00  0.00    -0.033 C  
BRANCH  22  23
HETATM   23  C   UNL     1      -7.323   3.744  72.244  1.00  0.00    -0.053 C  
BRANCH  23  24
HETATM   24  C   UNL     1      -6.875   5.156  72.608  1.00  0.00    -0.072 C  
HETATM   25  C   UNL     1      -6.082   5.794  71.490  1.00  0.00    -0.034 C  
HETATM   26  O   UNL     1      -5.696   7.055  71.797  1.00  0.00    -0.036 OA 
HETATM   27  O   UNL     1      -5.810   5.271  70.427  1.00  0.00    -0.015 OA 
ENDBRANCH  23  24
ENDBRANCH  22  23
ENDBRANCH  21  22
ENDBRANCH  20  21
ENDBRANCH  19  20
ENDBRANCH  18  19
ENDBRANCH  17  18
ENDBRANCH  15  16
ENDBRANCH  14  15
ENDBRANCH  13  14
ENDBRANCH  12  13
ENDBRANCH  11  12
ENDBRANCH  10  11
ENDBRANCH   6  10
TORSDOF 15
ENDMDL
MODEL      524
REMARK 921   NORMALIZED FREE ENERGY PREDICTED BY IDOCK:    1.43 KCAL/MOL
REMARK 922        TOTAL FREE ENERGY PREDICTED BY IDOCK:    0.74 KCAL/MOL
REMARK 923 INTER-LIGAND FREE ENERGY PREDICTED BY IDOCK:   -3.69 KCAL/MOL
REMARK 924 INTRA-LIGAND FREE ENERGY PREDICTED BY IDOCK:    4.43 KCAL/MOL
REMARK 927      BINDING AFFINITY PREDICTED BY RF-SCORE:    0.00 PKD
ROOT
ATOM      1  N   GLY A   1     -10.276  15.811  64.854  1.00  0.00    -0.503 NA 
HETATM    2  C   UNL     1      -5.579  10.889  66.309  1.00  0.00    -0.126 C  
ATOM      3  H2  GLY A   1      -9.820  15.962  63.955  1.00  0.00     0.000 HD 
ATOM      4  H1  GLY A   1     -11.128  15.259  64.761  1.00  0.00     0.000 HD 
ATOM      5  CA  GLY A   1      -9.372  15.189  65.830  1.00  0.00    -0.244 C  
HETATM    6  C   UNL     1      -6.659   9.823  66.224  1.00  0.00    -0.073 C  
ENDROOT
BRANCH   5   7
ATOM      7  C   GLY A   1      -8.093  16.019  65.970  1.00  0.00     0.348 C  
ATOM      8  H   GLY A   1      -6.729  16.318  67.346  1.00  0.00     0.000 HD 
ATOM      9  O   GLY A   1      -7.522  15.803  67.259  1.00  0.00    -0.177 OA 
ENDBRANCH   5   7
BRANCH   6  10
HETATM   10  C   UNL     1      -7.520   9.718  67.483  1.00  0.00    -0.091 C  
BRANCH  10  11
HETATM   11  C   UNL     1      -6.747   9.346  68.751  1.00  0.00    -0.052 C  
BRANCH  11  12
HETATM   12  C   UNL     1      -7.626   9.588  69.981  1.00  0.00    -0.134 C  
BRANCH  12  13
HETATM   13  C   UNL     1      -7.579   8.421  70.966  1.00  0.00    -0.084 C  
BRANCH  13  14
HETATM   14  C   UNL     1      -8.974   7.928  71.375  1.00  0.00    -0.161 C  
BRANCH  14  15
HETATM   15  C   UNL     1      -9.009   6.572  72.092  1.00  0.00    -0.139 C  
BRANCH  15  16
HETATM   16  C   UNL     1      -9.628   5.463  71.286  1.00  0.00    -0.205 C  
HETATM   17  C   UNL     1      -9.682   5.436  69.945  1.00  0.00    -0.249 C  
BRANCH  17  18
HETATM   18  C   UNL     1      -9.179   6.515  69.030  1.00  0.00    -0.130 C  
BRANCH  18  19
HETATM   19  C   UNL     1     -10.025   7.782  69.128  1.00  0.00    -0.182 C  
BRANCH  19  20
HETATM   20  C   UNL     1     -10.140   8.445  67.756  1.00  0.00    -0.263 C  
BRANCH  20  21
HETATM   21  C   UNL     1      -9.855   9.942  67.837  1.00  0.00    -0.170 C  
BRANCH  21  22
HETATM   22  C   UNL     1     -10.548  10.698  66.706  1.00  0.00    -0.297 C  
BRANCH  22  23
HETATM   23  C   UNL     1     -11.153  12.002  67.218  1.00  0.00    -0.341 C  
BRANCH  23  24
HETATM   24  C   UNL     1     -10.563  12.407  68.566  1.00  0.00    -0.251 C  
HETATM   25  C   UNL     1     -11.341  13.539  69.196  1.00  0.00    -0.282 C  
HETATM   26  O   UNL     1     -10.835  13.893  70.401  1.00  0.00     0.397 OA 
HETATM   27  O   UNL     1     -12.312  14.088  68.711  1.00  0.00    -0.287 OA 
ENDBRANCH  23  24
ENDBRANCH  22  23
ENDBRANCH  21  22
ENDBRANCH  20  21
ENDBRANCH  19  20
ENDBRANCH  18  19
ENDBRANCH  17  18
ENDBRANCH  15  16
ENDBRANCH  14  15
ENDBRANCH  13  14
ENDBRANCH  12  13
ENDBRANCH  11  12
ENDBRANCH  10  11
ENDBRANCH   6  10
TORSDOF 15
ENDMDL
MODEL      525
REMARK 921   NORMALIZED FREE ENERGY PREDICTED BY IDOCK:    2.25 KCAL/MOL
REMARK 922        TOTAL FREE ENERGY PREDICTED BY IDOCK:    2.27 KCAL/MOL
REMARK 923 INTER-LIGAND FREE ENERGY PREDICTED BY IDOCK:   -1.32 KCAL/MOL
REMARK 924 INTRA-LIGAND FREE ENERGY PREDICTED BY IDOCK:    3.59 KCAL/MOL
REMARK 927      BINDING AFFINITY PREDICTED BY RF-SCORE:    0.00 PKD
ROOT
ATOM      1  N   GLY A   1      -6.446  14.812  71.567  1.00  0.00     0.306 NA 
HETATM    2  C   UNL     1      -6.358   8.480  68.683  1.00  0.00    -0.053 C  
ATOM      3  H2  GLY A   1      -7.350  14.985  71.128  1.00  0.00     0.000 HD 
ATOM      4  H1  GLY A   1      -6.541  14.584  72.556  1.00  0.00     0.000 HD 
ATOM      5  CA  GLY A   1      -5.692  13.759  70.873  1.00  0.00    -0.206 C  
HETATM    6  C   UNL     1      -6.508   7.844  70.056  1.00  0.00    -0.033 C  
ENDROOT
BRANCH   5   7
ATOM      7  C   GLY A   1      -5.550  14.102  69.387  1.00  0.00    -0.084 C  
ATOM      8  H   GLY A   1      -6.737  14.233  67.834  1.00  0.00     0.000 HD 
ATOM      9  O   GLY A   1      -6.825  14.020  68.755  1.00  0.00    -0.091 OA 
ENDBRANCH   5   7
BRANCH   6  10
HETATM   10  C   UNL     1      -5.201   7.771  70.845  1.00  0.00    -0.026 C  
BRANCH  10  11
HETATM   11  C   UNL     1      -5.270   8.386  72.245  1.00  0.00    -0.038 C  
BRANCH  11  12
HETATM   12  C   UNL     1      -5.978   9.742  72.180  1.00  0.00     0.305 C  
BRANCH  12  13
HETATM   13  C   UNL     1      -5.612  10.528  70.922  1.00  0.00    -0.092 C  
BRANCH  13  14
HETATM   14  C   UNL     1      -6.814  11.249  70.296  1.00  0.00     0.395 C  
BRANCH  14  15
HETATM   15  C   UNL     1      -7.334  10.645  68.986  1.00  0.00    -0.108 C  
BRANCH  15  16
HETATM   16  C   UNL     1      -8.583  11.298  68.459  1.00  0.00    -0.156 C  
HETATM   17  C   UNL     1      -9.652  10.631  67.994  1.00  0.00    -0.167 C  
BRANCH  17  18
HETATM   18  C   UNL     1      -9.767   9.139  67.882  1.00  0.00    -0.182 C  
BRANCH  18  19
HETATM   19  C   UNL     1     -11.213   8.695  67.678  1.00  0.00     0.614 C  
BRANCH  19  20
HETATM   20  C   UNL     1     -11.261   7.217  67.291  1.00  0.00     0.049 C  
BRANCH  20  21
HETATM   21  C   UNL     1     -10.787   6.327  68.436  1.00  0.00    -0.394 C  
BRANCH  21  22
HETATM   22  C   UNL     1     -11.582   6.596  69.710  1.00  0.00    -0.354 C  
BRANCH  22  23
HETATM   23  C   UNL     1     -10.939   5.900  70.907  1.00  0.00    -0.335 C  
BRANCH  23  24
HETATM   24  C   UNL     1     -10.866   6.820  72.122  1.00  0.00    -0.257 C  
HETATM   25  C   UNL     1      -9.952   7.999  71.873  1.00  0.00    -0.195 C  
HETATM   26  O   UNL     1      -9.896   8.831  72.939  1.00  0.00    -0.066 OA 
HETATM   27  O   UNL     1      -9.331   8.210  70.848  1.00  0.00    -0.147 OA 
ENDBRANCH  23  24
ENDBRANCH  22  23
ENDBRANCH  21  22
ENDBRANCH  20  21
ENDBRANCH  19  20
ENDBRANCH  18  19
ENDBRANCH  17  18
ENDBRANCH  15  16
ENDBRANCH  14  15
ENDBRANCH  13  14
ENDBRANCH  12  13
ENDBRANCH  11  12
ENDBRANCH  10  11
ENDBRANCH   6  10
TORSDOF 15
ENDMDL
MODEL      526
REMARK 921   NORMALIZED FREE ENERGY PREDICTED BY IDOCK:    3.59 KCAL/MOL
REMARK 922        TOTAL FREE ENERGY PREDICTED BY IDOCK:    4.80 KCAL/MOL
REMARK 923 INTER-LIGAND FREE ENERGY PREDICTED BY IDOCK:   -2.71 KCAL/MOL
REMARK 924 INTRA-LIGAND FREE ENERGY PREDICTED BY IDOCK:    7.51 KCAL/MOL
REMARK 927      BINDING AFFINITY PREDICTED BY RF-SCORE:    0.00 PKD
ROOT
ATOM      1  N   GLY A   1      -6.464  11.813  66.260  1.00  0.00    -0.413 NA 
HETATM    2  C   UNL     1     -12.414  12.987  62.851  1.00  0.00     0.345 C  
ATOM      3  H2  GLY A   1      -5.946  12.097  65.428  1.00  0.00     0.000 HD 
ATOM      4  H1  GLY A   1      -6.485  12.549  66.966  1.00  0.00     0.000 HD 
ATOM      5  CA  GLY A   1      -7.830  11.382  65.935  1.00  0.00     0.209 C  
HETATM    6  C   UNL     1     -12.713  14.166  63.763  1.00  0.00     0.392 C  
ENDROOT
BRANCH   5   7
ATOM      7  C   GLY A   1      -7.799  10.277  64.875  1.00  0.00    -0.134 C  
ATOM      8  H   GLY A   1      -6.808   9.911  63.225  1.00  0.00     0.000 HD 
ATOM      9  O   GLY A   1      -6.828  10.596  63.882  1.00  0.00     0.050 OA 
ENDBRANCH   5   7
BRANCH   6  10
HETATM   10  C   UNL     1     -13.286  13.763  65.121  1.00  0.00     0.058 C  
BRANCH  10  11
HETATM   11  C   UNL     1     -12.327  12.955  65.999  1.00  0.00    -0.330 C  
BRANCH  11  12
HETATM   12  C   UNL     1     -10.985  12.787  65.281  1.00  0.00    -0.314 C  
BRANCH  12  13
HETATM   13  C   UNL     1      -9.961  13.836  65.712  1.00  0.00    -0.293 C  
BRANCH  13  14
HETATM   14  C   UNL     1     -10.314  14.503  67.048  1.00  0.00    -0.263 C  
BRANCH  14  15
HETATM   15  C   UNL     1     -10.487  16.026  66.999  1.00  0.00    -0.307 C  
BRANCH  15  16
HETATM   16  C   UNL     1      -9.901  16.752  68.179  1.00  0.00    -0.264 C  
HETATM   17  C   UNL     1      -9.370  16.152  69.255  1.00  0.00    -0.227 C  
BRANCH  17  18
HETATM   18  C   UNL     1      -9.308  14.670  69.484  1.00  0.00     0.190 C  
BRANCH  18  19
HETATM   19  C   UNL     1     -10.693  14.075  69.726  1.00  0.00     0.160 C  
BRANCH  19  20
HETATM   20  C   UNL     1     -11.231  13.453  68.438  1.00  0.00    -0.311 C  
BRANCH  20  21
HETATM   21  C   UNL     1     -11.139  11.931  68.474  1.00  0.00    -0.290 C  
BRANCH  21  22
HETATM   22  C   UNL     1     -10.746  11.435  69.863  1.00  0.00     0.222 C  
BRANCH  22  23
HETATM   23  C   UNL     1     -10.788   9.910  69.925  1.00  0.00    -0.316 C  
BRANCH  23  24
HETATM   24  C   UNL     1      -9.628   9.346  70.739  1.00  0.00    -0.322 C  
HETATM   25  C   UNL     1     -10.050   8.144  71.551  1.00  0.00    -0.188 C  
HETATM   26  O   UNL     1      -9.023   7.625  72.263  1.00  0.00    -0.125 OA 
HETATM   27  O   UNL     1     -11.169   7.668  71.582  1.00  0.00    -0.241 OA 
ENDBRANCH  23  24
ENDBRANCH  22  23
ENDBRANCH  21  22
ENDBRANCH  20  21
ENDBRANCH  19  20
ENDBRANCH  18  19
ENDBRANCH  17  18
ENDBRANCH  15  16
ENDBRANCH  14  15
ENDBRANCH  13  14
ENDBRANCH  12  13
ENDBRANCH  11  12
ENDBRANCH  10  11
ENDBRANCH   6  10
TORSDOF 15
ENDMDL
MODEL      527
REMARK 921   NORMALIZED FREE ENERGY PREDICTED BY IDOCK:    4.31 KCAL/MOL
REMARK 922        TOTAL FREE ENERGY PREDICTED BY IDOCK:    6.13 KCAL/MOL
REMARK 923 INTER-LIGAND FREE ENERGY PREDICTED BY IDOCK:    6.27 KCAL/MOL
REMARK 924 INTRA-LIGAND FREE ENERGY PREDICTED BY IDOCK:   -0.14 KCAL/MOL
REMARK 927      BINDING AFFINITY PREDICTED BY RF-SCORE:    0.00 PKD
ROOT
ATOM      1  N   GLY A   1      -6.062  13.058  69.935  1.00  0.00    -0.189 NA 
HETATM    2  C   UNL     1     -12.254  14.301  67.016  1.00  0.00    -0.338 C  
ATOM      3  H2  GLY A   1      -5.609  13.365  69.075  1.00  0.00     0.000 HD 
ATOM      4  H1  GLY A   1      -6.030  13.776  70.659  1.00  0.00     0.000 HD 
ATOM      5  CA  GLY A   1      -7.448  12.631  69.704  1.00  0.00     0.806 C  
HETATM    6  C   UNL     1     -12.484  15.456  67.978  1.00  0.00     0.819 C  
ENDROOT
BRANCH   5   7
ATOM      7  C   GLY A   1      -7.496  11.554  68.617  1.00  0.00    -0.116 C  
ATOM      8  H   GLY A   1      -8.883  10.567  67.646  1.00  0.00     0.000 HD 
ATOM      9  O   GLY A   1      -8.853  11.236  68.320  1.00  0.00    -0.145 OA 
ENDBRANCH   5   7
BRANCH   6  10
HETATM   10  C   UNL     1     -12.952  15.017  69.365  1.00  0.00     0.557 C  
BRANCH  10  11
HETATM   11  C   UNL     1     -12.491  13.617  69.776  1.00  0.00    -0.193 C  
BRANCH  11  12
HETATM   12  C   UNL     1     -12.424  13.522  71.303  1.00  0.00    -0.388 C  
BRANCH  12  13
HETATM   13  C   UNL     1     -12.882  14.811  71.984  1.00  0.00    -0.399 C  
BRANCH  13  14
HETATM   14  C   UNL     1     -11.719  15.750  72.332  1.00  0.00    -0.577 C  
BRANCH  14  15
HETATM   15  C   UNL     1     -10.925  16.287  71.134  1.00  0.00     0.150 C  
BRANCH  15  16
HETATM   16  C   UNL     1     -10.634  17.761  71.197  1.00  0.00     2.483 C  
HETATM   17  C   UNL     1      -9.639  18.369  70.532  1.00  0.00     2.724 C  
BRANCH  17  18
HETATM   18  C   UNL     1      -8.631  17.685  69.655  1.00  0.00     1.000 C  
BRANCH  18  19
HETATM   19  C   UNL     1      -8.780  18.096  68.192  1.00  0.00    -0.285 C  
BRANCH  19  20
HETATM   20  C   UNL     1      -9.679  17.104  67.455  1.00  0.00    -0.253 C  
BRANCH  20  21
HETATM   21  C   UNL     1      -9.278  16.974  65.989  1.00  0.00    -0.177 C  
BRANCH  21  22
HETATM   22  C   UNL     1      -8.497  15.686  65.743  1.00  0.00     0.786 C  
BRANCH  22  23
HETATM   23  C   UNL     1      -9.382  14.636  65.075  1.00  0.00     1.025 C  
BRANCH  23  24
HETATM   24  C   UNL     1      -9.593  13.422  65.975  1.00  0.00    -0.174 C  
HETATM   25  C   UNL     1     -10.143  12.245  65.202  1.00  0.00    -0.261 C  
HETATM   26  O   UNL     1     -10.316  11.157  65.988  1.00  0.00    -0.241 OA 
HETATM   27  O   UNL     1     -10.404  12.238  64.014  1.00  0.00    -0.342 OA 
ENDBRANCH  23  24
ENDBRANCH  22  23
ENDBRANCH  21  22
ENDBRANCH  20  21
ENDBRANCH  19  20
ENDBRANCH  18  19
ENDBRANCH  17  18
ENDBRANCH  15  16
ENDBRANCH  14  15
ENDBRANCH  13  14
ENDBRANCH  12  13
ENDBRANCH  11  12
ENDBRANCH  10  11
ENDBRANCH   6  10
TORSDOF 15
ENDMDL
MODEL      528
REMARK 921   NORMALIZED FREE ENERGY PREDICTED BY IDOCK:    5.70 KCAL/MOL
REMARK 922        TOTAL FREE ENERGY PREDICTED BY IDOCK:    8.75 KCAL/MOL
REMARK 923 INTER-LIGAND FREE ENERGY PREDICTED BY IDOCK:   -1.22 KCAL/MOL
REMARK 924 INTRA-LIGAND FREE ENERGY PREDICTED BY IDOCK:    9.97 KCAL/MOL
REMARK 927      BINDING AFFINITY PREDICTED BY RF-SCORE:    0.00 PKD
ROOT
ATOM      1  N   GLY A   1      -9.765  12.120  68.872  1.00  0.00    -0.416 NA 
HETATM    2  C   UNL     1      -5.197  17.264  67.833  1.00  0.00    -0.120 C  
ATOM      3  H2  GLY A   1      -9.425  12.029  69.829  1.00  0.00     0.000 HD 
ATOM      4  H1  GLY A   1     -10.651  12.623  68.830  1.00  0.00     0.000 HD 
ATOM      5  CA  GLY A   1      -8.775  12.762  67.996  1.00  0.00    -0.194 C  
HETATM    6  C   UNL     1      -6.336  18.266  67.731  1.00  0.00    -0.185 C  
ENDROOT
BRANCH   5   7
ATOM      7  C   GLY A   1      -7.444  12.007  68.060  1.00  0.00    -0.113 C  
ATOM      8  H   GLY A   1      -5.558  12.461  68.337  1.00  0.00     0.000 HD 
ATOM      9  O   GLY A   1      -6.384  12.929  68.298  1.00  0.00    -0.071 OA 
ENDBRANCH   5   7
BRANCH   6  10
HETATM   10  C   UNL     1      -7.027  18.274  66.367  1.00  0.00    -0.270 C  
BRANCH  10  11
HETATM   11  C   UNL     1      -7.902  19.503  66.107  1.00  0.00    -0.326 C  
BRANCH  11  12
HETATM   12  C   UNL     1      -7.842  20.445  67.312  1.00  0.00    -0.373 C  
BRANCH  12  13
HETATM   13  C   UNL     1      -8.587  19.887  68.523  1.00  0.00    -0.179 C  
BRANCH  13  14
HETATM   14  C   UNL     1      -9.020  18.426  68.338  1.00  0.00    -0.336 C  
BRANCH  14  15
HETATM   15  C   UNL     1     -10.532  18.176  68.389  1.00  0.00    -0.308 C  
BRANCH  15  16
HETATM   16  C   UNL     1     -11.075  17.430  67.200  1.00  0.00     0.195 C  
HETATM   17  C   UNL     1     -10.529  16.316  66.687  1.00  0.00    -0.290 C  
BRANCH  17  18
HETATM   18  C   UNL     1      -9.274  15.655  67.177  1.00  0.00    -0.226 C  
BRANCH  18  19
HETATM   19  C   UNL     1      -8.454  16.584  68.069  1.00  0.00    -0.186 C  
BRANCH  19  20
HETATM   20  C   UNL     1      -8.335  15.996  69.475  1.00  0.00    -0.017 C  
BRANCH  20  21
HETATM   21  C   UNL     1      -9.209  14.756  69.634  1.00  0.00     0.201 C  
BRANCH  21  22
HETATM   22  C   UNL     1     -10.388  15.028  70.564  1.00  0.00     0.140 C  
BRANCH  22  23
HETATM   23  C   UNL     1     -10.949  13.723  71.124  1.00  0.00     2.196 C  
BRANCH  23  24
HETATM   24  C   UNL     1     -12.459  13.798  71.324  1.00  0.00    -0.428 C  
HETATM   25  C   UNL     1     -13.028  12.470  71.769  1.00  0.00    -0.313 C  
HETATM   26  O   UNL     1     -14.366  12.532  71.967  1.00  0.00     0.394 OA 
HETATM   27  O   UNL     1     -12.391  11.449  71.942  1.00  0.00     0.006 OA 
ENDBRANCH  23  24
ENDBRANCH  22  23
ENDBRANCH  21  22
ENDBRANCH  20  21
ENDBRANCH  19  20
ENDBRANCH  18  19
ENDBRANCH  17  18
ENDBRANCH  15  16
ENDBRANCH  14  15
ENDBRANCH  13  14
ENDBRANCH  12  13
ENDBRANCH  11  12
ENDBRANCH  10  11
ENDBRANCH   6  10
TORSDOF 15
ENDMDL
MODEL      529
REMARK 921   NORMALIZED FREE ENERGY PREDICTED BY IDOCK:    6.82 KCAL/MOL
REMARK 922        TOTAL FREE ENERGY PREDICTED BY IDOCK:   10.85 KCAL/MOL
REMARK 923 INTER-LIGAND FREE ENERGY PREDICTED BY IDOCK:    3.53 KCAL/MOL
REMARK 924 INTRA-LIGAND FREE ENERGY PREDICTED BY IDOCK:    7.32 KCAL/MOL
REMARK 927      BINDING AFFINITY PREDICTED BY RF-SCORE:    0.00 PKD
ROOT
ATOM      1  N   GLY A   1      -7.862   8.752  70.734  1.00  0.00    -0.095 NA 
HETATM    2  C   UNL     1      -6.319  15.083  68.297  1.00  0.00    -0.121 C  
ATOM      3  H2  GLY A   1      -7.569   8.351  69.843  1.00  0.00     0.000 HD 
ATOM      4  H1  GLY A   1      -7.153   8.633  71.457  1.00  0.00     0.000 HD 
ATOM      5  CA  GLY A   1      -8.224  10.170  70.606  1.00  0.00     0.828 C  
HETATM    6  C   UNL     1      -5.162  15.188  69.279  1.00  0.00    -0.091 C  
ENDROOT
BRANCH   5   7
ATOM      7  C   GLY A   1      -9.290  10.348  69.521  1.00  0.00    -0.127 C  
ATOM      8  H   GLY A   1      -9.332  10.892  67.639  1.00  0.00     0.000 HD 
ATOM      9  O   GLY A   1      -8.672  10.781  68.312  1.00  0.00    -0.125 OA 
ENDBRANCH   5   7
BRANCH   6  10
HETATM   10  C   UNL     1      -5.591  15.569  70.695  1.00  0.00    -0.094 C  
BRANCH  10  11
HETATM   11  C   UNL     1      -6.795  16.513  70.761  1.00  0.00     2.053 C  
BRANCH  11  12
HETATM   12  C   UNL     1      -8.041  15.798  70.233  1.00  0.00     1.102 C  
BRANCH  12  13
HETATM   13  C   UNL     1      -8.258  16.037  68.740  1.00  0.00    -0.211 C  
BRANCH  13  14
HETATM   14  C   UNL     1      -9.717  15.838  68.308  1.00  0.00    -0.201 C  
BRANCH  14  15
HETATM   15  C   UNL     1     -10.550  17.120  68.189  1.00  0.00    -0.380 C  
BRANCH  15  16
HETATM   16  C   UNL     1     -11.233  17.292  66.859  1.00  0.00     0.512 C  
HETATM   17  C   UNL     1     -11.529  16.287  66.020  1.00  0.00     0.620 C  
BRANCH  17  18
HETATM   18  C   UNL     1     -11.195  14.840  66.241  1.00  0.00    -0.343 C  
BRANCH  18  19
HETATM   19  C   UNL     1     -10.966  14.103  64.924  1.00  0.00    -0.405 C  
BRANCH  19  20
HETATM   20  C   UNL     1     -11.002  12.592  65.153  1.00  0.00    -0.324 C  
BRANCH  20  21
HETATM   21  C   UNL     1     -10.370  11.839  63.987  1.00  0.00    -0.401 C  
BRANCH  21  22
HETATM   22  C   UNL     1     -10.039  10.400  64.375  1.00  0.00    -0.342 C  
BRANCH  22  23
HETATM   23  C   UNL     1      -8.666  10.320  65.038  1.00  0.00    -0.195 C  
BRANCH  23  24
HETATM   24  C   UNL     1      -8.594  11.187  66.292  1.00  0.00    -0.180 C  
HETATM   25  C   UNL     1      -7.359  12.059  66.295  1.00  0.00     0.584 C  
HETATM   26  O   UNL     1      -7.296  12.845  67.396  1.00  0.00    -0.149 OA 
HETATM   27  O   UNL     1      -6.506  12.082  65.429  1.00  0.00     1.616 OA 
ENDBRANCH  23  24
ENDBRANCH  22  23
ENDBRANCH  21  22
ENDBRANCH  20  21
ENDBRANCH  19  20
ENDBRANCH  18  19
ENDBRANCH  17  18
ENDBRANCH  15  16
ENDBRANCH  14  15
ENDBRANCH  13  14
ENDBRANCH  12  13
ENDBRANCH  11  12
ENDBRANCH  10  11
ENDBRANCH   6  10
TORSDOF 15
ENDMDL
MODEL      530
REMARK 921   NORMALIZED FREE ENERGY PREDICTED BY IDOCK:    7.52 KCAL/MOL
REMARK 922        TOTAL FREE ENERGY PREDICTED BY IDOCK:   12.17 KCAL/MOL
REMARK 923 INTER-LIGAND FREE ENERGY PREDICTED BY IDOCK:    1.45 KCAL/MOL
REMARK 924 INTRA-LIGAND FREE ENERGY PREDICTED BY IDOCK:   10.72 KCAL/MOL
REMARK 927      BINDING AFFINITY PREDICTED BY RF-SCORE:    0.00 PKD
ROOT
ATOM      1  N   GLY A   1      -6.471  14.923  71.637  1.00  0.00     0.548 NA 
HETATM    2  C   UNL     1      -7.123   8.103  70.424  1.00  0.00    -0.041 C  
ATOM      3  H2  GLY A   1      -7.361  15.079  71.163  1.00  0.00     0.000 HD 
ATOM      4  H1  GLY A   1      -6.569  14.960  72.651  1.00  0.00     0.000 HD 
ATOM      5  CA  GLY A   1      -5.849  13.655  71.233  1.00  0.00    -0.108 C  
HETATM    6  C   UNL     1      -7.311   7.849  71.912  1.00  0.00    -0.080 C  
ENDROOT
BRANCH   5   7
ATOM      7  C   GLY A   1      -5.702  13.600  69.709  1.00  0.00    -0.107 C  
ATOM      8  H   GLY A   1      -6.897  13.420  68.167  1.00  0.00     0.000 HD 
ATOM      9  O   GLY A   1      -6.988  13.454  69.111  1.00  0.00    -0.104 OA 
ENDBRANCH   5   7
BRANCH   6  10
HETATM   10  C   UNL     1      -6.003   7.832  72.702  1.00  0.00    -0.041 C  
BRANCH  10  11
HETATM   11  C   UNL     1      -5.907   8.902  73.792  1.00  0.00    -0.096 C  
BRANCH  11  12
HETATM   12  C   UNL     1      -6.360  10.253  73.232  1.00  0.00     2.000 C  
BRANCH  12  13
HETATM   13  C   UNL     1      -5.802  10.518  71.834  1.00  0.00     0.561 C  
BRANCH  13  14
HETATM   14  C   UNL     1      -6.898  10.801  70.797  1.00  0.00     0.749 C  
BRANCH  14  15
HETATM   15  C   UNL     1      -7.129   9.691  69.764  1.00  0.00    -0.084 C  
BRANCH  15  16
HETATM   16  C   UNL     1      -8.304   9.929  68.854  1.00  0.00    -0.124 C  
HETATM   17  C   UNL     1      -9.192   8.988  68.497  1.00  0.00    -0.136 C  
BRANCH  17  18
HETATM   18  C   UNL     1      -9.144   7.544  68.905  1.00  0.00    -0.140 C  
BRANCH  18  19
HETATM   19  C   UNL     1     -10.483   6.846  68.677  1.00  0.00    -0.217 C  
BRANCH  19  20
HETATM   20  C   UNL     1     -10.306   5.330  68.756  1.00  0.00    -0.206 C  
BRANCH  20  21
HETATM   21  C   UNL     1      -9.727   4.908  70.103  1.00  0.00    -0.283 C  
BRANCH  21  22
HETATM   22  C   UNL     1     -10.510   5.525  71.259  1.00  0.00    -0.306 C  
BRANCH  22  23
HETATM   23  C   UNL     1     -10.951   4.451  72.250  1.00  0.00     0.104 C  
BRANCH  23  24
HETATM   24  C   UNL     1      -9.964   4.310  73.405  1.00  0.00    -0.176 C  
HETATM   25  C   UNL     1      -8.551   4.106  72.908  1.00  0.00    -0.100 C  
HETATM   26  O   UNL     1      -7.666   3.998  73.926  1.00  0.00    -0.077 OA 
HETATM   27  O   UNL     1      -8.213   4.045  71.741  1.00  0.00    -0.086 OA 
ENDBRANCH  23  24
ENDBRANCH  22  23
ENDBRANCH  21  22
ENDBRANCH  20  21
ENDBRANCH  19  20
ENDBRANCH  18  19
ENDBRANCH  17  18
ENDBRANCH  15  16
ENDBRANCH  14  15
ENDBRANCH  13  14
ENDBRANCH  12  13
ENDBRANCH  11  12
ENDBRANCH  10  11
ENDBRANCH   6  10
TORSDOF 15
ENDMDL
MODEL      531
REMARK 921   NORMALIZED FREE ENERGY PREDICTED BY IDOCK:   15.80 KCAL/MOL
REMARK 922        TOTAL FREE ENERGY PREDICTED BY IDOCK:   27.72 KCAL/MOL
REMARK 923 INTER-LIGAND FREE ENERGY PREDICTED BY IDOCK:    3.49 KCAL/MOL
REMARK 924 INTRA-LIGAND FREE ENERGY PREDICTED BY IDOCK:   24.23 KCAL/MOL
REMARK 927      BINDING AFFINITY PREDICTED BY RF-SCORE:    0.00 PKD
ROOT
ATOM      1  N   GLY A   1      -6.479  14.929  71.641  1.00  0.00     0.548 NA 
HETATM    2  C   UNL     1      -7.319   8.119  70.490  1.00  0.00    -0.056 C  
ATOM      3  H2  GLY A   1      -7.360  15.106  71.159  1.00  0.00     0.000 HD 
ATOM      4  H1  GLY A   1      -6.582  14.979  72.654  1.00  0.00     0.000 HD 
ATOM      5  CA  GLY A   1      -5.891  13.640  71.253  1.00  0.00    -0.108 C  
HETATM    6  C   UNL     1      -7.523   7.885  71.979  1.00  0.00    -0.091 C  
ENDROOT
BRANCH   5   7
ATOM      7  C   GLY A   1      -5.736  13.565  69.731  1.00  0.00    -0.110 C  
ATOM      8  H   GLY A   1      -6.002  12.216  68.334  1.00  0.00     0.000 HD 
ATOM      9  O   GLY A   1      -6.098  12.263  69.278  1.00  0.00    -0.079 OA 
ENDBRANCH   5   7
BRANCH   6  10
HETATM   10  C   UNL     1      -6.222   7.838  72.778  1.00  0.00    -0.062 C  
BRANCH  10  11
HETATM   11  C   UNL     1      -6.107   8.909  73.866  1.00  0.00    -0.060 C  
BRANCH  11  12
HETATM   12  C   UNL     1      -6.546  10.265  73.306  1.00  0.00     2.638 C  
BRANCH  12  13
HETATM   13  C   UNL     1      -5.995  10.518  71.903  1.00  0.00     0.721 C  
BRANCH  13  14
HETATM   14  C   UNL     1      -7.096  10.784  70.867  1.00  0.00     1.449 C  
BRANCH  14  15
HETATM   15  C   UNL     1      -7.327   9.662  69.848  1.00  0.00    -0.120 C  
BRANCH  15  16
HETATM   16  C   UNL     1      -8.508   9.882  68.943  1.00  0.00    -0.127 C  
HETATM   17  C   UNL     1      -9.390   8.931  68.598  1.00  0.00    -0.140 C  
BRANCH  17  18
HETATM   18  C   UNL     1      -9.328   7.491  69.017  1.00  0.00    -0.146 C  
BRANCH  18  19
HETATM   19  C   UNL     1      -8.276   7.260  70.099  1.00  0.00    -0.134 C  
BRANCH  19  20
HETATM   20  C   UNL     1      -8.483   5.893  70.751  1.00  0.00    -0.129 C  
BRANCH  20  21
HETATM   21  C   UNL     1      -8.412   4.770  69.721  1.00  0.00    -0.086 C  
BRANCH  21  22
HETATM   22  C   UNL     1      -7.157   4.888  68.861  1.00  0.00    -0.053 C  
BRANCH  22  23
HETATM   23  C   UNL     1      -6.376   3.576  68.860  1.00  0.00    -0.029 C  
BRANCH  23  24
HETATM   24  C   UNL     1      -6.742   2.704  67.663  1.00  0.00    -0.040 C  
HETATM   25  C   UNL     1      -8.236   2.500  67.559  1.00  0.00    -0.070 C  
HETATM   26  O   UNL     1      -8.572   1.743  66.489  1.00  0.00    -0.099 OA 
HETATM   27  O   UNL     1      -9.068   2.952  68.323  1.00  0.00    -0.133 OA 
ENDBRANCH  23  24
ENDBRANCH  22  23
ENDBRANCH  21  22
ENDBRANCH  20  21
ENDBRANCH  19  20
ENDBRANCH  18  19
ENDBRANCH  17  18
ENDBRANCH  15  16
ENDBRANCH  14  15
ENDBRANCH  13  14
ENDBRANCH  12  13
ENDBRANCH  11  12
ENDBRANCH  10  11
ENDBRANCH   6  10
TORSDOF 15
ENDMDL
MODEL      532
REMARK 921   NORMALIZED FREE ENERGY PREDICTED BY IDOCK:   31.17 KCAL/MOL
REMARK 922        TOTAL FREE ENERGY PREDICTED BY IDOCK:   56.55 KCAL/MOL
REMARK 923 INTER-LIGAND FREE ENERGY PREDICTED BY IDOCK:   40.95 KCAL/MOL
REMARK 924 INTRA-LIGAND FREE ENERGY PREDICTED BY IDOCK:   15.60 KCAL/MOL
REMARK 927      BINDING AFFINITY PREDICTED BY RF-SCORE:    0.00 PKD
ROOT
ATOM      1  N   GLY A   1      -6.128  13.163  69.956  1.00  0.00    -0.232 NA 
HETATM    2  C   UNL     1     -11.981  16.243  67.796  1.00  0.00     0.692 C  
ATOM      3  H2  GLY A   1      -5.668  13.462  69.096  1.00  0.00     0.000 HD 
ATOM      4  H1  GLY A   1      -5.870  13.749  70.749  1.00  0.00     0.000 HD 
ATOM      5  CA  GLY A   1      -7.589  13.119  69.811  1.00  0.00     1.117 C  
HETATM    6  C   UNL     1     -11.850  17.282  68.898  1.00  0.00     1.754 C  
ENDROOT
BRANCH   5   7
ATOM      7  C   GLY A   1      -7.977  12.238  68.619  1.00  0.00    -0.050 C  
ATOM      8  H   GLY A   1      -9.622  11.785  67.656  1.00  0.00     0.000 HD 
ATOM      9  O   GLY A   1      -9.381  12.331  68.395  1.00  0.00    -0.203 OA 
ENDBRANCH   5   7
BRANCH   6  10
HETATM   10  C   UNL     1     -12.324  16.790  70.266  1.00  0.00     2.396 C  
BRANCH  10  11
HETATM   11  C   UNL     1     -11.958  15.337  70.579  1.00  0.00    -0.384 C  
BRANCH  11  12
HETATM   12  C   UNL     1     -11.936  15.124  72.095  1.00  0.00    -0.489 C  
BRANCH  12  13
HETATM   13  C   UNL     1     -12.655  16.242  72.848  1.00  0.00    -0.450 C  
BRANCH  13  14
HETATM   14  C   UNL     1     -11.766  17.471  73.085  1.00  0.00     1.128 C  
BRANCH  14  15
HETATM   15  C   UNL     1     -11.388  18.264  71.827  1.00  0.00     3.907 C  
BRANCH  15  16
HETATM   16  C   UNL     1     -11.612  19.747  71.941  1.00  0.00    10.237 C  
HETATM   17  C   UNL     1     -10.725  20.613  72.455  1.00  0.00     7.480 C  
BRANCH  17  18
HETATM   18  C   UNL     1      -9.389  20.251  73.034  1.00  0.00     3.832 C  
BRANCH  18  19
HETATM   19  C   UNL     1      -8.246  20.586  72.079  1.00  0.00     2.387 C  
BRANCH  19  20
HETATM   20  C   UNL     1      -7.967  19.401  71.155  1.00  0.00     3.119 C  
BRANCH  20  21
HETATM   21  C   UNL     1      -6.484  19.298  70.815  1.00  0.00     0.358 C  
BRANCH  21  22
HETATM   22  C   UNL     1      -5.798  18.224  71.655  1.00  0.00     0.821 C  
BRANCH  22  23
HETATM   23  C   UNL     1      -5.667  16.923  70.868  1.00  0.00     0.273 C  
BRANCH  23  24
HETATM   24  C   UNL     1      -6.517  15.810  71.472  1.00  0.00     1.916 C  
HETATM   25  C   UNL     1      -6.100  14.450  70.959  1.00  0.00    -0.100 C  
HETATM   26  O   UNL     1      -6.836  13.454  71.505  1.00  0.00     1.529 OA 
HETATM   27  O   UNL     1      -5.210  14.238  70.157  1.00  0.00    -0.090 OA 
ENDBRANCH  23  24
ENDBRANCH  22  23
ENDBRANCH  21  22
ENDBRANCH  20  21
ENDBRANCH  19  20
ENDBRANCH  18  19
ENDBRANCH  17  18
ENDBRANCH  15  16
ENDBRANCH  14  15
ENDBRANCH  13  14
ENDBRANCH  12  13
ENDBRANCH  11  12
ENDBRANCH  10  11
ENDBRANCH   6  10
TORSDOF 15
ENDMDL
