MODEL        1
REMARK 921   NORMALIZED FREE ENERGY PREDICTED BY IDOCK:   -7.12 KCAL/MOL
REMARK 922        TOTAL FREE ENERGY PREDICTED BY IDOCK:   -7.55 KCAL/MOL
REMARK 923 INTER-LIGAND FREE ENERGY PREDICTED BY IDOCK:   -7.53 KCAL/MOL
REMARK 924 INTRA-LIGAND FREE ENERGY PREDICTED BY IDOCK:   -0.02 KCAL/MOL
REMARK 927      BINDING AFFINITY PREDICTED BY RF-SCORE:    0.00 PKD
ROOT
HETATM    1  C   UNL     1      -9.657  14.189  66.570  1.00  0.00    -0.310 C  
HETATM    2  C   UNL     1      -8.414  13.648  66.958  1.00  0.00    -0.141 C  
HETATM    3  C   UNL     1      -9.600  12.818  67.282  1.00  0.00    -0.208 C  
HETATM    4  C   UNL     1     -11.365  13.459  66.447  1.00  0.00    -0.313 C  
HETATM    5  H   UNL     1     -14.050  15.685  74.304  1.00  0.00     0.000 HD 
HETATM    6  O   UNL     1     -12.643  12.821  66.370  1.00  0.00    -0.326 OA 
HETATM    7  C   UNL     1     -10.488  12.536  65.955  1.00  0.00    -0.289 C  
HETATM    8  C   UNL     1     -12.671  13.700  71.201  1.00  0.00    -0.432 A  
HETATM    9  C   UNL     1     -11.200  11.364  67.243  1.00  0.00    -0.370 C  
HETATM   10  C   UNL     1     -10.254  12.018  64.569  1.00  0.00    -0.318 C  
HETATM   11  H   UNL     1     -13.459  13.117  65.984  1.00  0.00     0.000 HD 
HETATM   12  C   UNL     1     -11.780  12.253  68.652  1.00  0.00    -0.377 C  
HETATM   13  C   UNL     1     -11.089  13.689  69.189  1.00  0.00    -0.275 C  
HETATM   14  C   UNL     1     -11.800  14.401  70.346  1.00  0.00    -0.381 A  
HETATM   15  C   UNL     1     -11.435  15.724  70.697  1.00  0.00    -0.415 A  
HETATM   16  C   UNL     1     -12.009  16.328  71.834  1.00  0.00    -0.513 A  
HETATM   17  C   UNL     1     -10.448  16.552  69.901  1.00  0.00    -0.166 C  
HETATM   18  C   UNL     1      -9.615  15.786  68.874  1.00  0.00    -0.229 C  
HETATM   19  C   UNL     1     -12.889  15.617  72.640  1.00  0.00    -0.445 A  
HETATM   20  C   UNL     1     -13.211  14.304  72.340  1.00  0.00    -0.549 A  
HETATM   21  C   UNL     1     -10.506  14.824  68.090  1.00  0.00    -0.239 C  
HETATM   22  O   UNL     1     -13.448  16.173  73.753  1.00  0.00    -0.590 OA 
ENDROOT
BRANCH   4  23
HETATM   23  C   UNL     1     -11.573  14.493  65.310  1.00  0.00    -0.359 C  
HETATM   24  C   UNL     1     -11.792  15.290  64.426  1.00  0.00    -0.288 C  
ENDBRANCH   4  23
TORSDOF 1
ENDMDL
MODEL        2
REMARK 921   NORMALIZED FREE ENERGY PREDICTED BY IDOCK:   -6.83 KCAL/MOL
REMARK 922        TOTAL FREE ENERGY PREDICTED BY IDOCK:   -7.25 KCAL/MOL
REMARK 923 INTER-LIGAND FREE ENERGY PREDICTED BY IDOCK:   -7.23 KCAL/MOL
REMARK 924 INTRA-LIGAND FREE ENERGY PREDICTED BY IDOCK:   -0.02 KCAL/MOL
REMARK 927      BINDING AFFINITY PREDICTED BY RF-SCORE:    0.00 PKD
ROOT
HETATM    1  C   UNL     1      -9.514  18.666  65.956  1.00  0.00    -0.051 C  
HETATM    2  C   UNL     1     -10.694  19.400  65.718  1.00  0.00    -0.458 C  
HETATM    3  C   UNL     1     -10.420  19.074  67.139  1.00  0.00    -0.522 C  
HETATM    4  C   UNL     1      -8.559  18.282  67.507  1.00  0.00    -0.250 C  
HETATM    5  H   UNL     1     -12.323  10.750  69.241  1.00  0.00     0.000 HD 
HETATM    6  O   UNL     1      -7.881  18.039  68.742  1.00  0.00    -0.301 OA 
HETATM    7  C   UNL     1      -8.946  19.589  67.576  1.00  0.00    -0.367 C  
HETATM    8  C   UNL     1     -11.300  14.547  69.214  1.00  0.00    -0.317 A  
HETATM    9  C   UNL     1      -9.771  19.125  69.202  1.00  0.00    -0.352 C  
HETATM   10  C   UNL     1      -8.167  20.867  67.509  1.00  0.00    -0.102 C  
HETATM   11  H   UNL     1      -7.020  17.673  68.912  1.00  0.00     0.000 HD 
HETATM   12  C   UNL     1     -10.268  17.432  69.195  1.00  0.00    -0.273 C  
HETATM   13  C   UNL     1     -10.744  16.612  67.806  1.00  0.00    -0.327 C  
HETATM   14  C   UNL     1     -11.013  15.110  67.956  1.00  0.00    -0.295 A  
HETATM   15  C   UNL     1     -11.178  14.300  66.805  1.00  0.00    -0.337 A  
HETATM   16  C   UNL     1     -11.541  12.946  66.951  1.00  0.00    -0.425 A  
HETATM   17  C   UNL     1     -10.975  14.811  65.394  1.00  0.00    -0.365 C  
HETATM   18  C   UNL     1     -10.891  16.330  65.244  1.00  0.00    -0.310 C  
HETATM   19  C   UNL     1     -11.789  12.415  68.211  1.00  0.00    -0.309 A  
HETATM   20  C   UNL     1     -11.685  13.210  69.340  1.00  0.00    -0.386 A  
HETATM   21  C   UNL     1      -9.992  16.915  66.331  1.00  0.00    -0.321 C  
HETATM   22  O   UNL     1     -12.154  11.113  68.379  1.00  0.00    -0.605 OA 
ENDROOT
BRANCH   4  23
HETATM   23  C   UNL     1      -7.322  18.254  66.572  1.00  0.00    -0.264 C  
HETATM   24  C   UNL     1      -6.340  18.183  65.869  1.00  0.00    -0.293 C  
ENDBRANCH   4  23
TORSDOF 1
ENDMDL
MODEL        3
REMARK 921   NORMALIZED FREE ENERGY PREDICTED BY IDOCK:   -6.77 KCAL/MOL
REMARK 922        TOTAL FREE ENERGY PREDICTED BY IDOCK:   -7.19 KCAL/MOL
REMARK 923 INTER-LIGAND FREE ENERGY PREDICTED BY IDOCK:   -7.17 KCAL/MOL
REMARK 924 INTRA-LIGAND FREE ENERGY PREDICTED BY IDOCK:   -0.02 KCAL/MOL
REMARK 927      BINDING AFFINITY PREDICTED BY RF-SCORE:    0.00 PKD
ROOT
HETATM    1  C   UNL     1      -9.799  14.507  66.567  1.00  0.00    -0.297 C  
HETATM    2  C   UNL     1     -10.823  14.791  65.640  1.00  0.00    -0.344 C  
HETATM    3  C   UNL     1     -10.959  15.449  66.963  1.00  0.00    -0.306 C  
HETATM    4  C   UNL     1      -9.320  15.281  68.191  1.00  0.00    -0.198 C  
HETATM    5  H   UNL     1     -13.892  10.050  73.256  1.00  0.00     0.000 HD 
HETATM    6  O   UNL     1      -9.012  15.936  69.425  1.00  0.00    -0.248 OA 
HETATM    7  C   UNL     1      -9.625  16.294  67.328  1.00  0.00    -0.231 C  
HETATM    8  C   UNL     1     -12.654  13.107  71.112  1.00  0.00    -0.403 A  
HETATM    9  C   UNL     1     -10.882  16.840  68.617  1.00  0.00    -0.336 C  
HETATM   10  C   UNL     1      -8.775  17.338  66.672  1.00  0.00    -0.285 C  
HETATM   11  H   UNL     1      -8.255  15.859  69.993  1.00  0.00     0.000 HD 
HETATM   12  C   UNL     1     -11.468  15.461  69.549  1.00  0.00    -0.330 C  
HETATM   13  C   UNL     1     -11.609  13.908  68.917  1.00  0.00    -0.353 C  
HETATM   14  C   UNL     1     -12.005  12.801  69.901  1.00  0.00    -0.368 A  
HETATM   15  C   UNL     1     -11.910  11.441  69.516  1.00  0.00    -0.426 A  
HETATM   16  C   UNL     1     -12.385  10.436  70.381  1.00  0.00    -0.370 A  
HETATM   17  C   UNL     1     -11.304  10.991  68.203  1.00  0.00    -0.374 C  
HETATM   18  C   UNL     1     -11.085  12.088  67.162  1.00  0.00    -0.344 C  
HETATM   19  C   UNL     1     -12.994  10.772  71.584  1.00  0.00    -0.476 A  
HETATM   20  C   UNL     1     -13.144  12.100  71.947  1.00  0.00    -0.475 A  
HETATM   21  C   UNL     1     -10.472  13.321  67.822  1.00  0.00    -0.242 C  
HETATM   22  O   UNL     1     -13.475   9.820  72.433  1.00  0.00    -0.413 OA 
ENDROOT
BRANCH   4  23
HETATM   23  C   UNL     1      -7.883  14.829  67.824  1.00  0.00    -0.163 C  
HETATM   24  C   UNL     1      -6.757  14.452  67.589  1.00  0.00    -0.188 C  
ENDBRANCH   4  23
TORSDOF 1
ENDMDL
MODEL        4
REMARK 921   NORMALIZED FREE ENERGY PREDICTED BY IDOCK:   -6.70 KCAL/MOL
REMARK 922        TOTAL FREE ENERGY PREDICTED BY IDOCK:   -7.11 KCAL/MOL
REMARK 923 INTER-LIGAND FREE ENERGY PREDICTED BY IDOCK:   -7.09 KCAL/MOL
REMARK 924 INTRA-LIGAND FREE ENERGY PREDICTED BY IDOCK:   -0.02 KCAL/MOL
REMARK 927      BINDING AFFINITY PREDICTED BY RF-SCORE:    0.00 PKD
ROOT
HETATM    1  C   UNL     1      -9.100  15.140  66.436  1.00  0.00    -0.331 C  
HETATM    2  C   UNL     1      -9.968  15.323  65.340  1.00  0.00    -0.364 C  
HETATM    3  C   UNL     1     -10.060  16.350  66.406  1.00  0.00    -0.328 C  
HETATM    4  C   UNL     1      -8.590  16.252  67.839  1.00  0.00    -0.173 C  
HETATM    5  H   UNL     1     -14.535  13.652  73.478  1.00  0.00     0.000 HD 
HETATM    6  O   UNL     1      -8.244  17.171  68.879  1.00  0.00    -0.255 OA 
HETATM    7  C   UNL     1      -8.607  17.007  66.702  1.00  0.00    -0.285 C  
HETATM    8  C   UNL     1     -12.519  15.671  70.772  1.00  0.00    -0.484 A  
HETATM    9  C   UNL     1      -9.813  18.125  67.617  1.00  0.00    -0.316 C  
HETATM   10  C   UNL     1      -7.508  17.642  65.906  1.00  0.00    -0.185 C  
HETATM   11  H   UNL     1      -7.564  17.126  69.541  1.00  0.00     0.000 HD 
HETATM   12  C   UNL     1     -10.747  17.209  68.802  1.00  0.00    -0.289 C  
HETATM   13  C   UNL     1     -11.167  15.593  68.600  1.00  0.00    -0.338 C  
HETATM   14  C   UNL     1     -11.861  14.912  69.785  1.00  0.00    -0.356 A  
HETATM   15  C   UNL     1     -12.029  13.506  69.798  1.00  0.00    -0.405 A  
HETATM   16  C   UNL     1     -12.771  12.900  70.832  1.00  0.00    -0.291 A  
HETATM   17  C   UNL     1     -11.437  12.589  68.748  1.00  0.00    -0.353 C  
HETATM   18  C   UNL     1     -10.912  13.277  67.487  1.00  0.00    -0.281 C  
HETATM   19  C   UNL     1     -13.382  13.678  71.808  1.00  0.00    -0.388 A  
HETATM   20  C   UNL     1     -13.273  15.058  71.775  1.00  0.00    -0.457 A  
HETATM   21  C   UNL     1     -10.102  14.515  67.865  1.00  0.00    -0.227 C  
HETATM   22  O   UNL     1     -14.117  13.119  72.811  1.00  0.00    -0.641 OA 
ENDROOT
BRANCH   4  23
HETATM   23  C   UNL     1      -7.259  15.458  67.801  1.00  0.00    -0.182 C  
HETATM   24  C   UNL     1      -6.210  14.855  67.825  1.00  0.00    -0.164 C  
ENDBRANCH   4  23
TORSDOF 1
ENDMDL
MODEL        5
REMARK 921   NORMALIZED FREE ENERGY PREDICTED BY IDOCK:   -6.69 KCAL/MOL
REMARK 922        TOTAL FREE ENERGY PREDICTED BY IDOCK:   -7.10 KCAL/MOL
REMARK 923 INTER-LIGAND FREE ENERGY PREDICTED BY IDOCK:   -7.11 KCAL/MOL
REMARK 924 INTRA-LIGAND FREE ENERGY PREDICTED BY IDOCK:    0.01 KCAL/MOL
REMARK 927      BINDING AFFINITY PREDICTED BY RF-SCORE:    0.00 PKD
ROOT
HETATM    1  C   UNL     1     -10.477  14.243  67.559  1.00  0.00    -0.252 C  
HETATM    2  C   UNL     1     -11.515  14.314  66.607  1.00  0.00    -0.374 C  
HETATM    3  C   UNL     1     -11.910  14.609  68.005  1.00  0.00    -0.343 C  
HETATM    4  C   UNL     1     -10.350  14.807  69.328  1.00  0.00    -0.206 C  
HETATM    5  H   UNL     1     -12.762   7.409  72.981  1.00  0.00     0.000 HD 
HETATM    6  O   UNL     1     -10.331  15.277  70.679  1.00  0.00    -0.490 OA 
HETATM    7  C   UNL     1     -10.991  15.790  68.629  1.00  0.00    -0.307 C  
HETATM    8  C   UNL     1     -12.700  11.059  71.519  1.00  0.00    -0.521 A  
HETATM    9  C   UNL     1     -12.386  15.586  69.875  1.00  0.00    -0.306 C  
HETATM   10  C   UNL     1     -10.575  17.175  68.243  1.00  0.00    -0.375 C  
HETATM   11  H   UNL     1      -9.610  15.369  71.290  1.00  0.00     0.000 HD 
HETATM   12  C   UNL     1     -12.439  13.936  70.499  1.00  0.00    -0.422 C  
HETATM   13  C   UNL     1     -11.983  12.591  69.598  1.00  0.00    -0.339 C  
HETATM   14  C   UNL     1     -11.960  11.247  70.336  1.00  0.00    -0.471 A  
HETATM   15  C   UNL     1     -11.362  10.115  69.732  1.00  0.00    -0.312 A  
HETATM   16  C   UNL     1     -11.448   8.858  70.364  1.00  0.00    -0.182 A  
HETATM   17  C   UNL     1     -10.607  10.175  68.420  1.00  0.00    -0.249 C  
HETATM   18  C   UNL     1     -10.789  11.458  67.608  1.00  0.00    -0.286 C  
HETATM   19  C   UNL     1     -12.162   8.714  71.547  1.00  0.00    -0.318 A  
HETATM   20  C   UNL     1     -12.800   9.801  72.119  1.00  0.00    -0.448 A  
HETATM   21  C   UNL     1     -10.688  12.676  68.524  1.00  0.00    -0.271 C  
HETATM   22  O   UNL     1     -12.273   7.507  72.172  1.00  0.00    -0.293 OA 
ENDROOT
BRANCH   4  23
HETATM   23  C   UNL     1      -8.841  14.982  69.018  1.00  0.00    -0.205 C  
HETATM   24  C   UNL     1      -7.658  15.061  68.776  1.00  0.00    -0.137 C  
ENDBRANCH   4  23
TORSDOF 1
ENDMDL
MODEL        6
REMARK 921   NORMALIZED FREE ENERGY PREDICTED BY IDOCK:   -6.64 KCAL/MOL
REMARK 922        TOTAL FREE ENERGY PREDICTED BY IDOCK:   -7.05 KCAL/MOL
REMARK 923 INTER-LIGAND FREE ENERGY PREDICTED BY IDOCK:   -7.03 KCAL/MOL
REMARK 924 INTRA-LIGAND FREE ENERGY PREDICTED BY IDOCK:   -0.02 KCAL/MOL
REMARK 927      BINDING AFFINITY PREDICTED BY RF-SCORE:    0.00 PKD
ROOT
HETATM    1  C   UNL     1     -10.643  14.106  67.081  1.00  0.00    -0.278 C  
HETATM    2  C   UNL     1     -11.819  14.193  66.308  1.00  0.00    -0.427 C  
HETATM    3  C   UNL     1     -11.990  14.441  67.760  1.00  0.00    -0.368 C  
HETATM    4  C   UNL     1     -10.242  14.619  68.825  1.00  0.00    -0.242 C  
HETATM    5  H   UNL     1     -11.990   7.085  72.580  1.00  0.00     0.000 HD 
HETATM    6  O   UNL     1     -10.012  15.048  70.170  1.00  0.00    -0.489 OA 
HETATM    7  C   UNL     1     -10.992  15.614  68.268  1.00  0.00    -0.315 C  
HETATM    8  C   UNL     1     -12.187  10.778  71.241  1.00  0.00    -0.426 A  
HETATM    9  C   UNL     1     -12.171  15.356  69.712  1.00  0.00    -0.336 C  
HETATM   10  C   UNL     1     -10.653  17.015  67.864  1.00  0.00    -0.365 C  
HETATM   11  H   UNL     1      -9.204  15.130  70.662  1.00  0.00     0.000 HD 
HETATM   12  C   UNL     1     -12.112  13.688  70.284  1.00  0.00    -0.427 C  
HETATM   13  C   UNL     1     -11.795  12.375  69.280  1.00  0.00    -0.361 C  
HETATM   14  C   UNL     1     -11.646  11.011  69.963  1.00  0.00    -0.427 A  
HETATM   15  C   UNL     1     -11.143   9.904  69.236  1.00  0.00    -0.220 A  
HETATM   16  C   UNL     1     -11.119   8.628  69.834  1.00  0.00    -0.119 A  
HETATM   17  C   UNL     1     -10.606  10.013  67.824  1.00  0.00    -0.311 C  
HETATM   18  C   UNL     1     -10.923  11.317  67.092  1.00  0.00    -0.348 C  
HETATM   19  C   UNL     1     -11.635   8.440  71.110  1.00  0.00    -0.279 A  
HETATM   20  C   UNL     1     -12.182   9.502  71.810  1.00  0.00    -0.465 A  
HETATM   21  C   UNL     1     -10.688  12.508  68.018  1.00  0.00    -0.242 C  
HETATM   22  O   UNL     1     -11.637   7.214  71.707  1.00  0.00    -0.261 OA 
ENDROOT
BRANCH   4  23
HETATM   23  C   UNL     1      -8.802  14.821  68.286  1.00  0.00    -0.179 C  
HETATM   24  C   UNL     1      -7.658  14.954  67.913  1.00  0.00    -0.146 C  
ENDBRANCH   4  23
TORSDOF 1
ENDMDL
MODEL        7
REMARK 921   NORMALIZED FREE ENERGY PREDICTED BY IDOCK:   -6.57 KCAL/MOL
REMARK 922        TOTAL FREE ENERGY PREDICTED BY IDOCK:   -6.97 KCAL/MOL
REMARK 923 INTER-LIGAND FREE ENERGY PREDICTED BY IDOCK:   -7.00 KCAL/MOL
REMARK 924 INTRA-LIGAND FREE ENERGY PREDICTED BY IDOCK:    0.03 KCAL/MOL
REMARK 927      BINDING AFFINITY PREDICTED BY RF-SCORE:    0.00 PKD
ROOT
HETATM    1  C   UNL     1      -9.861  14.006  66.573  1.00  0.00    -0.298 C  
HETATM    2  C   UNL     1     -10.867  14.136  65.594  1.00  0.00    -0.306 C  
HETATM    3  C   UNL     1     -11.123  14.846  66.871  1.00  0.00    -0.337 C  
HETATM    4  C   UNL     1      -9.529  14.909  68.167  1.00  0.00    -0.202 C  
HETATM    5  H   UNL     1     -13.776   9.523  73.349  1.00  0.00     0.000 HD 
HETATM    6  O   UNL     1      -9.340  15.657  69.371  1.00  0.00    -0.255 OA 
HETATM    7  C   UNL     1      -9.895  15.839  67.237  1.00  0.00    -0.230 C  
HETATM    8  C   UNL     1     -12.754  12.570  71.082  1.00  0.00    -0.340 A  
HETATM    9  C   UNL     1     -11.254  16.324  68.445  1.00  0.00    -0.349 C  
HETATM   10  C   UNL     1      -9.125  16.927  66.554  1.00  0.00    -0.302 C  
HETATM   11  H   UNL     1      -8.603  15.686  69.970  1.00  0.00     0.000 HD 
HETATM   12  C   UNL     1     -11.740  14.944  69.432  1.00  0.00    -0.349 C  
HETATM   13  C   UNL     1     -11.701  13.354  68.885  1.00  0.00    -0.369 C  
HETATM   14  C   UNL     1     -12.028  12.267  69.915  1.00  0.00    -0.377 A  
HETATM   15  C   UNL     1     -11.784  10.905  69.612  1.00  0.00    -0.403 A  
HETATM   16  C   UNL     1     -12.194   9.904  70.515  1.00  0.00    -0.260 A  
HETATM   17  C   UNL     1     -11.082  10.448  68.350  1.00  0.00    -0.322 C  
HETATM   18  C   UNL     1     -10.928  11.505  67.257  1.00  0.00    -0.323 C  
HETATM   19  C   UNL     1     -12.884  10.241  71.673  1.00  0.00    -0.463 A  
HETATM   20  C   UNL     1     -13.179  11.565  71.954  1.00  0.00    -0.479 A  
HETATM   21  C   UNL     1     -10.467  12.827  67.868  1.00  0.00    -0.226 C  
HETATM   22  O   UNL     1     -13.304   9.292  72.557  1.00  0.00    -0.457 OA 
ENDROOT
BRANCH   4  23
HETATM   23  C   UNL     1      -8.040  14.585  67.879  1.00  0.00    -0.151 C  
HETATM   24  C   UNL     1      -6.894  14.277  67.643  1.00  0.00    -0.201 C  
ENDBRANCH   4  23
TORSDOF 1
ENDMDL
MODEL        8
REMARK 921   NORMALIZED FREE ENERGY PREDICTED BY IDOCK:   -6.57 KCAL/MOL
REMARK 922        TOTAL FREE ENERGY PREDICTED BY IDOCK:   -6.97 KCAL/MOL
REMARK 923 INTER-LIGAND FREE ENERGY PREDICTED BY IDOCK:   -6.98 KCAL/MOL
REMARK 924 INTRA-LIGAND FREE ENERGY PREDICTED BY IDOCK:    0.01 KCAL/MOL
REMARK 927      BINDING AFFINITY PREDICTED BY RF-SCORE:    0.00 PKD
ROOT
HETATM    1  C   UNL     1     -11.777   7.736  72.085  1.00  0.00    -0.368 C  
HETATM    2  C   UNL     1     -12.953   7.130  71.594  1.00  0.00    -0.415 C  
HETATM    3  C   UNL     1     -11.911   7.418  70.579  1.00  0.00    -0.187 C  
HETATM    4  C   UNL     1     -10.095   8.010  71.338  1.00  0.00    -0.185 C  
HETATM    5  H   UNL     1     -11.579  15.884  68.224  1.00  0.00     0.000 HD 
HETATM    6  O   UNL     1      -8.828   8.174  70.695  1.00  0.00    -0.135 OA 
HETATM    7  C   UNL     1     -10.494   6.749  70.998  1.00  0.00    -0.237 C  
HETATM    8  C   UNL     1     -11.087  12.001  68.607  1.00  0.00    -0.298 A  
HETATM    9  C   UNL     1     -10.238   7.289  69.214  1.00  0.00    -0.193 C  
HETATM   10  C   UNL     1     -10.001   5.398  71.414  1.00  0.00    -0.241 C  
HETATM   11  H   UNL     1      -7.988   8.447  71.046  1.00  0.00     0.000 HD 
HETATM   12  C   UNL     1     -10.500   9.024  69.036  1.00  0.00    -0.235 C  
HETATM   13  C   UNL     1     -11.590   9.897  69.975  1.00  0.00    -0.235 C  
HETATM   14  C   UNL     1     -11.594  11.418  69.784  1.00  0.00    -0.407 A  
HETATM   15  C   UNL     1     -12.295  12.246  70.694  1.00  0.00    -0.375 A  
HETATM   16  C   UNL     1     -12.393  13.630  70.446  1.00  0.00    -0.415 A  
HETATM   17  C   UNL     1     -12.952  11.725  71.955  1.00  0.00    -0.435 C  
HETATM   18  C   UNL     1     -13.102  10.206  72.045  1.00  0.00    -0.538 C  
HETATM   19  C   UNL     1     -11.855  14.177  69.287  1.00  0.00    -0.338 A  
HETATM   20  C   UNL     1     -11.216  13.370  68.361  1.00  0.00    -0.311 A  
HETATM   21  C   UNL     1     -11.809   9.525  71.603  1.00  0.00    -0.468 C  
HETATM   22  O   UNL     1     -11.947  15.510  69.016  1.00  0.00    -0.354 OA 
ENDROOT
BRANCH   4  23
HETATM   23  C   UNL     1      -9.584   7.913  72.799  1.00  0.00    -0.311 C  
HETATM   24  C   UNL     1      -9.146   7.800  73.921  1.00  0.00    -0.298 C  
ENDBRANCH   4  23
TORSDOF 1
ENDMDL
MODEL        9
REMARK 921   NORMALIZED FREE ENERGY PREDICTED BY IDOCK:   -6.52 KCAL/MOL
REMARK 922        TOTAL FREE ENERGY PREDICTED BY IDOCK:   -6.92 KCAL/MOL
REMARK 923 INTER-LIGAND FREE ENERGY PREDICTED BY IDOCK:   -6.95 KCAL/MOL
REMARK 924 INTRA-LIGAND FREE ENERGY PREDICTED BY IDOCK:    0.03 KCAL/MOL
REMARK 927      BINDING AFFINITY PREDICTED BY RF-SCORE:    0.00 PKD
ROOT
HETATM    1  C   UNL     1      -8.709   8.266  66.855  1.00  0.00    -0.141 C  
HETATM    2  C   UNL     1      -7.357   8.663  66.910  1.00  0.00    -0.079 C  
HETATM    3  C   UNL     1      -8.258   9.327  67.884  1.00  0.00    -0.115 C  
HETATM    4  C   UNL     1     -10.147   8.527  68.008  1.00  0.00    -0.200 C  
HETATM    5  H   UNL     1     -13.198  15.663  64.310  1.00  0.00     0.000 HD 
HETATM    6  O   UNL     1     -11.197   8.764  68.950  1.00  0.00    -0.420 OA 
HETATM    7  C   UNL     1      -9.056   8.231  68.773  1.00  0.00    -0.144 C  
HETATM    8  C   UNL     1     -11.378  13.126  66.702  1.00  0.00    -0.361 A  
HETATM    9  C   UNL     1      -9.388   9.863  69.649  1.00  0.00    -0.247 C  
HETATM   10  C   UNL     1      -8.713   7.032  69.603  1.00  0.00    -0.141 C  
HETATM   11  H   UNL     1     -12.070   8.395  69.007  1.00  0.00     0.000 HD 
HETATM   12  C   UNL     1     -10.167  11.014  68.561  1.00  0.00    -0.203 C  
HETATM   13  C   UNL     1      -9.894  11.050  66.902  1.00  0.00    -0.222 C  
HETATM   14  C   UNL     1     -10.754  12.024  66.087  1.00  0.00    -0.312 A  
HETATM   15  C   UNL     1     -10.767  11.948  64.673  1.00  0.00    -0.356 A  
HETATM   16  C   UNL     1     -11.466  12.919  63.928  1.00  0.00    -0.504 A  
HETATM   17  C   UNL     1     -10.067  10.854  63.894  1.00  0.00    -0.422 C  
HETATM   18  C   UNL     1      -9.072  10.007  64.688  1.00  0.00    -0.280 C  
HETATM   19  C   UNL     1     -12.096  13.978  64.569  1.00  0.00    -0.459 A  
HETATM   20  C   UNL     1     -12.044  14.096  65.948  1.00  0.00    -0.441 A  
HETATM   21  C   UNL     1      -9.673   9.622  66.038  1.00  0.00    -0.331 C  
HETATM   22  O   UNL     1     -12.767  14.938  63.871  1.00  0.00    -0.789 OA 
ENDROOT
BRANCH   4  23
HETATM   23  C   UNL     1     -10.658   7.172  67.454  1.00  0.00    -0.372 C  
HETATM   24  C   UNL     1     -11.036   6.129  66.970  1.00  0.00    -0.414 C  
ENDBRANCH   4  23
TORSDOF 1
ENDMDL
MODEL       10
REMARK 921   NORMALIZED FREE ENERGY PREDICTED BY IDOCK:   -6.51 KCAL/MOL
REMARK 922        TOTAL FREE ENERGY PREDICTED BY IDOCK:   -6.91 KCAL/MOL
REMARK 923 INTER-LIGAND FREE ENERGY PREDICTED BY IDOCK:   -6.89 KCAL/MOL
REMARK 924 INTRA-LIGAND FREE ENERGY PREDICTED BY IDOCK:   -0.02 KCAL/MOL
REMARK 927      BINDING AFFINITY PREDICTED BY RF-SCORE:    0.00 PKD
ROOT
HETATM    1  C   UNL     1     -10.822   7.826  71.321  1.00  0.00    -0.255 C  
HETATM    2  C   UNL     1     -11.614   7.115  70.395  1.00  0.00    -0.300 C  
HETATM    3  C   UNL     1     -10.698   8.124  69.809  1.00  0.00    -0.229 C  
HETATM    4  C   UNL     1      -9.337   8.931  71.122  1.00  0.00    -0.257 C  
HETATM    5  H   UNL     1     -13.603  16.380  70.661  1.00  0.00     0.000 HD 
HETATM    6  O   UNL     1      -8.196   9.759  70.884  1.00  0.00    -0.377 OA 
HETATM    7  C   UNL     1      -9.170   7.864  70.286  1.00  0.00    -0.152 C  
HETATM    8  C   UNL     1     -11.628  13.094  69.784  1.00  0.00    -0.291 A  
HETATM    9  C   UNL     1      -9.012   9.134  68.907  1.00  0.00    -0.139 C  
HETATM   10  C   UNL     1      -8.211   6.714  70.313  1.00  0.00    -0.126 C  
HETATM   11  H   UNL     1      -7.567  10.132  71.491  1.00  0.00     0.000 HD 
HETATM   12  C   UNL     1      -9.933  10.591  69.284  1.00  0.00    -0.233 C  
HETATM   13  C   UNL     1     -11.351  10.582  70.189  1.00  0.00    -0.400 C  
HETATM   14  C   UNL     1     -11.950  11.950  70.537  1.00  0.00    -0.360 A  
HETATM   15  C   UNL     1     -12.993  12.046  71.491  1.00  0.00    -0.407 A  
HETATM   16  C   UNL     1     -13.618  13.289  71.719  1.00  0.00    -0.369 A  
HETATM   17  C   UNL     1     -13.483  10.869  72.307  1.00  0.00    -0.049 C  
HETATM   18  C   UNL     1     -13.019   9.492  71.831  1.00  0.00    -0.514 C  
HETATM   19  C   UNL     1     -13.254  14.406  70.977  1.00  0.00    -0.333 A  
HETATM   20  C   UNL     1     -12.275  14.313  70.003  1.00  0.00    -0.417 A  
HETATM   21  C   UNL     1     -11.530   9.530  71.491  1.00  0.00    -0.466 C  
HETATM   22  O   UNL     1     -13.852  15.616  71.168  1.00  0.00    -0.583 OA 
ENDROOT
BRANCH   4  23
HETATM   23  C   UNL     1      -8.947   8.427  72.535  1.00  0.00    -0.308 C  
HETATM   24  C   UNL     1      -8.607   8.079  73.643  1.00  0.00    -0.322 C  
ENDBRANCH   4  23
TORSDOF 1
ENDMDL
MODEL       11
REMARK 921   NORMALIZED FREE ENERGY PREDICTED BY IDOCK:   -6.46 KCAL/MOL
REMARK 922        TOTAL FREE ENERGY PREDICTED BY IDOCK:   -6.85 KCAL/MOL
REMARK 923 INTER-LIGAND FREE ENERGY PREDICTED BY IDOCK:   -6.86 KCAL/MOL
REMARK 924 INTRA-LIGAND FREE ENERGY PREDICTED BY IDOCK:    0.00 KCAL/MOL
REMARK 927      BINDING AFFINITY PREDICTED BY RF-SCORE:    0.00 PKD
ROOT
HETATM    1  C   UNL     1      -8.605   8.123  67.543  1.00  0.00    -0.129 C  
HETATM    2  C   UNL     1      -7.317   8.664  67.740  1.00  0.00    -0.092 C  
HETATM    3  C   UNL     1      -8.407   9.313  68.509  1.00  0.00    -0.119 C  
HETATM    4  C   UNL     1     -10.213   8.334  68.456  1.00  0.00    -0.208 C  
HETATM    5  H   UNL     1     -13.333  14.748  63.658  1.00  0.00     0.000 HD 
HETATM    6  O   UNL     1     -11.405   8.543  69.217  1.00  0.00    -0.413 OA 
HETATM    7  C   UNL     1      -9.223   8.224  69.389  1.00  0.00    -0.155 C  
HETATM    8  C   UNL     1     -11.656  12.642  66.525  1.00  0.00    -0.441 A  
HETATM    9  C   UNL     1      -9.826   9.884  70.038  1.00  0.00    -0.291 C  
HETATM   10  C   UNL     1      -8.895   7.147  70.378  1.00  0.00    -0.151 C  
HETATM   11  H   UNL     1     -12.241   8.090  69.193  1.00  0.00     0.000 HD 
HETATM   12  C   UNL     1     -10.540  10.844  68.741  1.00  0.00    -0.231 C  
HETATM   13  C   UNL     1     -10.034  10.760  67.139  1.00  0.00    -0.230 C  
HETATM   14  C   UNL     1     -10.851  11.561  66.119  1.00  0.00    -0.330 A  
HETATM   15  C   UNL     1     -10.651  11.357  64.732  1.00  0.00    -0.377 A  
HETATM   16  C   UNL     1     -11.320  12.178  63.802  1.00  0.00    -0.529 A  
HETATM   17  C   UNL     1      -9.748  10.278  64.173  1.00  0.00    -0.357 C  
HETATM   18  C   UNL     1      -8.806   9.615  65.178  1.00  0.00    -0.215 C  
HETATM   19  C   UNL     1     -12.131  13.219  64.238  1.00  0.00    -0.416 A  
HETATM   20  C   UNL     1     -12.291  13.464  65.591  1.00  0.00    -0.521 A  
HETATM   21  C   UNL     1      -9.559   9.291  66.466  1.00  0.00    -0.285 C  
HETATM   22  O   UNL     1     -12.778  14.037  63.360  1.00  0.00    -0.796 OA 
ENDROOT
BRANCH   4  23
HETATM   23  C   UNL     1     -10.511   6.888  67.982  1.00  0.00    -0.255 C  
HETATM   24  C   UNL     1     -10.762   5.781  67.562  1.00  0.00    -0.320 C  
ENDBRANCH   4  23
TORSDOF 1
ENDMDL
MODEL       12
REMARK 921   NORMALIZED FREE ENERGY PREDICTED BY IDOCK:   -6.43 KCAL/MOL
REMARK 922        TOTAL FREE ENERGY PREDICTED BY IDOCK:   -6.82 KCAL/MOL
REMARK 923 INTER-LIGAND FREE ENERGY PREDICTED BY IDOCK:   -6.81 KCAL/MOL
REMARK 924 INTRA-LIGAND FREE ENERGY PREDICTED BY IDOCK:   -0.01 KCAL/MOL
REMARK 927      BINDING AFFINITY PREDICTED BY RF-SCORE:    0.00 PKD
ROOT
HETATM    1  C   UNL     1     -10.654  12.362  68.619  1.00  0.00    -0.243 C  
HETATM    2  C   UNL     1     -12.029  12.142  68.847  1.00  0.00    -0.296 C  
HETATM    3  C   UNL     1     -11.662  12.501  67.455  1.00  0.00    -0.439 C  
HETATM    4  C   UNL     1      -9.644  12.516  67.063  1.00  0.00    -0.216 C  
HETATM    5  H   UNL     1     -10.038  21.076  66.377  1.00  0.00     0.000 HD 
HETATM    6  O   UNL     1      -8.940  12.614  65.822  1.00  0.00    -0.410 OA 
HETATM    7  C   UNL     1     -10.530  11.494  66.878  1.00  0.00    -0.270 C  
HETATM    8  C   UNL     1     -10.648  17.216  65.935  1.00  0.00    -0.219 A  
HETATM    9  C   UNL     1     -11.114  12.447  65.364  1.00  0.00    -0.344 C  
HETATM   10  C   UNL     1     -10.338  10.013  66.760  1.00  0.00    -0.283 C  
HETATM   11  H   UNL     1      -8.008  12.621  65.640  1.00  0.00     0.000 HD 
HETATM   12  C   UNL     1     -10.878  14.182  65.582  1.00  0.00    -0.306 C  
HETATM   13  C   UNL     1     -10.964  14.947  67.077  1.00  0.00    -0.327 C  
HETATM   14  C   UNL     1     -10.600  16.436  67.106  1.00  0.00    -0.276 A  
HETATM   15  C   UNL     1     -10.408  17.096  68.344  1.00  0.00    -0.362 A  
HETATM   16  C   UNL     1     -10.190  18.489  68.367  1.00  0.00    -0.409 A  
HETATM   17  C   UNL     1     -10.414  16.378  69.677  1.00  0.00    -0.278 C  
HETATM   18  C   UNL     1     -10.954  14.948  69.659  1.00  0.00    -0.294 C  
HETATM   19  C   UNL     1     -10.215  19.224  67.188  1.00  0.00    -0.402 A  
HETATM   20  C   UNL     1     -10.457  18.600  65.976  1.00  0.00    -0.456 A  
HETATM   21  C   UNL     1     -10.383  14.189  68.463  1.00  0.00    -0.249 C  
HETATM   22  O   UNL     1     -10.021  20.574  67.184  1.00  0.00    -0.452 OA 
ENDROOT
BRANCH   4  23
HETATM   23  C   UNL     1      -8.492  11.929  67.918  1.00  0.00    -0.154 C  
HETATM   24  C   UNL     1      -7.564  11.520  68.579  1.00  0.00    -0.130 C  
ENDBRANCH   4  23
TORSDOF 1
ENDMDL
MODEL       13
REMARK 921   NORMALIZED FREE ENERGY PREDICTED BY IDOCK:   -6.35 KCAL/MOL
REMARK 922        TOTAL FREE ENERGY PREDICTED BY IDOCK:   -6.74 KCAL/MOL
REMARK 923 INTER-LIGAND FREE ENERGY PREDICTED BY IDOCK:   -6.73 KCAL/MOL
REMARK 924 INTRA-LIGAND FREE ENERGY PREDICTED BY IDOCK:   -0.02 KCAL/MOL
REMARK 927      BINDING AFFINITY PREDICTED BY RF-SCORE:    0.00 PKD
ROOT
HETATM    1  C   UNL     1     -10.215   9.959  68.648  1.00  0.00    -0.197 C  
HETATM    2  C   UNL     1     -11.150   9.507  67.694  1.00  0.00    -0.009 C  
HETATM    3  C   UNL     1     -10.635  10.882  67.482  1.00  0.00    -0.271 C  
HETATM    4  C   UNL     1      -9.056  11.415  68.686  1.00  0.00    -0.135 C  
HETATM    5  H   UNL     1     -14.290  16.839  72.820  1.00  0.00     0.000 HD 
HETATM    6  O   UNL     1      -8.190  12.552  68.632  1.00  0.00    -0.297 OA 
HETATM    7  C   UNL     1      -9.014  10.890  67.426  1.00  0.00    -0.136 C  
HETATM    8  C   UNL     1     -12.246  14.924  70.059  1.00  0.00    -0.381 A  
HETATM    9  C   UNL     1      -9.503  12.607  66.833  1.00  0.00    -0.229 C  
HETATM   10  C   UNL     1      -7.940  10.156  66.684  1.00  0.00    -0.116 C  
HETATM   11  H   UNL     1      -7.460  12.798  69.188  1.00  0.00     0.000 HD 
HETATM   12  C   UNL     1     -10.457  13.448  68.057  1.00  0.00    -0.243 C  
HETATM   13  C   UNL     1     -11.485  12.663  69.132  1.00  0.00    -0.359 C  
HETATM   14  C   UNL     1     -12.132  13.530  70.218  1.00  0.00    -0.425 A  
HETATM   15  C   UNL     1     -12.810  12.921  71.302  1.00  0.00    -0.361 A  
HETATM   16  C   UNL     1     -13.503  13.722  72.232  1.00  0.00    -0.638 A  
HETATM   17  C   UNL     1     -12.828  11.424  71.535  1.00  0.00    -0.508 C  
HETATM   18  C   UNL     1     -12.346  10.565  70.366  1.00  0.00    -0.409 C  
HETATM   19  C   UNL     1     -13.570  15.099  72.061  1.00  0.00    -0.446 A  
HETATM   20  C   UNL     1     -12.959  15.702  70.974  1.00  0.00    -0.518 A  
HETATM   21  C   UNL     1     -11.072  11.160  69.769  1.00  0.00    -0.271 C  
HETATM   22  O   UNL     1     -14.245  15.896  72.937  1.00  0.00    -0.497 OA 
ENDROOT
BRANCH   4  23
HETATM   23  C   UNL     1      -8.157  10.500  69.557  1.00  0.00    -0.105 C  
HETATM   24  C   UNL     1      -7.443   9.831  70.269  1.00  0.00    -0.173 C  
ENDBRANCH   4  23
TORSDOF 1
ENDMDL
MODEL       14
REMARK 921   NORMALIZED FREE ENERGY PREDICTED BY IDOCK:   -6.35 KCAL/MOL
REMARK 922        TOTAL FREE ENERGY PREDICTED BY IDOCK:   -6.74 KCAL/MOL
REMARK 923 INTER-LIGAND FREE ENERGY PREDICTED BY IDOCK:   -6.73 KCAL/MOL
REMARK 924 INTRA-LIGAND FREE ENERGY PREDICTED BY IDOCK:   -0.01 KCAL/MOL
REMARK 927      BINDING AFFINITY PREDICTED BY RF-SCORE:    0.00 PKD
ROOT
HETATM    1  C   UNL     1     -10.365   7.939  70.626  1.00  0.00    -0.205 C  
HETATM    2  C   UNL     1     -11.151   7.273  69.663  1.00  0.00    -0.161 C  
HETATM    3  C   UNL     1     -10.423   8.470  69.176  1.00  0.00    -0.217 C  
HETATM    4  C   UNL     1      -9.049   9.249  70.492  1.00  0.00    -0.259 C  
HETATM    5  H   UNL     1     -14.201  16.050  71.544  1.00  0.00     0.000 HD 
HETATM    6  O   UNL     1      -8.044  10.248  70.302  1.00  0.00    -0.388 OA 
HETATM    7  C   UNL     1      -8.836   8.349  69.488  1.00  0.00    -0.145 C  
HETATM    8  C   UNL     1     -11.940  13.222  70.009  1.00  0.00    -0.399 A  
HETATM    9  C   UNL     1      -8.965   9.818  68.319  1.00  0.00    -0.119 C  
HETATM   10  C   UNL     1      -7.748   7.346  69.258  1.00  0.00    -0.107 C  
HETATM   11  H   UNL     1      -7.408  10.608  70.910  1.00  0.00     0.000 HD 
HETATM   12  C   UNL     1     -10.014  11.068  68.991  1.00  0.00    -0.184 C  
HETATM   13  C   UNL     1     -11.327  10.737  69.989  1.00  0.00    -0.397 C  
HETATM   14  C   UNL     1     -12.049  11.946  70.594  1.00  0.00    -0.389 A  
HETATM   15  C   UNL     1     -12.999  11.761  71.628  1.00  0.00    -0.467 A  
HETATM   16  C   UNL     1     -13.744  12.862  72.097  1.00  0.00    -0.505 A  
HETATM   17  C   UNL     1     -13.264  10.421  72.283  1.00  0.00    -0.285 C  
HETATM   18  C   UNL     1     -12.686   9.204  71.561  1.00  0.00    -0.409 C  
HETATM   19  C   UNL     1     -13.590  14.115  71.516  1.00  0.00    -0.329 A  
HETATM   20  C   UNL     1     -12.705  14.298  70.467  1.00  0.00    -0.391 A  
HETATM   21  C   UNL     1     -11.252   9.490  71.118  1.00  0.00    -0.446 C  
HETATM   22  O   UNL     1     -14.307  15.193  71.941  1.00  0.00    -0.500 OA 
ENDROOT
BRANCH   4  23
HETATM   23  C   UNL     1      -8.468   8.599  71.774  1.00  0.00    -0.221 C  
HETATM   24  C   UNL     1      -7.965   8.122  72.766  1.00  0.00    -0.209 C  
ENDBRANCH   4  23
TORSDOF 1
ENDMDL
MODEL       15
REMARK 921   NORMALIZED FREE ENERGY PREDICTED BY IDOCK:   -6.35 KCAL/MOL
REMARK 922        TOTAL FREE ENERGY PREDICTED BY IDOCK:   -6.74 KCAL/MOL
REMARK 923 INTER-LIGAND FREE ENERGY PREDICTED BY IDOCK:   -6.73 KCAL/MOL
REMARK 924 INTRA-LIGAND FREE ENERGY PREDICTED BY IDOCK:   -0.01 KCAL/MOL
REMARK 927      BINDING AFFINITY PREDICTED BY RF-SCORE:    0.00 PKD
ROOT
HETATM    1  C   UNL     1      -9.955   9.900  69.957  1.00  0.00    -0.302 C  
HETATM    2  C   UNL     1     -11.116   9.222  70.381  1.00  0.00    -0.300 C  
HETATM    3  C   UNL     1     -10.634   8.874  69.022  1.00  0.00    -0.203 C  
HETATM    4  C   UNL     1      -8.785   9.628  68.535  1.00  0.00    -0.120 C  
HETATM    5  H   UNL     1     -12.628  14.928  62.963  1.00  0.00     0.000 HD 
HETATM    6  O   UNL     1      -7.931   9.346  67.424  1.00  0.00    -0.105 OA 
HETATM    7  C   UNL     1      -9.083   8.404  69.061  1.00  0.00    -0.147 C  
HETATM    8  C   UNL     1     -11.416  11.749  64.936  1.00  0.00    -0.269 A  
HETATM    9  C   UNL     1      -9.660   7.944  67.330  1.00  0.00    -0.195 C  
HETATM   10  C   UNL     1      -8.256   7.416  69.825  1.00  0.00    -0.129 C  
HETATM   11  H   UNL     1      -7.076   9.694  67.198  1.00  0.00     0.000 HD 
HETATM   12  C   UNL     1     -10.243   9.365  66.462  1.00  0.00    -0.308 C  
HETATM   13  C   UNL     1     -10.982  10.674  67.218  1.00  0.00    -0.348 C  
HETATM   14  C   UNL     1     -11.304  11.883  66.333  1.00  0.00    -0.400 A  
HETATM   15  C   UNL     1     -11.697  13.110  66.922  1.00  0.00    -0.441 A  
HETATM   16  C   UNL     1     -12.105  14.180  66.101  1.00  0.00    -0.454 A  
HETATM   17  C   UNL     1     -11.696  13.350  68.417  1.00  0.00    -0.390 C  
HETATM   18  C   UNL     1     -11.555  12.103  69.290  1.00  0.00    -0.377 C  
HETATM   19  C   UNL     1     -12.176  14.022  64.722  1.00  0.00    -0.433 A  
HETATM   20  C   UNL     1     -11.848  12.811  64.137  1.00  0.00    -0.482 A  
HETATM   21  C   UNL     1     -10.461  11.195  68.732  1.00  0.00    -0.227 C  
HETATM   22  O   UNL     1     -12.580  15.037  63.906  1.00  0.00    -0.813 OA 
ENDROOT
BRANCH   4  23
HETATM   23  C   UNL     1      -7.718  10.245  69.476  1.00  0.00    -0.167 C  
HETATM   24  C   UNL     1      -6.845  10.714  70.171  1.00  0.00    -0.119 C  
ENDBRANCH   4  23
TORSDOF 1
ENDMDL
MODEL       16
REMARK 921   NORMALIZED FREE ENERGY PREDICTED BY IDOCK:   -6.32 KCAL/MOL
REMARK 922        TOTAL FREE ENERGY PREDICTED BY IDOCK:   -6.71 KCAL/MOL
REMARK 923 INTER-LIGAND FREE ENERGY PREDICTED BY IDOCK:   -6.69 KCAL/MOL
REMARK 924 INTRA-LIGAND FREE ENERGY PREDICTED BY IDOCK:   -0.02 KCAL/MOL
REMARK 927      BINDING AFFINITY PREDICTED BY RF-SCORE:    0.00 PKD
ROOT
HETATM    1  C   UNL     1      -9.492   7.572  71.535  1.00  0.00    -0.166 C  
HETATM    2  C   UNL     1      -9.018   8.151  72.730  1.00  0.00    -0.313 C  
HETATM    3  C   UNL     1     -10.435   8.439  72.400  1.00  0.00    -0.402 C  
HETATM    4  C   UNL     1     -11.203   7.349  70.835  1.00  0.00    -0.270 C  
HETATM    5  H   UNL     1     -11.386  14.560  66.157  1.00  0.00     0.000 HD 
HETATM    6  O   UNL     1     -12.548   7.210  70.371  1.00  0.00    -0.612 OA 
HETATM    7  C   UNL     1     -11.265   7.065  72.169  1.00  0.00    -0.291 C  
HETATM    8  C   UNL     1     -11.890  11.875  68.987  1.00  0.00    -0.368 A  
HETATM    9  C   UNL     1     -12.593   8.396  72.257  1.00  0.00    -0.401 C  
HETATM   10  C   UNL     1     -11.489   5.782  72.908  1.00  0.00    -0.261 C  
HETATM   11  H   UNL     1     -12.903   6.706  69.648  1.00  0.00     0.000 HD 
HETATM   12  C   UNL     1     -12.340   9.622  71.014  1.00  0.00    -0.396 C  
HETATM   13  C   UNL     1     -10.820  10.061  70.441  1.00  0.00    -0.380 C  
HETATM   14  C   UNL     1     -10.789  11.043  69.265  1.00  0.00    -0.285 A  
HETATM   15  C   UNL     1      -9.579  11.277  68.566  1.00  0.00    -0.199 A  
HETATM   16  C   UNL     1      -9.531  12.267  67.564  1.00  0.00    -0.182 A  
HETATM   17  C   UNL     1      -8.305  10.501  68.830  1.00  0.00    -0.147 C  
HETATM   18  C   UNL     1      -8.290   9.665  70.110  1.00  0.00    -0.221 C  
HETATM   19  C   UNL     1     -10.646  13.051  67.295  1.00  0.00    -0.242 A  
HETATM   20  C   UNL     1     -11.819  12.871  68.009  1.00  0.00    -0.390 A  
HETATM   21  C   UNL     1      -9.608   8.907  70.256  1.00  0.00    -0.212 C  
HETATM   22  O   UNL     1     -10.622  14.024  66.341  1.00  0.00    -0.276 OA 
ENDROOT
BRANCH   4  23
HETATM   23  C   UNL     1     -10.611   6.085  70.160  1.00  0.00    -0.341 C  
HETATM   24  C   UNL     1     -10.186   5.106  69.589  1.00  0.00    -0.337 C  
ENDBRANCH   4  23
TORSDOF 1
ENDMDL
MODEL       17
REMARK 921   NORMALIZED FREE ENERGY PREDICTED BY IDOCK:   -6.28 KCAL/MOL
REMARK 922        TOTAL FREE ENERGY PREDICTED BY IDOCK:   -6.66 KCAL/MOL
REMARK 923 INTER-LIGAND FREE ENERGY PREDICTED BY IDOCK:   -6.65 KCAL/MOL
REMARK 924 INTRA-LIGAND FREE ENERGY PREDICTED BY IDOCK:   -0.02 KCAL/MOL
REMARK 927      BINDING AFFINITY PREDICTED BY RF-SCORE:    0.00 PKD
ROOT
HETATM    1  C   UNL     1     -11.037  14.098  66.171  1.00  0.00    -0.312 C  
HETATM    2  C   UNL     1     -12.383  14.086  65.753  1.00  0.00    -0.506 C  
HETATM    3  C   UNL     1     -12.153  13.727  67.173  1.00  0.00    -0.416 C  
HETATM    4  C   UNL     1     -10.240  14.043  67.853  1.00  0.00    -0.240 C  
HETATM    5  H   UNL     1      -9.180   5.522  68.258  1.00  0.00     0.000 HD 
HETATM    6  O   UNL     1      -9.707  14.007  69.179  1.00  0.00    -0.419 OA 
HETATM    7  C   UNL     1     -11.311  14.885  67.934  1.00  0.00    -0.340 C  
HETATM    8  C   UNL     1     -10.528   9.189  68.704  1.00  0.00    -0.235 A  
HETATM    9  C   UNL     1     -11.917  13.770  69.323  1.00  0.00    -0.399 C  
HETATM   10  C   UNL     1     -11.406  16.369  68.115  1.00  0.00    -0.205 C  
HETATM   11  H   UNL     1      -8.822  14.154  69.493  1.00  0.00     0.000 HD 
HETATM   12  C   UNL     1     -11.346  12.116  69.098  1.00  0.00    -0.333 C  
HETATM   13  C   UNL     1     -11.086  11.423  67.587  1.00  0.00    -0.325 C  
HETATM   14  C   UNL     1     -10.460  10.024  67.573  1.00  0.00    -0.307 A  
HETATM   15  C   UNL     1      -9.985   9.471  66.359  1.00  0.00    -0.339 A  
HETATM   16  C   UNL     1      -9.519   8.141  66.333  1.00  0.00    -0.285 A  
HETATM   17  C   UNL     1      -9.935  10.244  65.058  1.00  0.00    -0.393 C  
HETATM   18  C   UNL     1     -10.721  11.555  65.034  1.00  0.00    -0.350 C  
HETATM   19  C   UNL     1      -9.573   7.354  67.476  1.00  0.00    -0.140 A  
HETATM   20  C   UNL     1     -10.088   7.864  68.656  1.00  0.00    -0.210 A  
HETATM   21  C   UNL     1     -10.466  12.341  66.318  1.00  0.00    -0.266 C  
HETATM   22  O   UNL     1      -9.142   6.060  67.475  1.00  0.00    -0.112 OA 
ENDROOT
BRANCH   4  23
HETATM   23  C   UNL     1      -9.105  14.865  67.187  1.00  0.00    -0.236 C  
HETATM   24  C   UNL     1      -8.185  15.490  66.711  1.00  0.00    -0.277 C  
ENDBRANCH   4  23
TORSDOF 1
ENDMDL
MODEL       18
REMARK 921   NORMALIZED FREE ENERGY PREDICTED BY IDOCK:   -6.27 KCAL/MOL
REMARK 922        TOTAL FREE ENERGY PREDICTED BY IDOCK:   -6.66 KCAL/MOL
REMARK 923 INTER-LIGAND FREE ENERGY PREDICTED BY IDOCK:   -6.66 KCAL/MOL
REMARK 924 INTRA-LIGAND FREE ENERGY PREDICTED BY IDOCK:    0.01 KCAL/MOL
REMARK 927      BINDING AFFINITY PREDICTED BY RF-SCORE:    0.00 PKD
ROOT
HETATM    1  C   UNL     1     -11.299  14.095  65.751  1.00  0.00    -0.317 C  
HETATM    2  C   UNL     1     -12.666  13.888  65.473  1.00  0.00    -0.536 C  
HETATM    3  C   UNL     1     -12.120  13.107  66.610  1.00  0.00    -0.409 C  
HETATM    4  C   UNL     1     -10.225  13.638  67.200  1.00  0.00    -0.244 C  
HETATM    5  H   UNL     1      -7.368   6.148  64.096  1.00  0.00     0.000 HD 
HETATM    6  O   UNL     1      -9.471  13.259  68.355  1.00  0.00    -0.232 OA 
HETATM    7  C   UNL     1     -11.416  14.083  67.697  1.00  0.00    -0.362 C  
HETATM    8  C   UNL     1      -9.347   8.913  66.073  1.00  0.00    -0.306 A  
HETATM    9  C   UNL     1     -11.524  12.421  68.572  1.00  0.00    -0.350 C  
HETATM   10  C   UNL     1     -11.783  15.318  68.460  1.00  0.00    -0.352 C  
HETATM   11  H   UNL     1      -8.594  13.504  68.628  1.00  0.00     0.000 HD 
HETATM   12  C   UNL     1     -10.671  11.173  67.662  1.00  0.00    -0.273 C  
HETATM   13  C   UNL     1     -10.543  11.174  65.985  1.00  0.00    -0.298 C  
HETATM   14  C   UNL     1      -9.653  10.090  65.365  1.00  0.00    -0.342 A  
HETATM   15  C   UNL     1      -9.295  10.163  63.997  1.00  0.00    -0.339 A  
HETATM   16  C   UNL     1      -8.576   9.105  63.406  1.00  0.00    -0.178 A  
HETATM   17  C   UNL     1      -9.637  11.343  63.110  1.00  0.00    -0.398 C  
HETATM   18  C   UNL     1     -10.668  12.319  63.674  1.00  0.00    -0.513 C  
HETATM   19  C   UNL     1      -8.264   7.969  64.142  1.00  0.00    -0.057 A  
HETATM   20  C   UNL     1      -8.657   7.860  65.466  1.00  0.00    -0.139 A  
HETATM   21  C   UNL     1     -10.360  12.619  65.140  1.00  0.00    -0.312 C  
HETATM   22  O   UNL     1      -7.581   6.925  63.592  1.00  0.00    -0.088 OA 
ENDROOT
BRANCH   4  23
HETATM   23  C   UNL     1      -9.420  14.910  66.826  1.00  0.00    -0.269 C  
HETATM   24  C   UNL     1      -8.765  15.872  66.494  1.00  0.00    -0.350 C  
ENDBRANCH   4  23
TORSDOF 1
ENDMDL
MODEL       19
REMARK 921   NORMALIZED FREE ENERGY PREDICTED BY IDOCK:   -6.23 KCAL/MOL
REMARK 922        TOTAL FREE ENERGY PREDICTED BY IDOCK:   -6.61 KCAL/MOL
REMARK 923 INTER-LIGAND FREE ENERGY PREDICTED BY IDOCK:   -6.66 KCAL/MOL
REMARK 924 INTRA-LIGAND FREE ENERGY PREDICTED BY IDOCK:    0.05 KCAL/MOL
REMARK 927      BINDING AFFINITY PREDICTED BY RF-SCORE:    0.00 PKD
ROOT
HETATM    1  C   UNL     1     -11.579   7.667  72.054  1.00  0.00    -0.334 C  
HETATM    2  C   UNL     1     -12.791   7.041  71.697  1.00  0.00    -0.408 C  
HETATM    3  C   UNL     1     -11.772   7.118  70.622  1.00  0.00    -0.348 C  
HETATM    4  C   UNL     1      -9.912   7.746  71.230  1.00  0.00    -0.175 C  
HETATM    5  H   UNL     1     -11.198  15.076  66.926  1.00  0.00     0.000 HD 
HETATM    6  O   UNL     1      -8.661   7.752  70.537  1.00  0.00    -0.137 OA 
HETATM    7  C   UNL     1     -10.369   6.466  71.108  1.00  0.00    -0.244 C  
HETATM    8  C   UNL     1     -10.840  11.287  67.917  1.00  0.00    -0.278 A  
HETATM    9  C   UNL     1     -10.150   6.701  69.254  1.00  0.00    -0.187 C  
HETATM   10  C   UNL     1      -9.914   5.179  71.724  1.00  0.00    -0.244 C  
HETATM   11  H   UNL     1      -7.801   8.042  70.817  1.00  0.00     0.000 HD 
HETATM   12  C   UNL     1     -10.353   8.396  68.806  1.00  0.00    -0.225 C  
HETATM   13  C   UNL     1     -11.378   9.453  69.619  1.00  0.00    -0.023 C  
HETATM   14  C   UNL     1     -11.331  10.923  69.185  1.00  0.00    -0.350 A  
HETATM   15  C   UNL     1     -11.971  11.915  69.968  1.00  0.00    -0.409 A  
HETATM   16  C   UNL     1     -12.025  13.244  69.502  1.00  0.00    -0.366 A  
HETATM   17  C   UNL     1     -12.606  11.629  71.312  1.00  0.00    -0.425 C  
HETATM   18  C   UNL     1     -12.811  10.153  71.650  1.00  0.00    -0.559 C  
HETATM   19  C   UNL     1     -11.503  13.575  68.258  1.00  0.00    -0.310 A  
HETATM   20  C   UNL     1     -10.926  12.604  67.458  1.00  0.00    -0.280 A  
HETATM   21  C   UNL     1     -11.559   9.356  71.291  1.00  0.00    -0.434 C  
HETATM   22  O   UNL     1     -11.555  14.850  67.777  1.00  0.00    -0.330 OA 
ENDROOT
BRANCH   4  23
HETATM   23  C   UNL     1      -9.359   7.863  72.674  1.00  0.00    -0.275 C  
HETATM   24  C   UNL     1      -8.974   7.926  73.819  1.00  0.00    -0.324 C  
ENDBRANCH   4  23
TORSDOF 1
ENDMDL
MODEL       20
REMARK 921   NORMALIZED FREE ENERGY PREDICTED BY IDOCK:   -6.11 KCAL/MOL
REMARK 922        TOTAL FREE ENERGY PREDICTED BY IDOCK:   -6.48 KCAL/MOL
REMARK 923 INTER-LIGAND FREE ENERGY PREDICTED BY IDOCK:   -6.53 KCAL/MOL
REMARK 924 INTRA-LIGAND FREE ENERGY PREDICTED BY IDOCK:    0.05 KCAL/MOL
REMARK 927      BINDING AFFINITY PREDICTED BY RF-SCORE:    0.00 PKD
ROOT
HETATM    1  C   UNL     1      -9.360   8.336  70.177  1.00  0.00    -0.159 C  
HETATM    2  C   UNL     1      -8.330   9.094  70.771  1.00  0.00    -0.248 C  
HETATM    3  C   UNL     1      -9.682   9.701  70.826  1.00  0.00    -0.192 C  
HETATM    4  C   UNL     1     -11.216   8.464  70.240  1.00  0.00    -0.173 C  
HETATM    5  H   UNL     1     -12.193  13.323  63.217  1.00  0.00     0.000 HD 
HETATM    6  O   UNL     1     -12.632   8.625  70.348  1.00  0.00    -0.251 OA 
HETATM    7  C   UNL     1     -10.746   8.681  71.504  1.00  0.00    -0.352 C  
HETATM    8  C   UNL     1     -11.871  12.067  66.930  1.00  0.00    -0.250 A  
HETATM    9  C   UNL     1     -11.666  10.320  71.424  1.00  0.00    -0.312 C  
HETATM   10  C   UNL     1     -10.839   7.869  72.759  1.00  0.00    -0.451 C  
HETATM   11  H   UNL     1     -13.341   8.054  70.078  1.00  0.00     0.000 HD 
HETATM   12  C   UNL     1     -11.773  10.903  69.762  1.00  0.00    -0.413 C  
HETATM   13  C   UNL     1     -10.597  10.602  68.598  1.00  0.00    -0.229 C  
HETATM   14  C   UNL     1     -10.911  11.065  67.170  1.00  0.00    -0.344 A  
HETATM   15  C   UNL     1     -10.099  10.641  66.091  1.00  0.00    -0.306 A  
HETATM   16  C   UNL     1     -10.322  11.163  64.801  1.00  0.00    -0.387 A  
HETATM   17  C   UNL     1      -8.983   9.628  66.240  1.00  0.00    -0.184 C  
HETATM   18  C   UNL     1      -8.558   9.314  67.675  1.00  0.00    -0.116 C  
HETATM   19  C   UNL     1     -11.298  12.130  64.593  1.00  0.00    -0.326 A  
HETATM   20  C   UNL     1     -12.062  12.595  65.650  1.00  0.00    -0.502 A  
HETATM   21  C   UNL     1      -9.791   9.124  68.556  1.00  0.00    -0.178 C  
HETATM   22  O   UNL     1     -11.526  12.662  63.359  1.00  0.00    -0.487 OA 
ENDROOT
BRANCH   4  23
HETATM   23  C   UNL     1     -11.189   6.927  70.037  1.00  0.00    -0.347 C  
HETATM   24  C   UNL     1     -11.135   5.723  69.926  1.00  0.00    -0.327 C  
ENDBRANCH   4  23
TORSDOF 1
ENDMDL
MODEL       21
REMARK 921   NORMALIZED FREE ENERGY PREDICTED BY IDOCK:   -6.11 KCAL/MOL
REMARK 922        TOTAL FREE ENERGY PREDICTED BY IDOCK:   -6.48 KCAL/MOL
REMARK 923 INTER-LIGAND FREE ENERGY PREDICTED BY IDOCK:   -6.46 KCAL/MOL
REMARK 924 INTRA-LIGAND FREE ENERGY PREDICTED BY IDOCK:   -0.02 KCAL/MOL
REMARK 927      BINDING AFFINITY PREDICTED BY RF-SCORE:    0.00 PKD
ROOT
HETATM    1  C   UNL     1      -9.164  12.857  67.016  1.00  0.00    -0.226 C  
HETATM    2  C   UNL     1      -8.492  12.492  68.201  1.00  0.00    -0.180 C  
HETATM    3  C   UNL     1      -9.837  13.088  68.388  1.00  0.00    -0.203 C  
HETATM    4  C   UNL     1     -10.929  13.329  66.663  1.00  0.00    -0.283 C  
HETATM    5  H   UNL     1      -9.937  21.832  67.450  1.00  0.00     0.000 HD 
HETATM    6  O   UNL     1     -12.304  13.673  66.475  1.00  0.00    -0.412 OA 
HETATM    7  C   UNL     1     -10.952  12.278  67.534  1.00  0.00    -0.298 C  
HETATM    8  C   UNL     1     -10.785  18.048  68.107  1.00  0.00    -0.267 A  
HETATM    9  C   UNL     1     -11.960  13.400  68.659  1.00  0.00    -0.362 C  
HETATM   10  C   UNL     1     -11.385  10.853  67.371  1.00  0.00    -0.273 C  
HETATM   11  H   UNL     1     -12.810  13.784  65.678  1.00  0.00     0.000 HD 
HETATM   12  C   UNL     1     -11.547  15.094  68.393  1.00  0.00    -0.356 C  
HETATM   13  C   UNL     1     -10.016  15.613  67.929  1.00  0.00    -0.223 C  
HETATM   14  C   UNL     1      -9.866  17.105  67.609  1.00  0.00    -0.270 A  
HETATM   15  C   UNL     1      -8.689  17.581  66.982  1.00  0.00    -0.254 A  
HETATM   16  C   UNL     1      -8.507  18.967  66.798  1.00  0.00    -0.304 A  
HETATM   17  C   UNL     1      -7.590  16.670  66.476  1.00  0.00    -0.327 C  
HETATM   18  C   UNL     1      -7.657  15.220  66.956  1.00  0.00    -0.161 C  
HETATM   19  C   UNL     1      -9.449  19.869  67.276  1.00  0.00    -0.365 A  
HETATM   20  C   UNL     1     -10.578  19.420  67.941  1.00  0.00    -0.501 A  
HETATM   21  C   UNL     1      -9.090  14.702  66.858  1.00  0.00    -0.272 C  
HETATM   22  O   UNL     1      -9.292  21.215  67.124  1.00  0.00    -0.208 OA 
ENDROOT
BRANCH   4  23
HETATM   23  C   UNL     1     -10.668  12.714  65.264  1.00  0.00    -0.318 C  
HETATM   24  C   UNL     1     -10.513  12.259  64.154  1.00  0.00    -0.402 C  
ENDBRANCH   4  23
TORSDOF 1
ENDMDL
MODEL       22
REMARK 921   NORMALIZED FREE ENERGY PREDICTED BY IDOCK:   -6.08 KCAL/MOL
REMARK 922        TOTAL FREE ENERGY PREDICTED BY IDOCK:   -6.45 KCAL/MOL
REMARK 923 INTER-LIGAND FREE ENERGY PREDICTED BY IDOCK:   -6.43 KCAL/MOL
REMARK 924 INTRA-LIGAND FREE ENERGY PREDICTED BY IDOCK:   -0.02 KCAL/MOL
REMARK 927      BINDING AFFINITY PREDICTED BY RF-SCORE:    0.00 PKD
ROOT
HETATM    1  C   UNL     1      -8.458  17.834  67.527  1.00  0.00    -0.227 C  
HETATM    2  C   UNL     1      -9.353  18.294  68.515  1.00  0.00    -0.334 C  
HETATM    3  C   UNL     1      -8.858  16.908  68.697  1.00  0.00    -0.262 C  
HETATM    4  C   UNL     1      -7.330  16.356  67.438  1.00  0.00    -0.155 C  
HETATM    5  H   UNL     1     -12.802  11.078  63.425  1.00  0.00     0.000 HD 
HETATM    6  O   UNL     1      -6.486  15.203  67.452  1.00  0.00    -0.275 OA 
HETATM    7  C   UNL     1      -7.237  16.868  68.700  1.00  0.00    -0.215 C  
HETATM    8  C   UNL     1     -10.632  12.925  66.136  1.00  0.00    -0.287 A  
HETATM    9  C   UNL     1      -7.740  15.154  69.292  1.00  0.00    -0.204 C  
HETATM   10  C   UNL     1      -6.125  17.573  69.414  1.00  0.00    -0.245 C  
HETATM   11  H   UNL     1      -5.779  14.947  66.870  1.00  0.00     0.000 HD 
HETATM   12  C   UNL     1      -8.749  14.344  68.092  1.00  0.00    -0.175 C  
HETATM   13  C   UNL     1      -9.796  15.161  67.059  1.00  0.00    -0.233 C  
HETATM   14  C   UNL     1     -10.496  14.318  65.987  1.00  0.00    -0.306 A  
HETATM   15  C   UNL     1     -11.196  14.951  64.931  1.00  0.00    -0.415 A  
HETATM   16  C   UNL     1     -11.935  14.173  64.017  1.00  0.00    -0.359 A  
HETATM   17  C   UNL     1     -11.192  16.450  64.713  1.00  0.00    -0.219 C  
HETATM   18  C   UNL     1     -10.655  17.287  65.874  1.00  0.00    -0.206 C  
HETATM   19  C   UNL     1     -12.024  12.795  64.177  1.00  0.00    -0.427 A  
HETATM   20  C   UNL     1     -11.390  12.169  65.237  1.00  0.00    -0.386 A  
HETATM   21  C   UNL     1      -9.375  16.662  66.423  1.00  0.00    -0.309 C  
HETATM   22  O   UNL     1     -12.742  12.020  63.316  1.00  0.00    -0.685 OA 
ENDROOT
BRANCH   4  23
HETATM   23  C   UNL     1      -6.442  17.263  66.547  1.00  0.00    -0.272 C  
HETATM   24  C   UNL     1      -5.723  17.923  65.831  1.00  0.00    -0.233 C  
ENDBRANCH   4  23
TORSDOF 1
ENDMDL
MODEL       23
REMARK 921   NORMALIZED FREE ENERGY PREDICTED BY IDOCK:   -6.06 KCAL/MOL
REMARK 922        TOTAL FREE ENERGY PREDICTED BY IDOCK:   -6.43 KCAL/MOL
REMARK 923 INTER-LIGAND FREE ENERGY PREDICTED BY IDOCK:   -6.43 KCAL/MOL
REMARK 924 INTRA-LIGAND FREE ENERGY PREDICTED BY IDOCK:    0.00 KCAL/MOL
REMARK 927      BINDING AFFINITY PREDICTED BY RF-SCORE:    0.00 PKD
ROOT
HETATM    1  C   UNL     1     -10.921  13.286  67.343  1.00  0.00    -0.287 C  
HETATM    2  C   UNL     1     -12.144  13.546  67.994  1.00  0.00    -0.298 C  
HETATM    3  C   UNL     1     -11.937  14.266  66.714  1.00  0.00    -0.462 C  
HETATM    4  C   UNL     1     -10.306  13.652  65.624  1.00  0.00    -0.300 C  
HETATM    5  H   UNL     1      -6.524  21.160  67.423  1.00  0.00     0.000 HD 
HETATM    6  O   UNL     1      -9.913  13.963  64.285  1.00  0.00    -0.714 OA 
HETATM    7  C   UNL     1     -11.599  13.227  65.515  1.00  0.00    -0.351 C  
HETATM    8  C   UNL     1      -9.046  18.387  66.233  1.00  0.00    -0.213 A  
HETATM    9  C   UNL     1     -11.924  14.858  64.634  1.00  0.00    -0.407 C  
HETATM   10  C   UNL     1     -12.196  11.976  64.948  1.00  0.00    -0.187 C  
HETATM   11  H   UNL     1      -9.159  13.680  63.781  1.00  0.00     0.000 HD 
HETATM   12  C   UNL     1     -10.819  16.111  65.200  1.00  0.00    -0.376 C  
HETATM   13  C   UNL     1     -10.209  16.170  66.767  1.00  0.00    -0.281 C  
HETATM   14  C   UNL     1      -9.156  17.247  67.052  1.00  0.00    -0.247 A  
HETATM   15  C   UNL     1      -8.417  17.215  68.259  1.00  0.00    -0.236 A  
HETATM   16  C   UNL     1      -7.536  18.271  68.568  1.00  0.00    -0.313 A  
HETATM   17  C   UNL     1      -8.509  16.081  69.260  1.00  0.00    -0.224 C  
HETATM   18  C   UNL     1      -9.679  15.117  69.064  1.00  0.00    -0.234 C  
HETATM   19  C   UNL     1      -7.430  19.368  67.721  1.00  0.00    -0.261 A  
HETATM   20  C   UNL     1      -8.189  19.439  66.566  1.00  0.00    -0.326 A  
HETATM   21  C   UNL     1      -9.816  14.753  67.587  1.00  0.00    -0.218 C  
HETATM   22  O   UNL     1      -6.596  20.410  68.003  1.00  0.00    -0.274 OA 
ENDROOT
BRANCH   4  23
HETATM   23  C   UNL     1      -9.453  12.370  65.807  1.00  0.00    -0.094 C  
HETATM   24  C   UNL     1      -8.745  11.403  65.972  1.00  0.00    -0.131 C  
ENDBRANCH   4  23
TORSDOF 1
ENDMDL
MODEL       24
REMARK 921   NORMALIZED FREE ENERGY PREDICTED BY IDOCK:   -6.00 KCAL/MOL
REMARK 922        TOTAL FREE ENERGY PREDICTED BY IDOCK:   -6.37 KCAL/MOL
REMARK 923 INTER-LIGAND FREE ENERGY PREDICTED BY IDOCK:   -6.35 KCAL/MOL
REMARK 924 INTRA-LIGAND FREE ENERGY PREDICTED BY IDOCK:   -0.02 KCAL/MOL
REMARK 927      BINDING AFFINITY PREDICTED BY RF-SCORE:    0.00 PKD
ROOT
HETATM    1  C   UNL     1     -10.975  15.329  66.987  1.00  0.00    -0.324 C  
HETATM    2  C   UNL     1     -10.857  15.498  65.592  1.00  0.00    -0.354 C  
HETATM    3  C   UNL     1      -9.676  14.905  66.265  1.00  0.00    -0.320 C  
HETATM    4  C   UNL     1      -9.967  14.378  68.231  1.00  0.00    -0.232 C  
HETATM    5  H   UNL     1      -4.756  20.819  70.527  1.00  0.00     0.000 HD 
HETATM    6  O   UNL     1      -9.146  13.616  69.120  1.00  0.00    -0.353 OA 
HETATM    7  C   UNL     1     -10.096  13.594  67.121  1.00  0.00    -0.245 C  
HETATM    8  C   UNL     1      -6.273  17.591  68.869  1.00  0.00    -0.201 A  
HETATM    9  C   UNL     1      -8.215  13.544  67.097  1.00  0.00    -0.126 C  
HETATM   10  C   UNL     1     -10.848  12.321  66.878  1.00  0.00    -0.290 C  
HETATM   11  H   UNL     1      -9.280  13.373  70.028  1.00  0.00     0.000 HD 
HETATM   12  C   UNL     1      -7.537  15.012  67.802  1.00  0.00    -0.175 C  
HETATM   13  C   UNL     1      -8.287  16.515  67.713  1.00  0.00    -0.176 C  
HETATM   14  C   UNL     1      -7.629  17.657  68.496  1.00  0.00    -0.272 A  
HETATM   15  C   UNL     1      -8.316  18.882  68.677  1.00  0.00    -0.384 A  
HETATM   16  C   UNL     1      -7.660  19.965  69.295  1.00  0.00    -0.084 A  
HETATM   17  C   UNL     1      -9.751  19.100  68.246  1.00  0.00    -0.439 C  
HETATM   18  C   UNL     1     -10.333  18.038  67.313  1.00  0.00    -0.387 C  
HETATM   19  C   UNL     1      -6.329  19.857  69.678  1.00  0.00    -0.352 A  
HETATM   20  C   UNL     1      -5.628  18.683  69.456  1.00  0.00    -0.229 A  
HETATM   21  C   UNL     1      -9.963  16.644  67.813  1.00  0.00    -0.262 C  
HETATM   22  O   UNL     1      -5.667  20.894  70.265  1.00  0.00    -0.538 OA 
ENDROOT
BRANCH   4  23
HETATM   23  C   UNL     1     -11.304  14.243  69.004  1.00  0.00    -0.303 C  
HETATM   24  C   UNL     1     -12.318  14.137  69.656  1.00  0.00    -0.304 C  
ENDBRANCH   4  23
TORSDOF 1
ENDMDL
MODEL       25
REMARK 921   NORMALIZED FREE ENERGY PREDICTED BY IDOCK:   -5.98 KCAL/MOL
REMARK 922        TOTAL FREE ENERGY PREDICTED BY IDOCK:   -6.34 KCAL/MOL
REMARK 923 INTER-LIGAND FREE ENERGY PREDICTED BY IDOCK:   -6.40 KCAL/MOL
REMARK 924 INTRA-LIGAND FREE ENERGY PREDICTED BY IDOCK:    0.05 KCAL/MOL
REMARK 927      BINDING AFFINITY PREDICTED BY RF-SCORE:    0.00 PKD
ROOT
HETATM    1  C   UNL     1     -11.168  14.111  68.105  1.00  0.00    -0.299 C  
HETATM    2  C   UNL     1     -10.284  14.806  68.957  1.00  0.00    -0.237 C  
HETATM    3  C   UNL     1      -9.704  13.638  68.250  1.00  0.00    -0.231 C  
HETATM    4  C   UNL     1     -10.897  12.824  66.788  1.00  0.00    -0.264 C  
HETATM    5  H   UNL     1     -11.994   5.924  71.798  1.00  0.00     0.000 HD 
HETATM    6  O   UNL     1     -10.604  11.846  65.787  1.00  0.00    -0.250 OA 
HETATM    7  C   UNL     1      -9.920  13.766  66.648  1.00  0.00    -0.279 C  
HETATM    8  C   UNL     1     -10.436   8.839  69.666  1.00  0.00    -0.220 A  
HETATM    9  C   UNL     1      -8.702  12.343  66.836  1.00  0.00    -0.191 C  
HETATM   10  C   UNL     1      -9.663  14.790  65.586  1.00  0.00    -0.313 C  
HETATM   11  H   UNL     1     -11.156  11.469  65.111  1.00  0.00     0.000 HD 
HETATM   12  C   UNL     1      -9.387  11.055  67.828  1.00  0.00    -0.162 C  
HETATM   13  C   UNL     1     -10.479  11.330  69.079  1.00  0.00    -0.221 C  
HETATM   14  C   UNL     1     -11.079  10.089  69.749  1.00  0.00    -0.319 A  
HETATM   15  C   UNL     1     -12.176  10.221  70.634  1.00  0.00    -0.422 A  
HETATM   16  C   UNL     1     -12.647   9.093  71.337  1.00  0.00    -0.390 A  
HETATM   17  C   UNL     1     -12.900  11.530  70.870  1.00  0.00    -0.293 C  
HETATM   18  C   UNL     1     -12.194  12.782  70.350  1.00  0.00    -0.371 C  
HETATM   19  C   UNL     1     -12.006   7.866  71.208  1.00  0.00    -0.298 A  
HETATM   20  C   UNL     1     -10.897   7.736  70.389  1.00  0.00    -0.248 A  
HETATM   21  C   UNL     1     -11.651  12.531  68.945  1.00  0.00    -0.364 C  
HETATM   22  O   UNL     1     -12.432   6.763  71.887  1.00  0.00    -0.346 OA 
ENDROOT
BRANCH   4  23
HETATM   23  C   UNL     1     -12.166  13.429  66.133  1.00  0.00    -0.471 C  
HETATM   24  C   UNL     1     -13.156  13.942  65.663  1.00  0.00    -0.205 C  
ENDBRANCH   4  23
TORSDOF 1
ENDMDL
MODEL       26
REMARK 921   NORMALIZED FREE ENERGY PREDICTED BY IDOCK:   -5.94 KCAL/MOL
REMARK 922        TOTAL FREE ENERGY PREDICTED BY IDOCK:   -6.31 KCAL/MOL
REMARK 923 INTER-LIGAND FREE ENERGY PREDICTED BY IDOCK:   -6.36 KCAL/MOL
REMARK 924 INTRA-LIGAND FREE ENERGY PREDICTED BY IDOCK:    0.05 KCAL/MOL
REMARK 927      BINDING AFFINITY PREDICTED BY RF-SCORE:    0.00 PKD
ROOT
HETATM    1  C   UNL     1      -9.330   7.546  69.517  1.00  0.00    -0.153 C  
HETATM    2  C   UNL     1      -8.193   7.661  70.342  1.00  0.00    -0.122 C  
HETATM    3  C   UNL     1      -9.483   7.493  71.054  1.00  0.00    -0.162 C  
HETATM    4  C   UNL     1     -11.084   7.019  69.854  1.00  0.00    -0.264 C  
HETATM    5  H   UNL     1     -14.281  14.856  71.358  1.00  0.00     0.000 HD 
HETATM    6  O   UNL     1     -12.406   6.595  70.194  1.00  0.00    -0.561 OA 
HETATM    7  C   UNL     1     -10.261   6.168  70.535  1.00  0.00    -0.251 C  
HETATM    8  C   UNL     1     -12.816  11.229  71.764  1.00  0.00    -0.466 A  
HETATM    9  C   UNL     1     -11.212   6.688  72.073  1.00  0.00    -0.301 C  
HETATM   10  C   UNL     1      -9.947   4.716  70.345  1.00  0.00    -0.300 C  
HETATM   11  H   UNL     1     -13.146   6.376  69.640  1.00  0.00     0.000 HD 
HETATM   12  C   UNL     1     -11.833   8.331  71.906  1.00  0.00    -0.380 C  
HETATM   13  C   UNL     1     -11.054   9.529  71.018  1.00  0.00    -0.433 C  
HETATM   14  C   UNL     1     -11.799  10.860  70.864  1.00  0.00    -0.363 A  
HETATM   15  C   UNL     1     -11.337  11.829  69.940  1.00  0.00    -0.201 A  
HETATM   16  C   UNL     1     -11.954  13.095  69.887  1.00  0.00    -0.387 A  
HETATM   17  C   UNL     1     -10.197  11.578  68.974  1.00  0.00    -0.109 C  
HETATM   18  C   UNL     1      -9.351  10.337  69.254  1.00  0.00    -0.221 C  
HETATM   19  C   UNL     1     -12.977  13.416  70.772  1.00  0.00    -0.061 A  
HETATM   20  C   UNL     1     -13.400  12.498  71.718  1.00  0.00    -0.382 A  
HETATM   21  C   UNL     1     -10.254   9.151  69.585  1.00  0.00    -0.211 C  
HETATM   22  O   UNL     1     -13.582  14.637  70.752  1.00  0.00    -0.278 OA 
ENDROOT
BRANCH   4  23
HETATM   23  C   UNL     1     -11.073   6.532  68.382  1.00  0.00    -0.340 C  
HETATM   24  C   UNL     1     -11.007   6.153  67.235  1.00  0.00    -0.418 C  
ENDBRANCH   4  23
TORSDOF 1
ENDMDL
MODEL       27
REMARK 921   NORMALIZED FREE ENERGY PREDICTED BY IDOCK:   -5.94 KCAL/MOL
REMARK 922        TOTAL FREE ENERGY PREDICTED BY IDOCK:   -6.30 KCAL/MOL
REMARK 923 INTER-LIGAND FREE ENERGY PREDICTED BY IDOCK:   -6.29 KCAL/MOL
REMARK 924 INTRA-LIGAND FREE ENERGY PREDICTED BY IDOCK:   -0.02 KCAL/MOL
REMARK 927      BINDING AFFINITY PREDICTED BY RF-SCORE:    0.00 PKD
ROOT
HETATM    1  C   UNL     1     -11.042  12.205  66.306  1.00  0.00    -0.353 C  
HETATM    2  C   UNL     1     -12.021  12.451  67.290  1.00  0.00    -0.246 C  
HETATM    3  C   UNL     1     -11.926  13.470  66.216  1.00  0.00    -0.457 C  
HETATM    4  C   UNL     1     -10.722  12.954  64.632  1.00  0.00    -0.353 C  
HETATM    5  H   UNL     1      -5.113  18.943  67.195  1.00  0.00     0.000 HD 
HETATM    6  O   UNL     1     -10.549  13.574  63.355  1.00  0.00    -0.121 OA 
HETATM    7  C   UNL     1     -12.071  12.783  64.754  1.00  0.00    -0.488 C  
HETATM    8  C   UNL     1      -8.365  17.056  66.042  1.00  0.00    -0.180 A  
HETATM    9  C   UNL     1     -12.204  14.628  64.411  1.00  0.00    -0.473 C  
HETATM   10  C   UNL     1     -13.028  11.857  64.068  1.00  0.00    -0.181 C  
HETATM   11  H   UNL     1      -9.993  13.336  62.623  1.00  0.00     0.000 HD 
HETATM   12  C   UNL     1     -10.762  15.479  64.968  1.00  0.00    -0.463 C  
HETATM   13  C   UNL     1      -9.850  14.987  66.293  1.00  0.00    -0.307 C  
HETATM   14  C   UNL     1      -8.553  15.760  66.557  1.00  0.00    -0.343 A  
HETATM   15  C   UNL     1      -7.610  15.266  67.491  1.00  0.00    -0.212 A  
HETATM   16  C   UNL     1      -6.477  16.039  67.815  1.00  0.00    -0.178 A  
HETATM   17  C   UNL     1      -7.743  13.920  68.173  1.00  0.00    -0.142 C  
HETATM   18  C   UNL     1      -9.109  13.246  68.050  1.00  0.00    -0.202 C  
HETATM   19  C   UNL     1      -6.307  17.304  67.265  1.00  0.00    -0.152 A  
HETATM   20  C   UNL     1      -7.250  17.822  66.393  1.00  0.00    -0.308 A  
HETATM   21  C   UNL     1      -9.617  13.350  66.614  1.00  0.00    -0.272 C  
HETATM   22  O   UNL     1      -5.228  18.078  67.571  1.00  0.00    -0.134 OA 
ENDROOT
BRANCH   4  23
HETATM   23  C   UNL     1     -10.149  11.558  64.272  1.00  0.00    -0.338 C  
HETATM   24  C   UNL     1      -9.671  10.494  63.949  1.00  0.00    -0.384 C  
ENDBRANCH   4  23
TORSDOF 1
ENDMDL
MODEL       28
REMARK 921   NORMALIZED FREE ENERGY PREDICTED BY IDOCK:   -5.90 KCAL/MOL
REMARK 922        TOTAL FREE ENERGY PREDICTED BY IDOCK:   -6.26 KCAL/MOL
REMARK 923 INTER-LIGAND FREE ENERGY PREDICTED BY IDOCK:   -6.24 KCAL/MOL
REMARK 924 INTRA-LIGAND FREE ENERGY PREDICTED BY IDOCK:   -0.02 KCAL/MOL
REMARK 927      BINDING AFFINITY PREDICTED BY RF-SCORE:    0.00 PKD
ROOT
HETATM    1  C   UNL     1      -6.748  18.192  67.192  1.00  0.00    -0.205 C  
HETATM    2  C   UNL     1      -6.536  18.184  65.798  1.00  0.00    -0.311 C  
HETATM    3  C   UNL     1      -7.889  18.606  66.236  1.00  0.00    -0.288 C  
HETATM    4  C   UNL     1      -8.094  18.911  68.258  1.00  0.00    -0.320 C  
HETATM    5  H   UNL     1     -13.036  11.886  68.619  1.00  0.00     0.000 HD 
HETATM    6  O   UNL     1      -9.162  19.500  69.005  1.00  0.00    -0.364 OA 
HETATM    7  C   UNL     1      -7.798  19.831  67.294  1.00  0.00    -0.309 C  
HETATM    8  C   UNL     1     -11.509  15.390  67.694  1.00  0.00    -0.255 A  
HETATM    9  C   UNL     1      -9.622  19.750  66.839  1.00  0.00    -0.494 C  
HETATM   10  C   UNL     1      -7.138  21.174  67.362  1.00  0.00    -0.323 C  
HETATM   11  H   UNL     1      -9.257  19.641  69.940  1.00  0.00     0.000 HD 
HETATM   12  C   UNL     1     -10.295  18.163  67.216  1.00  0.00    -0.399 C  
HETATM   13  C   UNL     1      -9.402  16.739  67.151  1.00  0.00    -0.236 C  
HETATM   14  C   UNL     1     -10.104  15.467  67.641  1.00  0.00    -0.236 A  
HETATM   15  C   UNL     1      -9.359  14.281  67.851  1.00  0.00    -0.198 A  
HETATM   16  C   UNL     1     -10.028  13.086  68.187  1.00  0.00    -0.231 A  
HETATM   17  C   UNL     1      -7.850  14.218  67.744  1.00  0.00    -0.173 C  
HETATM   18  C   UNL     1      -7.181  15.424  67.084  1.00  0.00    -0.179 C  
HETATM   19  C   UNL     1     -11.415  13.053  68.260  1.00  0.00    -0.312 A  
HETATM   20  C   UNL     1     -12.159  14.193  68.002  1.00  0.00    -0.303 A  
HETATM   21  C   UNL     1      -7.786  16.718  67.624  1.00  0.00    -0.183 C  
HETATM   22  O   UNL     1     -12.088  11.908  68.569  1.00  0.00    -0.412 OA 
ENDROOT
BRANCH   4  23
HETATM   23  C   UNL     1      -6.981  19.047  69.330  1.00  0.00    -0.302 C  
HETATM   24  C   UNL     1      -6.150  19.133  70.205  1.00  0.00    -0.210 C  
ENDBRANCH   4  23
TORSDOF 1
ENDMDL
MODEL       29
REMARK 921   NORMALIZED FREE ENERGY PREDICTED BY IDOCK:   -5.88 KCAL/MOL
REMARK 922        TOTAL FREE ENERGY PREDICTED BY IDOCK:   -6.24 KCAL/MOL
REMARK 923 INTER-LIGAND FREE ENERGY PREDICTED BY IDOCK:   -6.22 KCAL/MOL
REMARK 924 INTRA-LIGAND FREE ENERGY PREDICTED BY IDOCK:   -0.01 KCAL/MOL
REMARK 927      BINDING AFFINITY PREDICTED BY RF-SCORE:    0.00 PKD
ROOT
HETATM    1  C   UNL     1      -8.582  19.685  67.070  1.00  0.00    -0.358 C  
HETATM    2  C   UNL     1      -9.470  20.020  68.113  1.00  0.00    -0.385 C  
HETATM    3  C   UNL     1      -8.433  19.016  68.455  1.00  0.00    -0.387 C  
HETATM    4  C   UNL     1      -6.964  18.764  67.039  1.00  0.00    -0.203 C  
HETATM    5  H   UNL     1     -10.197  10.980  65.349  1.00  0.00     0.000 HD 
HETATM    6  O   UNL     1      -5.724  18.055  67.103  1.00  0.00    -0.131 OA 
HETATM    7  C   UNL     1      -6.949  19.584  68.131  1.00  0.00    -0.314 C  
HETATM    8  C   UNL     1      -8.688  14.140  67.140  1.00  0.00    -0.239 A  
HETATM    9  C   UNL     1      -6.635  18.025  69.136  1.00  0.00    -0.253 C  
HETATM   10  C   UNL     1      -6.152  20.812  68.448  1.00  0.00    -0.379 C  
HETATM   11  H   UNL     1      -5.045  17.938  66.448  1.00  0.00     0.000 HD 
HETATM   12  C   UNL     1      -7.349  16.615  68.352  1.00  0.00    -0.190 C  
HETATM   13  C   UNL     1      -8.747  16.683  67.418  1.00  0.00    -0.202 C  
HETATM   14  C   UNL     1      -9.154  15.393  66.698  1.00  0.00    -0.310 A  
HETATM   15  C   UNL     1     -10.165  15.421  65.708  1.00  0.00    -0.378 A  
HETATM   16  C   UNL     1     -10.616  14.214  65.135  1.00  0.00    -0.414 A  
HETATM   17  C   UNL     1     -10.801  16.701  65.206  1.00  0.00    -0.194 C  
HETATM   18  C   UNL     1     -10.530  17.949  66.045  1.00  0.00    -0.293 C  
HETATM   19  C   UNL     1     -10.113  12.996  65.575  1.00  0.00    -0.259 A  
HETATM   20  C   UNL     1      -9.164  12.951  66.582  1.00  0.00    -0.222 A  
HETATM   21  C   UNL     1      -9.053  18.011  66.429  1.00  0.00    -0.251 C  
HETATM   22  O   UNL     1     -10.542  11.814  65.048  1.00  0.00    -0.267 OA 
ENDROOT
BRANCH   4  23
HETATM   23  C   UNL     1      -6.632  19.670  65.825  1.00  0.00    -0.264 C  
HETATM   24  C   UNL     1      -6.364  20.328  64.846  1.00  0.00    -0.331 C  
ENDBRANCH   4  23
TORSDOF 1
ENDMDL
MODEL       30
REMARK 921   NORMALIZED FREE ENERGY PREDICTED BY IDOCK:   -5.87 KCAL/MOL
REMARK 922        TOTAL FREE ENERGY PREDICTED BY IDOCK:   -6.23 KCAL/MOL
REMARK 923 INTER-LIGAND FREE ENERGY PREDICTED BY IDOCK:   -6.21 KCAL/MOL
REMARK 924 INTRA-LIGAND FREE ENERGY PREDICTED BY IDOCK:   -0.02 KCAL/MOL
REMARK 927      BINDING AFFINITY PREDICTED BY RF-SCORE:    0.00 PKD
ROOT
HETATM    1  C   UNL     1     -11.324  15.174  66.844  1.00  0.00    -0.264 C  
HETATM    2  C   UNL     1     -11.365  14.959  65.451  1.00  0.00    -0.346 C  
HETATM    3  C   UNL     1     -10.113  14.538  66.125  1.00  0.00    -0.319 C  
HETATM    4  C   UNL     1     -10.177  14.567  68.179  1.00  0.00    -0.230 C  
HETATM    5  H   UNL     1      -4.769  21.249  68.062  1.00  0.00     0.000 HD 
HETATM    6  O   UNL     1      -9.258  14.051  69.145  1.00  0.00    -0.393 OA 
HETATM    7  C   UNL     1     -10.427  13.517  67.344  1.00  0.00    -0.247 C  
HETATM    8  C   UNL     1      -6.449  17.735  67.516  1.00  0.00    -0.176 A  
HETATM    9  C   UNL     1      -8.561  13.413  67.128  1.00  0.00    -0.201 C  
HETATM   10  C   UNL     1     -11.196  12.246  67.539  1.00  0.00    -0.354 C  
HETATM   11  H   UNL     1      -9.287  14.065  70.095  1.00  0.00     0.000 HD 
HETATM   12  C   UNL     1      -7.814  14.998  67.331  1.00  0.00    -0.226 C  
HETATM   13  C   UNL     1      -8.576  16.441  66.922  1.00  0.00    -0.245 C  
HETATM   14  C   UNL     1      -7.839  17.734  67.290  1.00  0.00    -0.225 A  
HETATM   15  C   UNL     1      -8.506  18.980  67.208  1.00  0.00    -0.297 A  
HETATM   16  C   UNL     1      -7.790  20.172  67.433  1.00  0.00    -0.348 A  
HETATM   17  C   UNL     1      -9.982  19.112  66.894  1.00  0.00    -0.419 C  
HETATM   18  C   UNL     1     -10.661  17.854  66.353  1.00  0.00    -0.238 C  
HETATM   19  C   UNL     1      -6.423  20.135  67.683  1.00  0.00    -0.231 A  
HETATM   20  C   UNL     1      -5.747  18.927  67.711  1.00  0.00    -0.189 A  
HETATM   21  C   UNL     1     -10.231  16.636  67.167  1.00  0.00    -0.290 C  
HETATM   22  O   UNL     1      -5.704  21.274  67.891  1.00  0.00    -0.321 OA 
ENDROOT
BRANCH   4  23
HETATM   23  C   UNL     1     -11.418  14.680  69.102  1.00  0.00    -0.320 C  
HETATM   24  C   UNL     1     -12.351  14.776  69.867  1.00  0.00    -0.328 C  
ENDBRANCH   4  23
TORSDOF 1
ENDMDL
MODEL       31
REMARK 921   NORMALIZED FREE ENERGY PREDICTED BY IDOCK:   -5.82 KCAL/MOL
REMARK 922        TOTAL FREE ENERGY PREDICTED BY IDOCK:   -6.18 KCAL/MOL
REMARK 923 INTER-LIGAND FREE ENERGY PREDICTED BY IDOCK:   -6.16 KCAL/MOL
REMARK 924 INTRA-LIGAND FREE ENERGY PREDICTED BY IDOCK:   -0.02 KCAL/MOL
REMARK 927      BINDING AFFINITY PREDICTED BY RF-SCORE:    0.00 PKD
ROOT
HETATM    1  C   UNL     1     -11.427   7.722  71.792  1.00  0.00    -0.307 C  
HETATM    2  C   UNL     1     -12.740   7.230  71.644  1.00  0.00    -0.410 C  
HETATM    3  C   UNL     1     -11.764   6.762  70.630  1.00  0.00    -0.440 C  
HETATM    4  C   UNL     1      -9.803   7.231  71.026  1.00  0.00    -0.183 C  
HETATM    5  H   UNL     1     -10.001  12.772  64.457  1.00  0.00     0.000 HD 
HETATM    6  O   UNL     1      -8.597   6.786  70.400  1.00  0.00    -0.142 OA 
HETATM    7  C   UNL     1     -10.474   6.083  71.338  1.00  0.00    -0.282 C  
HETATM    8  C   UNL     1     -10.248   9.542  66.687  1.00  0.00    -0.310 A  
HETATM    9  C   UNL     1     -10.289   5.635  69.520  1.00  0.00    -0.345 C  
HETATM   10  C   UNL     1     -10.218   5.023  72.365  1.00  0.00    -0.254 C  
HETATM   11  H   UNL     1      -7.690   7.003  70.584  1.00  0.00     0.000 HD 
HETATM   12  C   UNL     1     -10.221   7.085  68.517  1.00  0.00    -0.183 C  
HETATM   13  C   UNL     1     -11.021   8.514  68.900  1.00  0.00     0.106 C  
HETATM   14  C   UNL     1     -10.745   9.719  67.992  1.00  0.00    -0.298 A  
HETATM   15  C   UNL     1     -11.177  11.011  68.376  1.00  0.00    -0.337 A  
HETATM   16  C   UNL     1     -11.025  12.092  67.485  1.00  0.00    -0.304 A  
HETATM   17  C   UNL     1     -11.800  11.312  69.724  1.00  0.00    -0.437 C  
HETATM   18  C   UNL     1     -12.237  10.096  70.540  1.00  0.00    -0.352 C  
HETATM   19  C   UNL     1     -10.503  11.887  66.213  1.00  0.00    -0.239 A  
HETATM   20  C   UNL     1     -10.128  10.619  65.805  1.00  0.00    -0.327 A  
HETATM   21  C   UNL     1     -11.152   9.022  70.500  1.00  0.00    -0.297 C  
HETATM   22  O   UNL     1     -10.358  12.913  65.327  1.00  0.00    -0.291 OA 
ENDROOT
BRANCH   4  23
HETATM   23  C   UNL     1      -9.183   7.734  72.356  1.00  0.00    -0.218 C  
HETATM   24  C   UNL     1      -8.652   8.144  73.363  1.00  0.00    -0.313 C  
ENDBRANCH   4  23
TORSDOF 1
ENDMDL
MODEL       32
REMARK 921   NORMALIZED FREE ENERGY PREDICTED BY IDOCK:   -5.80 KCAL/MOL
REMARK 922        TOTAL FREE ENERGY PREDICTED BY IDOCK:   -6.16 KCAL/MOL
REMARK 923 INTER-LIGAND FREE ENERGY PREDICTED BY IDOCK:   -6.19 KCAL/MOL
REMARK 924 INTRA-LIGAND FREE ENERGY PREDICTED BY IDOCK:    0.03 KCAL/MOL
REMARK 927      BINDING AFFINITY PREDICTED BY RF-SCORE:    0.00 PKD
ROOT
HETATM    1  C   UNL     1      -9.204  11.907  66.703  1.00  0.00    -0.206 C  
HETATM    2  C   UNL     1      -8.060  12.432  67.340  1.00  0.00    -0.177 C  
HETATM    3  C   UNL     1      -8.224  10.960  67.432  1.00  0.00    -0.117 C  
HETATM    4  C   UNL     1      -9.711  10.174  66.251  1.00  0.00    -0.218 C  
HETATM    5  H   UNL     1     -14.213   8.485  73.378  1.00  0.00     0.000 HD 
HETATM    6  O   UNL     1     -10.023   8.816  65.931  1.00  0.00    -0.466 OA 
HETATM    7  C   UNL     1      -8.384  10.303  65.959  1.00  0.00    -0.142 C  
HETATM    8  C   UNL     1     -11.391   8.674  70.644  1.00  0.00    -0.277 A  
HETATM    9  C   UNL     1      -8.124   8.826  67.096  1.00  0.00    -0.100 C  
HETATM   10  C   UNL     1      -7.646  10.341  64.656  1.00  0.00    -0.103 C  
HETATM   11  H   UNL     1     -10.710   8.452  65.385  1.00  0.00     0.000 HD 
HETATM   12  C   UNL     1      -9.366   8.768  68.347  1.00  0.00    -0.141 C  
HETATM   13  C   UNL     1     -10.099  10.139  68.990  1.00  0.00    -0.216 C  
HETATM   14  C   UNL     1     -11.254   9.902  69.970  1.00  0.00    -0.327 A  
HETATM   15  C   UNL     1     -12.080  10.982  70.367  1.00  0.00    -0.463 A  
HETATM   16  C   UNL     1     -13.064  10.782  71.356  1.00  0.00    -0.469 A  
HETATM   17  C   UNL     1     -11.974  12.371  69.772  1.00  0.00    -0.359 C  
HETATM   18  C   UNL     1     -10.719  12.644  68.944  1.00  0.00    -0.201 C  
HETATM   19  C   UNL     1     -13.192   9.547  71.981  1.00  0.00    -0.452 A  
HETATM   20  C   UNL     1     -12.353   8.499  71.642  1.00  0.00    -0.371 A  
HETATM   21  C   UNL     1     -10.439  11.467  68.013  1.00  0.00    -0.215 C  
HETATM   22  O   UNL     1     -14.125   9.330  72.951  1.00  0.00    -0.443 OA 
ENDROOT
BRANCH   4  23
HETATM   23  C   UNL     1     -10.470  10.851  65.081  1.00  0.00    -0.316 C  
HETATM   24  C   UNL     1     -11.019  11.365  64.132  1.00  0.00    -0.411 C  
ENDBRANCH   4  23
TORSDOF 1
ENDMDL
MODEL       33
REMARK 921   NORMALIZED FREE ENERGY PREDICTED BY IDOCK:   -5.74 KCAL/MOL
REMARK 922        TOTAL FREE ENERGY PREDICTED BY IDOCK:   -6.09 KCAL/MOL
REMARK 923 INTER-LIGAND FREE ENERGY PREDICTED BY IDOCK:   -6.08 KCAL/MOL
REMARK 924 INTRA-LIGAND FREE ENERGY PREDICTED BY IDOCK:   -0.01 KCAL/MOL
REMARK 927      BINDING AFFINITY PREDICTED BY RF-SCORE:    0.00 PKD
ROOT
HETATM    1  C   UNL     1     -11.548  12.242  67.307  1.00  0.00    -0.427 C  
HETATM    2  C   UNL     1     -11.728  12.247  65.908  1.00  0.00    -0.451 C  
HETATM    3  C   UNL     1     -10.330  12.074  66.372  1.00  0.00    -0.246 C  
HETATM    4  C   UNL     1     -10.114  11.760  68.392  1.00  0.00    -0.201 C  
HETATM    5  H   UNL     1      -6.588  19.573  69.036  1.00  0.00     0.000 HD 
HETATM    6  O   UNL     1      -8.972  11.362  69.153  1.00  0.00    -0.379 OA 
HETATM    7  C   UNL     1     -10.211  10.826  67.400  1.00  0.00    -0.241 C  
HETATM    8  C   UNL     1      -7.410  15.871  67.995  1.00  0.00    -0.140 A  
HETATM    9  C   UNL     1      -8.425  11.259  66.996  1.00  0.00    -0.150 C  
HETATM   10  C   UNL     1     -10.609   9.382  67.422  1.00  0.00    -0.326 C  
HETATM   11  H   UNL     1      -8.872  11.216  70.087  1.00  0.00     0.000 HD 
HETATM   12  C   UNL     1      -8.071  12.934  67.424  1.00  0.00    -0.181 C  
HETATM   13  C   UNL     1      -9.214  14.166  67.367  1.00  0.00    -0.204 C  
HETATM   14  C   UNL     1      -8.774  15.534  67.903  1.00  0.00    -0.163 A  
HETATM   15  C   UNL     1      -9.733  16.554  68.119  1.00  0.00    -0.234 A  
HETATM   16  C   UNL     1      -9.308  17.843  68.498  1.00  0.00    -0.299 A  
HETATM   17  C   UNL     1     -11.224  16.335  67.974  1.00  0.00    -0.260 C  
HETATM   18  C   UNL     1     -11.641  15.043  67.271  1.00  0.00    -0.285 C  
HETATM   19  C   UNL     1      -7.953  18.133  68.608  1.00  0.00    -0.288 A  
HETATM   20  C   UNL     1      -7.004  17.161  68.345  1.00  0.00    -0.195 A  
HETATM   21  C   UNL     1     -10.815  13.872  67.797  1.00  0.00    -0.261 C  
HETATM   22  O   UNL     1      -7.515  19.375  68.960  1.00  0.00    -0.358 OA 
ENDROOT
BRANCH   4  23
HETATM   23  C   UNL     1     -11.205  11.389  69.430  1.00  0.00    -0.333 C  
HETATM   24  C   UNL     1     -12.040  11.147  70.271  1.00  0.00    -0.462 C  
ENDBRANCH   4  23
TORSDOF 1
ENDMDL
MODEL       34
REMARK 921   NORMALIZED FREE ENERGY PREDICTED BY IDOCK:   -5.69 KCAL/MOL
REMARK 922        TOTAL FREE ENERGY PREDICTED BY IDOCK:   -6.04 KCAL/MOL
REMARK 923 INTER-LIGAND FREE ENERGY PREDICTED BY IDOCK:   -6.06 KCAL/MOL
REMARK 924 INTRA-LIGAND FREE ENERGY PREDICTED BY IDOCK:    0.02 KCAL/MOL
REMARK 927      BINDING AFFINITY PREDICTED BY RF-SCORE:    0.00 PKD
ROOT
HETATM    1  C   UNL     1      -8.781  11.662  66.513  1.00  0.00    -0.182 C  
HETATM    2  C   UNL     1      -7.509  11.795  67.108  1.00  0.00    -0.149 C  
HETATM    3  C   UNL     1      -8.302  10.623  67.553  1.00  0.00    -0.115 C  
HETATM    4  C   UNL     1     -10.009  10.264  66.466  1.00  0.00    -0.224 C  
HETATM    5  H   UNL     1     -14.635  12.679  73.298  1.00  0.00     0.000 HD 
HETATM    6  O   UNL     1     -10.894   9.141  66.470  1.00  0.00    -0.013 OA 
HETATM    7  C   UNL     1      -8.768   9.725  66.286  1.00  0.00    -0.152 C  
HETATM    8  C   UNL     1     -12.080  10.888  70.904  1.00  0.00    -0.455 A  
HETATM    9  C   UNL     1      -9.159   8.651  67.780  1.00  0.00    -0.143 C  
HETATM   10  C   UNL     1      -8.118   9.087  65.097  1.00  0.00    -0.130 C  
HETATM   11  H   UNL     1     -11.683   8.975  65.968  1.00  0.00     0.000 HD 
HETATM   12  C   UNL     1     -10.273   9.474  68.874  1.00  0.00    -0.213 C  
HETATM   13  C   UNL     1     -10.312  11.144  69.071  1.00  0.00    -0.214 C  
HETATM   14  C   UNL     1     -11.431  11.703  69.958  1.00  0.00    -0.266 A  
HETATM   15  C   UNL     1     -11.687  13.095  69.983  1.00  0.00    -0.291 A  
HETATM   16  C   UNL     1     -12.637  13.614  70.887  1.00  0.00    -0.421 A  
HETATM   17  C   UNL     1     -10.994  14.085  69.069  1.00  0.00    -0.287 C  
HETATM   18  C   UNL     1      -9.766  13.556  68.330  1.00  0.00    -0.224 C  
HETATM   19  C   UNL     1     -13.282  12.776  71.788  1.00  0.00    -0.374 A  
HETATM   20  C   UNL     1     -12.999  11.420  71.812  1.00  0.00    -0.519 A  
HETATM   21  C   UNL     1     -10.054  12.169  67.760  1.00  0.00    -0.203 C  
HETATM   22  O   UNL     1     -14.194  13.253  72.682  1.00  0.00    -0.724 OA 
ENDROOT
BRANCH   4  23
HETATM   23  C   UNL     1     -10.418  10.855  65.092  1.00  0.00    -0.316 C  
HETATM   24  C   UNL     1     -10.720  11.267  63.995  1.00  0.00    -0.444 C  
ENDBRANCH   4  23
TORSDOF 1
ENDMDL
MODEL       35
REMARK 921   NORMALIZED FREE ENERGY PREDICTED BY IDOCK:   -5.67 KCAL/MOL
REMARK 922        TOTAL FREE ENERGY PREDICTED BY IDOCK:   -6.02 KCAL/MOL
REMARK 923 INTER-LIGAND FREE ENERGY PREDICTED BY IDOCK:   -6.00 KCAL/MOL
REMARK 924 INTRA-LIGAND FREE ENERGY PREDICTED BY IDOCK:   -0.02 KCAL/MOL
REMARK 927      BINDING AFFINITY PREDICTED BY RF-SCORE:    0.00 PKD
ROOT
HETATM    1  C   UNL     1     -11.979  13.860  67.141  1.00  0.00    -0.455 C  
HETATM    2  C   UNL     1     -12.036  14.906  68.085  1.00  0.00    -0.234 C  
HETATM    3  C   UNL     1     -10.682  14.578  67.576  1.00  0.00    -0.276 C  
HETATM    4  C   UNL     1     -10.641  13.276  65.987  1.00  0.00    -0.286 C  
HETATM    5  H   UNL     1      -7.261   7.329  71.194  1.00  0.00     0.000 HD 
HETATM    6  O   UNL     1      -9.565  12.895  65.125  1.00  0.00    -0.486 OA 
HETATM    7  C   UNL     1     -10.641  14.641  65.957  1.00  0.00    -0.314 C  
HETATM    8  C   UNL     1      -7.953  10.632  69.173  1.00  0.00    -0.139 A  
HETATM    9  C   UNL     1      -8.831  14.524  66.458  1.00  0.00    -0.156 C  
HETATM   10  C   UNL     1     -11.025  15.617  64.888  1.00  0.00    -0.447 C  
HETATM   11  H   UNL     1      -9.545  12.294  64.390  1.00  0.00     0.000 HD 
HETATM   12  C   UNL     1      -8.532  13.062  67.401  1.00  0.00    -0.200 C  
HETATM   13  C   UNL     1      -9.678  12.363  68.414  1.00  0.00    -0.189 C  
HETATM   14  C   UNL     1      -9.300  11.022  69.053  1.00  0.00    -0.105 A  
HETATM   15  C   UNL     1     -10.284  10.249  69.717  1.00  0.00    -0.262 A  
HETATM   16  C   UNL     1      -9.906   9.077  70.403  1.00  0.00    -0.242 A  
HETATM   17  C   UNL     1     -11.755  10.610  69.727  1.00  0.00    -0.385 C  
HETATM   18  C   UNL     1     -12.095  12.023  69.255  1.00  0.00    -0.249 C  
HETATM   19  C   UNL     1      -8.569   8.705  70.476  1.00  0.00    -0.156 A  
HETATM   20  C   UNL     1      -7.591   9.482  69.879  1.00  0.00    -0.123 A  
HETATM   21  C   UNL     1     -11.308  12.356  67.990  1.00  0.00    -0.340 C  
HETATM   22  O   UNL     1      -8.176   7.584  71.144  1.00  0.00    -0.099 OA 
ENDROOT
BRANCH   4  23
HETATM   23  C   UNL     1     -11.814  12.831  65.075  1.00  0.00    -0.423 C  
HETATM   24  C   UNL     1     -12.698  12.439  64.348  1.00  0.00    -0.434 C  
ENDBRANCH   4  23
TORSDOF 1
ENDMDL
MODEL       36
REMARK 921   NORMALIZED FREE ENERGY PREDICTED BY IDOCK:   -5.66 KCAL/MOL
REMARK 922        TOTAL FREE ENERGY PREDICTED BY IDOCK:   -6.00 KCAL/MOL
REMARK 923 INTER-LIGAND FREE ENERGY PREDICTED BY IDOCK:   -6.03 KCAL/MOL
REMARK 924 INTRA-LIGAND FREE ENERGY PREDICTED BY IDOCK:    0.02 KCAL/MOL
REMARK 927      BINDING AFFINITY PREDICTED BY RF-SCORE:    0.00 PKD
ROOT
HETATM    1  C   UNL     1      -8.911   8.530  67.925  1.00  0.00    -0.137 C  
HETATM    2  C   UNL     1      -9.851   7.479  67.933  1.00  0.00    -0.185 C  
HETATM    3  C   UNL     1      -9.288   7.822  66.604  1.00  0.00    -0.238 C  
HETATM    4  C   UNL     1      -7.705   9.132  66.641  1.00  0.00    -0.097 C  
HETATM    5  H   UNL     1     -12.798  15.084  63.101  1.00  0.00     0.000 HD 
HETATM    6  O   UNL     1      -6.801   9.526  65.605  1.00  0.00    -0.082 OA 
HETATM    7  C   UNL     1      -7.668   7.767  66.631  1.00  0.00    -0.098 C  
HETATM    8  C   UNL     1     -10.791  11.785  63.847  1.00  0.00    -0.468 A  
HETATM    9  C   UNL     1      -8.094   7.899  64.803  1.00  0.00    -0.141 C  
HETATM   10  C   UNL     1      -6.611   6.792  67.050  1.00  0.00    -0.044 C  
HETATM   11  H   UNL     1      -6.069  10.132  65.622  1.00  0.00     0.000 HD 
HETATM   12  C   UNL     1      -9.031   9.358  64.477  1.00  0.00    -0.227 C  
HETATM   13  C   UNL     1     -10.095  10.042  65.586  1.00  0.00    -0.321 C  
HETATM   14  C   UNL     1     -10.725  11.383  65.194  1.00  0.00    -0.332 A  
HETATM   15  C   UNL     1     -11.433  12.143  66.156  1.00  0.00    -0.429 A  
HETATM   16  C   UNL     1     -12.108  13.316  65.761  1.00  0.00    -0.491 A  
HETATM   17  C   UNL     1     -11.502  11.770  67.623  1.00  0.00    -0.370 C  
HETATM   18  C   UNL     1     -11.037  10.356  67.970  1.00  0.00    -0.359 C  
HETATM   19  C   UNL     1     -12.128  13.700  64.426  1.00  0.00    -0.427 A  
HETATM   20  C   UNL     1     -11.487  12.935  63.466  1.00  0.00    -0.470 A  
HETATM   21  C   UNL     1      -9.739  10.036  67.232  1.00  0.00    -0.206 C  
HETATM   22  O   UNL     1     -12.785  14.822  64.015  1.00  0.00    -0.786 OA 
ENDROOT
BRANCH   4  23
HETATM   23  C   UNL     1      -6.845   9.570  67.855  1.00  0.00    -0.074 C  
HETATM   24  C   UNL     1      -6.136   9.872  68.788  1.00  0.00    -0.041 C  
ENDBRANCH   4  23
TORSDOF 1
ENDMDL
MODEL       37
REMARK 921   NORMALIZED FREE ENERGY PREDICTED BY IDOCK:   -5.65 KCAL/MOL
REMARK 922        TOTAL FREE ENERGY PREDICTED BY IDOCK:   -6.00 KCAL/MOL
REMARK 923 INTER-LIGAND FREE ENERGY PREDICTED BY IDOCK:   -5.98 KCAL/MOL
REMARK 924 INTRA-LIGAND FREE ENERGY PREDICTED BY IDOCK:   -0.02 KCAL/MOL
REMARK 927      BINDING AFFINITY PREDICTED BY RF-SCORE:    0.00 PKD
ROOT
HETATM    1  C   UNL     1      -9.670   8.624  68.143  1.00  0.00    -0.178 C  
HETATM    2  C   UNL     1     -10.632   8.009  67.316  1.00  0.00    -0.360 C  
HETATM    3  C   UNL     1     -10.355   9.436  67.021  1.00  0.00    -0.322 C  
HETATM    4  C   UNL     1      -8.744  10.234  68.016  1.00  0.00    -0.122 C  
HETATM    5  H   UNL     1     -14.209  14.975  72.660  1.00  0.00     0.000 HD 
HETATM    6  O   UNL     1      -8.069  11.482  67.841  1.00  0.00    -0.120 OA 
HETATM    7  C   UNL     1      -8.772   9.678  66.770  1.00  0.00    -0.144 C  
HETATM    8  C   UNL     1     -12.238  13.285  69.705  1.00  0.00    -0.285 A  
HETATM    9  C   UNL     1      -9.576  11.284  66.212  1.00  0.00    -0.235 C  
HETATM   10  C   UNL     1      -7.694   9.084  65.916  1.00  0.00    -0.094 C  
HETATM   11  H   UNL     1      -7.324  11.852  68.301  1.00  0.00     0.000 HD 
HETATM   12  C   UNL     1     -10.495  12.019  67.527  1.00  0.00    -0.234 C  
HETATM   13  C   UNL     1     -11.263  11.129  68.731  1.00  0.00    -0.314 C  
HETATM   14  C   UNL     1     -11.901  11.929  69.872  1.00  0.00    -0.418 A  
HETATM   15  C   UNL     1     -12.350  11.265  71.040  1.00  0.00    -0.472 A  
HETATM   16  C   UNL     1     -13.041  11.988  72.033  1.00  0.00    -0.456 A  
HETATM   17  C   UNL     1     -12.117   9.791  71.298  1.00  0.00    -0.470 C  
HETATM   18  C   UNL     1     -11.652   8.972  70.094  1.00  0.00    -0.007 C  
HETATM   19  C   UNL     1     -13.332  13.335  71.848  1.00  0.00    -0.451 A  
HETATM   20  C   UNL     1     -12.948  13.983  70.686  1.00  0.00    -0.261 A  
HETATM   21  C   UNL     1     -10.560   9.725  69.339  1.00  0.00    -0.248 C  
HETATM   22  O   UNL     1     -14.011  14.054  72.786  1.00  0.00    -0.669 OA 
ENDROOT
BRANCH   4  23
HETATM   23  C   UNL     1      -7.624   9.490  68.788  1.00  0.00    -0.076 C  
HETATM   24  C   UNL     1      -6.745   8.955  69.425  1.00  0.00    -0.048 C  
ENDBRANCH   4  23
TORSDOF 1
ENDMDL
MODEL       38
REMARK 921   NORMALIZED FREE ENERGY PREDICTED BY IDOCK:   -5.63 KCAL/MOL
REMARK 922        TOTAL FREE ENERGY PREDICTED BY IDOCK:   -5.98 KCAL/MOL
REMARK 923 INTER-LIGAND FREE ENERGY PREDICTED BY IDOCK:   -5.97 KCAL/MOL
REMARK 924 INTRA-LIGAND FREE ENERGY PREDICTED BY IDOCK:   -0.01 KCAL/MOL
REMARK 927      BINDING AFFINITY PREDICTED BY RF-SCORE:    0.00 PKD
ROOT
HETATM    1  C   UNL     1      -8.496  17.343  69.073  1.00  0.00    -0.056 C  
HETATM    2  C   UNL     1      -7.366  16.565  69.401  1.00  0.00    -0.123 C  
HETATM    3  C   UNL     1      -7.500  16.923  67.968  1.00  0.00    -0.177 C  
HETATM    4  C   UNL     1      -8.965  18.303  67.549  1.00  0.00    -0.253 C  
HETATM    5  H   UNL     1     -13.467  12.070  63.704  1.00  0.00     0.000 HD 
HETATM    6  O   UNL     1      -9.247  19.022  66.345  1.00  0.00    -0.328 OA 
HETATM    7  C   UNL     1      -7.639  18.528  67.783  1.00  0.00    -0.243 C  
HETATM    8  C   UNL     1     -10.636  14.587  64.761  1.00  0.00    -0.401 A  
HETATM    9  C   UNL     1      -7.354  17.888  66.037  1.00  0.00    -0.306 C  
HETATM   10  C   UNL     1      -6.896  19.751  68.227  1.00  0.00    -0.326 C  
HETATM   11  H   UNL     1      -9.924  19.660  66.152  1.00  0.00     0.000 HD 
HETATM   12  C   UNL     1      -8.602  16.727  65.581  1.00  0.00     0.485 C  
HETATM   13  C   UNL     1      -9.365  15.707  66.680  1.00  0.00    -0.291 C  
HETATM   14  C   UNL     1     -10.521  14.857  66.138  1.00  0.00    -0.313 A  
HETATM   15  C   UNL     1     -11.370  14.162  67.032  1.00  0.00    -0.346 A  
HETATM   16  C   UNL     1     -12.355  13.290  66.524  1.00  0.00    -0.311 A  
HETATM   17  C   UNL     1     -11.290  14.308  68.537  1.00  0.00    -0.309 C  
HETATM   18  C   UNL     1     -10.037  15.001  69.071  1.00  0.00    -0.241 C  
HETATM   19  C   UNL     1     -12.461  13.069  65.156  1.00  0.00    -0.496 A  
HETATM   20  C   UNL     1     -11.599  13.700  64.275  1.00  0.00    -0.413 A  
HETATM   21  C   UNL     1      -9.728  16.241  68.235  1.00  0.00    -0.222 C  
HETATM   22  O   UNL     1     -13.395  12.221  64.640  1.00  0.00    -0.717 OA 
ENDROOT
BRANCH   4  23
HETATM   23  C   UNL     1      -9.732  19.223  68.534  1.00  0.00    -0.481 C  
HETATM   24  C   UNL     1     -10.380  19.917  69.285  1.00  0.00    -0.099 C  
ENDBRANCH   4  23
TORSDOF 1
ENDMDL
MODEL       39
REMARK 921   NORMALIZED FREE ENERGY PREDICTED BY IDOCK:   -5.62 KCAL/MOL
REMARK 922        TOTAL FREE ENERGY PREDICTED BY IDOCK:   -5.97 KCAL/MOL
REMARK 923 INTER-LIGAND FREE ENERGY PREDICTED BY IDOCK:   -5.99 KCAL/MOL
REMARK 924 INTRA-LIGAND FREE ENERGY PREDICTED BY IDOCK:    0.03 KCAL/MOL
REMARK 927      BINDING AFFINITY PREDICTED BY RF-SCORE:    0.00 PKD
ROOT
HETATM    1  C   UNL     1      -8.583   6.897  66.723  1.00  0.00    -0.120 C  
HETATM    2  C   UNL     1      -7.304   7.274  67.182  1.00  0.00    -0.094 C  
HETATM    3  C   UNL     1      -8.441   7.722  68.022  1.00  0.00    -0.123 C  
HETATM    4  C   UNL     1     -10.264   6.915  67.523  1.00  0.00    -0.194 C  
HETATM    5  H   UNL     1     -12.704  14.662  64.707  1.00  0.00     0.000 HD 
HETATM    6  O   UNL     1     -11.516   6.952  68.211  1.00  0.00    -0.524 OA 
HETATM    7  C   UNL     1      -9.371   6.466  68.453  1.00  0.00    -0.121 C  
HETATM    8  C   UNL     1     -11.378  11.685  66.908  1.00  0.00    -0.364 A  
HETATM    9  C   UNL     1      -9.981   7.882  69.532  1.00  0.00    -0.189 C  
HETATM   10  C   UNL     1      -9.175   5.121  69.083  1.00  0.00    -0.150 C  
HETATM   11  H   UNL     1     -12.359   6.579  67.980  1.00  0.00     0.000 HD 
HETATM   12  C   UNL     1     -10.537   9.233  68.542  1.00  0.00    -0.222 C  
HETATM   13  C   UNL     1      -9.882   9.612  67.040  1.00  0.00    -0.249 C  
HETATM   14  C   UNL     1     -10.572  10.733  66.254  1.00  0.00    -0.257 A  
HETATM   15  C   UNL     1     -10.247  10.951  64.893  1.00  0.00    -0.381 A  
HETATM   16  C   UNL     1     -10.797  12.055  64.212  1.00  0.00    -0.389 A  
HETATM   17  C   UNL     1      -9.328  10.042  64.103  1.00  0.00    -0.335 C  
HETATM   18  C   UNL     1      -8.509   9.048  64.927  1.00  0.00    -0.195 C  
HETATM   19  C   UNL     1     -11.612  12.960  64.881  1.00  0.00    -0.327 A  
HETATM   20  C   UNL     1     -11.894  12.789  66.226  1.00  0.00    -0.485 A  
HETATM   21  C   UNL     1      -9.392   8.393  65.986  1.00  0.00    -0.244 C  
HETATM   22  O   UNL     1     -12.146  14.043  64.249  1.00  0.00    -0.445 OA 
ENDROOT
BRANCH   4  23
HETATM   23  C   UNL     1     -10.561   5.703  66.602  1.00  0.00    -0.361 C  
HETATM   24  C   UNL     1     -10.770   4.787  65.839  1.00  0.00    -0.225 C  
ENDBRANCH   4  23
TORSDOF 1
ENDMDL
MODEL       40
REMARK 921   NORMALIZED FREE ENERGY PREDICTED BY IDOCK:   -5.58 KCAL/MOL
REMARK 922        TOTAL FREE ENERGY PREDICTED BY IDOCK:   -5.92 KCAL/MOL
REMARK 923 INTER-LIGAND FREE ENERGY PREDICTED BY IDOCK:   -5.97 KCAL/MOL
REMARK 924 INTRA-LIGAND FREE ENERGY PREDICTED BY IDOCK:    0.05 KCAL/MOL
REMARK 927      BINDING AFFINITY PREDICTED BY RF-SCORE:    0.00 PKD
ROOT
HETATM    1  C   UNL     1     -10.313  13.618  65.867  1.00  0.00    -0.304 C  
HETATM    2  C   UNL     1     -11.493  13.725  65.102  1.00  0.00    -0.329 C  
HETATM    3  C   UNL     1     -11.670  13.199  66.477  1.00  0.00    -0.433 C  
HETATM    4  C   UNL     1     -10.010  13.334  67.682  1.00  0.00    -0.229 C  
HETATM    5  H   UNL     1      -9.287   4.775  67.319  1.00  0.00     0.000 HD 
HETATM    6  O   UNL     1      -9.863  13.122  69.089  1.00  0.00    -0.391 OA 
HETATM    7  C   UNL     1     -11.045  14.218  67.572  1.00  0.00    -0.309 C  
HETATM    8  C   UNL     1     -10.627   8.438  67.827  1.00  0.00    -0.238 A  
HETATM    9  C   UNL     1     -12.033  12.990  68.599  1.00  0.00    -0.298 C  
HETATM   10  C   UNL     1     -11.154  15.675  67.900  1.00  0.00    -0.324 C  
HETATM   11  H   UNL     1      -9.096  13.185  69.646  1.00  0.00     0.000 HD 
HETATM   12  C   UNL     1     -11.458  11.343  68.337  1.00  0.00    -0.367 C  
HETATM   13  C   UNL     1     -10.808  10.809  66.881  1.00  0.00    -0.288 C  
HETATM   14  C   UNL     1     -10.232   9.388  66.867  1.00  0.00    -0.318 A  
HETATM   15  C   UNL     1      -9.453   8.949  65.769  1.00  0.00    -0.272 A  
HETATM   16  C   UNL     1      -9.027   7.607  65.708  1.00  0.00    -0.095 A  
HETATM   17  C   UNL     1      -9.032   9.857  64.633  1.00  0.00    -0.260 C  
HETATM   18  C   UNL     1      -9.752  11.203  64.558  1.00  0.00    -0.310 C  
HETATM   19  C   UNL     1      -9.411   6.701  66.689  1.00  0.00    -0.164 A  
HETATM   20  C   UNL     1     -10.219   7.105  67.739  1.00  0.00    -0.234 A  
HETATM   21  C   UNL     1      -9.843  11.827  65.948  1.00  0.00    -0.265 C  
HETATM   22  O   UNL     1      -9.024   5.394  66.647  1.00  0.00    -0.114 OA 
ENDROOT
BRANCH   4  23
HETATM   23  C   UNL     1      -8.719  14.162  67.453  1.00  0.00    -0.217 C  
HETATM   24  C   UNL     1      -7.731  14.821  67.222  1.00  0.00    -0.214 C  
ENDBRANCH   4  23
TORSDOF 1
ENDMDL
MODEL       41
REMARK 921   NORMALIZED FREE ENERGY PREDICTED BY IDOCK:   -5.57 KCAL/MOL
REMARK 922        TOTAL FREE ENERGY PREDICTED BY IDOCK:   -5.91 KCAL/MOL
REMARK 923 INTER-LIGAND FREE ENERGY PREDICTED BY IDOCK:   -5.94 KCAL/MOL
REMARK 924 INTRA-LIGAND FREE ENERGY PREDICTED BY IDOCK:    0.03 KCAL/MOL
REMARK 927      BINDING AFFINITY PREDICTED BY RF-SCORE:    0.00 PKD
ROOT
HETATM    1  C   UNL     1      -8.781  12.148  67.192  1.00  0.00    -0.190 C  
HETATM    2  C   UNL     1      -9.118  11.393  66.050  1.00  0.00    -0.218 C  
HETATM    3  C   UNL     1     -10.265  11.896  66.845  1.00  0.00    -0.233 C  
HETATM    4  C   UNL     1      -9.779  13.244  68.319  1.00  0.00    -0.225 C  
HETATM    5  H   UNL     1     -11.735   7.256  74.169  1.00  0.00     0.000 HD 
HETATM    6  O   UNL     1     -10.613  14.074  69.130  1.00  0.00    -0.335 OA 
HETATM    7  C   UNL     1     -10.174  13.504  67.038  1.00  0.00    -0.249 C  
HETATM    8  C   UNL     1     -11.857   9.774  71.150  1.00  0.00    -0.466 A  
HETATM    9  C   UNL     1     -11.909  13.068  67.623  1.00  0.00    -0.401 C  
HETATM   10  C   UNL     1      -9.996  14.705  66.161  1.00  0.00    -0.323 C  
HETATM   11  H   UNL     1     -10.388  14.697  69.812  1.00  0.00     0.000 HD 
HETATM   12  C   UNL     1     -11.853  11.906  68.949  1.00  0.00    -0.366 C  
HETATM   13  C   UNL     1     -10.651  10.740  69.110  1.00  0.00    -0.254 C  
HETATM   14  C   UNL     1     -10.677   9.901  70.392  1.00  0.00    -0.379 A  
HETATM   15  C   UNL     1      -9.576   9.074  70.723  1.00  0.00    -0.308 A  
HETATM   16  C   UNL     1      -9.655   8.218  71.839  1.00  0.00    -0.288 A  
HETATM   17  C   UNL     1      -8.281   9.062  69.936  1.00  0.00    -0.124 C  
HETATM   18  C   UNL     1      -8.327   9.751  68.573  1.00  0.00    -0.110 C  
HETATM   19  C   UNL     1     -10.826   8.139  72.584  1.00  0.00    -0.359 A  
HETATM   20  C   UNL     1     -11.930   8.900  72.238  1.00  0.00    -0.380 A  
HETATM   21  C   UNL     1      -9.058  11.087  68.685  1.00  0.00    -0.174 C  
HETATM   22  O   UNL     1     -10.934   7.309  73.659  1.00  0.00    -0.294 OA 
ENDROOT
BRANCH   4  23
HETATM   23  C   UNL     1      -8.449  14.016  68.517  1.00  0.00    -0.143 C  
HETATM   24  C   UNL     1      -7.427  14.654  68.628  1.00  0.00    -0.125 C  
ENDBRANCH   4  23
TORSDOF 1
ENDMDL
MODEL       42
REMARK 921   NORMALIZED FREE ENERGY PREDICTED BY IDOCK:   -5.56 KCAL/MOL
REMARK 922        TOTAL FREE ENERGY PREDICTED BY IDOCK:   -5.90 KCAL/MOL
REMARK 923 INTER-LIGAND FREE ENERGY PREDICTED BY IDOCK:   -5.90 KCAL/MOL
REMARK 924 INTRA-LIGAND FREE ENERGY PREDICTED BY IDOCK:   -0.01 KCAL/MOL
REMARK 927      BINDING AFFINITY PREDICTED BY RF-SCORE:    0.00 PKD
ROOT
HETATM    1  C   UNL     1     -10.469   9.984  67.281  1.00  0.00    -0.313 C  
HETATM    2  C   UNL     1     -10.222   9.373  66.034  1.00  0.00    -0.204 C  
HETATM    3  C   UNL     1      -9.083  10.127  66.613  1.00  0.00    -0.164 C  
HETATM    4  C   UNL     1      -9.346  10.747  68.555  1.00  0.00    -0.174 C  
HETATM    5  H   UNL     1      -9.838  18.840  65.697  1.00  0.00     0.000 HD 
HETATM    6  O   UNL     1      -8.416  11.307  69.486  1.00  0.00    -0.340 OA 
HETATM    7  C   UNL     1      -8.746   9.605  68.111  1.00  0.00    -0.119 C  
HETATM    8  C   UNL     1      -8.665  15.164  66.457  1.00  0.00    -0.280 A  
HETATM    9  C   UNL     1      -7.283  10.701  67.666  1.00  0.00    -0.089 C  
HETATM   10  C   UNL     1      -8.478   8.291  68.779  1.00  0.00    -0.125 C  
HETATM   11  H   UNL     1      -8.538  11.594  70.383  1.00  0.00     0.000 HD 
HETATM   12  C   UNL     1      -7.816  12.339  67.284  1.00  0.00    -0.171 C  
HETATM   13  C   UNL     1      -9.305  12.689  66.584  1.00  0.00    -0.236 C  
HETATM   14  C   UNL     1      -9.665  14.173  66.446  1.00  0.00    -0.313 A  
HETATM   15  C   UNL     1     -10.984  14.554  66.098  1.00  0.00    -0.322 A  
HETATM   16  C   UNL     1     -11.278  15.911  65.857  1.00  0.00     0.065 A  
HETATM   17  C   UNL     1     -12.128  13.569  65.977  1.00  0.00    -0.489 C  
HETATM   18  C   UNL     1     -11.732  12.093  65.934  1.00  0.00    -0.393 C  
HETATM   19  C   UNL     1     -10.272  16.868  65.906  1.00  0.00    -0.314 A  
HETATM   20  C   UNL     1      -8.967  16.501  66.189  1.00  0.00    -0.344 A  
HETATM   21  C   UNL     1     -10.676  11.804  66.999  1.00  0.00    -0.286 C  
HETATM   22  O   UNL     1     -10.527  18.185  65.663  1.00  0.00    -0.626 OA 
ENDROOT
BRANCH   4  23
HETATM   23  C   UNL     1     -10.423  10.292  69.574  1.00  0.00    -0.268 C  
HETATM   24  C   UNL     1     -11.283   9.991  70.371  1.00  0.00    -0.393 C  
ENDBRANCH   4  23
TORSDOF 1
ENDMDL
MODEL       43
REMARK 921   NORMALIZED FREE ENERGY PREDICTED BY IDOCK:   -5.52 KCAL/MOL
REMARK 922        TOTAL FREE ENERGY PREDICTED BY IDOCK:   -5.87 KCAL/MOL
REMARK 923 INTER-LIGAND FREE ENERGY PREDICTED BY IDOCK:   -5.85 KCAL/MOL
REMARK 924 INTRA-LIGAND FREE ENERGY PREDICTED BY IDOCK:   -0.02 KCAL/MOL
REMARK 927      BINDING AFFINITY PREDICTED BY RF-SCORE:    0.00 PKD
ROOT
HETATM    1  C   UNL     1      -9.592  13.379  65.267  1.00  0.00     0.139 C  
HETATM    2  C   UNL     1     -10.062  12.553  64.225  1.00  0.00    -0.298 C  
HETATM    3  C   UNL     1     -11.089  13.001  65.197  1.00  0.00    -0.317 C  
HETATM    4  C   UNL     1     -10.463  14.441  66.522  1.00  0.00    -0.289 C  
HETATM    5  H   UNL     1     -10.866   8.573  72.792  1.00  0.00     0.000 HD 
HETATM    6  O   UNL     1     -11.207  15.239  67.447  1.00  0.00    -0.327 OA 
HETATM    7  C   UNL     1     -11.097  14.617  65.326  1.00  0.00    -0.363 C  
HETATM    8  C   UNL     1     -11.721  10.946  69.774  1.00  0.00    -0.413 A  
HETATM    9  C   UNL     1     -12.660  14.076  66.222  1.00  0.00    -0.352 C  
HETATM   10  C   UNL     1     -11.175  15.790  64.398  1.00  0.00    -0.249 C  
HETATM   11  H   UNL     1     -10.918  15.906  68.059  1.00  0.00     0.000 HD 
HETATM   12  C   UNL     1     -12.278  12.978  67.549  1.00  0.00    -0.127 C  
HETATM   13  C   UNL     1     -10.975  11.914  67.525  1.00  0.00    -0.299 C  
HETATM   14  C   UNL     1     -10.707  11.130  68.815  1.00  0.00    -0.236 A  
HETATM   15  C   UNL     1      -9.501  10.404  68.967  1.00  0.00    -0.205 A  
HETATM   16  C   UNL     1      -9.313   9.591  70.103  1.00  0.00    -0.286 A  
HETATM   17  C   UNL     1      -8.368  10.457  67.963  1.00  0.00    -0.118 C  
HETATM   18  C   UNL     1      -8.708  11.083  66.611  1.00  0.00    -0.160 C  
HETATM   19  C   UNL     1     -10.324   9.456  71.046  1.00  0.00    -0.312 A  
HETATM   20  C   UNL     1     -11.530  10.116  70.881  1.00  0.00    -0.444 A  
HETATM   21  C   UNL     1      -9.515  12.363  66.815  1.00  0.00    -0.228 C  
HETATM   22  O   UNL     1     -10.174   8.665  72.147  1.00  0.00    -0.306 OA 
ENDROOT
BRANCH   4  23
HETATM   23  C   UNL     1      -9.187  15.320  66.459  1.00  0.00    -0.321 C  
HETATM   24  C   UNL     1      -8.205  16.027  66.460  1.00  0.00    -0.334 C  
ENDBRANCH   4  23
TORSDOF 1
ENDMDL
MODEL       44
REMARK 921   NORMALIZED FREE ENERGY PREDICTED BY IDOCK:   -5.52 KCAL/MOL
REMARK 922        TOTAL FREE ENERGY PREDICTED BY IDOCK:   -5.86 KCAL/MOL
REMARK 923 INTER-LIGAND FREE ENERGY PREDICTED BY IDOCK:   -5.91 KCAL/MOL
REMARK 924 INTRA-LIGAND FREE ENERGY PREDICTED BY IDOCK:    0.05 KCAL/MOL
REMARK 927      BINDING AFFINITY PREDICTED BY RF-SCORE:    0.00 PKD
ROOT
HETATM    1  C   UNL     1     -10.055  11.051  67.998  1.00  0.00    -0.198 C  
HETATM    2  C   UNL     1     -11.369  10.671  68.342  1.00  0.00    -0.348 C  
HETATM    3  C   UNL     1     -11.146  10.974  66.907  1.00  0.00    -0.280 C  
HETATM    4  C   UNL     1      -9.180  11.224  66.364  1.00  0.00    -0.192 C  
HETATM    5  H   UNL     1     -10.770  19.589  65.180  1.00  0.00     0.000 HD 
HETATM    6  O   UNL     1      -8.578  11.324  65.071  1.00  0.00    -0.382 OA 
HETATM    7  C   UNL     1      -9.929  10.085  66.310  1.00  0.00    -0.310 C  
HETATM    8  C   UNL     1     -10.881  15.661  65.025  1.00  0.00    -0.468 A  
HETATM    9  C   UNL     1     -10.735  10.842  64.787  1.00  0.00    -0.248 C  
HETATM   10  C   UNL     1      -9.547   8.637  66.270  1.00  0.00    -0.322 C  
HETATM   11  H   UNL     1      -7.669  11.439  64.820  1.00  0.00     0.000 HD 
HETATM   12  C   UNL     1     -10.722  12.604  64.879  1.00  0.00    -0.327 C  
HETATM   13  C   UNL     1     -10.812  13.457  66.326  1.00  0.00    -0.294 C  
HETATM   14  C   UNL     1     -10.651  14.979  66.235  1.00  0.00    -0.309 A  
HETATM   15  C   UNL     1     -10.469  15.746  67.412  1.00  0.00    -0.297 A  
HETATM   16  C   UNL     1     -10.440  17.152  67.332  1.00  0.00    -0.334 A  
HETATM   17  C   UNL     1     -10.290  15.130  68.784  1.00  0.00    -0.236 C  
HETATM   18  C   UNL     1     -10.632  13.644  68.895  1.00  0.00    -0.211 C  
HETATM   19  C   UNL     1     -10.642  17.792  66.115  1.00  0.00    -0.235 A  
HETATM   20  C   UNL     1     -10.876  17.057  64.966  1.00  0.00    -0.017 A  
HETATM   21  C   UNL     1     -10.044  12.882  67.710  1.00  0.00    -0.229 C  
HETATM   22  O   UNL     1     -10.632  19.152  66.012  1.00  0.00    -0.463 OA 
ENDROOT
BRANCH   4  23
HETATM   23  C   UNL     1      -7.905  10.855  67.166  1.00  0.00    -0.127 C  
HETATM   24  C   UNL     1      -6.934  10.515  67.805  1.00  0.00    -0.078 C  
ENDBRANCH   4  23
TORSDOF 1
ENDMDL
MODEL       45
REMARK 921   NORMALIZED FREE ENERGY PREDICTED BY IDOCK:   -5.47 KCAL/MOL
REMARK 922        TOTAL FREE ENERGY PREDICTED BY IDOCK:   -5.81 KCAL/MOL
REMARK 923 INTER-LIGAND FREE ENERGY PREDICTED BY IDOCK:   -5.83 KCAL/MOL
REMARK 924 INTRA-LIGAND FREE ENERGY PREDICTED BY IDOCK:    0.01 KCAL/MOL
REMARK 927      BINDING AFFINITY PREDICTED BY RF-SCORE:    0.00 PKD
ROOT
HETATM    1  C   UNL     1     -10.027   6.508  69.928  1.00  0.00    -0.191 C  
HETATM    2  C   UNL     1     -10.891   5.922  68.980  1.00  0.00    -0.383 C  
HETATM    3  C   UNL     1     -10.202   7.158  68.537  1.00  0.00    -0.189 C  
HETATM    4  C   UNL     1      -8.722   7.829  69.796  1.00  0.00    -0.139 C  
HETATM    5  H   UNL     1     -13.747  14.499  71.835  1.00  0.00     0.000 HD 
HETATM    6  O   UNL     1      -7.732   8.843  69.608  1.00  0.00    -0.073 OA 
HETATM    7  C   UNL     1      -8.595   7.017  68.706  1.00  0.00    -0.125 C  
HETATM    8  C   UNL     1     -11.629  11.818  69.888  1.00  0.00    -0.351 A  
HETATM    9  C   UNL     1      -8.814   8.579  67.679  1.00  0.00    -0.138 C  
HETATM   10  C   UNL     1      -7.533   6.041  68.304  1.00  0.00    -0.086 C  
HETATM   11  H   UNL     1      -7.047   9.154  70.190  1.00  0.00     0.000 HD 
HETATM   12  C   UNL     1      -9.800   9.764  68.537  1.00  0.00    -0.169 C  
HETATM   13  C   UNL     1     -11.028   9.346  69.609  1.00  0.00    -0.216 C  
HETATM   14  C   UNL     1     -11.694  10.497  70.371  1.00  0.00    -0.434 A  
HETATM   15  C   UNL     1     -12.556  10.223  71.460  1.00  0.00    -0.544 A  
HETATM   16  C   UNL     1     -13.256  11.278  72.080  1.00  0.00    -0.437 A  
HETATM   17  C   UNL     1     -12.771   8.832  72.019  1.00  0.00    -0.444 C  
HETATM   18  C   UNL     1     -12.258   7.682  71.153  1.00  0.00    -0.310 C  
HETATM   19  C   UNL     1     -13.146  12.575  71.595  1.00  0.00    -0.315 A  
HETATM   20  C   UNL     1     -12.350  12.849  70.496  1.00  0.00    -0.362 A  
HETATM   21  C   UNL     1     -10.865   8.009  70.619  1.00  0.00    -0.240 C  
HETATM   22  O   UNL     1     -13.822  13.612  72.167  1.00  0.00    -0.481 OA 
ENDROOT
BRANCH   4  23
HETATM   23  C   UNL     1      -8.039   7.076  70.967  1.00  0.00    -0.105 C  
HETATM   24  C   UNL     1      -7.549   6.506  71.915  1.00  0.00    -0.094 C  
ENDBRANCH   4  23
TORSDOF 1
ENDMDL
MODEL       46
REMARK 921   NORMALIZED FREE ENERGY PREDICTED BY IDOCK:   -5.47 KCAL/MOL
REMARK 922        TOTAL FREE ENERGY PREDICTED BY IDOCK:   -5.81 KCAL/MOL
REMARK 923 INTER-LIGAND FREE ENERGY PREDICTED BY IDOCK:   -5.85 KCAL/MOL
REMARK 924 INTRA-LIGAND FREE ENERGY PREDICTED BY IDOCK:    0.04 KCAL/MOL
REMARK 927      BINDING AFFINITY PREDICTED BY RF-SCORE:    0.00 PKD
ROOT
HETATM    1  C   UNL     1      -9.758   7.818  68.267  1.00  0.00    -0.169 C  
HETATM    2  C   UNL     1     -10.868   7.084  67.800  1.00  0.00    -0.276 C  
HETATM    3  C   UNL     1     -10.485   8.256  66.975  1.00  0.00    -0.384 C  
HETATM    4  C   UNL     1      -8.697   9.131  67.484  1.00  0.00    -0.119 C  
HETATM    5  H   UNL     1     -13.075  15.927  70.407  1.00  0.00     0.000 HD 
HETATM    6  O   UNL     1      -7.924  10.127  66.808  1.00  0.00    -0.113 OA 
HETATM    7  C   UNL     1      -8.926   8.172  66.540  1.00  0.00    -0.191 C  
HETATM    8  C   UNL     1     -11.644  13.033  68.161  1.00  0.00    -0.379 A  
HETATM    9  C   UNL     1      -9.624   9.563  65.483  1.00  0.00    -0.349 C  
HETATM   10  C   UNL     1      -8.021   7.169  65.894  1.00  0.00    -0.116 C  
HETATM   11  H   UNL     1      -7.097  10.532  67.043  1.00  0.00     0.000 HD 
HETATM   12  C   UNL     1     -10.304  10.841  66.492  1.00  0.00    -0.300 C  
HETATM   13  C   UNL     1     -11.011  10.559  67.992  1.00  0.00    -0.345 C  
HETATM   14  C   UNL     1     -11.428  11.796  68.796  1.00  0.00    -0.350 A  
HETATM   15  C   UNL     1     -11.801  11.666  70.156  1.00  0.00    -0.428 A  
HETATM   16  C   UNL     1     -12.295  12.786  70.855  1.00  0.00    -0.356 A  
HETATM   17  C   UNL     1     -11.690  10.367  70.927  1.00  0.00    -0.455 C  
HETATM   18  C   UNL     1     -11.454   9.114  70.085  1.00  0.00    -0.110 C  
HETATM   19  C   UNL     1     -12.468  14.001  70.204  1.00  0.00    -0.319 A  
HETATM   20  C   UNL     1     -12.160  14.127  68.860  1.00  0.00    -0.339 A  
HETATM   21  C   UNL     1     -10.387   9.387  69.028  1.00  0.00    -0.224 C  
HETATM   22  O   UNL     1     -12.957  15.096  70.852  1.00  0.00    -0.379 OA 
ENDROOT
BRANCH   4  23
HETATM   23  C   UNL     1      -7.574   8.570  68.395  1.00  0.00    -0.096 C  
HETATM   24  C   UNL     1      -6.685   8.094  69.064  1.00  0.00    -0.048 C  
ENDBRANCH   4  23
TORSDOF 1
ENDMDL
MODEL       47
REMARK 921   NORMALIZED FREE ENERGY PREDICTED BY IDOCK:   -5.43 KCAL/MOL
REMARK 922        TOTAL FREE ENERGY PREDICTED BY IDOCK:   -5.77 KCAL/MOL
REMARK 923 INTER-LIGAND FREE ENERGY PREDICTED BY IDOCK:   -5.78 KCAL/MOL
REMARK 924 INTRA-LIGAND FREE ENERGY PREDICTED BY IDOCK:    0.02 KCAL/MOL
REMARK 927      BINDING AFFINITY PREDICTED BY RF-SCORE:    0.00 PKD
ROOT
HETATM    1  C   UNL     1      -9.316  12.916  67.694  1.00  0.00    -0.195 C  
HETATM    2  C   UNL     1      -7.987  12.952  67.226  1.00  0.00    -0.151 C  
HETATM    3  C   UNL     1      -8.953  12.246  66.350  1.00  0.00    -0.117 C  
HETATM    4  C   UNL     1     -10.927  12.463  66.879  1.00  0.00    -0.265 C  
HETATM    5  H   UNL     1     -11.011   4.188  69.208  1.00  0.00     0.000 HD 
HETATM    6  O   UNL     1     -12.122  12.107  66.178  1.00  0.00    -0.621 OA 
HETATM    7  C   UNL     1     -10.210  13.204  65.985  1.00  0.00    -0.287 C  
HETATM    8  C   UNL     1     -10.616   7.547  67.199  1.00  0.00    -0.415 A  
HETATM    9  C   UNL     1     -10.395  11.739  64.819  1.00  0.00    -0.333 C  
HETATM   10  C   UNL     1     -10.414  14.584  65.438  1.00  0.00    -0.399 C  
HETATM   11  H   UNL     1     -13.035  12.208  66.422  1.00  0.00     0.000 HD 
HETATM   12  C   UNL     1     -10.530  10.229  65.721  1.00  0.00    -0.159 C  
HETATM   13  C   UNL     1      -9.782   9.966  67.205  1.00  0.00    -0.224 C  
HETATM   14  C   UNL     1     -10.113   8.649  67.916  1.00  0.00    -0.254 A  
HETATM   15  C   UNL     1      -9.728   8.454  69.264  1.00  0.00    -0.177 A  
HETATM   16  C   UNL     1      -9.931   7.200  69.874  1.00  0.00    -0.184 A  
HETATM   17  C   UNL     1      -9.104   9.540  70.115  1.00  0.00    -0.276 C  
HETATM   18  C   UNL     1      -8.612  10.775  69.360  1.00  0.00     0.017 C  
HETATM   19  C   UNL     1     -10.457   6.140  69.145  1.00  0.00    -0.251 A  
HETATM   20  C   UNL     1     -10.786   6.302  67.810  1.00  0.00    -0.424 A  
HETATM   21  C   UNL     1      -9.655  11.210  68.333  1.00  0.00    -0.192 C  
HETATM   22  O   UNL     1     -10.651   4.913  69.707  1.00  0.00    -0.152 OA 
ENDROOT
BRANCH   4  23
HETATM   23  C   UNL     1     -11.553  13.481  67.867  1.00  0.00    -0.377 C  
HETATM   24  C   UNL     1     -12.028  14.240  68.682  1.00  0.00    -0.348 C  
ENDBRANCH   4  23
TORSDOF 1
ENDMDL
MODEL       48
REMARK 921   NORMALIZED FREE ENERGY PREDICTED BY IDOCK:   -5.39 KCAL/MOL
REMARK 922        TOTAL FREE ENERGY PREDICTED BY IDOCK:   -5.72 KCAL/MOL
REMARK 923 INTER-LIGAND FREE ENERGY PREDICTED BY IDOCK:   -5.75 KCAL/MOL
REMARK 924 INTRA-LIGAND FREE ENERGY PREDICTED BY IDOCK:    0.02 KCAL/MOL
REMARK 927      BINDING AFFINITY PREDICTED BY RF-SCORE:    0.00 PKD
ROOT
HETATM    1  C   UNL     1      -8.893   7.743  69.423  1.00  0.00    -0.139 C  
HETATM    2  C   UNL     1      -7.759   8.200  70.124  1.00  0.00    -0.085 C  
HETATM    3  C   UNL     1      -9.065   8.659  70.655  1.00  0.00    -0.201 C  
HETATM    4  C   UNL     1     -10.710   7.747  69.826  1.00  0.00    -0.236 C  
HETATM    5  H   UNL     1     -12.642  15.181  65.965  1.00  0.00     0.000 HD 
HETATM    6  O   UNL     1     -12.086   7.782  70.215  1.00  0.00    -0.473 OA 
HETATM    7  C   UNL     1     -10.039   7.399  70.963  1.00  0.00    -0.191 C  
HETATM    8  C   UNL     1     -11.772  12.416  68.623  1.00  0.00    -0.372 A  
HETATM    9  C   UNL     1     -10.908   8.860  71.769  1.00  0.00    -0.436 C  
HETATM   10  C   UNL     1      -9.956   6.109  71.720  1.00  0.00    -0.197 C  
HETATM   11  H   UNL     1     -12.847   7.360  69.832  1.00  0.00     0.000 HD 
HETATM   12  C   UNL     1     -11.260  10.117  70.583  1.00  0.00    -0.418 C  
HETATM   13  C   UNL     1     -10.295  10.418  69.239  1.00  0.00    -0.250 C  
HETATM   14  C   UNL     1     -10.818  11.455  68.237  1.00  0.00    -0.253 A  
HETATM   15  C   UNL     1     -10.201  11.593  66.970  1.00  0.00    -0.240 A  
HETATM   16  C   UNL     1     -10.611  12.625  66.102  1.00  0.00    -0.280 A  
HETATM   17  C   UNL     1      -9.108  10.669  66.474  1.00  0.00    -0.179 C  
HETATM   18  C   UNL     1      -8.470   9.768  67.531  1.00  0.00    -0.122 C  
HETATM   19  C   UNL     1     -11.577  13.540  66.504  1.00  0.00    -0.359 A  
HETATM   20  C   UNL     1     -12.148  13.450  67.762  1.00  0.00    -0.299 A  
HETATM   21  C   UNL     1      -9.552   9.151  68.415  1.00  0.00    -0.162 C  
HETATM   22  O   UNL     1     -11.982  14.556  65.690  1.00  0.00    -0.359 OA 
ENDROOT
BRANCH   4  23
HETATM   23  C   UNL     1     -10.765   6.465  68.956  1.00  0.00    -0.339 C  
HETATM   24  C   UNL     1     -10.785   5.495  68.233  1.00  0.00    -0.155 C  
ENDBRANCH   4  23
TORSDOF 1
ENDMDL
MODEL       49
REMARK 921   NORMALIZED FREE ENERGY PREDICTED BY IDOCK:   -5.39 KCAL/MOL
REMARK 922        TOTAL FREE ENERGY PREDICTED BY IDOCK:   -5.72 KCAL/MOL
REMARK 923 INTER-LIGAND FREE ENERGY PREDICTED BY IDOCK:   -5.71 KCAL/MOL
REMARK 924 INTRA-LIGAND FREE ENERGY PREDICTED BY IDOCK:   -0.01 KCAL/MOL
REMARK 927      BINDING AFFINITY PREDICTED BY RF-SCORE:    0.00 PKD
ROOT
HETATM    1  C   UNL     1     -10.112   7.158  69.567  1.00  0.00    -0.182 C  
HETATM    2  C   UNL     1     -11.256   6.437  69.166  1.00  0.00    -0.421 C  
HETATM    3  C   UNL     1     -10.672   7.332  68.137  1.00  0.00    -0.191 C  
HETATM    4  C   UNL     1      -8.843   8.136  68.620  1.00  0.00    -0.134 C  
HETATM    5  H   UNL     1     -12.636  15.814  69.369  1.00  0.00     0.000 HD 
HETATM    6  O   UNL     1      -7.906   8.861  67.819  1.00  0.00    -0.100 OA 
HETATM    7  C   UNL     1      -9.101   7.000  67.908  1.00  0.00    -0.127 C  
HETATM    8  C   UNL     1     -11.365  12.340  68.036  1.00  0.00    -0.348 A  
HETATM    9  C   UNL     1      -9.542   8.149  66.484  1.00  0.00    -0.303 C  
HETATM   10  C   UNL     1      -8.267   5.791  67.619  1.00  0.00    -0.101 C  
HETATM   11  H   UNL     1      -7.061   9.233  68.042  1.00  0.00     0.000 HD 
HETATM   12  C   UNL     1     -10.152   9.692  67.085  1.00  0.00    -0.276 C  
HETATM   13  C   UNL     1     -11.011   9.852  68.522  1.00  0.00    -0.226 C  
HETATM   14  C   UNL     1     -11.348  11.281  68.963  1.00  0.00    -0.344 A  
HETATM   15  C   UNL     1     -11.848  11.522  70.266  1.00  0.00    -0.431 A  
HETATM   16  C   UNL     1     -12.266  12.820  70.624  1.00  0.00    -0.374 A  
HETATM   17  C   UNL     1     -11.953  10.447  71.327  1.00  0.00    -0.425 C  
HETATM   18  C   UNL     1     -11.794   9.010  70.834  1.00  0.00    -0.302 C  
HETATM   19  C   UNL     1     -12.242  13.850  69.692  1.00  0.00    -0.321 A  
HETATM   20  C   UNL     1     -11.808  13.614  68.398  1.00  0.00    -0.407 A  
HETATM   21  C   UNL     1     -10.617   8.916  69.865  1.00  0.00    -0.229 C  
HETATM   22  O   UNL     1     -12.653  15.110  70.008  1.00  0.00    -0.299 OA 
ENDROOT
BRANCH   4  23
HETATM   23  C   UNL     1      -7.874   7.714  69.755  1.00  0.00    -0.110 C  
HETATM   24  C   UNL     1      -7.115   7.439  70.657  1.00  0.00    -0.060 C  
ENDBRANCH   4  23
TORSDOF 1
ENDMDL
MODEL       50
REMARK 921   NORMALIZED FREE ENERGY PREDICTED BY IDOCK:   -5.38 KCAL/MOL
REMARK 922        TOTAL FREE ENERGY PREDICTED BY IDOCK:   -5.71 KCAL/MOL
REMARK 923 INTER-LIGAND FREE ENERGY PREDICTED BY IDOCK:   -5.73 KCAL/MOL
REMARK 924 INTRA-LIGAND FREE ENERGY PREDICTED BY IDOCK:    0.02 KCAL/MOL
REMARK 927      BINDING AFFINITY PREDICTED BY RF-SCORE:    0.00 PKD
ROOT
HETATM    1  C   UNL     1      -8.881  11.894  67.113  1.00  0.00    -0.180 C  
HETATM    2  C   UNL     1      -8.297  11.559  68.352  1.00  0.00    -0.154 C  
HETATM    3  C   UNL     1      -9.693  12.055  68.417  1.00  0.00    -0.199 C  
HETATM    4  C   UNL     1     -10.635  12.246  66.601  1.00  0.00    -0.229 C  
HETATM    5  H   UNL     1     -10.335  20.783  67.562  1.00  0.00     0.000 HD 
HETATM    6  O   UNL     1     -12.008  12.495  66.288  1.00  0.00    -0.508 OA 
HETATM    7  C   UNL     1     -10.663  11.181  67.455  1.00  0.00    -0.280 C  
HETATM    8  C   UNL     1     -10.965  16.939  68.098  1.00  0.00    -0.290 A  
HETATM    9  C   UNL     1     -11.849  12.210  68.492  1.00  0.00    -0.365 C  
HETATM   10  C   UNL     1     -10.975   9.733  67.238  1.00  0.00    -0.142 C  
HETATM   11  H   UNL     1     -12.444  12.583  65.449  1.00  0.00     0.000 HD 
HETATM   12  C   UNL     1     -11.536  13.934  68.283  1.00  0.00    -0.372 C  
HETATM   13  C   UNL     1     -10.010  14.567  67.969  1.00  0.00    -0.222 C  
HETATM   14  C   UNL     1      -9.938  16.071  67.680  1.00  0.00    -0.239 A  
HETATM   15  C   UNL     1      -8.746  16.640  67.170  1.00  0.00    -0.215 A  
HETATM   16  C   UNL     1      -8.648  18.038  67.018  1.00  0.00    -0.254 A  
HETATM   17  C   UNL     1      -7.543  15.817  66.760  1.00  0.00    -0.177 C  
HETATM   18  C   UNL     1      -7.549  14.359  67.217  1.00  0.00    -0.135 C  
HETATM   19  C   UNL     1      -9.693  18.863  67.414  1.00  0.00    -0.312 A  
HETATM   20  C   UNL     1     -10.843  18.324  67.966  1.00  0.00    -0.178 A  
HETATM   21  C   UNL     1      -8.926  13.742  66.980  1.00  0.00    -0.247 C  
HETATM   22  O   UNL     1      -9.620  20.219  67.291  1.00  0.00    -0.393 OA 
ENDROOT
BRANCH   4  23
HETATM   23  C   UNL     1     -10.202  11.675  65.226  1.00  0.00    -0.316 C  
HETATM   24  C   UNL     1      -9.822  11.269  64.151  1.00  0.00    -0.323 C  
ENDBRANCH   4  23
TORSDOF 1
ENDMDL
MODEL       51
REMARK 921   NORMALIZED FREE ENERGY PREDICTED BY IDOCK:   -5.25 KCAL/MOL
REMARK 922        TOTAL FREE ENERGY PREDICTED BY IDOCK:   -5.58 KCAL/MOL
REMARK 923 INTER-LIGAND FREE ENERGY PREDICTED BY IDOCK:   -5.56 KCAL/MOL
REMARK 924 INTRA-LIGAND FREE ENERGY PREDICTED BY IDOCK:   -0.02 KCAL/MOL
REMARK 927      BINDING AFFINITY PREDICTED BY RF-SCORE:    0.00 PKD
ROOT
HETATM    1  C   UNL     1     -10.758   6.048  70.832  1.00  0.00    -0.329 C  
HETATM    2  C   UNL     1      -9.636   5.194  70.838  1.00  0.00    -0.235 C  
HETATM    3  C   UNL     1      -9.375   6.593  71.257  1.00  0.00    -0.159 C  
HETATM    4  C   UNL     1     -11.054   7.743  71.541  1.00  0.00    -0.236 C  
HETATM    5  H   UNL     1      -8.936  12.225  64.517  1.00  0.00     0.000 HD 
HETATM    6  O   UNL     1     -11.203   9.041  72.123  1.00  0.00    -0.351 OA 
HETATM    7  C   UNL     1     -10.359   7.026  72.471  1.00  0.00    -0.230 C  
HETATM    8  C   UNL     1      -8.890  10.455  68.029  1.00  0.00    -0.130 A  
HETATM    9  C   UNL     1      -9.085   8.408  72.395  1.00  0.00    -0.326 C  
HETATM   10  C   UNL     1     -10.748   6.484  73.812  1.00  0.00    -0.194 C  
HETATM   11  H   UNL     1     -11.980   9.573  72.254  1.00  0.00     0.000 HD 
HETATM   12  C   UNL     1      -9.078   9.173  70.805  1.00  0.00    -0.313 C  
HETATM   13  C   UNL     1      -9.436   8.352  69.381  1.00  0.00    -0.158 C  
HETATM   14  C   UNL     1      -9.517   9.197  68.105  1.00  0.00    -0.155 A  
HETATM   15  C   UNL     1     -10.047   8.639  66.916  1.00  0.00    -0.355 A  
HETATM   16  C   UNL     1     -10.010   9.382  65.719  1.00  0.00    -0.278 A  
HETATM   17  C   UNL     1     -10.676   7.263  66.854  1.00  0.00    -0.346 C  
HETATM   18  C   UNL     1     -10.429   6.365  68.066  1.00  0.00    -0.271 C  
HETATM   19  C   UNL     1      -9.409  10.634  65.686  1.00  0.00    -0.201 A  
HETATM   20  C   UNL     1      -8.837  11.168  66.829  1.00  0.00    -0.162 A  
HETATM   21  C   UNL     1     -10.625   7.160  69.355  1.00  0.00    -0.246 C  
HETATM   22  O   UNL     1      -9.347  11.368  64.539  1.00  0.00    -0.183 OA 
ENDROOT
BRANCH   4  23
HETATM   23  C   UNL     1     -12.529   7.281  71.665  1.00  0.00    -0.394 C  
HETATM   24  C   UNL     1     -13.696   6.975  71.758  1.00  0.00    -0.309 C  
ENDBRANCH   4  23
TORSDOF 1
ENDMDL
MODEL       52
REMARK 921   NORMALIZED FREE ENERGY PREDICTED BY IDOCK:   -5.18 KCAL/MOL
REMARK 922        TOTAL FREE ENERGY PREDICTED BY IDOCK:   -5.50 KCAL/MOL
REMARK 923 INTER-LIGAND FREE ENERGY PREDICTED BY IDOCK:   -5.55 KCAL/MOL
REMARK 924 INTRA-LIGAND FREE ENERGY PREDICTED BY IDOCK:    0.05 KCAL/MOL
REMARK 927      BINDING AFFINITY PREDICTED BY RF-SCORE:    0.00 PKD
ROOT
HETATM    1  C   UNL     1     -10.533   7.074  70.257  1.00  0.00    -0.227 C  
HETATM    2  C   UNL     1     -11.906   6.763  70.334  1.00  0.00    -0.395 C  
HETATM    3  C   UNL     1     -11.264   6.494  69.025  1.00  0.00    -0.354 C  
HETATM    4  C   UNL     1      -9.215   6.657  69.010  1.00  0.00    -0.131 C  
HETATM    5  H   UNL     1     -10.005  13.742  64.207  1.00  0.00     0.000 HD 
HETATM    6  O   UNL     1      -8.260   6.286  68.012  1.00  0.00    -0.113 OA 
HETATM    7  C   UNL     1      -9.968   5.535  69.202  1.00  0.00    -0.256 C  
HETATM    8  C   UNL     1     -10.248  10.072  65.598  1.00  0.00    -0.258 A  
HETATM    9  C   UNL     1     -10.262   5.572  67.344  1.00  0.00    -0.253 C  
HETATM   10  C   UNL     1      -9.658   4.221  69.850  1.00  0.00    -0.279 C  
HETATM   11  H   UNL     1      -7.313   6.361  68.006  1.00  0.00     0.000 HD 
HETATM   12  C   UNL     1     -10.195   7.224  66.728  1.00  0.00    -0.305 C  
HETATM   13  C   UNL     1     -10.661   8.568  67.628  1.00  0.00    -0.268 C  
HETATM   14  C   UNL     1     -10.410   9.939  66.990  1.00  0.00    -0.303 A  
HETATM   15  C   UNL     1     -10.542  11.117  67.766  1.00  0.00    -0.248 A  
HETATM   16  C   UNL     1     -10.426  12.378  67.146  1.00  0.00    -0.236 A  
HETATM   17  C   UNL     1     -10.797  11.104  69.258  1.00  0.00    -0.277 C  
HETATM   18  C   UNL     1     -11.224   9.760  69.847  1.00  0.00    -0.271 C  
HETATM   19  C   UNL     1     -10.236  12.472  65.773  1.00  0.00    -0.270 A  
HETATM   20  C   UNL     1     -10.162  11.329  64.994  1.00  0.00    -0.339 A  
HETATM   21  C   UNL     1     -10.354   8.640  69.282  1.00  0.00    -0.228 C  
HETATM   22  O   UNL     1     -10.134  13.678  65.146  1.00  0.00    -0.324 OA 
ENDROOT
BRANCH   4  23
HETATM   23  C   UNL     1      -8.246   6.728  70.219  1.00  0.00    -0.125 C  
HETATM   24  C   UNL     1      -7.532   6.807  71.193  1.00  0.00    -0.087 C  
ENDBRANCH   4  23
TORSDOF 1
ENDMDL
MODEL       53
REMARK 921   NORMALIZED FREE ENERGY PREDICTED BY IDOCK:   -5.16 KCAL/MOL
REMARK 922        TOTAL FREE ENERGY PREDICTED BY IDOCK:   -5.48 KCAL/MOL
REMARK 923 INTER-LIGAND FREE ENERGY PREDICTED BY IDOCK:   -5.46 KCAL/MOL
REMARK 924 INTRA-LIGAND FREE ENERGY PREDICTED BY IDOCK:   -0.02 KCAL/MOL
REMARK 927      BINDING AFFINITY PREDICTED BY RF-SCORE:    0.00 PKD
ROOT
HETATM    1  C   UNL     1      -8.946  15.811  68.411  1.00  0.00    -0.187 C  
HETATM    2  C   UNL     1      -7.814  16.355  67.768  1.00  0.00    -0.164 C  
HETATM    3  C   UNL     1      -8.948  16.004  66.878  1.00  0.00    -0.253 C  
HETATM    4  C   UNL     1     -10.692  15.507  67.844  1.00  0.00    -0.294 C  
HETATM    5  H   UNL     1      -9.576   7.382  65.266  1.00  0.00     0.000 HD 
HETATM    6  O   UNL     1     -12.014  15.313  67.333  1.00  0.00    -0.267 OA 
HETATM    7  C   UNL     1     -10.313  16.729  67.367  1.00  0.00    -0.302 C  
HETATM    8  C   UNL     1      -9.993  11.291  65.371  1.00  0.00    -0.297 A  
HETATM    9  C   UNL     1     -10.737  16.051  65.663  1.00  0.00    -0.341 C  
HETATM   10  C   UNL     1     -10.753  18.118  67.713  1.00  0.00    -0.355 C  
HETATM   11  H   UNL     1     -12.821  15.084  67.780  1.00  0.00     0.000 HD 
HETATM   12  C   UNL     1     -10.508  14.302  65.606  1.00  0.00    -0.336 C  
HETATM   13  C   UNL     1      -9.347  13.490  66.512  1.00  0.00    -0.227 C  
HETATM   14  C   UNL     1      -9.374  11.958  66.446  1.00  0.00    -0.233 A  
HETATM   15  C   UNL     1      -8.602  11.194  67.354  1.00  0.00    -0.137 A  
HETATM   16  C   UNL     1      -8.540   9.793  67.213  1.00  0.00    -0.128 A  
HETATM   17  C   UNL     1      -7.828  11.805  68.503  1.00  0.00    -0.144 C  
HETATM   18  C   UNL     1      -7.655  13.323  68.455  1.00  0.00    -0.137 C  
HETATM   19  C   UNL     1      -9.188   9.164  66.156  1.00  0.00    -0.205 A  
HETATM   20  C   UNL     1      -9.900   9.905  65.228  1.00  0.00    -0.373 A  
HETATM   21  C   UNL     1      -8.976  13.989  68.077  1.00  0.00    -0.182 C  
HETATM   22  O   UNL     1      -9.133   7.812  65.988  1.00  0.00    -0.173 OA 
ENDROOT
BRANCH   4  23
HETATM   23  C   UNL     1     -11.067  15.730  69.332  1.00  0.00    -0.314 C  
HETATM   24  C   UNL     1     -11.414  15.892  70.480  1.00  0.00    -0.412 C  
ENDBRANCH   4  23
TORSDOF 1
ENDMDL
MODEL       54
REMARK 921   NORMALIZED FREE ENERGY PREDICTED BY IDOCK:   -5.14 KCAL/MOL
REMARK 922        TOTAL FREE ENERGY PREDICTED BY IDOCK:   -5.46 KCAL/MOL
REMARK 923 INTER-LIGAND FREE ENERGY PREDICTED BY IDOCK:   -5.48 KCAL/MOL
REMARK 924 INTRA-LIGAND FREE ENERGY PREDICTED BY IDOCK:    0.02 KCAL/MOL
REMARK 927      BINDING AFFINITY PREDICTED BY RF-SCORE:    0.00 PKD
ROOT
HETATM    1  C   UNL     1      -9.842  13.502  68.140  1.00  0.00    -0.237 C  
HETATM    2  C   UNL     1     -10.876  13.759  69.064  1.00  0.00    -0.247 C  
HETATM    3  C   UNL     1     -11.066  14.342  67.714  1.00  0.00    -0.299 C  
HETATM    4  C   UNL     1      -9.720  13.711  66.294  1.00  0.00    -0.283 C  
HETATM    5  H   UNL     1      -6.276  21.588  66.339  1.00  0.00     0.000 HD 
HETATM    6  O   UNL     1      -9.711  13.894  64.876  1.00  0.00    -0.581 OA 
HETATM    7  C   UNL     1     -10.955  13.199  66.569  1.00  0.00    -0.303 C  
HETATM    8  C   UNL     1      -8.765  18.551  66.113  1.00  0.00    -0.137 A  
HETATM    9  C   UNL     1     -11.636  14.699  65.658  1.00  0.00    -0.328 C  
HETATM   10  C   UNL     1     -11.566  11.859  66.295  1.00  0.00    -0.317 C  
HETATM   11  H   UNL     1      -9.089  13.603  64.220  1.00  0.00     0.000 HD 
HETATM   12  C   UNL     1     -10.537  16.072  65.796  1.00  0.00    -0.366 C  
HETATM   13  C   UNL     1      -9.556  16.342  67.135  1.00  0.00    -0.238 C  
HETATM   14  C   UNL     1      -8.563  17.506  67.034  1.00  0.00    -0.251 A  
HETATM   15  C   UNL     1      -7.540  17.653  68.002  1.00  0.00    -0.226 A  
HETATM   16  C   UNL     1      -6.706  18.788  67.969  1.00  0.00    -0.237 A  
HETATM   17  C   UNL     1      -7.275  16.634  69.091  1.00  0.00    -0.220 C  
HETATM   18  C   UNL     1      -8.367  15.585  69.299  1.00  0.00    -0.257 C  
HETATM   19  C   UNL     1      -6.915  19.789  67.028  1.00  0.00    -0.211 A  
HETATM   20  C   UNL     1      -7.948  19.684  66.111  1.00  0.00    -0.352 A  
HETATM   21  C   UNL     1      -8.843  15.051  67.950  1.00  0.00    -0.171 C  
HETATM   22  O   UNL     1      -6.132  20.904  66.983  1.00  0.00    -0.218 OA 
ENDROOT
BRANCH   4  23
HETATM   23  C   UNL     1      -8.740  12.512  66.363  1.00  0.00     0.046 C  
HETATM   24  C   UNL     1      -8.014  11.544  66.388  1.00  0.00    -0.046 C  
ENDBRANCH   4  23
TORSDOF 1
ENDMDL
MODEL       55
REMARK 921   NORMALIZED FREE ENERGY PREDICTED BY IDOCK:   -5.14 KCAL/MOL
REMARK 922        TOTAL FREE ENERGY PREDICTED BY IDOCK:   -5.46 KCAL/MOL
REMARK 923 INTER-LIGAND FREE ENERGY PREDICTED BY IDOCK:   -5.44 KCAL/MOL
REMARK 924 INTRA-LIGAND FREE ENERGY PREDICTED BY IDOCK:   -0.01 KCAL/MOL
REMARK 927      BINDING AFFINITY PREDICTED BY RF-SCORE:    0.00 PKD
ROOT
HETATM    1  C   UNL     1     -10.814  16.714  68.314  1.00  0.00    -0.356 C  
HETATM    2  C   UNL     1     -11.006  16.502  69.695  1.00  0.00    -0.287 C  
HETATM    3  C   UNL     1      -9.624  16.287  69.202  1.00  0.00    -0.251 C  
HETATM    4  C   UNL     1      -9.285  16.891  67.267  1.00  0.00    -0.226 C  
HETATM    5  H   UNL     1      -8.570   8.626  65.014  1.00  0.00     0.000 HD 
HETATM    6  O   UNL     1      -8.063  17.025  66.536  1.00  0.00    -0.231 OA 
HETATM    7  C   UNL     1      -9.079  17.597  68.417  1.00  0.00    -0.277 C  
HETATM    8  C   UNL     1      -8.121  12.120  66.762  1.00  0.00    -0.055 A  
HETATM    9  C   UNL     1      -7.548  16.527  68.646  1.00  0.00    -0.213 C  
HETATM   10  C   UNL     1      -8.970  19.067  68.683  1.00  0.00    -0.402 C  
HETATM   11  H   UNL     1      -7.906  17.305  65.642  1.00  0.00     0.000 HD 
HETATM   12  C   UNL     1      -7.768  14.944  67.898  1.00  0.00    -0.151 C  
HETATM   13  C   UNL     1      -9.259  14.173  67.782  1.00  0.00    -0.193 C  
HETATM   14  C   UNL     1      -9.294  12.866  66.982  1.00  0.00    -0.235 A  
HETATM   15  C   UNL     1     -10.536  12.283  66.629  1.00  0.00    -0.247 A  
HETATM   16  C   UNL     1     -10.561  11.024  65.997  1.00  0.00    -0.275 A  
HETATM   17  C   UNL     1     -11.870  12.952  66.886  1.00  0.00    -0.444 C  
HETATM   18  C   UNL     1     -11.840  14.149  67.836  1.00  0.00    -0.405 C  
HETATM   19  C   UNL     1      -9.381  10.327  65.768  1.00  0.00    -0.186 A  
HETATM   20  C   UNL     1      -8.164  10.861  66.159  1.00  0.00    -0.168 A  
HETATM   21  C   UNL     1     -10.662  15.059  67.494  1.00  0.00    -0.284 C  
HETATM   22  O   UNL     1      -9.378   9.102  65.171  1.00  0.00    -0.218 OA 
ENDROOT
BRANCH   4  23
HETATM   23  C   UNL     1     -10.172  17.793  66.370  1.00  0.00    -0.365 C  
HETATM   24  C   UNL     1     -10.817  18.512  65.641  1.00  0.00     0.023 C  
ENDBRANCH   4  23
TORSDOF 1
ENDMDL
MODEL       56
REMARK 921   NORMALIZED FREE ENERGY PREDICTED BY IDOCK:   -5.10 KCAL/MOL
REMARK 922        TOTAL FREE ENERGY PREDICTED BY IDOCK:   -5.42 KCAL/MOL
REMARK 923 INTER-LIGAND FREE ENERGY PREDICTED BY IDOCK:   -5.44 KCAL/MOL
REMARK 924 INTRA-LIGAND FREE ENERGY PREDICTED BY IDOCK:    0.02 KCAL/MOL
REMARK 927      BINDING AFFINITY PREDICTED BY RF-SCORE:    0.00 PKD
ROOT
HETATM    1  C   UNL     1      -8.195   6.086  71.654  1.00  0.00    -0.119 C  
HETATM    2  C   UNL     1      -7.189   6.737  72.398  1.00  0.00    -0.086 C  
HETATM    3  C   UNL     1      -8.581   7.008  72.832  1.00  0.00    -0.132 C  
HETATM    4  C   UNL     1     -10.014   5.827  71.952  1.00  0.00    -0.177 C  
HETATM    5  H   UNL     1     -12.795  12.737  67.660  1.00  0.00     0.000 HD 
HETATM    6  O   UNL     1     -11.401   5.665  72.260  1.00  0.00    -0.272 OA 
HETATM    7  C   UNL     1      -9.371   5.626  73.139  1.00  0.00    -0.139 C  
HETATM    8  C   UNL     1     -11.688  10.233  70.483  1.00  0.00    -0.418 A  
HETATM    9  C   UNL     1     -10.500   6.964  73.829  1.00  0.00    -0.390 C  
HETATM   10  C   UNL     1      -9.143   4.392  73.957  1.00  0.00    -0.110 C  
HETATM   11  H   UNL     1     -12.064   5.119  71.853  1.00  0.00     0.000 HD 
HETATM   12  C   UNL     1     -10.961   8.111  72.570  1.00  0.00    -0.439 C  
HETATM   13  C   UNL     1      -9.969   8.508  71.271  1.00  0.00    -0.284 C  
HETATM   14  C   UNL     1     -10.578   9.416  70.196  1.00  0.00    -0.279 A  
HETATM   15  C   UNL     1      -9.910   9.602  68.961  1.00  0.00    -0.183 A  
HETATM   16  C   UNL     1     -10.415  10.528  68.027  1.00  0.00    -0.232 A  
HETATM   17  C   UNL     1      -8.661   8.840  68.570  1.00  0.00    -0.135 C  
HETATM   18  C   UNL     1      -7.963   8.084  69.701  1.00  0.00    -0.117 C  
HETATM   19  C   UNL     1     -11.531  11.298  68.331  1.00  0.00    -0.307 A  
HETATM   20  C   UNL     1     -12.160  11.167  69.557  1.00  0.00    -0.396 A  
HETATM   21  C   UNL     1      -8.994   7.341  70.548  1.00  0.00    -0.154 C  
HETATM   22  O   UNL     1     -12.031  12.211  67.451  1.00  0.00    -0.563 OA 
ENDROOT
BRANCH   4  23
HETATM   23  C   UNL     1      -9.820   4.522  71.138  1.00  0.00    -0.263 C  
HETATM   24  C   UNL     1      -9.649   3.535  70.459  1.00  0.00    -0.246 C  
ENDBRANCH   4  23
TORSDOF 1
ENDMDL
MODEL       57
REMARK 921   NORMALIZED FREE ENERGY PREDICTED BY IDOCK:   -5.07 KCAL/MOL
REMARK 922        TOTAL FREE ENERGY PREDICTED BY IDOCK:   -5.38 KCAL/MOL
REMARK 923 INTER-LIGAND FREE ENERGY PREDICTED BY IDOCK:   -5.36 KCAL/MOL
REMARK 924 INTRA-LIGAND FREE ENERGY PREDICTED BY IDOCK:   -0.01 KCAL/MOL
REMARK 927      BINDING AFFINITY PREDICTED BY RF-SCORE:    0.00 PKD
ROOT
HETATM    1  C   UNL     1      -9.762   9.746  65.139  1.00  0.00    -0.338 C  
HETATM    2  C   UNL     1      -9.339  10.247  63.891  1.00  0.00    -0.337 C  
HETATM    3  C   UNL     1      -8.391  10.447  65.014  1.00  0.00    -0.166 C  
HETATM    4  C   UNL     1      -8.871   9.451  66.747  1.00  0.00    -0.127 C  
HETATM    5  H   UNL     1     -10.673  17.034  70.374  1.00  0.00     0.000 HD 
HETATM    6  O   UNL     1      -8.112   9.246  67.941  1.00  0.00    -0.103 OA 
HETATM    7  C   UNL     1      -8.048   9.037  65.739  1.00  0.00    -0.109 C  
HETATM    8  C   UNL     1      -8.892  14.060  68.515  1.00  0.00    -0.160 A  
HETATM    9  C   UNL     1      -6.787  10.240  66.450  1.00  0.00    -0.106 C  
HETATM   10  C   UNL     1      -7.582   7.676  65.324  1.00  0.00    -0.089 C  
HETATM   11  H   UNL     1      -8.334   8.786  68.742  1.00  0.00     0.000 HD 
HETATM   12  C   UNL     1      -7.588  11.595  67.247  1.00  0.00    -0.147 C  
HETATM   13  C   UNL     1      -9.075  12.210  66.756  1.00  0.00    -0.205 C  
HETATM   14  C   UNL     1      -9.692  13.299  67.642  1.00  0.00    -0.219 A  
HETATM   15  C   UNL     1     -11.037  13.697  67.445  1.00  0.00    -0.299 A  
HETATM   16  C   UNL     1     -11.560  14.778  68.182  1.00  0.00    -0.356 A  
HETATM   17  C   UNL     1     -11.973  13.008  66.475  1.00  0.00    -0.457 C  
HETATM   18  C   UNL     1     -11.312  12.058  65.476  1.00  0.00    -0.381 C  
HETATM   19  C   UNL     1     -10.750  15.490  69.059  1.00  0.00    -0.243 A  
HETATM   20  C   UNL     1      -9.418  15.147  69.219  1.00  0.00    -0.212 A  
HETATM   21  C   UNL     1     -10.283  11.183  66.188  1.00  0.00    -0.293 C  
HETATM   22  O   UNL     1     -11.227  16.548  69.774  1.00  0.00    -0.302 OA 
ENDROOT
BRANCH   4  23
HETATM   23  C   UNL     1      -9.901   8.310  66.948  1.00  0.00    -0.316 C  
HETATM   24  C   UNL     1     -10.681   7.408  67.156  1.00  0.00    -0.400 C  
ENDBRANCH   4  23
TORSDOF 1
ENDMDL
MODEL       58
REMARK 921   NORMALIZED FREE ENERGY PREDICTED BY IDOCK:   -4.97 KCAL/MOL
REMARK 922        TOTAL FREE ENERGY PREDICTED BY IDOCK:   -5.28 KCAL/MOL
REMARK 923 INTER-LIGAND FREE ENERGY PREDICTED BY IDOCK:   -5.27 KCAL/MOL
REMARK 924 INTRA-LIGAND FREE ENERGY PREDICTED BY IDOCK:   -0.02 KCAL/MOL
REMARK 927      BINDING AFFINITY PREDICTED BY RF-SCORE:    0.00 PKD
ROOT
HETATM    1  C   UNL     1     -11.397  15.325  67.632  1.00  0.00    -0.315 C  
HETATM    2  C   UNL     1     -11.627  15.777  68.948  1.00  0.00    -0.400 C  
HETATM    3  C   UNL     1     -10.202  15.675  68.547  1.00  0.00    -0.211 C  
HETATM    4  C   UNL     1      -9.883  15.317  66.548  1.00  0.00    -0.266 C  
HETATM    5  H   UNL     1      -7.148   7.429  68.596  1.00  0.00     0.000 HD 
HETATM    6  O   UNL     1      -8.679  15.356  65.778  1.00  0.00    -0.295 OA 
HETATM    7  C   UNL     1      -9.921  16.520  67.192  1.00  0.00    -0.266 C  
HETATM    8  C   UNL     1      -7.627  11.326  68.380  1.00  0.00    -0.120 A  
HETATM    9  C   UNL     1      -8.204  16.086  67.829  1.00  0.00    -0.159 C  
HETATM   10  C   UNL     1     -10.169  17.912  66.697  1.00  0.00    -0.371 C  
HETATM   11  H   UNL     1      -8.531  15.190  64.854  1.00  0.00     0.000 HD 
HETATM   12  C   UNL     1      -8.006  14.338  67.966  1.00  0.00    -0.142 C  
HETATM   13  C   UNL     1      -9.270  13.288  68.326  1.00  0.00    -0.197 C  
HETATM   14  C   UNL     1      -8.952  11.789  68.272  1.00  0.00    -0.180 A  
HETATM   15  C   UNL     1     -10.001  10.839  68.320  1.00  0.00    -0.182 A  
HETATM   16  C   UNL     1      -9.696   9.465  68.389  1.00  0.00    -0.163 A  
HETATM   17  C   UNL     1     -11.467  11.218  68.291  1.00  0.00    -0.378 C  
HETATM   18  C   UNL     1     -11.775  12.696  68.529  1.00  0.00    -0.372 C  
HETATM   19  C   UNL     1      -8.375   9.040  68.464  1.00  0.00    -0.124 A  
HETATM   20  C   UNL     1      -7.341   9.962  68.475  1.00  0.00    -0.078 A  
HETATM   21  C   UNL     1     -10.816  13.568  67.721  1.00  0.00    -0.267 C  
HETATM   22  O   UNL     1      -8.052   7.718  68.545  1.00  0.00    -0.120 OA 
ENDROOT
BRANCH   4  23
HETATM   23  C   UNL     1     -10.892  15.432  65.376  1.00  0.00    -0.403 C  
HETATM   24  C   UNL     1     -11.650  15.481  64.434  1.00  0.00    -0.258 C  
ENDBRANCH   4  23
TORSDOF 1
ENDMDL
MODEL       59
REMARK 921   NORMALIZED FREE ENERGY PREDICTED BY IDOCK:   -4.97 KCAL/MOL
REMARK 922        TOTAL FREE ENERGY PREDICTED BY IDOCK:   -5.28 KCAL/MOL
REMARK 923 INTER-LIGAND FREE ENERGY PREDICTED BY IDOCK:   -5.26 KCAL/MOL
REMARK 924 INTRA-LIGAND FREE ENERGY PREDICTED BY IDOCK:   -0.02 KCAL/MOL
REMARK 927      BINDING AFFINITY PREDICTED BY RF-SCORE:    0.00 PKD
ROOT
HETATM    1  C   UNL     1     -11.594  11.784  67.539  1.00  0.00    -0.361 C  
HETATM    2  C   UNL     1     -11.668  11.769  68.947  1.00  0.00    -0.384 C  
HETATM    3  C   UNL     1     -10.433  12.361  68.380  1.00  0.00    -0.245 C  
HETATM    4  C   UNL     1     -10.465  12.660  66.346  1.00  0.00    -0.249 C  
HETATM    5  H   UNL     1      -4.679   6.355  65.524  1.00  0.00     0.000 HD 
HETATM    6  O   UNL     1      -9.563  13.374  65.498  1.00  0.00    -0.496 OA 
HETATM    7  C   UNL     1     -10.789  13.547  67.332  1.00  0.00    -0.279 C  
HETATM    8  C   UNL     1      -6.569   9.637  66.584  1.00  0.00    -0.071 A  
HETATM    9  C   UNL     1      -8.935  13.717  67.608  1.00  0.00    -0.194 C  
HETATM   10  C   UNL     1     -11.627  14.788  67.325  1.00  0.00    -0.385 C  
HETATM   11  H   UNL     1      -9.578  13.513  64.558  1.00  0.00     0.000 HD 
HETATM   12  C   UNL     1      -8.094  12.229  67.171  1.00  0.00    -0.173 C  
HETATM   13  C   UNL     1      -8.777  10.700  67.326  1.00  0.00    -0.129 C  
HETATM   14  C   UNL     1      -7.960   9.526  66.774  1.00  0.00    -0.109 A  
HETATM   15  C   UNL     1      -8.555   8.247  66.640  1.00  0.00    -0.135 A  
HETATM   16  C   UNL     1      -7.767   7.148  66.244  1.00  0.00    -0.100 A  
HETATM   17  C   UNL     1     -10.025   7.985  66.893  1.00  0.00    -0.338 C  
HETATM   18  C   UNL     1     -10.784   9.101  67.612  1.00  0.00    -0.257 C  
HETATM   19  C   UNL     1      -6.401   7.300  66.036  1.00  0.00    -0.041 A  
HETATM   20  C   UNL     1      -5.796   8.532  66.218  1.00  0.00    -0.044 A  
HETATM   21  C   UNL     1     -10.413  10.456  67.013  1.00  0.00    -0.309 C  
HETATM   22  O   UNL     1      -5.613   6.251  65.666  1.00  0.00    -0.016 OA 
ENDROOT
BRANCH   4  23
HETATM   23  C   UNL     1     -11.684  12.629  65.387  1.00  0.00    -0.428 C  
HETATM   24  C   UNL     1     -12.598  12.602  64.595  1.00  0.00    -0.517 C  
ENDBRANCH   4  23
TORSDOF 1
ENDMDL
MODEL       60
REMARK 921   NORMALIZED FREE ENERGY PREDICTED BY IDOCK:   -4.94 KCAL/MOL
REMARK 922        TOTAL FREE ENERGY PREDICTED BY IDOCK:   -5.25 KCAL/MOL
REMARK 923 INTER-LIGAND FREE ENERGY PREDICTED BY IDOCK:   -5.23 KCAL/MOL
REMARK 924 INTRA-LIGAND FREE ENERGY PREDICTED BY IDOCK:   -0.02 KCAL/MOL
REMARK 927      BINDING AFFINITY PREDICTED BY RF-SCORE:    0.00 PKD
ROOT
HETATM    1  C   UNL     1      -8.782  12.243  67.890  1.00  0.00    -0.177 C  
HETATM    2  C   UNL     1      -7.556  12.066  67.216  1.00  0.00    -0.157 C  
HETATM    3  C   UNL     1      -8.723  11.381  66.609  1.00  0.00    -0.178 C  
HETATM    4  C   UNL     1     -10.546  11.890  67.411  1.00  0.00    -0.225 C  
HETATM    5  H   UNL     1     -11.026   4.017  70.828  1.00  0.00     0.000 HD 
HETATM    6  O   UNL     1     -11.872  11.598  66.963  1.00  0.00    -0.591 OA 
HETATM    7  C   UNL     1      -9.925  12.431  66.321  1.00  0.00    -0.259 C  
HETATM    8  C   UNL     1     -10.661   7.044  68.344  1.00  0.00    -0.240 A  
HETATM    9  C   UNL     1     -10.450  10.870  65.410  1.00  0.00    -0.291 C  
HETATM   10  C   UNL     1     -10.086  13.750  65.631  1.00  0.00    -0.315 C  
HETATM   11  H   UNL     1     -12.715  11.833  67.334  1.00  0.00     0.000 HD 
HETATM   12  C   UNL     1     -10.572   9.504  66.519  1.00  0.00    -0.133 C  
HETATM   13  C   UNL     1      -9.608   9.332  67.887  1.00  0.00    -0.163 C  
HETATM   14  C   UNL     1      -9.938   8.156  68.815  1.00  0.00    -0.198 A  
HETATM   15  C   UNL     1      -9.346   8.077  70.099  1.00  0.00    -0.156 A  
HETATM   16  C   UNL     1      -9.561   6.937  70.898  1.00  0.00    -0.166 A  
HETATM   17  C   UNL     1      -8.482   9.175  70.684  1.00  0.00    -0.246 C  
HETATM   18  C   UNL     1      -8.011  10.245  69.699  1.00  0.00    -0.164 C  
HETATM   19  C   UNL     1     -10.305   5.868  70.413  1.00  0.00    -0.231 A  
HETATM   20  C   UNL     1     -10.843   5.909  69.138  1.00  0.00    -0.406 A  
HETATM   21  C   UNL     1      -9.168  10.676  68.801  1.00  0.00    -0.182 C  
HETATM   22  O   UNL     1     -10.517   4.747  71.160  1.00  0.00    -0.163 OA 
ENDROOT
BRANCH   4  23
HETATM   23  C   UNL     1     -10.890  13.084  68.338  1.00  0.00    -0.280 C  
HETATM   24  C   UNL     1     -11.204  13.986  69.082  1.00  0.00    -0.308 C  
ENDBRANCH   4  23
TORSDOF 1
ENDMDL
MODEL       61
REMARK 921   NORMALIZED FREE ENERGY PREDICTED BY IDOCK:   -4.89 KCAL/MOL
REMARK 922        TOTAL FREE ENERGY PREDICTED BY IDOCK:   -5.19 KCAL/MOL
REMARK 923 INTER-LIGAND FREE ENERGY PREDICTED BY IDOCK:   -5.24 KCAL/MOL
REMARK 924 INTRA-LIGAND FREE ENERGY PREDICTED BY IDOCK:    0.05 KCAL/MOL
REMARK 927      BINDING AFFINITY PREDICTED BY RF-SCORE:    0.00 PKD
ROOT
HETATM    1  C   UNL     1      -9.642  13.918  68.485  1.00  0.00    -0.185 C  
HETATM    2  C   UNL     1      -8.642  14.891  68.280  1.00  0.00    -0.160 C  
HETATM    3  C   UNL     1      -9.714  14.851  67.255  1.00  0.00    -0.228 C  
HETATM    4  C   UNL     1     -11.317  13.652  67.720  1.00  0.00    -0.306 C  
HETATM    5  H   UNL     1      -8.816   8.237  61.529  1.00  0.00     0.000 HD 
HETATM    6  O   UNL     1     -12.594  13.523  67.089  1.00  0.00    -0.244 OA 
HETATM    7  C   UNL     1     -11.176  14.991  67.942  1.00  0.00    -0.330 C  
HETATM    8  C   UNL     1      -9.928  11.432  63.535  1.00  0.00    -0.424 A  
HETATM    9  C   UNL     1     -11.510  15.200  66.102  1.00  0.00    -0.157 C  
HETATM   10  C   UNL     1     -11.851  15.923  68.902  1.00  0.00    -0.314 C  
HETATM   11  H   UNL     1     -13.336  12.969  67.304  1.00  0.00     0.000 HD 
HETATM   12  C   UNL     1     -10.972  13.783  65.199  1.00  0.00    -0.337 C  
HETATM   13  C   UNL     1      -9.662  12.834  65.660  1.00  0.00    -0.131 C  
HETATM   14  C   UNL     1      -9.415  11.563  64.840  1.00  0.00    -0.151 A  
HETATM   15  C   UNL     1      -8.497  10.588  65.300  1.00  0.00    -0.175 A  
HETATM   16  C   UNL     1      -8.187   9.480  64.485  1.00  0.00    -0.152 A  
HETATM   17  C   UNL     1      -7.818  10.659  66.652  1.00  0.00    -0.135 C  
HETATM   18  C   UNL     1      -7.923  12.000  67.377  1.00  0.00    -0.165 C  
HETATM   19  C   UNL     1      -8.735   9.367  63.213  1.00  0.00    -0.208 A  
HETATM   20  C   UNL     1      -9.590  10.342  62.728  1.00  0.00    -0.311 A  
HETATM   21  C   UNL     1      -9.351  12.534  67.288  1.00  0.00    -0.190 C  
HETATM   22  O   UNL     1      -8.441   8.314  62.399  1.00  0.00    -0.186 OA 
ENDROOT
BRANCH   4  23
HETATM   23  C   UNL     1     -11.691  13.032  69.091  1.00  0.00    -0.378 C  
HETATM   24  C   UNL     1     -11.938  12.576  70.185  1.00  0.00    -0.377 C  
ENDBRANCH   4  23
TORSDOF 1
ENDMDL
MODEL       62
REMARK 921   NORMALIZED FREE ENERGY PREDICTED BY IDOCK:   -4.81 KCAL/MOL
REMARK 922        TOTAL FREE ENERGY PREDICTED BY IDOCK:   -5.11 KCAL/MOL
REMARK 923 INTER-LIGAND FREE ENERGY PREDICTED BY IDOCK:   -5.11 KCAL/MOL
REMARK 924 INTRA-LIGAND FREE ENERGY PREDICTED BY IDOCK:   -0.00 KCAL/MOL
REMARK 927      BINDING AFFINITY PREDICTED BY RF-SCORE:    0.00 PKD
ROOT
HETATM    1  C   UNL     1      -7.986  19.189  67.522  1.00  0.00    -0.284 C  
HETATM    2  C   UNL     1      -7.094  19.363  66.444  1.00  0.00    -0.240 C  
HETATM    3  C   UNL     1      -8.017  18.208  66.328  1.00  0.00    -0.271 C  
HETATM    4  C   UNL     1      -9.509  18.141  67.741  1.00  0.00    -0.268 C  
HETATM    5  H   UNL     1      -5.619  11.322  71.244  1.00  0.00     0.000 HD 
HETATM    6  O   UNL     1     -10.672  17.313  67.824  1.00  0.00    -0.368 OA 
HETATM    7  C   UNL     1      -9.559  18.682  66.488  1.00  0.00    -0.351 C  
HETATM    8  C   UNL     1      -7.350  13.816  68.744  1.00  0.00    -0.103 A  
HETATM    9  C   UNL     1      -9.685  16.910  65.868  1.00  0.00    -0.205 C  
HETATM   10  C   UNL     1     -10.456  19.717  65.882  1.00  0.00    -0.591 C  
HETATM   11  H   UNL     1     -11.362  17.282  68.477  1.00  0.00     0.000 HD 
HETATM   12  C   UNL     1      -8.871  15.798  66.970  1.00  0.00    -0.241 C  
HETATM   13  C   UNL     1      -7.523  16.220  67.884  1.00  0.00    -0.142 C  
HETATM   14  C   UNL     1      -7.023  15.177  68.890  1.00  0.00    -0.124 A  
HETATM   15  C   UNL     1      -6.058  15.534  69.863  1.00  0.00    -0.157 A  
HETATM   16  C   UNL     1      -5.518  14.544  70.707  1.00  0.00    -0.151 A  
HETATM   17  C   UNL     1      -5.567  16.953  70.063  1.00  0.00    -0.222 C  
HETATM   18  C   UNL     1      -5.923  17.941  68.953  1.00  0.00    -0.202 C  
HETATM   19  C   UNL     1      -5.885  13.212  70.555  1.00  0.00    -0.150 A  
HETATM   20  C   UNL     1      -6.786  12.841  69.570  1.00  0.00     0.032 A  
HETATM   21  C   UNL     1      -7.383  17.764  68.542  1.00  0.00    -0.266 C  
HETATM   22  O   UNL     1      -5.367  12.233  71.349  1.00  0.00    -0.320 OA 
ENDROOT
BRANCH   4  23
HETATM   23  C   UNL     1      -9.972  19.262  68.706  1.00  0.00    -0.511 C  
HETATM   24  C   UNL     1     -10.389  20.125  69.446  1.00  0.00     0.029 C  
ENDBRANCH   4  23
TORSDOF 1
ENDMDL
MODEL       63
REMARK 921   NORMALIZED FREE ENERGY PREDICTED BY IDOCK:   -4.78 KCAL/MOL
REMARK 922        TOTAL FREE ENERGY PREDICTED BY IDOCK:   -5.08 KCAL/MOL
REMARK 923 INTER-LIGAND FREE ENERGY PREDICTED BY IDOCK:   -5.09 KCAL/MOL
REMARK 924 INTRA-LIGAND FREE ENERGY PREDICTED BY IDOCK:    0.02 KCAL/MOL
REMARK 927      BINDING AFFINITY PREDICTED BY RF-SCORE:    0.00 PKD
ROOT
HETATM    1  C   UNL     1     -10.282   8.838  68.862  1.00  0.00    -0.221 C  
HETATM    2  C   UNL     1     -10.321   8.253  67.580  1.00  0.00    -0.333 C  
HETATM    3  C   UNL     1      -9.052   8.936  67.932  1.00  0.00    -0.145 C  
HETATM    4  C   UNL     1      -8.890   9.511  69.899  1.00  0.00    -0.211 C  
HETATM    5  H   UNL     1      -9.528  17.698  67.354  1.00  0.00     0.000 HD 
HETATM    6  O   UNL     1      -7.765  10.000  70.634  1.00  0.00    -0.404 OA 
HETATM    7  C   UNL     1      -8.450   8.355  69.321  1.00  0.00    -0.125 C  
HETATM    8  C   UNL     1      -8.417  13.951  67.792  1.00  0.00    -0.183 A  
HETATM    9  C   UNL     1      -7.051   9.395  68.612  1.00  0.00    -0.070 C  
HETATM   10  C   UNL     1      -8.121   7.012  69.897  1.00  0.00    -0.125 C  
HETATM   11  H   UNL     1      -7.690  10.266  71.543  1.00  0.00     0.000 HD 
HETATM   12  C   UNL     1      -7.565  11.067  68.377  1.00  0.00    -0.108 C  
HETATM   13  C   UNL     1      -9.144  11.505  67.998  1.00  0.00    -0.174 C  
HETATM   14  C   UNL     1      -9.448  13.008  67.963  1.00  0.00    -0.217 A  
HETATM   15  C   UNL     1     -10.788  13.459  67.895  1.00  0.00    -0.263 A  
HETATM   16  C   UNL     1     -11.055  14.835  67.744  1.00  0.00    -0.306 A  
HETATM   17  C   UNL     1     -11.982  12.532  67.987  1.00  0.00    -0.281 C  
HETATM   18  C   UNL     1     -11.679  11.042  67.837  1.00  0.00    -0.216 C  
HETATM   19  C   UNL     1     -10.012  15.743  67.608  1.00  0.00    -0.239 A  
HETATM   20  C   UNL     1      -8.697  15.308  67.616  1.00  0.00    -0.179 A  
HETATM   21  C   UNL     1     -10.448  10.673  68.662  1.00  0.00    -0.211 C  
HETATM   22  O   UNL     1     -10.242  17.077  67.447  1.00  0.00    -0.297 OA 
ENDROOT
BRANCH   4  23
HETATM   23  C   UNL     1      -9.763   9.077  71.104  1.00  0.00    -0.369 C  
HETATM   24  C   UNL     1     -10.402   8.702  72.062  1.00  0.00    -0.416 C  
ENDBRANCH   4  23
TORSDOF 1
ENDMDL
MODEL       64
REMARK 921   NORMALIZED FREE ENERGY PREDICTED BY IDOCK:   -4.72 KCAL/MOL
REMARK 922        TOTAL FREE ENERGY PREDICTED BY IDOCK:   -5.01 KCAL/MOL
REMARK 923 INTER-LIGAND FREE ENERGY PREDICTED BY IDOCK:   -5.05 KCAL/MOL
REMARK 924 INTRA-LIGAND FREE ENERGY PREDICTED BY IDOCK:    0.04 KCAL/MOL
REMARK 927      BINDING AFFINITY PREDICTED BY RF-SCORE:    0.00 PKD
ROOT
HETATM    1  C   UNL     1      -7.558   7.577  68.098  1.00  0.00    -0.114 C  
HETATM    2  C   UNL     1      -6.643   6.930  68.955  1.00  0.00    -0.044 C  
HETATM    3  C   UNL     1      -7.834   6.132  68.573  1.00  0.00    -0.104 C  
HETATM    4  C   UNL     1      -8.996   6.958  67.092  1.00  0.00    -0.120 C  
HETATM    5  H   UNL     1     -15.107   8.404  72.963  1.00  0.00     0.000 HD 
HETATM    6  O   UNL     1     -10.079   6.401  66.342  1.00  0.00    -0.361 OA 
HETATM    7  C   UNL     1      -7.983   6.052  66.960  1.00  0.00    -0.102 C  
HETATM    8  C   UNL     1     -12.404   6.719  70.656  1.00  0.00    -0.231 A  
HETATM    9  C   UNL     1      -9.212   4.779  67.600  1.00  0.00    -0.144 C  
HETATM   10  C   UNL     1      -7.115   5.685  65.796  1.00  0.00    -0.067 C  
HETATM   11  H   UNL     1     -10.616   6.782  65.658  1.00  0.00     0.000 HD 
HETATM   12  C   UNL     1     -10.398   5.530  68.668  1.00  0.00    -0.255 C  
HETATM   13  C   UNL     1     -10.057   6.856  69.645  1.00  0.00    -0.195 C  
HETATM   14  C   UNL     1     -11.238   7.467  70.409  1.00  0.00    -0.284 A  
HETATM   15  C   UNL     1     -11.094   8.719  71.055  1.00  0.00    -0.328 A  
HETATM   16  C   UNL     1     -12.144   9.218  71.852  1.00  0.00    -0.440 A  
HETATM   17  C   UNL     1      -9.854   9.580  70.930  1.00  0.00    -0.279 C  
HETATM   18  C   UNL     1      -8.627   8.894  70.330  1.00  0.00    -0.178 C  
HETATM   19  C   UNL     1     -13.295   8.466  72.050  1.00  0.00    -0.343 A  
HETATM   20  C   UNL     1     -13.425   7.215  71.470  1.00  0.00    -0.411 A  
HETATM   21  C   UNL     1      -9.031   8.077  69.105  1.00  0.00    -0.145 C  
HETATM   22  O   UNL     1     -14.319   8.919  72.827  1.00  0.00    -0.600 OA 
ENDROOT
BRANCH   4  23
HETATM   23  C   UNL     1      -8.648   8.125  66.133  1.00  0.00    -0.154 C  
HETATM   24  C   UNL     1      -8.354   9.065  65.430  1.00  0.00    -0.151 C  
ENDBRANCH   4  23
TORSDOF 1
ENDMDL
MODEL       65
REMARK 921   NORMALIZED FREE ENERGY PREDICTED BY IDOCK:   -4.66 KCAL/MOL
REMARK 922        TOTAL FREE ENERGY PREDICTED BY IDOCK:   -4.95 KCAL/MOL
REMARK 923 INTER-LIGAND FREE ENERGY PREDICTED BY IDOCK:   -4.93 KCAL/MOL
REMARK 924 INTRA-LIGAND FREE ENERGY PREDICTED BY IDOCK:   -0.02 KCAL/MOL
REMARK 927      BINDING AFFINITY PREDICTED BY RF-SCORE:    0.00 PKD
ROOT
HETATM    1  C   UNL     1      -8.427  10.881  66.516  1.00  0.00    -0.159 C  
HETATM    2  C   UNL     1      -7.238  11.244  67.181  1.00  0.00    -0.126 C  
HETATM    3  C   UNL     1      -7.380   9.801  66.870  1.00  0.00    -0.091 C  
HETATM    4  C   UNL     1      -8.956   9.327  65.638  1.00  0.00    -0.199 C  
HETATM    5  H   UNL     1     -12.813   5.572  72.341  1.00  0.00     0.000 HD 
HETATM    6  O   UNL     1      -9.281   8.102  64.976  1.00  0.00    -0.346 OA 
HETATM    7  C   UNL     1      -7.659   9.575  65.289  1.00  0.00    -0.111 C  
HETATM    8  C   UNL     1     -10.238   6.608  69.554  1.00  0.00    -0.208 A  
HETATM    9  C   UNL     1      -7.289   7.849  65.941  1.00  0.00    -0.076 C  
HETATM   10  C   UNL     1      -7.037   9.999  63.994  1.00  0.00    -0.126 C  
HETATM   11  H   UNL     1     -10.009   7.883  64.406  1.00  0.00     0.000 HD 
HETATM   12  C   UNL     1      -8.419   7.404  67.221  1.00  0.00    -0.118 C  
HETATM   13  C   UNL     1      -9.106   8.516  68.279  1.00  0.00    -0.138 C  
HETATM   14  C   UNL     1     -10.171   7.979  69.243  1.00  0.00    -0.214 A  
HETATM   15  C   UNL     1     -10.969   8.877  69.991  1.00  0.00    -0.217 A  
HETATM   16  C   UNL     1     -11.862   8.377  70.960  1.00  0.00    -0.278 A  
HETATM   17  C   UNL     1     -10.928  10.380  69.803  1.00  0.00    -0.345 C  
HETATM   18  C   UNL     1      -9.751  10.914  68.988  1.00  0.00    -0.181 C  
HETATM   19  C   UNL     1     -11.925   7.014  71.222  1.00  0.00    -0.346 A  
HETATM   20  C   UNL     1     -11.110   6.129  70.536  1.00  0.00    -0.405 A  
HETATM   21  C   UNL     1      -9.541  10.053  67.744  1.00  0.00    -0.168 C  
HETATM   22  O   UNL     1     -12.770   6.505  72.163  1.00  0.00    -0.245 OA 
ENDROOT
BRANCH   4  23
HETATM   23  C   UNL     1      -9.818  10.278  64.769  1.00  0.00    -0.403 C  
HETATM   24  C   UNL     1     -10.515  10.974  64.065  1.00  0.00    -0.433 C  
ENDBRANCH   4  23
TORSDOF 1
ENDMDL
MODEL       66
REMARK 921   NORMALIZED FREE ENERGY PREDICTED BY IDOCK:   -4.65 KCAL/MOL
REMARK 922        TOTAL FREE ENERGY PREDICTED BY IDOCK:   -4.94 KCAL/MOL
REMARK 923 INTER-LIGAND FREE ENERGY PREDICTED BY IDOCK:   -4.96 KCAL/MOL
REMARK 924 INTRA-LIGAND FREE ENERGY PREDICTED BY IDOCK:    0.02 KCAL/MOL
REMARK 927      BINDING AFFINITY PREDICTED BY RF-SCORE:    0.00 PKD
ROOT
HETATM    1  C   UNL     1     -10.804  11.835  66.912  1.00  0.00    -0.312 C  
HETATM    2  C   UNL     1     -12.020  11.490  66.287  1.00  0.00     0.616 C  
HETATM    3  C   UNL     1     -11.733  12.943  66.365  1.00  0.00    -0.454 C  
HETATM    4  C   UNL     1      -9.835  13.423  66.992  1.00  0.00    -0.250 C  
HETATM    5  H   UNL     1     -13.214  16.366  74.329  1.00  0.00     0.000 HD 
HETATM    6  O   UNL     1      -9.148  14.676  66.998  1.00  0.00    -0.213 OA 
HETATM    7  C   UNL     1     -10.288  13.282  65.712  1.00  0.00    -0.290 C  
HETATM    8  C   UNL     1     -12.386  15.723  70.538  1.00  0.00    -0.388 A  
HETATM    9  C   UNL     1     -11.092  14.967  65.950  1.00  0.00    -0.338 C  
HETATM   10  C   UNL     1      -9.575  13.007  64.424  1.00  0.00     0.422 C  
HETATM   11  H   UNL     1      -8.270  14.898  67.288  1.00  0.00     0.000 HD 
HETATM   12  C   UNL     1     -11.501  15.236  67.645  1.00  0.00    -0.287 C  
HETATM   13  C   UNL     1     -11.933  13.999  68.701  1.00  0.00    -0.389 C  
HETATM   14  C   UNL     1     -12.124  14.390  70.172  1.00  0.00    -0.397 A  
HETATM   15  C   UNL     1     -12.246  13.385  71.163  1.00  0.00    -0.243 A  
HETATM   16  C   UNL     1     -12.539  13.749  72.493  1.00  0.00    -0.105 A  
HETATM   17  C   UNL     1     -12.065  11.909  70.876  1.00  0.00    -0.237 C  
HETATM   18  C   UNL     1     -12.059  11.516  69.399  1.00  0.00    -0.345 C  
HETATM   19  C   UNL     1     -12.762  15.079  72.826  1.00  0.00    -0.400 A  
HETATM   20  C   UNL     1     -12.702  16.065  71.855  1.00  0.00    -0.387 A  
HETATM   21  C   UNL     1     -11.193  12.490  68.602  1.00  0.00    -0.319 C  
HETATM   22  O   UNL     1     -13.061  15.456  74.101  1.00  0.00    -0.290 OA 
ENDROOT
BRANCH   4  23
HETATM   23  C   UNL     1      -8.596  12.497  67.107  1.00  0.00    -0.200 C  
HETATM   24  C   UNL     1      -7.648  11.758  67.248  1.00  0.00    -0.150 C  
ENDBRANCH   4  23
TORSDOF 1
ENDMDL
MODEL       67
REMARK 921   NORMALIZED FREE ENERGY PREDICTED BY IDOCK:   -4.63 KCAL/MOL
REMARK 922        TOTAL FREE ENERGY PREDICTED BY IDOCK:   -4.92 KCAL/MOL
REMARK 923 INTER-LIGAND FREE ENERGY PREDICTED BY IDOCK:   -4.98 KCAL/MOL
REMARK 924 INTRA-LIGAND FREE ENERGY PREDICTED BY IDOCK:    0.05 KCAL/MOL
REMARK 927      BINDING AFFINITY PREDICTED BY RF-SCORE:    0.00 PKD
ROOT
HETATM    1  C   UNL     1      -9.288   5.095  70.667  1.00  0.00    -0.211 C  
HETATM    2  C   UNL     1      -9.880   4.502  69.533  1.00  0.00    -0.277 C  
HETATM    3  C   UNL     1      -9.124   5.753  69.278  1.00  0.00    -0.128 C  
HETATM    4  C   UNL     1      -8.015   6.438  70.867  1.00  0.00    -0.112 C  
HETATM    5  H   UNL     1     -13.506  13.011  71.614  1.00  0.00     0.000 HD 
HETATM    6  O   UNL     1      -7.028   7.470  70.934  1.00  0.00    -0.053 OA 
HETATM    7  C   UNL     1      -7.608   5.636  69.840  1.00  0.00    -0.075 C  
HETATM    8  C   UNL     1     -10.924  10.378  70.246  1.00  0.00    -0.353 A  
HETATM    9  C   UNL     1      -7.593   7.202  68.796  1.00  0.00    -0.108 C  
HETATM   10  C   UNL     1      -6.462   4.681  69.712  1.00  0.00    -0.032 C  
HETATM   11  H   UNL     1      -6.515   7.787  71.669  1.00  0.00     0.000 HD 
HETATM   12  C   UNL     1      -8.781   8.364  69.386  1.00  0.00    -0.137 C  
HETATM   13  C   UNL     1     -10.229   7.919  70.117  1.00  0.00    -0.202 C  
HETATM   14  C   UNL     1     -11.083   9.054  70.694  1.00  0.00    -0.314 A  
HETATM   15  C   UNL     1     -12.185   8.757  71.534  1.00  0.00    -0.382 A  
HETATM   16  C   UNL     1     -13.035   9.796  71.963  1.00  0.00    -0.515 A  
HETATM   17  C   UNL     1     -12.506   7.359  72.018  1.00  0.00    -0.280 C  
HETATM   18  C   UNL     1     -11.775   6.224  71.303  1.00  0.00    -0.300 C  
HETATM   19  C   UNL     1     -12.831  11.099  71.525  1.00  0.00    -0.437 A  
HETATM   20  C   UNL     1     -11.791  11.393  70.659  1.00  0.00    -0.327 A  
HETATM   21  C   UNL     1     -10.299   6.577  71.133  1.00  0.00    -0.237 C  
HETATM   22  O   UNL     1     -13.646  12.120  71.914  1.00  0.00    -0.307 OA 
ENDROOT
BRANCH   4  23
HETATM   23  C   UNL     1      -7.631   5.688  72.169  1.00  0.00    -0.101 C  
HETATM   24  C   UNL     1      -7.344   5.053  73.158  1.00  0.00    -0.087 C  
ENDBRANCH   4  23
TORSDOF 1
ENDMDL
MODEL       68
REMARK 921   NORMALIZED FREE ENERGY PREDICTED BY IDOCK:   -4.63 KCAL/MOL
REMARK 922        TOTAL FREE ENERGY PREDICTED BY IDOCK:   -4.91 KCAL/MOL
REMARK 923 INTER-LIGAND FREE ENERGY PREDICTED BY IDOCK:   -4.92 KCAL/MOL
REMARK 924 INTRA-LIGAND FREE ENERGY PREDICTED BY IDOCK:    0.01 KCAL/MOL
REMARK 927      BINDING AFFINITY PREDICTED BY RF-SCORE:    0.00 PKD
ROOT
HETATM    1  C   UNL     1      -8.668   9.840  66.807  1.00  0.00    -0.140 C  
HETATM    2  C   UNL     1      -9.428   8.993  65.975  1.00  0.00    -0.323 C  
HETATM    3  C   UNL     1     -10.209   9.824  66.924  1.00  0.00    -0.310 C  
HETATM    4  C   UNL     1      -9.128  11.268  67.909  1.00  0.00    -0.150 C  
HETATM    5  H   UNL     1     -10.079   6.757  75.165  1.00  0.00     0.000 HD 
HETATM    6  O   UNL     1      -9.563  12.359  68.724  1.00  0.00    -0.396 OA 
HETATM    7  C   UNL     1      -9.843  11.394  66.753  1.00  0.00    -0.232 C  
HETATM    8  C   UNL     1     -10.737   8.746  71.836  1.00  0.00    -0.429 A  
HETATM    9  C   UNL     1     -11.371  11.394  67.851  1.00  0.00    -0.371 C  
HETATM   10  C   UNL     1      -9.768  12.386  65.633  1.00  0.00    -0.183 C  
HETATM   11  H   UNL     1      -9.064  13.027  69.180  1.00  0.00     0.000 HD 
HETATM   12  C   UNL     1     -11.088  10.465  69.325  1.00  0.00    -0.303 C  
HETATM   13  C   UNL     1     -10.065   9.132  69.397  1.00  0.00    -0.198 C  
HETATM   14  C   UNL     1      -9.827   8.525  70.785  1.00  0.00    -0.220 A  
HETATM   15  C   UNL     1      -8.802   7.567  70.974  1.00  0.00    -0.146 A  
HETATM   16  C   UNL     1      -8.667   6.927  72.223  1.00  0.00    -0.132 A  
HETATM   17  C   UNL     1      -7.812   7.185  69.894  1.00  0.00    -0.113 C  
HETATM   18  C   UNL     1      -8.162   7.647  68.480  1.00  0.00    -0.125 C  
HETATM   19  C   UNL     1      -9.565   7.191  73.250  1.00  0.00    -0.195 A  
HETATM   20  C   UNL     1     -10.606   8.084  73.060  1.00  0.00    -0.332 A  
HETATM   21  C   UNL     1      -8.636   9.099  68.506  1.00  0.00    -0.129 C  
HETATM   22  O   UNL     1      -9.465   6.576  74.463  1.00  0.00    -0.214 OA 
ENDROOT
BRANCH   4  23
HETATM   23  C   UNL     1      -7.706  11.795  67.586  1.00  0.00    -0.137 C  
HETATM   24  C   UNL     1      -6.619  12.256  67.320  1.00  0.00    -0.146 C  
ENDBRANCH   4  23
TORSDOF 1
ENDMDL
MODEL       69
REMARK 921   NORMALIZED FREE ENERGY PREDICTED BY IDOCK:   -4.61 KCAL/MOL
REMARK 922        TOTAL FREE ENERGY PREDICTED BY IDOCK:   -4.90 KCAL/MOL
REMARK 923 INTER-LIGAND FREE ENERGY PREDICTED BY IDOCK:   -4.90 KCAL/MOL
REMARK 924 INTRA-LIGAND FREE ENERGY PREDICTED BY IDOCK:   -0.00 KCAL/MOL
REMARK 927      BINDING AFFINITY PREDICTED BY RF-SCORE:    0.00 PKD
ROOT
HETATM    1  C   UNL     1      -9.280   8.561  67.878  1.00  0.00    -0.148 C  
HETATM    2  C   UNL     1     -10.417   8.495  67.046  1.00  0.00    -0.362 C  
HETATM    3  C   UNL     1     -10.655   9.017  68.414  1.00  0.00    -0.200 C  
HETATM    4  C   UNL     1      -8.958   9.399  69.508  1.00  0.00    -0.164 C  
HETATM    5  H   UNL     1     -10.940   2.722  74.548  1.00  0.00     0.000 HD 
HETATM    6  O   UNL     1      -8.790  10.079  70.755  1.00  0.00    -0.305 OA 
HETATM    7  C   UNL     1      -9.674  10.267  68.735  1.00  0.00    -0.178 C  
HETATM    8  C   UNL     1     -11.046   6.089  72.518  1.00  0.00    -0.321 A  
HETATM    9  C   UNL     1     -10.922  10.289  70.143  1.00  0.00    -0.377 C  
HETATM   10  C   UNL     1      -9.305  11.566  68.087  1.00  0.00    -0.185 C  
HETATM   11  H   UNL     1      -8.005  10.255  71.261  1.00  0.00     0.000 HD 
HETATM   12  C   UNL     1     -10.903   8.761  71.026  1.00  0.00    -0.321 C  
HETATM   13  C   UNL     1     -10.548   7.281  70.309  1.00  0.00    -0.243 C  
HETATM   14  C   UNL     1     -10.442   6.073  71.247  1.00  0.00    -0.283 A  
HETATM   15  C   UNL     1      -9.913   4.849  70.771  1.00  0.00    -0.292 A  
HETATM   16  C   UNL     1      -9.927   3.712  71.602  1.00  0.00    -0.196 A  
HETATM   17  C   UNL     1      -9.308   4.686  69.392  1.00  0.00    -0.208 C  
HETATM   18  C   UNL     1      -9.581   5.825  68.409  1.00  0.00    -0.147 C  
HETATM   19  C   UNL     1     -10.505   3.770  72.865  1.00  0.00    -0.165 A  
HETATM   20  C   UNL     1     -11.076   4.946  73.321  1.00  0.00    -0.410 A  
HETATM   21  C   UNL     1      -9.381   7.172  69.100  1.00  0.00    -0.141 C  
HETATM   22  O   UNL     1     -10.544   2.681  73.684  1.00  0.00    -0.130 OA 
ENDROOT
BRANCH   4  23
HETATM   23  C   UNL     1      -7.493   9.497  69.011  1.00  0.00    -0.074 C  
HETATM   24  C   UNL     1      -6.337   9.525  68.652  1.00  0.00    -0.048 C  
ENDBRANCH   4  23
TORSDOF 1
ENDMDL
MODEL       70
REMARK 921   NORMALIZED FREE ENERGY PREDICTED BY IDOCK:   -4.58 KCAL/MOL
REMARK 922        TOTAL FREE ENERGY PREDICTED BY IDOCK:   -4.87 KCAL/MOL
REMARK 923 INTER-LIGAND FREE ENERGY PREDICTED BY IDOCK:   -4.85 KCAL/MOL
REMARK 924 INTRA-LIGAND FREE ENERGY PREDICTED BY IDOCK:   -0.02 KCAL/MOL
REMARK 927      BINDING AFFINITY PREDICTED BY RF-SCORE:    0.00 PKD
ROOT
HETATM    1  C   UNL     1      -7.817   7.046  68.163  1.00  0.00    -0.118 C  
HETATM    2  C   UNL     1      -8.337   6.972  66.855  1.00  0.00    -0.118 C  
HETATM    3  C   UNL     1      -8.281   8.333  67.444  1.00  0.00    -0.121 C  
HETATM    4  C   UNL     1      -7.246   8.473  69.214  1.00  0.00    -0.063 C  
HETATM    5  H   UNL     1     -14.707   9.890  73.242  1.00  0.00     0.000 HD 
HETATM    6  O   UNL     1      -6.819   9.621  69.951  1.00  0.00    -0.056 OA 
HETATM    7  C   UNL     1      -6.780   8.683  67.947  1.00  0.00    -0.066 C  
HETATM    8  C   UNL     1     -11.633  10.092  70.797  1.00  0.00    -0.444 A  
HETATM    9  C   UNL     1      -7.688  10.329  68.026  1.00  0.00    -0.089 C  
HETATM   10  C   UNL     1      -5.397   8.656  67.373  1.00  0.00    -0.034 C  
HETATM   11  H   UNL     1      -6.340   9.686  70.769  1.00  0.00     0.000 HD 
HETATM   12  C   UNL     1      -9.092  10.225  69.090  1.00  0.00    -0.199 C  
HETATM   13  C   UNL     1      -9.989   8.818  69.304  1.00  0.00    -0.194 C  
HETATM   14  C   UNL     1     -11.093   8.865  70.368  1.00  0.00    -0.270 A  
HETATM   15  C   UNL     1     -11.728   7.670  70.784  1.00  0.00    -0.260 A  
HETATM   16  C   UNL     1     -12.820   7.732  71.673  1.00  0.00    -0.365 A  
HETATM   17  C   UNL     1     -11.290   6.294  70.328  1.00  0.00    -0.457 C  
HETATM   18  C   UNL     1     -10.325   6.263  69.143  1.00  0.00    -0.262 C  
HETATM   19  C   UNL     1     -13.310   8.960  72.100  1.00  0.00    -0.440 A  
HETATM   20  C   UNL     1     -12.733  10.139  71.657  1.00  0.00    -0.549 A  
HETATM   21  C   UNL     1      -9.233   7.314  69.330  1.00  0.00    -0.144 C  
HETATM   22  O   UNL     1     -14.373   9.050  72.949  1.00  0.00    -0.550 OA 
ENDROOT
BRANCH   4  23
HETATM   23  C   UNL     1      -6.285   7.437  69.852  1.00  0.00    -0.027 C  
HETATM   24  C   UNL     1      -5.544   6.654  70.401  1.00  0.00    -0.023 C  
ENDBRANCH   4  23
TORSDOF 1
ENDMDL
MODEL       71
REMARK 921   NORMALIZED FREE ENERGY PREDICTED BY IDOCK:   -4.57 KCAL/MOL
REMARK 922        TOTAL FREE ENERGY PREDICTED BY IDOCK:   -4.86 KCAL/MOL
REMARK 923 INTER-LIGAND FREE ENERGY PREDICTED BY IDOCK:   -4.84 KCAL/MOL
REMARK 924 INTRA-LIGAND FREE ENERGY PREDICTED BY IDOCK:   -0.01 KCAL/MOL
REMARK 927      BINDING AFFINITY PREDICTED BY RF-SCORE:    0.00 PKD
ROOT
HETATM    1  C   UNL     1     -11.156   7.412  70.080  1.00  0.00    -0.265 C  
HETATM    2  C   UNL     1     -11.153   6.025  69.823  1.00  0.00    -0.476 C  
HETATM    3  C   UNL     1      -9.911   6.564  70.428  1.00  0.00    -0.202 C  
HETATM    4  C   UNL     1     -10.034   8.510  71.081  1.00  0.00    -0.207 C  
HETATM    5  H   UNL     1      -4.774  10.786  64.674  1.00  0.00     0.000 HD 
HETATM    6  O   UNL     1      -9.130   9.281  71.877  1.00  0.00    -0.290 OA 
HETATM    7  C   UNL     1     -10.237   7.367  71.799  1.00  0.00    -0.212 C  
HETATM    8  C   UNL     1      -6.360   9.055  67.829  1.00  0.00    -0.056 A  
HETATM    9  C   UNL     1      -8.364   7.190  71.804  1.00  0.00    -0.105 C  
HETATM   10  C   UNL     1     -10.983   7.105  73.072  1.00  0.00    -0.357 C  
HETATM   11  H   UNL     1      -9.187  10.180  72.178  1.00  0.00     0.000 HD 
HETATM   12  C   UNL     1      -7.658   7.931  70.366  1.00  0.00    -0.082 C  
HETATM   13  C   UNL     1      -8.440   7.996  68.879  1.00  0.00    -0.131 C  
HETATM   14  C   UNL     1      -7.742   8.795  67.772  1.00  0.00    -0.102 A  
HETATM   15  C   UNL     1      -8.435   9.106  66.576  1.00  0.00    -0.127 A  
HETATM   16  C   UNL     1      -7.752   9.737  65.517  1.00  0.00    -0.121 A  
HETATM   17  C   UNL     1      -9.904   8.804  66.365  1.00  0.00    -0.352 C  
HETATM   18  C   UNL     1     -10.539   7.855  67.381  1.00  0.00    -0.342 C  
HETATM   19  C   UNL     1      -6.392  10.006  65.618  1.00  0.00    -0.094 A  
HETATM   20  C   UNL     1      -5.690   9.656  66.760  1.00  0.00    -0.051 A  
HETATM   21  C   UNL     1     -10.105   8.236  68.795  1.00  0.00    -0.212 C  
HETATM   22  O   UNL     1      -5.704  10.602  64.604  1.00  0.00    -0.129 OA 
ENDROOT
BRANCH   4  23
HETATM   23  C   UNL     1     -11.302   9.376  71.295  1.00  0.00    -0.436 C  
HETATM   24  C   UNL     1     -12.262  10.097  71.442  1.00  0.00    -0.492 C  
ENDBRANCH   4  23
TORSDOF 1
ENDMDL
MODEL       72
REMARK 921   NORMALIZED FREE ENERGY PREDICTED BY IDOCK:   -4.54 KCAL/MOL
REMARK 922        TOTAL FREE ENERGY PREDICTED BY IDOCK:   -4.82 KCAL/MOL
REMARK 923 INTER-LIGAND FREE ENERGY PREDICTED BY IDOCK:   -4.84 KCAL/MOL
REMARK 924 INTRA-LIGAND FREE ENERGY PREDICTED BY IDOCK:    0.02 KCAL/MOL
REMARK 927      BINDING AFFINITY PREDICTED BY RF-SCORE:    0.00 PKD
ROOT
HETATM    1  C   UNL     1     -11.703  14.779  66.983  1.00  0.00    -0.330 C  
HETATM    2  C   UNL     1     -12.410  14.108  68.002  1.00  0.00    -0.016 C  
HETATM    3  C   UNL     1     -10.932  14.078  68.124  1.00  0.00    -0.268 C  
HETATM    4  C   UNL     1      -9.926  15.308  66.820  1.00  0.00    -0.242 C  
HETATM    5  H   UNL     1      -7.103   8.312  62.699  1.00  0.00     0.000 HD 
HETATM    6  O   UNL     1      -8.548  15.688  66.777  1.00  0.00    -0.226 OA 
HETATM    7  C   UNL     1     -10.319  15.579  68.099  1.00  0.00    -0.237 C  
HETATM    8  C   UNL     1      -7.946  11.001  65.443  1.00  0.00     0.141 A  
HETATM    9  C   UNL     1      -8.873  14.501  68.634  1.00  0.00    -0.180 C  
HETATM   10  C   UNL     1     -10.553  16.870  68.821  1.00  0.00    -0.355 C  
HETATM   11  H   UNL     1      -8.083  16.257  66.174  1.00  0.00     0.000 HD 
HETATM   12  C   UNL     1      -8.524  13.268  67.421  1.00  0.00    -0.206 C  
HETATM   13  C   UNL     1      -9.700  12.578  66.436  1.00  0.00    -0.253 C  
HETATM   14  C   UNL     1      -9.205  11.623  65.344  1.00  0.00    -0.077 A  
HETATM   15  C   UNL     1     -10.088  11.191  64.324  1.00  0.00    -0.382 A  
HETATM   16  C   UNL     1      -9.661  10.223  63.394  1.00  0.00    -0.316 A  
HETATM   17  C   UNL     1     -11.495  11.727  64.163  1.00  0.00    -0.409 C  
HETATM   18  C   UNL     1     -12.040  12.528  65.346  1.00  0.00    -0.494 C  
HETATM   19  C   UNL     1      -8.399   9.651  63.503  1.00  0.00    -0.172 A  
HETATM   20  C   UNL     1      -7.546  10.023  64.528  1.00  0.00    -0.142 A  
HETATM   21  C   UNL     1     -10.979  13.504  65.850  1.00  0.00    -0.284 C  
HETATM   22  O   UNL     1      -7.966   8.703  62.624  1.00  0.00    -0.134 OA 
ENDROOT
BRANCH   4  23
HETATM   23  C   UNL     1     -10.494  16.459  65.950  1.00  0.00    -0.350 C  
HETATM   24  C   UNL     1     -10.959  17.317  65.235  1.00  0.00     0.089 C  
ENDBRANCH   4  23
TORSDOF 1
ENDMDL
MODEL       73
REMARK 921   NORMALIZED FREE ENERGY PREDICTED BY IDOCK:   -4.48 KCAL/MOL
REMARK 922        TOTAL FREE ENERGY PREDICTED BY IDOCK:   -4.76 KCAL/MOL
REMARK 923 INTER-LIGAND FREE ENERGY PREDICTED BY IDOCK:   -4.74 KCAL/MOL
REMARK 924 INTRA-LIGAND FREE ENERGY PREDICTED BY IDOCK:   -0.02 KCAL/MOL
REMARK 927      BINDING AFFINITY PREDICTED BY RF-SCORE:    0.00 PKD
ROOT
HETATM    1  C   UNL     1      -9.934  13.917  67.480  1.00  0.00    -0.240 C  
HETATM    2  C   UNL     1      -9.226  14.486  66.402  1.00  0.00    -0.264 C  
HETATM    3  C   UNL     1      -9.860  13.174  66.126  1.00  0.00    -0.284 C  
HETATM    4  C   UNL     1     -11.139  12.502  67.588  1.00  0.00    -0.258 C  
HETATM    5  H   UNL     1      -5.418   6.376  69.502  1.00  0.00     0.000 HD 
HETATM    6  O   UNL     1     -12.061  11.409  67.585  1.00  0.00    -0.630 OA 
HETATM    7  C   UNL     1     -11.445  13.216  66.466  1.00  0.00    -0.378 C  
HETATM    8  C   UNL     1      -7.937   8.744  67.626  1.00  0.00    -0.106 A  
HETATM    9  C   UNL     1     -11.217  11.598  65.532  1.00  0.00    -0.267 C  
HETATM   10  C   UNL     1     -12.618  14.082  66.121  1.00  0.00    -0.407 C  
HETATM   11  H   UNL     1     -12.652  11.098  68.261  1.00  0.00     0.000 HD 
HETATM   12  C   UNL     1     -10.055  10.555  66.353  1.00  0.00    -0.285 C  
HETATM   13  C   UNL     1      -8.755  11.140  67.246  1.00  0.00    -0.139 C  
HETATM   14  C   UNL     1      -7.923  10.100  68.006  1.00  0.00    -0.101 A  
HETATM   15  C   UNL     1      -6.972  10.517  68.968  1.00  0.00    -0.076 A  
HETATM   16  C   UNL     1      -6.129   9.565  69.576  1.00  0.00    -0.040 A  
HETATM   17  C   UNL     1      -6.808  11.959  69.402  1.00  0.00    -0.048 C  
HETATM   18  C   UNL     1      -7.499  13.000  68.522  1.00  0.00    -0.123 C  
HETATM   19  C   UNL     1      -6.190   8.229  69.198  1.00  0.00    -0.039 A  
HETATM   20  C   UNL     1      -7.076   7.816  68.218  1.00  0.00    -0.084 A  
HETATM   21  C   UNL     1      -8.911  12.536  68.174  1.00  0.00    -0.199 C  
HETATM   22  O   UNL     1      -5.377   7.290  69.760  1.00  0.00    -0.021 OA 
ENDROOT
BRANCH   4  23
HETATM   23  C   UNL     1     -11.748  13.294  68.774  1.00  0.00    -0.366 C  
HETATM   24  C   UNL     1     -12.237  13.862  69.724  1.00  0.00    -0.388 C  
ENDBRANCH   4  23
TORSDOF 1
ENDMDL
MODEL       74
REMARK 921   NORMALIZED FREE ENERGY PREDICTED BY IDOCK:   -4.44 KCAL/MOL
REMARK 922        TOTAL FREE ENERGY PREDICTED BY IDOCK:   -4.72 KCAL/MOL
REMARK 923 INTER-LIGAND FREE ENERGY PREDICTED BY IDOCK:   -4.77 KCAL/MOL
REMARK 924 INTRA-LIGAND FREE ENERGY PREDICTED BY IDOCK:    0.05 KCAL/MOL
REMARK 927      BINDING AFFINITY PREDICTED BY RF-SCORE:    0.00 PKD
ROOT
HETATM    1  C   UNL     1      -8.202   6.857  68.728  1.00  0.00    -0.121 C  
HETATM    2  C   UNL     1      -7.045   7.042  69.513  1.00  0.00    -0.071 C  
HETATM    3  C   UNL     1      -8.192   6.409  70.207  1.00  0.00    -0.125 C  
HETATM    4  C   UNL     1      -9.754   5.863  68.988  1.00  0.00    -0.136 C  
HETATM    5  H   UNL     1     -14.455  12.128  72.531  1.00  0.00     0.000 HD 
HETATM    6  O   UNL     1     -10.911   5.067  69.260  1.00  0.00     0.070 OA 
HETATM    7  C   UNL     1      -8.703   5.097  69.402  1.00  0.00    -0.112 C  
HETATM    8  C   UNL     1     -12.188   8.966  71.958  1.00  0.00    -0.447 A  
HETATM    9  C   UNL     1      -9.594   4.997  71.056  1.00  0.00    -0.232 C  
HETATM   10  C   UNL     1      -8.093   3.849  68.842  1.00  0.00    -0.075 C  
HETATM   11  H   UNL     1     -11.633   4.814  68.697  1.00  0.00     0.000 HD 
HETATM   12  C   UNL     1     -10.577   6.436  71.330  1.00  0.00    -0.274 C  
HETATM   13  C   UNL     1     -10.172   7.960  70.743  1.00  0.00    -0.202 C  
HETATM   14  C   UNL     1     -11.205   9.073  70.956  1.00  0.00    -0.361 A  
HETATM   15  C   UNL     1     -11.060  10.313  70.288  1.00  0.00    -0.388 A  
HETATM   16  C   UNL     1     -11.946  11.370  70.579  1.00  0.00    -0.451 A  
HETATM   17  C   UNL     1      -9.991  10.576  69.248  1.00  0.00    -0.233 C  
HETATM   18  C   UNL     1      -8.867   9.543  69.176  1.00  0.00    -0.147 C  
HETATM   19  C   UNL     1     -12.925  11.221  71.554  1.00  0.00    -0.415 A  
HETATM   20  C   UNL     1     -13.042  10.032  72.254  1.00  0.00    -0.385 A  
HETATM   21  C   UNL     1      -9.449   8.132  69.232  1.00  0.00    -0.159 C  
HETATM   22  O   UNL     1     -13.785  12.231  71.864  1.00  0.00    -0.211 OA 
ENDROOT
BRANCH   4  23
HETATM   23  C   UNL     1      -9.776   5.752  67.441  1.00  0.00    -0.133 C  
HETATM   24  C   UNL     1      -9.735   5.668  66.235  1.00  0.00    -0.162 C  
ENDBRANCH   4  23
TORSDOF 1
ENDMDL
MODEL       75
REMARK 921   NORMALIZED FREE ENERGY PREDICTED BY IDOCK:   -4.44 KCAL/MOL
REMARK 922        TOTAL FREE ENERGY PREDICTED BY IDOCK:   -4.71 KCAL/MOL
REMARK 923 INTER-LIGAND FREE ENERGY PREDICTED BY IDOCK:   -4.70 KCAL/MOL
REMARK 924 INTRA-LIGAND FREE ENERGY PREDICTED BY IDOCK:   -0.01 KCAL/MOL
REMARK 927      BINDING AFFINITY PREDICTED BY RF-SCORE:    0.00 PKD
ROOT
HETATM    1  C   UNL     1      -7.679   9.677  68.250  1.00  0.00    -0.082 C  
HETATM    2  C   UNL     1      -8.391   9.535  69.459  1.00  0.00    -0.145 C  
HETATM    3  C   UNL     1      -9.190   9.353  68.223  1.00  0.00    -0.133 C  
HETATM    4  C   UNL     1      -8.096   9.255  66.486  1.00  0.00    -0.104 C  
HETATM    5  H   UNL     1     -11.278  16.929  64.276  1.00  0.00     0.000 HD 
HETATM    6  O   UNL     1      -8.490   8.894  65.159  1.00  0.00    -0.154 OA 
HETATM    7  C   UNL     1      -8.528   8.223  67.268  1.00  0.00    -0.124 C  
HETATM    8  C   UNL     1     -10.886  13.174  65.378  1.00  0.00    -0.299 A  
HETATM    9  C   UNL     1     -10.223   8.530  66.511  1.00  0.00    -0.286 C  
HETATM   10  C   UNL     1      -8.054   6.809  67.409  1.00  0.00    -0.118 C  
HETATM   11  H   UNL     1      -7.984   8.848  64.356  1.00  0.00     0.000 HD 
HETATM   12  C   UNL     1     -10.413  10.224  66.056  1.00  0.00    -0.181 C  
HETATM   13  C   UNL     1      -9.675  11.492  66.880  1.00  0.00    -0.205 C  
HETATM   14  C   UNL     1      -9.835  12.890  66.270  1.00  0.00    -0.273 A  
HETATM   15  C   UNL     1      -9.054  13.968  66.752  1.00  0.00    -0.250 A  
HETATM   16  C   UNL     1      -9.289  15.271  66.270  1.00  0.00    -0.345 A  
HETATM   17  C   UNL     1      -7.947  13.801  67.772  1.00  0.00    -0.170 C  
HETATM   18  C   UNL     1      -7.916  12.459  68.503  1.00  0.00    -0.110 C  
HETATM   19  C   UNL     1     -10.317  15.512  65.366  1.00  0.00    -0.394 A  
HETATM   20  C   UNL     1     -11.124  14.476  64.929  1.00  0.00    -0.401 A  
HETATM   21  C   UNL     1      -8.124  11.317  67.511  1.00  0.00    -0.124 C  
HETATM   22  O   UNL     1     -10.575  16.765  64.894  1.00  0.00    -0.702 OA 
ENDROOT
BRANCH   4  23
HETATM   23  C   UNL     1      -6.568   9.050  66.320  1.00  0.00    -0.066 C  
HETATM   24  C   UNL     1      -5.386   8.863  66.141  1.00  0.00    -0.037 C  
ENDBRANCH   4  23
TORSDOF 1
ENDMDL
MODEL       76
REMARK 921   NORMALIZED FREE ENERGY PREDICTED BY IDOCK:   -4.43 KCAL/MOL
REMARK 922        TOTAL FREE ENERGY PREDICTED BY IDOCK:   -4.70 KCAL/MOL
REMARK 923 INTER-LIGAND FREE ENERGY PREDICTED BY IDOCK:   -4.70 KCAL/MOL
REMARK 924 INTRA-LIGAND FREE ENERGY PREDICTED BY IDOCK:   -0.00 KCAL/MOL
REMARK 927      BINDING AFFINITY PREDICTED BY RF-SCORE:    0.00 PKD
ROOT
HETATM    1  C   UNL     1      -9.134  10.326  69.653  1.00  0.00    -0.149 C  
HETATM    2  C   UNL     1      -7.802  10.668  69.342  1.00  0.00    -0.126 C  
HETATM    3  C   UNL     1      -8.657  10.313  68.184  1.00  0.00    -0.119 C  
HETATM    4  C   UNL     1     -10.659  10.118  68.606  1.00  0.00    -0.210 C  
HETATM    5  H   UNL     1      -9.913   1.654  67.302  1.00  0.00     0.000 HD 
HETATM    6  O   UNL     1     -11.784   9.987  67.733  1.00  0.00    -0.525 OA 
HETATM    7  C   UNL     1      -9.998  11.224  68.154  1.00  0.00    -0.191 C  
HETATM    8  C   UNL     1      -9.822   5.564  66.893  1.00  0.00    -0.181 A  
HETATM    9  C   UNL     1      -9.984  10.370  66.477  1.00  0.00    -0.271 C  
HETATM   10  C   UNL     1     -10.334  12.682  68.210  1.00  0.00    -0.246 C  
HETATM   11  H   UNL     1     -12.710   9.897  67.928  1.00  0.00     0.000 HD 
HETATM   12  C   UNL     1      -9.982   8.615  66.663  1.00  0.00    -0.357 C  
HETATM   13  C   UNL     1      -9.258   7.822  67.958  1.00  0.00    -0.140 C  
HETATM   14  C   UNL     1      -9.467   6.305  68.036  1.00  0.00    -0.116 A  
HETATM   15  C   UNL     1      -9.106   5.598  69.208  1.00  0.00    -0.128 A  
HETATM   16  C   UNL     1      -9.191   4.192  69.230  1.00  0.00    -0.213 A  
HETATM   17  C   UNL     1      -8.632   6.279  70.476  1.00  0.00    -0.139 C  
HETATM   18  C   UNL     1      -8.254   7.753  70.336  1.00  0.00    -0.121 C  
HETATM   19  C   UNL     1      -9.574   3.493  68.091  1.00  0.00    -0.100 A  
HETATM   20  C   UNL     1      -9.875   4.168  66.921  1.00  0.00    -0.197 A  
HETATM   21  C   UNL     1      -9.304   8.486  69.505  1.00  0.00    -0.161 C  
HETATM   22  O   UNL     1      -9.651   2.131  68.081  1.00  0.00    -0.212 OA 
ENDROOT
BRANCH   4  23
HETATM   23  C   UNL     1     -11.424  10.572  69.876  1.00  0.00    -0.384 C  
HETATM   24  C   UNL     1     -12.027  10.870  70.882  1.00  0.00    -0.416 C  
ENDBRANCH   4  23
TORSDOF 1
ENDMDL
MODEL       77
REMARK 921   NORMALIZED FREE ENERGY PREDICTED BY IDOCK:   -4.40 KCAL/MOL
REMARK 922        TOTAL FREE ENERGY PREDICTED BY IDOCK:   -4.67 KCAL/MOL
REMARK 923 INTER-LIGAND FREE ENERGY PREDICTED BY IDOCK:   -4.67 KCAL/MOL
REMARK 924 INTRA-LIGAND FREE ENERGY PREDICTED BY IDOCK:    0.00 KCAL/MOL
REMARK 927      BINDING AFFINITY PREDICTED BY RF-SCORE:    0.00 PKD
ROOT
HETATM    1  C   UNL     1      -9.715   7.648  73.059  1.00  0.00    -0.301 C  
HETATM    2  C   UNL     1     -10.978   7.103  73.370  1.00  0.00    -0.277 C  
HETATM    3  C   UNL     1     -10.193   6.359  72.354  1.00  0.00    -0.204 C  
HETATM    4  C   UNL     1      -8.246   6.977  72.134  1.00  0.00    -0.100 C  
HETATM    5  H   UNL     1     -10.321  10.123  64.408  1.00  0.00     0.000 HD 
HETATM    6  O   UNL     1      -7.158   6.385  71.418  1.00  0.00    -0.074 OA 
HETATM    7  C   UNL     1      -8.725   5.974  72.926  1.00  0.00    -0.123 C  
HETATM    8  C   UNL     1      -9.795   7.769  67.514  1.00  0.00    -0.221 A  
HETATM    9  C   UNL     1      -8.879   4.973  71.340  1.00  0.00    -0.151 C  
HETATM   10  C   UNL     1      -8.164   5.304  74.142  1.00  0.00    -0.109 C  
HETATM   11  H   UNL     1      -6.258   6.671  71.317  1.00  0.00     0.000 HD 
HETATM   12  C   UNL     1      -9.157   6.028  69.953  1.00  0.00    -0.147 C  
HETATM   13  C   UNL     1      -9.993   7.484  70.050  1.00  0.00    -0.186 C  
HETATM   14  C   UNL     1     -10.026   8.342  68.780  1.00  0.00    -0.193 A  
HETATM   15  C   UNL     1     -10.489   9.679  68.837  1.00  0.00    -0.234 A  
HETATM   16  C   UNL     1     -10.628  10.422  67.647  1.00  0.00    -0.304 A  
HETATM   17  C   UNL     1     -10.845  10.379  70.132  1.00  0.00    -0.333 C  
HETATM   18  C   UNL     1     -10.987   9.477  71.357  1.00  0.00    -0.415 C  
HETATM   19  C   UNL     1     -10.363   9.834  66.416  1.00  0.00    -0.177 A  
HETATM   20  C   UNL     1      -9.963   8.510  66.342  1.00  0.00    -0.314 A  
HETATM   21  C   UNL     1      -9.837   8.473  71.404  1.00  0.00    -0.296 C  
HETATM   22  O   UNL     1     -10.502  10.525  65.249  1.00  0.00    -0.262 OA 
ENDROOT
BRANCH   4  23
HETATM   23  C   UNL     1      -7.414   7.893  73.069  1.00  0.00    -0.146 C  
HETATM   24  C   UNL     1      -6.723   8.569  73.798  1.00  0.00    -0.107 C  
ENDBRANCH   4  23
TORSDOF 1
ENDMDL
MODEL       78
REMARK 921   NORMALIZED FREE ENERGY PREDICTED BY IDOCK:   -4.37 KCAL/MOL
REMARK 922        TOTAL FREE ENERGY PREDICTED BY IDOCK:   -4.64 KCAL/MOL
REMARK 923 INTER-LIGAND FREE ENERGY PREDICTED BY IDOCK:   -4.69 KCAL/MOL
REMARK 924 INTRA-LIGAND FREE ENERGY PREDICTED BY IDOCK:    0.05 KCAL/MOL
REMARK 927      BINDING AFFINITY PREDICTED BY RF-SCORE:    0.00 PKD
ROOT
HETATM    1  C   UNL     1      -8.128  10.468  67.720  1.00  0.00    -0.106 C  
HETATM    2  C   UNL     1      -8.114  10.215  69.108  1.00  0.00    -0.134 C  
HETATM    3  C   UNL     1      -9.416  10.658  68.552  1.00  0.00    -0.176 C  
HETATM    4  C   UNL     1      -9.509  10.726  66.500  1.00  0.00    -0.169 C  
HETATM    5  H   UNL     1      -9.780  19.305  66.990  1.00  0.00     0.000 HD 
HETATM    6  O   UNL     1     -10.627  10.905  65.626  1.00  0.00    -0.236 OA 
HETATM    7  C   UNL     1      -9.877   9.703  67.326  1.00  0.00    -0.225 C  
HETATM    8  C   UNL     1     -10.515  15.467  67.440  1.00  0.00    -0.281 A  
HETATM    9  C   UNL     1     -11.406  10.731  67.707  1.00  0.00    -0.354 C  
HETATM   10  C   UNL     1     -10.045   8.234  67.084  1.00  0.00    -0.334 C  
HETATM   11  H   UNL     1     -10.671  10.937  64.678  1.00  0.00     0.000 HD 
HETATM   12  C   UNL     1     -11.062  12.454  67.546  1.00  0.00    -0.313 C  
HETATM   13  C   UNL     1      -9.556  13.132  67.864  1.00  0.00    -0.218 C  
HETATM   14  C   UNL     1      -9.393  14.622  67.543  1.00  0.00    -0.195 A  
HETATM   15  C   UNL     1      -8.107  15.214  67.548  1.00  0.00    -0.196 A  
HETATM   16  C   UNL     1      -7.977  16.605  67.367  1.00  0.00    -0.186 A  
HETATM   17  C   UNL     1      -6.829  14.421  67.729  1.00  0.00    -0.194 C  
HETATM   18  C   UNL     1      -7.004  12.986  68.227  1.00  0.00    -0.101 C  
HETATM   19  C   UNL     1      -9.105  17.407  67.239  1.00  0.00    -0.237 A  
HETATM   20  C   UNL     1     -10.371  16.849  67.289  1.00  0.00    -0.309 A  
HETATM   21  C   UNL     1      -8.143  12.305  67.472  1.00  0.00    -0.170 C  
HETATM   22  O   UNL     1      -9.008  18.757  67.078  1.00  0.00    -0.278 OA 
ENDROOT
BRANCH   4  23
HETATM   23  C   UNL     1      -8.528  10.108  65.470  1.00  0.00    -0.159 C  
HETATM   24  C   UNL     1      -7.722   9.624  64.708  1.00  0.00    -0.122 C  
ENDBRANCH   4  23
TORSDOF 1
ENDMDL
MODEL       79
REMARK 921   NORMALIZED FREE ENERGY PREDICTED BY IDOCK:   -4.34 KCAL/MOL
REMARK 922        TOTAL FREE ENERGY PREDICTED BY IDOCK:   -4.62 KCAL/MOL
REMARK 923 INTER-LIGAND FREE ENERGY PREDICTED BY IDOCK:   -4.60 KCAL/MOL
REMARK 924 INTRA-LIGAND FREE ENERGY PREDICTED BY IDOCK:   -0.01 KCAL/MOL
REMARK 927      BINDING AFFINITY PREDICTED BY RF-SCORE:    0.00 PKD
ROOT
HETATM    1  C   UNL     1      -7.224   9.763  66.408  1.00  0.00    -0.095 C  
HETATM    2  C   UNL     1      -6.732   9.231  67.617  1.00  0.00    -0.068 C  
HETATM    3  C   UNL     1      -8.198   9.126  67.424  1.00  0.00    -0.107 C  
HETATM    4  C   UNL     1      -8.866   9.619  65.543  1.00  0.00    -0.172 C  
HETATM    5  H   UNL     1     -12.452  16.685  68.878  1.00  0.00     0.000 HD 
HETATM    6  O   UNL     1     -10.151   9.451  64.940  1.00  0.00    -0.253 OA 
HETATM    7  C   UNL     1      -8.546   8.383  66.025  1.00  0.00    -0.164 C  
HETATM    8  C   UNL     1     -11.412  12.967  68.128  1.00  0.00    -0.354 A  
HETATM    9  C   UNL     1     -10.194   8.453  66.931  1.00  0.00    -0.383 C  
HETATM   10  C   UNL     1      -8.163   7.109  65.337  1.00  0.00    -0.137 C  
HETATM   11  H   UNL     1     -10.460   9.679  64.071  1.00  0.00     0.000 HD 
HETATM   12  C   UNL     1     -10.638  10.119  67.304  1.00  0.00    -0.321 C  
HETATM   13  C   UNL     1      -9.512  11.329  67.620  1.00  0.00    -0.173 C  
HETATM   14  C   UNL     1     -10.063  12.749  67.791  1.00  0.00    -0.224 A  
HETATM   15  C   UNL     1      -9.179  13.856  67.815  1.00  0.00    -0.197 A  
HETATM   16  C   UNL     1      -9.680  15.144  68.089  1.00  0.00    -0.217 A  
HETATM   17  C   UNL     1      -7.693  13.737  67.546  1.00  0.00    -0.187 C  
HETATM   18  C   UNL     1      -7.128  12.317  67.560  1.00  0.00    -0.142 C  
HETATM   19  C   UNL     1     -11.024  15.327  68.390  1.00  0.00    -0.271 A  
HETATM   20  C   UNL     1     -11.889  14.246  68.425  1.00  0.00    -0.373 A  
HETATM   21  C   UNL     1      -8.050  11.378  66.786  1.00  0.00    -0.161 C  
HETATM   22  O   UNL     1     -11.532  16.560  68.673  1.00  0.00    -0.313 OA 
ENDROOT
BRANCH   4  23
HETATM   23  C   UNL     1      -8.039   9.794  64.243  1.00  0.00    -0.152 C  
HETATM   24  C   UNL     1      -7.424   9.978  63.217  1.00  0.00    -0.138 C  
ENDBRANCH   4  23
TORSDOF 1
ENDMDL
MODEL       80
REMARK 921   NORMALIZED FREE ENERGY PREDICTED BY IDOCK:   -4.33 KCAL/MOL
REMARK 922        TOTAL FREE ENERGY PREDICTED BY IDOCK:   -4.60 KCAL/MOL
REMARK 923 INTER-LIGAND FREE ENERGY PREDICTED BY IDOCK:   -4.59 KCAL/MOL
REMARK 924 INTRA-LIGAND FREE ENERGY PREDICTED BY IDOCK:   -0.01 KCAL/MOL
REMARK 927      BINDING AFFINITY PREDICTED BY RF-SCORE:    0.00 PKD
ROOT
HETATM    1  C   UNL     1      -8.663  16.865  68.944  1.00  0.00    -0.212 C  
HETATM    2  C   UNL     1      -7.426  17.348  68.469  1.00  0.00    -0.251 C  
HETATM    3  C   UNL     1      -8.585  17.567  67.570  1.00  0.00    -0.222 C  
HETATM    4  C   UNL     1     -10.419  17.142  68.394  1.00  0.00    -0.376 C  
HETATM    5  H   UNL     1     -10.984  10.348  63.157  1.00  0.00     0.000 HD 
HETATM    6  O   UNL     1     -11.739  17.413  67.915  1.00  0.00     0.570 OA 
HETATM    7  C   UNL     1      -9.778  18.346  68.343  1.00  0.00    -0.379 C  
HETATM    8  C   UNL     1     -10.566  13.981  64.605  1.00  0.00    -0.416 A  
HETATM    9  C   UNL     1     -10.293  18.397  66.534  1.00  0.00    -0.426 C  
HETATM   10  C   UNL     1      -9.923  19.592  69.162  1.00  0.00    -0.429 C  
HETATM   11  H   UNL     1     -12.587  17.217  68.295  1.00  0.00     0.000 HD 
HETATM   12  C   UNL     1     -10.438  16.766  65.874  1.00  0.00    -0.311 C  
HETATM   13  C   UNL     1      -9.498  15.471  66.391  1.00  0.00    -0.320 C  
HETATM   14  C   UNL     1      -9.848  14.096  65.810  1.00  0.00    -0.297 A  
HETATM   15  C   UNL     1      -9.278  12.925  66.366  1.00  0.00    -0.144 A  
HETATM   16  C   UNL     1      -9.510  11.676  65.754  1.00  0.00    -0.244 A  
HETATM   17  C   UNL     1      -8.420  12.930  67.614  1.00  0.00    -0.183 C  
HETATM   18  C   UNL     1      -7.929  14.302  68.076  1.00  0.00    -0.142 C  
HETATM   19  C   UNL     1     -10.250  11.595  64.580  1.00  0.00    -0.291 A  
HETATM   20  C   UNL     1     -10.765  12.740  63.995  1.00  0.00    -0.457 A  
HETATM   21  C   UNL     1      -9.070  15.315  68.012  1.00  0.00    -0.176 C  
HETATM   22  O   UNL     1     -10.478  10.403  63.960  1.00  0.00    -0.121 OA 
ENDROOT
BRANCH   4  23
HETATM   23  C   UNL     1     -10.775  16.915  69.886  1.00  0.00    -0.016 C  
HETATM   24  C   UNL     1     -11.086  16.692  71.035  1.00  0.00     0.256 C  
ENDBRANCH   4  23
TORSDOF 1
ENDMDL
MODEL       81
REMARK 921   NORMALIZED FREE ENERGY PREDICTED BY IDOCK:   -4.33 KCAL/MOL
REMARK 922        TOTAL FREE ENERGY PREDICTED BY IDOCK:   -4.60 KCAL/MOL
REMARK 923 INTER-LIGAND FREE ENERGY PREDICTED BY IDOCK:   -4.62 KCAL/MOL
REMARK 924 INTRA-LIGAND FREE ENERGY PREDICTED BY IDOCK:    0.02 KCAL/MOL
REMARK 927      BINDING AFFINITY PREDICTED BY RF-SCORE:    0.00 PKD
ROOT
HETATM    1  C   UNL     1      -8.644   9.362  68.345  1.00  0.00    -0.124 C  
HETATM    2  C   UNL     1      -7.248   9.172  68.270  1.00  0.00    -0.078 C  
HETATM    3  C   UNL     1      -8.074   8.018  67.838  1.00  0.00    -0.129 C  
HETATM    4  C   UNL     1     -10.084   8.404  67.657  1.00  0.00    -0.209 C  
HETATM    5  H   UNL     1     -11.459   3.447  74.545  1.00  0.00     0.000 HD 
HETATM    6  O   UNL     1     -11.134   7.618  67.087  1.00  0.00    -0.518 OA 
HETATM    7  C   UNL     1      -9.126   8.459  66.686  1.00  0.00    -0.202 C  
HETATM    8  C   UNL     1     -10.326   4.812  71.034  1.00  0.00    -0.188 A  
HETATM    9  C   UNL     1      -9.204   6.578  66.686  1.00  0.00    -0.172 C  
HETATM   10  C   UNL     1      -9.076   9.172  65.370  1.00  0.00    -0.271 C  
HETATM   11  H   UNL     1     -12.063   7.797  67.003  1.00  0.00     0.000 HD 
HETATM   12  C   UNL     1      -9.672   5.967  68.273  1.00  0.00    -0.147 C  
HETATM   13  C   UNL     1      -9.281   6.740  69.715  1.00  0.00    -0.146 C  
HETATM   14  C   UNL     1      -9.881   6.146  70.995  1.00  0.00    -0.213 A  
HETATM   15  C   UNL     1      -9.808   6.865  72.213  1.00  0.00    -0.163 A  
HETATM   16  C   UNL     1     -10.255   6.264  73.407  1.00  0.00    -0.236 A  
HETATM   17  C   UNL     1      -9.274   8.279  72.312  1.00  0.00    -0.297 C  
HETATM   18  C   UNL     1      -8.516   8.789  71.087  1.00  0.00    -0.233 C  
HETATM   19  C   UNL     1     -10.717   4.953  73.404  1.00  0.00    -0.268 A  
HETATM   20  C   UNL     1     -10.742   4.220  72.230  1.00  0.00    -0.027 A  
HETATM   21  C   UNL     1      -9.273   8.421  69.813  1.00  0.00    -0.157 C  
HETATM   22  O   UNL     1     -11.143   4.344  74.547  1.00  0.00    -0.195 OA 
ENDROOT
BRANCH   4  23
HETATM   23  C   UNL     1     -10.802   9.779  67.622  1.00  0.00    -0.301 C  
HETATM   24  C   UNL     1     -11.351  10.856  67.651  1.00  0.00    -0.345 C  
ENDBRANCH   4  23
TORSDOF 1
ENDMDL
MODEL       82
REMARK 921   NORMALIZED FREE ENERGY PREDICTED BY IDOCK:   -4.22 KCAL/MOL
REMARK 922        TOTAL FREE ENERGY PREDICTED BY IDOCK:   -4.49 KCAL/MOL
REMARK 923 INTER-LIGAND FREE ENERGY PREDICTED BY IDOCK:   -4.48 KCAL/MOL
REMARK 924 INTRA-LIGAND FREE ENERGY PREDICTED BY IDOCK:   -0.01 KCAL/MOL
REMARK 927      BINDING AFFINITY PREDICTED BY RF-SCORE:    0.00 PKD
ROOT
HETATM    1  C   UNL     1      -9.632   6.179  70.202  1.00  0.00    -0.187 C  
HETATM    2  C   UNL     1      -8.494   5.470  69.765  1.00  0.00    -0.105 C  
HETATM    3  C   UNL     1      -8.220   6.752  70.457  1.00  0.00    -0.117 C  
HETATM    4  C   UNL     1      -9.850   7.623  71.356  1.00  0.00    -0.174 C  
HETATM    5  H   UNL     1      -9.595  13.809  65.392  1.00  0.00     0.000 HD 
HETATM    6  O   UNL     1      -9.933   8.727  72.261  1.00  0.00    -0.308 OA 
HETATM    7  C   UNL     1      -8.927   6.786  71.915  1.00  0.00    -0.135 C  
HETATM    8  C   UNL     1      -8.671  11.288  68.266  1.00  0.00    -0.158 A  
HETATM    9  C   UNL     1      -7.776   8.275  71.928  1.00  0.00    -0.143 C  
HETATM   10  C   UNL     1      -8.977   5.911  73.130  1.00  0.00    -0.131 C  
HETATM   11  H   UNL     1     -10.686   9.129  72.677  1.00  0.00     0.000 HD 
HETATM   12  C   UNL     1      -8.166   9.383  70.612  1.00  0.00    -0.207 C  
HETATM   13  C   UNL     1      -8.790   8.882  69.133  1.00  0.00    -0.136 C  
HETATM   14  C   UNL     1      -9.199   9.987  68.152  1.00  0.00    -0.130 A  
HETATM   15  C   UNL     1      -9.952   9.668  66.996  1.00  0.00    -0.263 A  
HETATM   16  C   UNL     1     -10.223  10.668  66.041  1.00  0.00    -0.309 A  
HETATM   17  C   UNL     1     -10.507   8.285  66.722  1.00  0.00    -0.313 C  
HETATM   18  C   UNL     1      -9.948   7.162  67.595  1.00  0.00    -0.201 C  
HETATM   19  C   UNL     1      -9.711  11.950  66.199  1.00  0.00    -0.232 A  
HETATM   20  C   UNL     1      -8.926  12.261  67.296  1.00  0.00    -0.187 A  
HETATM   21  C   UNL     1      -9.891   7.611  69.053  1.00  0.00    -0.168 C  
HETATM   22  O   UNL     1      -9.946  12.932  65.283  1.00  0.00    -0.258 OA 
ENDROOT
BRANCH   4  23
HETATM   23  C   UNL     1     -11.234   6.992  71.660  1.00  0.00    -0.276 C  
HETATM   24  C   UNL     1     -12.338   6.545  71.872  1.00  0.00    -0.339 C  
ENDBRANCH   4  23
TORSDOF 1
ENDMDL
MODEL       83
REMARK 921   NORMALIZED FREE ENERGY PREDICTED BY IDOCK:   -4.21 KCAL/MOL
REMARK 922        TOTAL FREE ENERGY PREDICTED BY IDOCK:   -4.48 KCAL/MOL
REMARK 923 INTER-LIGAND FREE ENERGY PREDICTED BY IDOCK:   -4.47 KCAL/MOL
REMARK 924 INTRA-LIGAND FREE ENERGY PREDICTED BY IDOCK:   -0.01 KCAL/MOL
REMARK 927      BINDING AFFINITY PREDICTED BY RF-SCORE:    0.00 PKD
ROOT
HETATM    1  C   UNL     1      -9.588  10.572  68.110  1.00  0.00    -0.163 C  
HETATM    2  C   UNL     1      -8.790  10.409  69.261  1.00  0.00    -0.166 C  
HETATM    3  C   UNL     1      -8.075  10.290  67.967  1.00  0.00    -0.106 C  
HETATM    4  C   UNL     1      -9.171  10.830  66.314  1.00  0.00    -0.173 C  
HETATM    5  H   UNL     1      -9.357   2.560  63.974  1.00  0.00     0.000 HD 
HETATM    6  O   UNL     1      -8.768  11.034  64.958  1.00  0.00    -0.328 OA 
HETATM    7  C   UNL     1      -8.320  11.604  67.049  1.00  0.00    -0.169 C  
HETATM    8  C   UNL     1      -8.193   6.159  65.053  1.00  0.00    -0.132 A  
HETATM    9  C   UNL     1      -6.933  10.681  66.172  1.00  0.00    -0.135 C  
HETATM   10  C   UNL     1      -8.202  13.089  67.207  1.00  0.00    -0.174 C  
HETATM   11  H   UNL     1      -9.274  11.284  64.194  1.00  0.00     0.000 HD 
HETATM   12  C   UNL     1      -7.444   9.052  65.727  1.00  0.00    -0.090 C  
HETATM   13  C   UNL     1      -8.550   8.152  66.619  1.00  0.00    -0.140 C  
HETATM   14  C   UNL     1      -8.985   6.810  66.017  1.00  0.00    -0.129 A  
HETATM   15  C   UNL     1     -10.083   6.107  66.570  1.00  0.00    -0.179 A  
HETATM   16  C   UNL     1     -10.403   4.822  66.088  1.00  0.00    -0.337 A  
HETATM   17  C   UNL     1     -10.962   6.670  67.667  1.00  0.00    -0.392 C  
HETATM   18  C   UNL     1     -10.421   7.908  68.381  1.00  0.00    -0.207 C  
HETATM   19  C   UNL     1      -9.616   4.219  65.114  1.00  0.00    -0.183 A  
HETATM   20  C   UNL     1      -8.507   4.873  64.605  1.00  0.00    -0.143 A  
HETATM   21  C   UNL     1      -9.864   8.899  67.361  1.00  0.00    -0.247 C  
HETATM   22  O   UNL     1      -9.895   2.972  64.641  1.00  0.00    -0.142 OA 
ENDROOT
BRANCH   4  23
HETATM   23  C   UNL     1     -10.511  11.609  66.260  1.00  0.00    -0.286 C  
HETATM   24  C   UNL     1     -11.538  12.244  66.169  1.00  0.00    -0.450 C  
ENDBRANCH   4  23
TORSDOF 1
ENDMDL
MODEL       84
REMARK 921   NORMALIZED FREE ENERGY PREDICTED BY IDOCK:   -4.19 KCAL/MOL
REMARK 922        TOTAL FREE ENERGY PREDICTED BY IDOCK:   -4.45 KCAL/MOL
REMARK 923 INTER-LIGAND FREE ENERGY PREDICTED BY IDOCK:   -4.43 KCAL/MOL
REMARK 924 INTRA-LIGAND FREE ENERGY PREDICTED BY IDOCK:   -0.01 KCAL/MOL
REMARK 927      BINDING AFFINITY PREDICTED BY RF-SCORE:    0.00 PKD
ROOT
HETATM    1  C   UNL     1      -8.459   6.234  65.817  1.00  0.00    -0.148 C  
HETATM    2  C   UNL     1      -7.138   6.722  65.740  1.00  0.00    -0.072 C  
HETATM    3  C   UNL     1      -7.553   6.211  67.069  1.00  0.00    -0.095 C  
HETATM    4  C   UNL     1      -9.356   5.226  67.099  1.00  0.00    -0.122 C  
HETATM    5  H   UNL     1     -12.663  11.815  71.521  1.00  0.00     0.000 HD 
HETATM    6  O   UNL     1      -9.970   4.443  68.126  1.00  0.00    -0.102 OA 
HETATM    7  C   UNL     1      -8.108   4.692  66.956  1.00  0.00    -0.102 C  
HETATM    8  C   UNL     1     -10.424   8.813  70.318  1.00  0.00    -0.231 A  
HETATM    9  C   UNL     1      -7.917   4.976  68.807  1.00  0.00    -0.081 C  
HETATM   10  C   UNL     1      -7.636   3.392  66.381  1.00  0.00    -0.077 C  
HETATM   11  H   UNL     1     -10.804   3.987  68.140  1.00  0.00     0.000 HD 
HETATM   12  C   UNL     1      -8.889   6.350  69.337  1.00  0.00    -0.132 C  
HETATM   13  C   UNL     1      -9.218   7.682  68.364  1.00  0.00    -0.140 C  
HETATM   14  C   UNL     1     -10.191   8.722  68.932  1.00  0.00    -0.221 A  
HETATM   15  C   UNL     1     -10.711   9.740  68.096  1.00  0.00    -0.280 A  
HETATM   16  C   UNL     1     -11.509  10.760  68.651  1.00  0.00    -0.365 A  
HETATM   17  C   UNL     1     -10.463   9.794  66.603  1.00  0.00    -0.233 C  
HETATM   18  C   UNL     1      -9.358   8.877  66.079  1.00  0.00    -0.306 C  
HETATM   19  C   UNL     1     -11.744  10.803  70.020  1.00  0.00    -0.336 A  
HETATM   20  C   UNL     1     -11.196   9.846  70.857  1.00  0.00    -0.433 A  
HETATM   21  C   UNL     1      -9.484   7.493  66.712  1.00  0.00    -0.230 C  
HETATM   22  O   UNL     1     -12.502  11.786  70.585  1.00  0.00    -0.324 OA 
ENDROOT
BRANCH   4  23
HETATM   23  C   UNL     1     -10.184   4.694  65.900  1.00  0.00    -0.303 C  
HETATM   24  C   UNL     1     -10.857   4.245  65.000  1.00  0.00    -0.102 C  
ENDBRANCH   4  23
TORSDOF 1
ENDMDL
MODEL       85
REMARK 921   NORMALIZED FREE ENERGY PREDICTED BY IDOCK:   -4.18 KCAL/MOL
REMARK 922        TOTAL FREE ENERGY PREDICTED BY IDOCK:   -4.45 KCAL/MOL
REMARK 923 INTER-LIGAND FREE ENERGY PREDICTED BY IDOCK:   -4.43 KCAL/MOL
REMARK 924 INTRA-LIGAND FREE ENERGY PREDICTED BY IDOCK:   -0.02 KCAL/MOL
REMARK 927      BINDING AFFINITY PREDICTED BY RF-SCORE:    0.00 PKD
ROOT
HETATM    1  C   UNL     1      -8.676  11.111  67.531  1.00  0.00    -0.129 C  
HETATM    2  C   UNL     1      -9.070  11.313  66.193  1.00  0.00    -0.216 C  
HETATM    3  C   UNL     1      -8.382  12.459  66.835  1.00  0.00    -0.117 C  
HETATM    4  C   UNL     1      -7.542  12.054  68.667  1.00  0.00    -0.112 C  
HETATM    5  H   UNL     1     -13.551  17.011  72.303  1.00  0.00     0.000 HD 
HETATM    6  O   UNL     1      -6.650  12.830  69.472  1.00  0.00    -0.225 OA 
HETATM    7  C   UNL     1      -6.947  12.007  67.439  1.00  0.00    -0.139 C  
HETATM    8  C   UNL     1     -10.627  15.651  70.052  1.00  0.00    -0.342 A  
HETATM    9  C   UNL     1      -6.911  13.886  67.527  1.00  0.00    -0.162 C  
HETATM   10  C   UNL     1      -5.727  11.291  66.946  1.00  0.00    -0.107 C  
HETATM   11  H   UNL     1      -6.261  12.643  70.318  1.00  0.00     0.000 HD 
HETATM   12  C   UNL     1      -8.249  14.496  68.503  1.00  0.00    -0.154 C  
HETATM   13  C   UNL     1      -9.742  13.730  68.610  1.00  0.00    -0.140 C  
HETATM   14  C   UNL     1     -10.745  14.320  69.608  1.00  0.00    -0.034 A  
HETATM   15  C   UNL     1     -11.921  13.604  69.940  1.00  0.00    -0.415 A  
HETATM   16  C   UNL     1     -12.894  14.203  70.766  1.00  0.00    -0.378 A  
HETATM   17  C   UNL     1     -12.200  12.195  69.459  1.00  0.00    -0.169 C  
HETATM   18  C   UNL     1     -11.300  11.689  68.332  1.00  0.00    -0.339 C  
HETATM   19  C   UNL     1     -12.731  15.510  71.211  1.00  0.00    -0.462 A  
HETATM   20  C   UNL     1     -11.613  16.240  70.847  1.00  0.00    -0.321 A  
HETATM   21  C   UNL     1      -9.845  12.049  68.622  1.00  0.00    -0.126 C  
HETATM   22  O   UNL     1     -13.663  16.118  71.999  1.00  0.00    -0.134 OA 
ENDROOT
BRANCH   4  23
HETATM   23  C   UNL     1      -7.276  10.673  69.320  1.00  0.00    -0.113 C  
HETATM   24  C   UNL     1      -7.062   9.622  69.881  1.00  0.00    -0.095 C  
ENDBRANCH   4  23
TORSDOF 1
ENDMDL
MODEL       86
REMARK 921   NORMALIZED FREE ENERGY PREDICTED BY IDOCK:   -4.09 KCAL/MOL
REMARK 922        TOTAL FREE ENERGY PREDICTED BY IDOCK:   -4.35 KCAL/MOL
REMARK 923 INTER-LIGAND FREE ENERGY PREDICTED BY IDOCK:   -4.33 KCAL/MOL
REMARK 924 INTRA-LIGAND FREE ENERGY PREDICTED BY IDOCK:   -0.02 KCAL/MOL
REMARK 927      BINDING AFFINITY PREDICTED BY RF-SCORE:    0.00 PKD
ROOT
HETATM    1  C   UNL     1     -10.741  10.672  68.158  1.00  0.00    -0.267 C  
HETATM    2  C   UNL     1     -10.590  10.460  69.544  1.00  0.00    -0.274 C  
HETATM    3  C   UNL     1      -9.334  10.718  68.797  1.00  0.00    -0.186 C  
HETATM    4  C   UNL     1      -9.589  11.327  66.850  1.00  0.00    -0.191 C  
HETATM    5  H   UNL     1      -6.473   3.740  64.274  1.00  0.00     0.000 HD 
HETATM    6  O   UNL     1      -8.647  11.847  65.908  1.00  0.00    -0.393 OA 
HETATM    7  C   UNL     1      -9.433  12.104  67.961  1.00  0.00    -0.201 C  
HETATM    8  C   UNL     1      -6.953   7.239  66.004  1.00  0.00    -0.065 A  
HETATM    9  C   UNL     1      -7.612  11.641  67.870  1.00  0.00    -0.115 C  
HETATM   10  C   UNL     1      -9.795  13.530  68.243  1.00  0.00    -0.233 C  
HETATM   11  H   UNL     1      -8.765  12.129  65.009  1.00  0.00     0.000 HD 
HETATM   12  C   UNL     1      -7.401  10.052  67.133  1.00  0.00    -0.091 C  
HETATM   13  C   UNL     1      -8.525   8.809  67.275  1.00  0.00    -0.111 C  
HETATM   14  C   UNL     1      -8.251   7.540  66.460  1.00  0.00    -0.123 A  
HETATM   15  C   UNL     1      -9.254   6.550  66.328  1.00  0.00    -0.160 A  
HETATM   16  C   UNL     1      -8.957   5.336  65.677  1.00  0.00    -0.160 A  
HETATM   17  C   UNL     1     -10.666   6.724  66.847  1.00  0.00    -0.394 C  
HETATM   18  C   UNL     1     -10.880   7.894  67.808  1.00  0.00    -0.094 C  
HETATM   19  C   UNL     1      -7.671   5.083  65.213  1.00  0.00    -0.087 A  
HETATM   20  C   UNL     1      -6.666   6.020  65.385  1.00  0.00    -0.047 A  
HETATM   21  C   UNL     1     -10.176   9.141  67.279  1.00  0.00    -0.319 C  
HETATM   22  O   UNL     1      -7.353   3.912  64.592  1.00  0.00    -0.065 OA 
ENDROOT
BRANCH   4  23
HETATM   23  C   UNL     1     -10.884  11.829  66.160  1.00  0.00    -0.336 C  
HETATM   24  C   UNL     1     -11.865  12.224  65.571  1.00  0.00    -0.420 C  
ENDBRANCH   4  23
TORSDOF 1
ENDMDL
MODEL       87
REMARK 921   NORMALIZED FREE ENERGY PREDICTED BY IDOCK:   -4.06 KCAL/MOL
REMARK 922        TOTAL FREE ENERGY PREDICTED BY IDOCK:   -4.32 KCAL/MOL
REMARK 923 INTER-LIGAND FREE ENERGY PREDICTED BY IDOCK:   -4.34 KCAL/MOL
REMARK 924 INTRA-LIGAND FREE ENERGY PREDICTED BY IDOCK:    0.02 KCAL/MOL
REMARK 927      BINDING AFFINITY PREDICTED BY RF-SCORE:    0.00 PKD
ROOT
HETATM    1  C   UNL     1      -8.094  17.984  66.374  1.00  0.00    -0.292 C  
HETATM    2  C   UNL     1      -9.420  18.228  66.789  1.00  0.00    -0.300 C  
HETATM    3  C   UNL     1      -8.374  18.486  67.809  1.00  0.00    -0.273 C  
HETATM    4  C   UNL     1      -6.442  18.428  67.109  1.00  0.00    -0.179 C  
HETATM    5  H   UNL     1      -5.261  11.159  71.544  1.00  0.00     0.000 HD 
HETATM    6  O   UNL     1      -5.216  18.814  67.734  1.00  0.00    -0.167 OA 
HETATM    7  C   UNL     1      -7.256  19.516  67.243  1.00  0.00    -0.239 C  
HETATM    8  C   UNL     1      -6.105  14.855  70.499  1.00  0.00    -0.113 A  
HETATM    9  C   UNL     1      -6.887  19.403  69.084  1.00  0.00    -0.374 C  
HETATM   10  C   UNL     1      -7.238  20.864  66.591  1.00  0.00    -0.199 C  
HETATM   11  H   UNL     1      -4.323  18.787  67.410  1.00  0.00     0.000 HD 
HETATM   12  C   UNL     1      -6.551  17.737  69.559  1.00  0.00    -0.147 C  
HETATM   13  C   UNL     1      -7.249  16.402  68.811  1.00  0.00    -0.191 C  
HETATM   14  C   UNL     1      -6.744  15.025  69.256  1.00  0.00    -0.141 A  
HETATM   15  C   UNL     1      -7.093  13.868  68.518  1.00  0.00    -0.104 A  
HETATM   16  C   UNL     1      -6.723  12.595  68.998  1.00  0.00    -0.097 A  
HETATM   17  C   UNL     1      -7.849  13.916  67.207  1.00  0.00    -0.134 C  
HETATM   18  C   UNL     1      -8.503  15.255  66.867  1.00  0.00    -0.286 C  
HETATM   19  C   UNL     1      -6.067  12.466  70.217  1.00  0.00    -0.071 A  
HETATM   20  C   UNL     1      -5.769  13.585  70.975  1.00  0.00    -0.188 A  
HETATM   21  C   UNL     1      -7.532  16.399  67.151  1.00  0.00    -0.227 C  
HETATM   22  O   UNL     1      -5.710  11.246  70.711  1.00  0.00    -0.213 OA 
ENDROOT
BRANCH   4  23
HETATM   23  C   UNL     1      -5.950  18.445  65.639  1.00  0.00    -0.265 C  
HETATM   24  C   UNL     1      -5.559  18.517  64.495  1.00  0.00    -0.140 C  
ENDBRANCH   4  23
TORSDOF 1
ENDMDL
MODEL       88
REMARK 921   NORMALIZED FREE ENERGY PREDICTED BY IDOCK:   -4.06 KCAL/MOL
REMARK 922        TOTAL FREE ENERGY PREDICTED BY IDOCK:   -4.32 KCAL/MOL
REMARK 923 INTER-LIGAND FREE ENERGY PREDICTED BY IDOCK:   -4.30 KCAL/MOL
REMARK 924 INTRA-LIGAND FREE ENERGY PREDICTED BY IDOCK:   -0.02 KCAL/MOL
REMARK 927      BINDING AFFINITY PREDICTED BY RF-SCORE:    0.00 PKD
ROOT
HETATM    1  C   UNL     1     -10.593   7.781  72.417  1.00  0.00    -0.336 C  
HETATM    2  C   UNL     1      -9.605   8.431  73.185  1.00  0.00    -0.138 C  
HETATM    3  C   UNL     1      -9.479   8.590  71.715  1.00  0.00    -0.328 C  
HETATM    4  C   UNL     1     -11.082   7.906  70.625  1.00  0.00    -0.259 C  
HETATM    5  H   UNL     1      -6.129   1.510  67.716  1.00  0.00     0.000 HD 
HETATM    6  O   UNL     1     -11.401   8.069  69.241  1.00  0.00    -0.413 OA 
HETATM    7  C   UNL     1     -10.851   9.174  71.078  1.00  0.00    -0.362 C  
HETATM    8  C   UNL     1      -7.576   5.046  68.651  1.00  0.00    -0.078 A  
HETATM    9  C   UNL     1      -9.600   9.305  69.678  1.00  0.00    -0.192 C  
HETATM   10  C   UNL     1     -11.769  10.330  71.326  1.00  0.00    -0.378 C  
HETATM   11  H   UNL     1     -12.142   7.753  68.737  1.00  0.00     0.000 HD 
HETATM   12  C   UNL     1      -8.921   7.724  69.289  1.00  0.00    -0.139 C  
HETATM   13  C   UNL     1      -8.706   6.503  70.426  1.00  0.00    -0.147 C  
HETATM   14  C   UNL     1      -8.231   5.146  69.893  1.00  0.00    -0.086 A  
HETATM   15  C   UNL     1      -8.258   4.005  70.731  1.00  0.00    -0.076 A  
HETATM   16  C   UNL     1      -7.711   2.789  70.274  1.00  0.00    -0.044 A  
HETATM   17  C   UNL     1      -8.864   4.009  72.119  1.00  0.00    -0.129 C  
HETATM   18  C   UNL     1      -9.163   5.387  72.709  1.00  0.00    -0.142 C  
HETATM   19  C   UNL     1      -7.098   2.718  69.029  1.00  0.00    -0.044 A  
HETATM   20  C   UNL     1      -7.014   3.841  68.222  1.00  0.00    -0.051 A  
HETATM   21  C   UNL     1      -9.830   6.272  71.658  1.00  0.00    -0.184 C  
HETATM   22  O   UNL     1      -6.549   1.559  68.568  1.00  0.00    -0.028 OA 
ENDROOT
BRANCH   4  23
HETATM   23  C   UNL     1     -12.499   7.529  71.130  1.00  0.00    -0.306 C  
HETATM   24  C   UNL     1     -13.623   7.235  71.469  1.00  0.00    -0.442 C  
ENDBRANCH   4  23
TORSDOF 1
ENDMDL
MODEL       89
REMARK 921   NORMALIZED FREE ENERGY PREDICTED BY IDOCK:   -3.99 KCAL/MOL
REMARK 922        TOTAL FREE ENERGY PREDICTED BY IDOCK:   -4.24 KCAL/MOL
REMARK 923 INTER-LIGAND FREE ENERGY PREDICTED BY IDOCK:   -4.26 KCAL/MOL
REMARK 924 INTRA-LIGAND FREE ENERGY PREDICTED BY IDOCK:    0.02 KCAL/MOL
REMARK 927      BINDING AFFINITY PREDICTED BY RF-SCORE:    0.00 PKD
ROOT
HETATM    1  C   UNL     1      -8.872  12.130  68.285  1.00  0.00    -0.182 C  
HETATM    2  C   UNL     1      -7.887  13.117  68.079  1.00  0.00    -0.147 C  
HETATM    3  C   UNL     1      -8.930  13.027  67.028  1.00  0.00    -0.225 C  
HETATM    4  C   UNL     1     -10.521  11.809  67.483  1.00  0.00    -0.202 C  
HETATM    5  H   UNL     1      -7.748   6.279  61.514  1.00  0.00     0.000 HD 
HETATM    6  O   UNL     1     -11.778  11.636  66.823  1.00  0.00    -0.541 OA 
HETATM    7  C   UNL     1     -10.412  13.157  67.672  1.00  0.00    -0.225 C  
HETATM    8  C   UNL     1      -8.976   9.504  63.400  1.00  0.00    -0.205 A  
HETATM    9  C   UNL     1     -10.701  13.308  65.819  1.00  0.00    -0.286 C  
HETATM   10  C   UNL     1     -11.131  14.100  68.587  1.00  0.00    -0.283 C  
HETATM   11  H   UNL     1     -12.514  11.074  67.033  1.00  0.00     0.000 HD 
HETATM   12  C   UNL     1     -10.110  11.878  64.970  1.00  0.00    -0.297 C  
HETATM   13  C   UNL     1      -8.795  10.969  65.492  1.00  0.00    -0.179 C  
HETATM   14  C   UNL     1      -8.501   9.681  64.714  1.00  0.00    -0.168 A  
HETATM   15  C   UNL     1      -7.576   8.738  65.225  1.00  0.00    -0.091 A  
HETATM   16  C   UNL     1      -7.223   7.615  64.450  1.00  0.00    -0.077 A  
HETATM   17  C   UNL     1      -6.936   8.860  66.592  1.00  0.00    -0.080 C  
HETATM   18  C   UNL     1      -7.087  10.219  67.276  1.00  0.00    -0.088 C  
HETATM   19  C   UNL     1      -7.734   7.456  63.168  1.00  0.00    -0.128 A  
HETATM   20  C   UNL     1      -8.595   8.400  62.634  1.00  0.00    -0.037 A  
HETATM   21  C   UNL     1      -8.522  10.720  67.134  1.00  0.00    -0.126 C  
HETATM   22  O   UNL     1      -7.398   6.387  62.391  1.00  0.00    -0.049 OA 
ENDROOT
BRANCH   4  23
HETATM   23  C   UNL     1     -10.920  11.219  68.861  1.00  0.00    -0.274 C  
HETATM   24  C   UNL     1     -11.186  10.723  69.932  1.00  0.00    -0.371 C  
ENDBRANCH   4  23
TORSDOF 1
ENDMDL
MODEL       90
REMARK 921   NORMALIZED FREE ENERGY PREDICTED BY IDOCK:   -3.96 KCAL/MOL
REMARK 922        TOTAL FREE ENERGY PREDICTED BY IDOCK:   -4.21 KCAL/MOL
REMARK 923 INTER-LIGAND FREE ENERGY PREDICTED BY IDOCK:   -4.19 KCAL/MOL
REMARK 924 INTRA-LIGAND FREE ENERGY PREDICTED BY IDOCK:   -0.02 KCAL/MOL
REMARK 927      BINDING AFFINITY PREDICTED BY RF-SCORE:    0.00 PKD
ROOT
HETATM    1  C   UNL     1      -7.327   7.607  68.307  1.00  0.00    -0.099 C  
HETATM    2  C   UNL     1      -7.669   7.218  69.618  1.00  0.00    -0.105 C  
HETATM    3  C   UNL     1      -8.783   7.211  68.639  1.00  0.00    -0.127 C  
HETATM    4  C   UNL     1      -8.222   7.477  66.680  1.00  0.00    -0.125 C  
HETATM    5  H   UNL     1     -11.925  15.233  66.876  1.00  0.00     0.000 HD 
HETATM    6  O   UNL     1      -8.972   7.332  65.471  1.00  0.00    -0.370 OA 
HETATM    7  C   UNL     1      -8.413   6.302  67.348  1.00  0.00    -0.108 C  
HETATM    8  C   UNL     1     -11.225  11.370  67.121  1.00  0.00    -0.363 A  
HETATM    9  C   UNL     1     -10.254   6.643  67.158  1.00  0.00    -0.275 C  
HETATM   10  C   UNL     1      -7.913   4.914  67.092  1.00  0.00    -0.099 C  
HETATM   11  H   UNL     1      -8.713   7.455  64.565  1.00  0.00     0.000 HD 
HETATM   12  C   UNL     1     -10.570   8.378  67.091  1.00  0.00    -0.326 C  
HETATM   13  C   UNL     1      -9.635   9.521  67.896  1.00  0.00    -0.154 C  
HETATM   14  C   UNL     1      -9.965  10.993  67.621  1.00  0.00    -0.196 A  
HETATM   15  C   UNL     1      -9.084  12.012  68.058  1.00  0.00    -0.188 A  
HETATM   16  C   UNL     1      -9.450  13.364  67.906  1.00  0.00    -0.216 A  
HETATM   17  C   UNL     1      -7.734  11.730  68.684  1.00  0.00    -0.126 C  
HETATM   18  C   UNL     1      -7.493  10.285  69.120  1.00  0.00    -0.105 C  
HETATM   19  C   UNL     1     -10.691  13.702  67.381  1.00  0.00    -0.267 A  
HETATM   20  C   UNL     1     -11.585  12.715  67.002  1.00  0.00    -0.431 A  
HETATM   21  C   UNL     1      -7.968   9.324  68.032  1.00  0.00    -0.100 C  
HETATM   22  O   UNL     1     -11.076  15.002  67.236  1.00  0.00    -0.318 OA 
ENDROOT
BRANCH   4  23
HETATM   23  C   UNL     1      -6.802   7.389  66.064  1.00  0.00    -0.057 C  
HETATM   24  C   UNL     1      -5.711   7.354  65.541  1.00  0.00    -0.037 C  
ENDBRANCH   4  23
TORSDOF 1
ENDMDL
MODEL       91
REMARK 921   NORMALIZED FREE ENERGY PREDICTED BY IDOCK:   -3.95 KCAL/MOL
REMARK 922        TOTAL FREE ENERGY PREDICTED BY IDOCK:   -4.20 KCAL/MOL
REMARK 923 INTER-LIGAND FREE ENERGY PREDICTED BY IDOCK:   -4.21 KCAL/MOL
REMARK 924 INTRA-LIGAND FREE ENERGY PREDICTED BY IDOCK:    0.01 KCAL/MOL
REMARK 927      BINDING AFFINITY PREDICTED BY RF-SCORE:    0.00 PKD
ROOT
HETATM    1  C   UNL     1      -8.502   9.035  66.117  1.00  0.00    -0.135 C  
HETATM    2  C   UNL     1      -9.490   9.857  65.537  1.00  0.00    -0.313 C  
HETATM    3  C   UNL     1      -8.935  10.339  66.825  1.00  0.00    -0.147 C  
HETATM    4  C   UNL     1      -7.291   9.309  67.504  1.00  0.00    -0.087 C  
HETATM    5  H   UNL     1     -12.159   6.094  73.819  1.00  0.00     0.000 HD 
HETATM    6  O   UNL     1      -6.388   9.602  68.573  1.00  0.00    -0.047 OA 
HETATM    7  C   UNL     1      -7.318  10.448  66.753  1.00  0.00    -0.110 C  
HETATM    8  C   UNL     1     -10.296   8.513  71.340  1.00  0.00    -0.307 A  
HETATM    9  C   UNL     1      -7.769  11.336  68.350  1.00  0.00    -0.125 C  
HETATM   10  C   UNL     1      -6.301  11.074  65.849  1.00  0.00    -0.019 C  
HETATM   11  H   UNL     1      -5.628   9.126  68.888  1.00  0.00     0.000 HD 
HETATM   12  C   UNL     1      -8.642  10.261  69.443  1.00  0.00    -0.167 C  
HETATM   13  C   UNL     1      -9.653   9.025  68.916  1.00  0.00    -0.156 C  
HETATM   14  C   UNL     1     -10.226   8.100  69.996  1.00  0.00    -0.202 A  
HETATM   15  C   UNL     1     -10.881   6.899  69.628  1.00  0.00    -0.294 A  
HETATM   16  C   UNL     1     -11.507   6.114  70.617  1.00  0.00    -0.331 A  
HETATM   17  C   UNL     1     -10.943   6.390  68.203  1.00  0.00    -0.393 C  
HETATM   18  C   UNL     1     -10.539   7.392  67.122  1.00  0.00    -0.413 C  
HETATM   19  C   UNL     1     -11.532   6.538  71.940  1.00  0.00    -0.301 A  
HETATM   20  C   UNL     1     -10.944   7.737  72.304  1.00  0.00    -0.345 A  
HETATM   21  C   UNL     1      -9.270   8.131  67.541  1.00  0.00    -0.154 C  
HETATM   22  O   UNL     1     -12.142   5.804  72.914  1.00  0.00    -0.076 OA 
ENDROOT
BRANCH   4  23
HETATM   23  C   UNL     1      -6.391   8.311  66.729  1.00  0.00    -0.056 C  
HETATM   24  C   UNL     1      -5.725   7.491  66.141  1.00  0.00    -0.036 C  
ENDBRANCH   4  23
TORSDOF 1
ENDMDL
MODEL       92
REMARK 921   NORMALIZED FREE ENERGY PREDICTED BY IDOCK:   -3.87 KCAL/MOL
REMARK 922        TOTAL FREE ENERGY PREDICTED BY IDOCK:   -4.11 KCAL/MOL
REMARK 923 INTER-LIGAND FREE ENERGY PREDICTED BY IDOCK:   -4.11 KCAL/MOL
REMARK 924 INTRA-LIGAND FREE ENERGY PREDICTED BY IDOCK:    0.00 KCAL/MOL
REMARK 927      BINDING AFFINITY PREDICTED BY RF-SCORE:    0.00 PKD
ROOT
HETATM    1  C   UNL     1     -10.666   5.972  69.776  1.00  0.00    -0.399 C  
HETATM    2  C   UNL     1     -10.113   5.096  68.819  1.00  0.00    -0.231 C  
HETATM    3  C   UNL     1      -9.151   5.668  69.792  1.00  0.00    -0.157 C  
HETATM    4  C   UNL     1     -10.002   6.689  71.360  1.00  0.00    -0.183 C  
HETATM    5  H   UNL     1      -6.933  13.991  68.018  1.00  0.00     0.000 HD 
HETATM    6  O   UNL     1      -9.421   7.191  72.567  1.00  0.00    -0.141 OA 
HETATM    7  C   UNL     1      -9.626   5.378  71.315  1.00  0.00    -0.205 C  
HETATM    8  C   UNL     1      -7.284  10.358  69.482  1.00  0.00    -0.130 A  
HETATM    9  C   UNL     1      -7.863   6.010  71.496  1.00  0.00    -0.106 C  
HETATM   10  C   UNL     1     -10.046   4.189  72.124  1.00  0.00    -0.248 C  
HETATM   11  H   UNL     1      -9.814   7.662  73.292  1.00  0.00     0.000 HD 
HETATM   12  C   UNL     1      -7.698   7.624  70.800  1.00  0.00    -0.085 C  
HETATM   13  C   UNL     1      -8.598   8.162  69.485  1.00  0.00    -0.134 C  
HETATM   14  C   UNL     1      -8.428   9.634  69.095  1.00  0.00    -0.143 A  
HETATM   15  C   UNL     1      -9.316  10.230  68.167  1.00  0.00    -0.144 A  
HETATM   16  C   UNL     1      -9.083  11.548  67.724  1.00  0.00    -0.165 A  
HETATM   17  C   UNL     1     -10.538   9.525  67.616  1.00  0.00    -0.329 C  
HETATM   18  C   UNL     1     -10.600   8.017  67.860  1.00  0.00    -0.210 C  
HETATM   19  C   UNL     1      -7.959  12.245  68.150  1.00  0.00    -0.155 A  
HETATM   20  C   UNL     1      -7.052  11.653  69.013  1.00  0.00    -0.108 A  
HETATM   21  C   UNL     1     -10.209   7.704  69.303  1.00  0.00    -0.210 C  
HETATM   22  O   UNL     1      -7.703  13.515  67.726  1.00  0.00    -0.131 OA 
ENDROOT
BRANCH   4  23
HETATM   23  C   UNL     1     -11.483   6.691  71.818  1.00  0.00    -0.334 C  
HETATM   24  C   UNL     1     -12.645   6.744  72.152  1.00  0.00    -0.163 C  
ENDBRANCH   4  23
TORSDOF 1
ENDMDL
MODEL       93
REMARK 921   NORMALIZED FREE ENERGY PREDICTED BY IDOCK:   -3.86 KCAL/MOL
REMARK 922        TOTAL FREE ENERGY PREDICTED BY IDOCK:   -4.10 KCAL/MOL
REMARK 923 INTER-LIGAND FREE ENERGY PREDICTED BY IDOCK:   -4.08 KCAL/MOL
REMARK 924 INTRA-LIGAND FREE ENERGY PREDICTED BY IDOCK:   -0.02 KCAL/MOL
REMARK 927      BINDING AFFINITY PREDICTED BY RF-SCORE:    0.00 PKD
ROOT
HETATM    1  C   UNL     1      -7.387  17.870  67.090  1.00  0.00    -0.211 C  
HETATM    2  C   UNL     1      -6.736  17.784  65.843  1.00  0.00    -0.286 C  
HETATM    3  C   UNL     1      -8.212  17.915  65.784  1.00  0.00     0.193 C  
HETATM    4  C   UNL     1      -9.119  18.348  67.577  1.00  0.00    -0.271 C  
HETATM    5  H   UNL     1     -12.451  10.423  67.588  1.00  0.00     0.000 HD 
HETATM    6  O   UNL     1     -10.464  18.736  67.867  1.00  0.00    -0.392 OA 
HETATM    7  C   UNL     1      -8.710  19.219  66.608  1.00  0.00    -0.343 C  
HETATM    8  C   UNL     1     -11.414  14.087  66.603  1.00  0.00    -0.377 A  
HETATM    9  C   UNL     1     -10.235  18.670  65.652  1.00  0.00     0.043 C  
HETATM   10  C   UNL     1      -8.381  20.680  66.651  1.00  0.00    -0.064 C  
HETATM   11  H   UNL     1     -10.884  18.937  68.696  1.00  0.00     0.000 HD 
HETATM   12  C   UNL     1     -10.673  17.011  66.064  1.00  0.00    -0.116 C  
HETATM   13  C   UNL     1      -9.549  15.837  66.499  1.00  0.00    -0.288 C  
HETATM   14  C   UNL     1     -10.112  14.487  66.958  1.00  0.00    -0.254 A  
HETATM   15  C   UNL     1      -9.261  13.533  67.569  1.00  0.00    -0.219 A  
HETATM   16  C   UNL     1      -9.758  12.252  67.880  1.00  0.00    -0.202 A  
HETATM   17  C   UNL     1      -7.817  13.818  67.926  1.00  0.00    -0.159 C  
HETATM   18  C   UNL     1      -7.217  15.081  67.309  1.00  0.00    -0.175 C  
HETATM   19  C   UNL     1     -11.059  11.900  67.542  1.00  0.00    -0.273 A  
HETATM   20  C   UNL     1     -11.884  12.804  66.894  1.00  0.00    -0.440 A  
HETATM   21  C   UNL     1      -8.203  16.241  67.427  1.00  0.00    -0.181 C  
HETATM   22  O   UNL     1     -11.560  10.663  67.819  1.00  0.00    -0.501 OA 
ENDROOT
BRANCH   4  23
HETATM   23  C   UNL     1      -8.464  18.841  68.893  1.00  0.00    -0.233 C  
HETATM   24  C   UNL     1      -8.006  19.233  69.943  1.00  0.00     0.665 C  
ENDBRANCH   4  23
TORSDOF 1
ENDMDL
MODEL       94
REMARK 921   NORMALIZED FREE ENERGY PREDICTED BY IDOCK:   -3.84 KCAL/MOL
REMARK 922        TOTAL FREE ENERGY PREDICTED BY IDOCK:   -4.08 KCAL/MOL
REMARK 923 INTER-LIGAND FREE ENERGY PREDICTED BY IDOCK:   -4.07 KCAL/MOL
REMARK 924 INTRA-LIGAND FREE ENERGY PREDICTED BY IDOCK:   -0.01 KCAL/MOL
REMARK 927      BINDING AFFINITY PREDICTED BY RF-SCORE:    0.00 PKD
ROOT
HETATM    1  C   UNL     1      -7.419   8.640  66.648  1.00  0.00    -0.089 C  
HETATM    2  C   UNL     1      -6.074   8.231  66.758  1.00  0.00    -0.054 C  
HETATM    3  C   UNL     1      -7.077   7.139  66.783  1.00  0.00    -0.078 C  
HETATM    4  C   UNL     1      -8.996   7.708  66.314  1.00  0.00    -0.169 C  
HETATM    5  H   UNL     1     -11.192   6.357  74.515  1.00  0.00     0.000 HD 
HETATM    6  O   UNL     1     -10.159   6.921  66.045  1.00  0.00    -0.392 OA 
HETATM    7  C   UNL     1      -8.039   7.208  65.479  1.00  0.00    -0.135 C  
HETATM    8  C   UNL     1      -9.839   5.940  70.846  1.00  0.00    -0.224 A  
HETATM    9  C   UNL     1      -8.426   5.535  66.249  1.00  0.00    -0.122 C  
HETATM   10  C   UNL     1      -7.867   7.288  63.993  1.00  0.00    -0.114 C  
HETATM   11  H   UNL     1     -11.046   7.184  65.828  1.00  0.00     0.000 HD 
HETATM   12  C   UNL     1      -8.993   5.721  67.909  1.00  0.00    -0.111 C  
HETATM   13  C   UNL     1      -8.484   6.960  68.928  1.00  0.00    -0.125 C  
HETATM   14  C   UNL     1      -9.179   7.053  70.292  1.00  0.00    -0.156 A  
HETATM   15  C   UNL     1      -8.992   8.197  71.107  1.00  0.00    -0.174 A  
HETATM   16  C   UNL     1      -9.536   8.225  72.406  1.00  0.00    -0.364 A  
HETATM   17  C   UNL     1      -8.232   9.425  70.652  1.00  0.00    -0.207 C  
HETATM   18  C   UNL     1      -7.397   9.257  69.383  1.00  0.00    -0.077 C  
HETATM   19  C   UNL     1     -10.208   7.118  72.911  1.00  0.00    -0.230 A  
HETATM   20  C   UNL     1     -10.350   5.973  72.146  1.00  0.00    -0.232 A  
HETATM   21  C   UNL     1      -8.200   8.505  68.323  1.00  0.00    -0.123 C  
HETATM   22  O   UNL     1     -10.733   7.114  74.170  1.00  0.00    -0.231 OA 
ENDROOT
BRANCH   4  23
HETATM   23  C   UNL     1      -9.476   9.031  65.664  1.00  0.00    -0.273 C  
HETATM   24  C   UNL     1      -9.895  10.065  65.194  1.00  0.00    -0.388 C  
ENDBRANCH   4  23
TORSDOF 1
ENDMDL
MODEL       95
REMARK 921   NORMALIZED FREE ENERGY PREDICTED BY IDOCK:   -3.82 KCAL/MOL
REMARK 922        TOTAL FREE ENERGY PREDICTED BY IDOCK:   -4.06 KCAL/MOL
REMARK 923 INTER-LIGAND FREE ENERGY PREDICTED BY IDOCK:   -4.05 KCAL/MOL
REMARK 924 INTRA-LIGAND FREE ENERGY PREDICTED BY IDOCK:   -0.01 KCAL/MOL
REMARK 927      BINDING AFFINITY PREDICTED BY RF-SCORE:    0.00 PKD
ROOT
HETATM    1  C   UNL     1      -9.479   6.326  72.808  1.00  0.00    -0.147 C  
HETATM    2  C   UNL     1      -9.718   7.091  73.968  1.00  0.00    -0.332 C  
HETATM    3  C   UNL     1     -10.791   7.130  72.945  1.00  0.00    -0.362 C  
HETATM    4  C   UNL     1     -10.579   5.783  71.408  1.00  0.00    -0.253 C  
HETATM    5  H   UNL     1      -8.920  12.361  66.128  1.00  0.00     0.000 HD 
HETATM    6  O   UNL     1     -11.491   5.399  70.376  1.00  0.00     0.277 OA 
HETATM    7  C   UNL     1     -11.285   5.633  72.567  1.00  0.00    -0.346 C  
HETATM    8  C   UNL     1     -10.579   9.940  68.747  1.00  0.00    -0.246 A  
HETATM    9  C   UNL     1     -12.572   6.755  71.776  1.00  0.00    -0.370 C  
HETATM   10  C   UNL     1     -11.753   4.415  73.302  1.00  0.00    -0.134 C  
HETATM   11  H   UNL     1     -11.393   4.776  69.666  1.00  0.00     0.000 HD 
HETATM   12  C   UNL     1     -11.819   7.868  70.633  1.00  0.00    -0.116 C  
HETATM   13  C   UNL     1     -10.257   8.465  70.813  1.00  0.00    -0.227 C  
HETATM   14  C   UNL     1      -9.710   9.313  69.659  1.00  0.00    -0.192 A  
HETATM   15  C   UNL     1      -8.335   9.649  69.614  1.00  0.00    -0.173 A  
HETATM   16  C   UNL     1      -7.862  10.525  68.617  1.00  0.00    -0.116 A  
HETATM   17  C   UNL     1      -7.314   9.101  70.590  1.00  0.00    -0.114 C  
HETATM   18  C   UNL     1      -7.884   8.415  71.831  1.00  0.00    -0.165 C  
HETATM   19  C   UNL     1      -8.744  11.104  67.712  1.00  0.00    -0.132 A  
HETATM   20  C   UNL     1     -10.100  10.828  67.781  1.00  0.00    -0.201 A  
HETATM   21  C   UNL     1      -9.033   7.490  71.436  1.00  0.00    -0.140 C  
HETATM   22  O   UNL     1      -8.316  11.965  66.747  1.00  0.00    -0.178 OA 
ENDROOT
BRANCH   4  23
HETATM   23  C   UNL     1      -9.633   4.556  71.326  1.00  0.00    -0.240 C  
HETATM   24  C   UNL     1      -8.881   3.615  71.209  1.00  0.00    -0.138 C  
ENDBRANCH   4  23
TORSDOF 1
ENDMDL
MODEL       96
REMARK 921   NORMALIZED FREE ENERGY PREDICTED BY IDOCK:   -3.81 KCAL/MOL
REMARK 922        TOTAL FREE ENERGY PREDICTED BY IDOCK:   -4.05 KCAL/MOL
REMARK 923 INTER-LIGAND FREE ENERGY PREDICTED BY IDOCK:   -4.05 KCAL/MOL
REMARK 924 INTRA-LIGAND FREE ENERGY PREDICTED BY IDOCK:   -0.00 KCAL/MOL
REMARK 927      BINDING AFFINITY PREDICTED BY RF-SCORE:    0.00 PKD
ROOT
HETATM    1  C   UNL     1      -8.081  11.335  66.823  1.00  0.00    -0.159 C  
HETATM    2  C   UNL     1      -7.803  12.652  67.243  1.00  0.00    -0.155 C  
HETATM    3  C   UNL     1      -6.953  11.597  67.846  1.00  0.00    -0.080 C  
HETATM    4  C   UNL     1      -7.153   9.731  67.006  1.00  0.00    -0.086 C  
HETATM    5  H   UNL     1     -10.983   7.099  74.238  1.00  0.00     0.000 HD 
HETATM    6  O   UNL     1      -6.375   8.545  67.182  1.00  0.00    -0.055 OA 
HETATM    7  C   UNL     1      -6.242  10.700  66.697  1.00  0.00    -0.083 C  
HETATM    8  C   UNL     1      -8.446   8.598  71.634  1.00  0.00    -0.230 A  
HETATM    9  C   UNL     1      -5.363  10.197  68.283  1.00  0.00    -0.035 C  
HETATM   10  C   UNL     1      -5.419  10.943  65.470  1.00  0.00    -0.114 C  
HETATM   11  H   UNL     1      -6.467   7.683  66.794  1.00  0.00     0.000 HD 
HETATM   12  C   UNL     1      -6.509   9.565  69.466  1.00  0.00    -0.044 C  
HETATM   13  C   UNL     1      -8.104  10.086  69.580  1.00  0.00    -0.166 C  
HETATM   14  C   UNL     1      -9.001   9.335  70.572  1.00  0.00    -0.296 A  
HETATM   15  C   UNL     1     -10.402   9.540  70.558  1.00  0.00    -0.350 A  
HETATM   16  C   UNL     1     -11.206   8.939  71.547  1.00  0.00    -0.396 A  
HETATM   17  C   UNL     1     -11.108  10.379  69.513  1.00  0.00    -0.314 C  
HETATM   18  C   UNL     1     -10.207  11.262  68.650  1.00  0.00    -0.214 C  
HETATM   19  C   UNL     1     -10.627   8.192  72.565  1.00  0.00    -0.340 A  
HETATM   20  C   UNL     1      -9.253   8.030  72.623  1.00  0.00    -0.304 A  
HETATM   21  C   UNL     1      -8.981  10.473  68.195  1.00  0.00    -0.138 C  
HETATM   22  O   UNL     1     -11.380   7.611  73.542  1.00  0.00    -0.216 OA 
ENDROOT
BRANCH   4  23
HETATM   23  C   UNL     1      -7.833   9.346  65.667  1.00  0.00    -0.099 C  
HETATM   24  C   UNL     1      -8.317   9.014  64.609  1.00  0.00    -0.180 C  
ENDBRANCH   4  23
TORSDOF 1
ENDMDL
MODEL       97
REMARK 921   NORMALIZED FREE ENERGY PREDICTED BY IDOCK:   -3.79 KCAL/MOL
REMARK 922        TOTAL FREE ENERGY PREDICTED BY IDOCK:   -4.03 KCAL/MOL
REMARK 923 INTER-LIGAND FREE ENERGY PREDICTED BY IDOCK:   -4.02 KCAL/MOL
REMARK 924 INTRA-LIGAND FREE ENERGY PREDICTED BY IDOCK:   -0.01 KCAL/MOL
REMARK 927      BINDING AFFINITY PREDICTED BY RF-SCORE:    0.00 PKD
ROOT
HETATM    1  C   UNL     1     -10.289   6.958  70.031  1.00  0.00    -0.219 C  
HETATM    2  C   UNL     1     -11.600   6.482  69.822  1.00  0.00    -0.392 C  
HETATM    3  C   UNL     1     -10.532   5.746  69.103  1.00  0.00    -0.346 C  
HETATM    4  C   UNL     1      -8.613   6.242  69.649  1.00  0.00    -0.133 C  
HETATM    5  H   UNL     1      -7.594   9.960  61.965  1.00  0.00     0.000 HD 
HETATM    6  O   UNL     1      -7.366   5.620  69.329  1.00  0.00    -0.070 OA 
HETATM    7  C   UNL     1      -9.391   5.230  70.133  1.00  0.00    -0.202 C  
HETATM    8  C   UNL     1      -8.338   7.402  64.858  1.00  0.00    -0.029 A  
HETATM    9  C   UNL     1      -8.999   4.334  68.525  1.00  0.00    -0.154 C  
HETATM   10  C   UNL     1      -9.340   4.455  71.414  1.00  0.00    -0.206 C  
HETATM   11  H   UNL     1      -6.479   5.849  69.582  1.00  0.00     0.000 HD 
HETATM   12  C   UNL     1      -8.707   5.484  67.219  1.00  0.00    -0.107 C  
HETATM   13  C   UNL     1      -9.458   6.986  67.122  1.00  0.00    -0.176 C  
HETATM   14  C   UNL     1      -8.989   7.915  65.996  1.00  0.00    -0.195 A  
HETATM   15  C   UNL     1      -9.384   9.275  65.986  1.00  0.00    -0.283 A  
HETATM   16  C   UNL     1      -9.048  10.092  64.889  1.00  0.00    -0.256 A  
HETATM   17  C   UNL     1     -10.157   9.922  67.116  1.00  0.00    -0.270 C  
HETATM   18  C   UNL     1     -10.774   8.963  68.133  1.00  0.00    -0.148 C  
HETATM   19  C   UNL     1      -8.378   9.559  63.794  1.00  0.00    -0.176 A  
HETATM   20  C   UNL     1      -8.035   8.218  63.766  1.00  0.00    -0.149 A  
HETATM   21  C   UNL     1      -9.764   7.883  68.513  1.00  0.00    -0.167 C  
HETATM   22  O   UNL     1      -8.052  10.324  62.713  1.00  0.00    -0.141 OA 
ENDROOT
BRANCH   4  23
HETATM   23  C   UNL     1      -8.142   7.045  70.889  1.00  0.00    -0.109 C  
HETATM   24  C   UNL     1      -7.746   7.707  71.822  1.00  0.00    -0.089 C  
ENDBRANCH   4  23
TORSDOF 1
ENDMDL
MODEL       98
REMARK 921   NORMALIZED FREE ENERGY PREDICTED BY IDOCK:   -3.77 KCAL/MOL
REMARK 922        TOTAL FREE ENERGY PREDICTED BY IDOCK:   -4.00 KCAL/MOL
REMARK 923 INTER-LIGAND FREE ENERGY PREDICTED BY IDOCK:   -4.01 KCAL/MOL
REMARK 924 INTRA-LIGAND FREE ENERGY PREDICTED BY IDOCK:    0.00 KCAL/MOL
REMARK 927      BINDING AFFINITY PREDICTED BY RF-SCORE:    0.00 PKD
ROOT
HETATM    1  C   UNL     1      -9.937   5.503  71.494  1.00  0.00    -0.229 C  
HETATM    2  C   UNL     1      -8.835   4.813  72.039  1.00  0.00    -0.136 C  
HETATM    3  C   UNL     1      -8.566   6.206  71.605  1.00  0.00    -0.134 C  
HETATM    4  C   UNL     1     -10.233   7.299  71.103  1.00  0.00    -0.190 C  
HETATM    5  H   UNL     1      -7.697   7.037  62.893  1.00  0.00     0.000 HD 
HETATM    6  O   UNL     1     -10.383   8.696  70.841  1.00  0.00    -0.194 OA 
HETATM    7  C   UNL     1      -9.596   7.240  72.310  1.00  0.00    -0.173 C  
HETATM    8  C   UNL     1      -7.851   7.567  66.787  1.00  0.00    -0.110 A  
HETATM    9  C   UNL     1      -8.293   8.350  71.529  1.00  0.00    -0.196 C  
HETATM   10  C   UNL     1     -10.059   7.550  73.700  1.00  0.00    -0.343 C  
HETATM   11  H   UNL     1     -11.154   9.202  70.609  1.00  0.00     0.000 HD 
HETATM   12  C   UNL     1      -8.196   8.080  69.788  1.00  0.00    -0.120 C  
HETATM   13  C   UNL     1      -8.503   6.594  69.063  1.00  0.00    -0.130 C  
HETATM   14  C   UNL     1      -8.507   6.567  67.530  1.00  0.00    -0.120 A  
HETATM   15  C   UNL     1      -8.992   5.429  66.841  1.00  0.00    -0.110 A  
HETATM   16  C   UNL     1      -8.883   5.363  65.437  1.00  0.00    -0.144 A  
HETATM   17  C   UNL     1      -9.645   4.253  67.537  1.00  0.00    -0.217 C  
HETATM   18  C   UNL     1      -9.473   4.201  69.055  1.00  0.00    -0.244 C  
HETATM   19  C   UNL     1      -8.256   6.383  64.732  1.00  0.00    -0.092 A  
HETATM   20  C   UNL     1      -7.728   7.476  65.399  1.00  0.00    -0.109 A  
HETATM   21  C   UNL     1      -9.713   5.584  69.656  1.00  0.00    -0.230 C  
HETATM   22  O   UNL     1      -8.126   6.339  63.376  1.00  0.00    -0.111 OA 
ENDROOT
BRANCH   4  23
HETATM   23  C   UNL     1     -11.721   6.973  71.393  1.00  0.00    -0.344 C  
HETATM   24  C   UNL     1     -12.888   6.771  71.644  1.00  0.00    -0.328 C  
ENDBRANCH   4  23
TORSDOF 1
ENDMDL
MODEL       99
REMARK 921   NORMALIZED FREE ENERGY PREDICTED BY IDOCK:   -3.75 KCAL/MOL
REMARK 922        TOTAL FREE ENERGY PREDICTED BY IDOCK:   -3.99 KCAL/MOL
REMARK 923 INTER-LIGAND FREE ENERGY PREDICTED BY IDOCK:   -3.97 KCAL/MOL
REMARK 924 INTRA-LIGAND FREE ENERGY PREDICTED BY IDOCK:   -0.02 KCAL/MOL
REMARK 927      BINDING AFFINITY PREDICTED BY RF-SCORE:    0.00 PKD
ROOT
HETATM    1  C   UNL     1      -7.694   5.193  66.748  1.00  0.00    -0.092 C  
HETATM    2  C   UNL     1      -6.407   5.463  67.259  1.00  0.00    -0.039 C  
HETATM    3  C   UNL     1      -7.221   4.509  68.051  1.00  0.00    -0.065 C  
HETATM    4  C   UNL     1      -8.958   3.886  67.146  1.00  0.00    -0.138 C  
HETATM    5  H   UNL     1     -13.384   8.420  72.956  1.00  0.00     0.000 HD 
HETATM    6  O   UNL     1      -9.872   2.846  67.505  1.00  0.00    -0.305 OA 
HETATM    7  C   UNL     1      -7.735   3.281  67.126  1.00  0.00    -0.078 C  
HETATM    8  C   UNL     1     -10.924   5.904  71.200  1.00  0.00    -0.327 A  
HETATM    9  C   UNL     1      -8.124   2.728  68.882  1.00  0.00    -0.069 C  
HETATM   10  C   UNL     1      -7.125   2.289  66.183  1.00  0.00    -0.059 C  
HETATM   11  H   UNL     1     -10.675   2.558  67.086  1.00  0.00     0.000 HD 
HETATM   12  C   UNL     1      -9.194   3.881  69.682  1.00  0.00    -0.221 C  
HETATM   13  C   UNL     1      -9.186   5.531  69.358  1.00  0.00    -0.145 C  
HETATM   14  C   UNL     1     -10.273   6.369  70.042  1.00  0.00    -0.221 A  
HETATM   15  C   UNL     1     -10.493   7.710  69.642  1.00  0.00    -0.235 A  
HETATM   16  C   UNL     1     -11.411   8.509  70.353  1.00  0.00    -0.193 A  
HETATM   17  C   UNL     1      -9.793   8.349  68.461  1.00  0.00    -0.186 C  
HETATM   18  C   UNL     1      -8.593   7.582  67.906  1.00  0.00    -0.121 C  
HETATM   19  C   UNL     1     -12.059   8.008  71.475  1.00  0.00    -0.298 A  
HETATM   20  C   UNL     1     -11.810   6.717  71.911  1.00  0.00    -0.375 A  
HETATM   21  C   UNL     1      -8.928   6.097  67.793  1.00  0.00    -0.115 C  
HETATM   22  O   UNL     1     -12.941   8.764  72.189  1.00  0.00    -0.355 OA 
ENDROOT
BRANCH   4  23
HETATM   23  C   UNL     1      -9.379   4.040  65.661  1.00  0.00    -0.160 C  
HETATM   24  C   UNL     1      -9.756   4.130  64.515  1.00  0.00    -0.168 C  
ENDBRANCH   4  23
TORSDOF 1
ENDMDL
MODEL      100
REMARK 921   NORMALIZED FREE ENERGY PREDICTED BY IDOCK:   -3.75 KCAL/MOL
REMARK 922        TOTAL FREE ENERGY PREDICTED BY IDOCK:   -3.98 KCAL/MOL
REMARK 923 INTER-LIGAND FREE ENERGY PREDICTED BY IDOCK:   -3.97 KCAL/MOL
REMARK 924 INTRA-LIGAND FREE ENERGY PREDICTED BY IDOCK:   -0.01 KCAL/MOL
REMARK 927      BINDING AFFINITY PREDICTED BY RF-SCORE:    0.00 PKD
ROOT
HETATM    1  C   UNL     1      -8.659   5.218  64.910  1.00  0.00    -0.145 C  
HETATM    2  C   UNL     1      -7.460   5.961  64.937  1.00  0.00    -0.077 C  
HETATM    3  C   UNL     1      -7.450   4.706  65.726  1.00  0.00    -0.081 C  
HETATM    4  C   UNL     1      -9.077   3.482  65.437  1.00  0.00    -0.145 C  
HETATM    5  H   UNL     1     -11.677   5.383  73.408  1.00  0.00     0.000 HD 
HETATM    6  O   UNL     1      -9.313   2.136  65.858  1.00  0.00    -0.318 OA 
HETATM    7  C   UNL     1      -7.868   3.439  64.804  1.00  0.00    -0.078 C  
HETATM    8  C   UNL     1      -9.572   4.231  70.292  1.00  0.00    -0.269 A  
HETATM    9  C   UNL     1      -7.213   2.660  66.386  1.00  0.00    -0.065 C  
HETATM   10  C   UNL     1      -7.448   2.853  63.491  1.00  0.00    -0.062 C  
HETATM   11  H   UNL     1     -10.065   1.571  65.725  1.00  0.00     0.000 HD 
HETATM   12  C   UNL     1      -8.132   3.211  67.788  1.00  0.00    -0.082 C  
HETATM   13  C   UNL     1      -8.836   4.734  67.893  1.00  0.00    -0.114 C  
HETATM   14  C   UNL     1      -9.713   5.001  69.121  1.00  0.00    -0.243 A  
HETATM   15  C   UNL     1     -10.534   6.154  69.172  1.00  0.00    -0.310 A  
HETATM   16  C   UNL     1     -11.247   6.453  70.350  1.00  0.00    -0.435 A  
HETATM   17  C   UNL     1     -10.705   7.103  68.004  1.00  0.00    -0.232 C  
HETATM   18  C   UNL     1      -9.701   6.939  66.863  1.00  0.00    -0.222 C  
HETATM   19  C   UNL     1     -11.106   5.655  71.479  1.00  0.00    -0.165 A  
HETATM   20  C   UNL     1     -10.264   4.556  71.461  1.00  0.00    -0.195 A  
HETATM   21  C   UNL     1      -9.519   5.459  66.534  1.00  0.00    -0.158 C  
HETATM   22  O   UNL     1     -11.773   5.929  72.636  1.00  0.00    -0.280 OA 
ENDROOT
BRANCH   4  23
HETATM   23  C   UNL     1     -10.143   3.547  64.313  1.00  0.00    -0.196 C  
HETATM   24  C   UNL     1     -10.988   3.542  63.447  1.00  0.00    -0.098 C  
ENDBRANCH   4  23
TORSDOF 1
ENDMDL
MODEL      101
REMARK 921   NORMALIZED FREE ENERGY PREDICTED BY IDOCK:   -3.74 KCAL/MOL
REMARK 922        TOTAL FREE ENERGY PREDICTED BY IDOCK:   -3.98 KCAL/MOL
REMARK 923 INTER-LIGAND FREE ENERGY PREDICTED BY IDOCK:   -3.98 KCAL/MOL
REMARK 924 INTRA-LIGAND FREE ENERGY PREDICTED BY IDOCK:    0.00 KCAL/MOL
REMARK 927      BINDING AFFINITY PREDICTED BY RF-SCORE:    0.00 PKD
ROOT
HETATM    1  C   UNL     1      -9.382   7.472  71.626  1.00  0.00    -0.164 C  
HETATM    2  C   UNL     1      -8.499   8.569  71.700  1.00  0.00    -0.235 C  
HETATM    3  C   UNL     1      -9.446   8.588  70.558  1.00  0.00    -0.193 C  
HETATM    4  C   UNL     1     -10.922   7.159  70.628  1.00  0.00    -0.258 C  
HETATM    5  H   UNL     1      -7.123   3.189  64.017  1.00  0.00     0.000 HD 
HETATM    6  O   UNL     1     -12.100   7.002  69.832  1.00  0.00    -0.596 OA 
HETATM    7  C   UNL     1     -10.977   8.449  71.074  1.00  0.00    -0.288 C  
HETATM    8  C   UNL     1      -8.835   5.853  66.349  1.00  0.00    -0.134 A  
HETATM    9  C   UNL     1     -11.143   8.931  69.263  1.00  0.00     0.070 C  
HETATM   10  C   UNL     1     -11.861   9.123  72.077  1.00  0.00    -0.407 C  
HETATM   11  H   UNL     1     -12.783   6.342  69.864  1.00  0.00     0.000 HD 
HETATM   12  C   UNL     1     -10.338   7.757  68.221  1.00  0.00    -0.239 C  
HETATM   13  C   UNL     1      -8.972   6.891  68.684  1.00  0.00    -0.129 C  
HETATM   14  C   UNL     1      -8.481   5.814  67.710  1.00  0.00    -0.103 A  
HETATM   15  C   UNL     1      -7.498   4.880  68.121  1.00  0.00    -0.074 A  
HETATM   16  C   UNL     1      -6.967   3.969  67.186  1.00  0.00    -0.062 A  
HETATM   17  C   UNL     1      -6.977   4.793  69.540  1.00  0.00    -0.053 C  
HETATM   18  C   UNL     1      -7.327   5.971  70.449  1.00  0.00    -0.088 C  
HETATM   19  C   UNL     1      -7.361   4.017  65.855  1.00  0.00    -0.076 A  
HETATM   20  C   UNL     1      -8.280   4.961  65.428  1.00  0.00    -0.121 A  
HETATM   21  C   UNL     1      -8.795   6.353  70.270  1.00  0.00    -0.151 C  
HETATM   22  O   UNL     1      -6.853   3.156  64.927  1.00  0.00    -0.040 OA 
ENDROOT
BRANCH   4  23
HETATM   23  C   UNL     1     -11.353   6.277  71.828  1.00  0.00    -0.346 C  
HETATM   24  C   UNL     1     -11.661   5.545  72.741  1.00  0.00    -0.298 C  
ENDBRANCH   4  23
TORSDOF 1
ENDMDL
MODEL      102
REMARK 921   NORMALIZED FREE ENERGY PREDICTED BY IDOCK:   -3.70 KCAL/MOL
REMARK 922        TOTAL FREE ENERGY PREDICTED BY IDOCK:   -3.93 KCAL/MOL
REMARK 923 INTER-LIGAND FREE ENERGY PREDICTED BY IDOCK:   -3.93 KCAL/MOL
REMARK 924 INTRA-LIGAND FREE ENERGY PREDICTED BY IDOCK:    0.00 KCAL/MOL
REMARK 927      BINDING AFFINITY PREDICTED BY RF-SCORE:    0.00 PKD
ROOT
HETATM    1  C   UNL     1      -8.478   7.854  70.046  1.00  0.00    -0.134 C  
HETATM    2  C   UNL     1      -8.339   7.114  68.853  1.00  0.00    -0.126 C  
HETATM    3  C   UNL     1      -7.414   8.264  69.003  1.00  0.00    -0.091 C  
HETATM    4  C   UNL     1      -7.411   9.142  70.861  1.00  0.00    -0.116 C  
HETATM    5  H   UNL     1     -11.219  16.029  67.402  1.00  0.00     0.000 HD 
HETATM    6  O   UNL     1      -6.531  10.118  71.426  1.00  0.00    -0.315 OA 
HETATM    7  C   UNL     1      -6.584   8.162  70.392  1.00  0.00    -0.036 C  
HETATM    8  C   UNL     1      -8.747  13.075  68.192  1.00  0.00    -0.190 A  
HETATM    9  C   UNL     1      -5.716   9.531  69.437  1.00  0.00    -0.034 C  
HETATM   10  C   UNL     1      -5.747   7.139  71.095  1.00  0.00    -0.035 C  
HETATM   11  H   UNL     1      -6.528  10.524  72.285  1.00  0.00     0.000 HD 
HETATM   12  C   UNL     1      -6.837  10.836  69.046  1.00  0.00    -0.075 C  
HETATM   13  C   UNL     1      -8.477  10.594  68.761  1.00  0.00    -0.149 C  
HETATM   14  C   UNL     1      -9.333  11.852  68.570  1.00  0.00    -0.142 A  
HETATM   15  C   UNL     1     -10.745  11.757  68.570  1.00  0.00    -0.251 A  
HETATM   16  C   UNL     1     -11.522  12.896  68.277  1.00  0.00    -0.348 A  
HETATM   17  C   UNL     1     -11.491  10.476  68.883  1.00  0.00    -0.292 C  
HETATM   18  C   UNL     1     -10.648   9.202  68.890  1.00  0.00    -0.214 C  
HETATM   19  C   UNL     1     -10.910  14.096  67.936  1.00  0.00    -0.245 A  
HETATM   20  C   UNL     1      -9.530  14.188  67.878  1.00  0.00    -0.211 A  
HETATM   21  C   UNL     1      -9.339   9.444  69.638  1.00  0.00    -0.199 C  
HETATM   22  O   UNL     1     -11.638  15.209  67.635  1.00  0.00    -0.336 OA 
ENDROOT
BRANCH   4  23
HETATM   23  C   UNL     1      -8.006   8.597  72.185  1.00  0.00    -0.098 C  
HETATM   24  C   UNL     1      -8.514   8.209  73.213  1.00  0.00    -0.294 C  
ENDBRANCH   4  23
TORSDOF 1
ENDMDL
MODEL      103
REMARK 921   NORMALIZED FREE ENERGY PREDICTED BY IDOCK:   -3.59 KCAL/MOL
REMARK 922        TOTAL FREE ENERGY PREDICTED BY IDOCK:   -3.82 KCAL/MOL
REMARK 923 INTER-LIGAND FREE ENERGY PREDICTED BY IDOCK:   -3.81 KCAL/MOL
REMARK 924 INTRA-LIGAND FREE ENERGY PREDICTED BY IDOCK:   -0.01 KCAL/MOL
REMARK 927      BINDING AFFINITY PREDICTED BY RF-SCORE:    0.00 PKD
ROOT
HETATM    1  C   UNL     1      -7.779   8.284  67.542  1.00  0.00    -0.099 C  
HETATM    2  C   UNL     1      -7.149   7.402  66.640  1.00  0.00    -0.075 C  
HETATM    3  C   UNL     1      -8.573   7.106  66.933  1.00  0.00    -0.124 C  
HETATM    4  C   UNL     1      -9.562   8.560  67.997  1.00  0.00    -0.149 C  
HETATM    5  H   UNL     1      -9.789   3.213  74.724  1.00  0.00     0.000 HD 
HETATM    6  O   UNL     1     -10.955   8.716  68.284  1.00  0.00    -0.453 OA 
HETATM    7  C   UNL     1      -9.504   8.401  66.642  1.00  0.00    -0.267 C  
HETATM    8  C   UNL     1     -10.161   4.808  71.148  1.00  0.00    -0.229 A  
HETATM    9  C   UNL     1     -10.732   6.996  66.885  1.00  0.00    -0.376 C  
HETATM   10  C   UNL     1      -9.728   9.359  65.512  1.00  0.00    -0.300 C  
HETATM   11  H   UNL     1     -11.412   9.388  68.775  1.00  0.00     0.000 HD 
HETATM   12  C   UNL     1     -10.535   6.254  68.474  1.00  0.00    -0.273 C  
HETATM   13  C   UNL     1      -9.059   6.159  69.274  1.00  0.00    -0.129 C  
HETATM   14  C   UNL     1      -9.090   5.605  70.704  1.00  0.00    -0.168 A  
HETATM   15  C   UNL     1      -7.947   5.716  71.532  1.00  0.00    -0.117 A  
HETATM   16  C   UNL     1      -7.942   5.102  72.801  1.00  0.00    -0.098 A  
HETATM   17  C   UNL     1      -6.702   6.480  71.133  1.00  0.00    -0.058 C  
HETATM   18  C   UNL     1      -6.605   6.866  69.657  1.00  0.00    -0.048 C  
HETATM   19  C   UNL     1      -9.029   4.345  73.221  1.00  0.00    -0.111 A  
HETATM   20  C   UNL     1     -10.131   4.183  72.398  1.00  0.00    -0.243 A  
HETATM   21  C   UNL     1      -7.944   7.417  69.171  1.00  0.00    -0.118 C  
HETATM   22  O   UNL     1      -9.045   3.730  74.437  1.00  0.00    -0.089 OA 
ENDROOT
BRANCH   4  23
HETATM   23  C   UNL     1      -9.121  10.021  68.271  1.00  0.00    -0.122 C  
HETATM   24  C   UNL     1      -8.783  11.151  68.542  1.00  0.00    -0.161 C  
ENDBRANCH   4  23
TORSDOF 1
ENDMDL
MODEL      104
REMARK 921   NORMALIZED FREE ENERGY PREDICTED BY IDOCK:   -3.42 KCAL/MOL
REMARK 922        TOTAL FREE ENERGY PREDICTED BY IDOCK:   -3.64 KCAL/MOL
REMARK 923 INTER-LIGAND FREE ENERGY PREDICTED BY IDOCK:   -3.62 KCAL/MOL
REMARK 924 INTRA-LIGAND FREE ENERGY PREDICTED BY IDOCK:   -0.02 KCAL/MOL
REMARK 927      BINDING AFFINITY PREDICTED BY RF-SCORE:    0.00 PKD
ROOT
HETATM    1  C   UNL     1      -7.618  10.426  65.115  1.00  0.00    -0.103 C  
HETATM    2  C   UNL     1      -6.371  10.781  65.671  1.00  0.00    -0.059 C  
HETATM    3  C   UNL     1      -6.968   9.527  66.192  1.00  0.00    -0.091 C  
HETATM    4  C   UNL     1      -8.619   8.857  65.167  1.00  0.00    -0.182 C  
HETATM    5  H   UNL     1     -13.439  10.891  71.989  1.00  0.00     0.000 HD 
HETATM    6  O   UNL     1      -9.321   7.614  65.248  1.00  0.00    -0.225 OA 
HETATM    7  C   UNL     1      -7.313   8.505  64.982  1.00  0.00    -0.086 C  
HETATM    8  C   UNL     1     -10.682   9.387  69.620  1.00  0.00    -0.251 A  
HETATM    9  C   UNL     1      -7.509   7.462  66.536  1.00  0.00    -0.084 C  
HETATM   10  C   UNL     1      -6.594   7.912  63.809  1.00  0.00    -0.062 C  
HETATM   11  H   UNL     1     -10.084   7.304  64.775  1.00  0.00     0.000 HD 
HETATM   12  C   UNL     1      -8.716   8.161  67.616  1.00  0.00    -0.130 C  
HETATM   13  C   UNL     1      -9.006   9.814  67.734  1.00  0.00    -0.132 C  
HETATM   14  C   UNL     1     -10.182  10.242  68.620  1.00  0.00    -0.196 A  
HETATM   15  C   UNL     1     -10.648  11.578  68.584  1.00  0.00    -0.236 A  
HETATM   16  C   UNL     1     -11.650  11.993  69.485  1.00  0.00    -0.389 A  
HETATM   17  C   UNL     1     -10.131  12.613  67.607  1.00  0.00    -0.218 C  
HETATM   18  C   UNL     1      -8.849  12.240  66.863  1.00  0.00    -0.207 C  
HETATM   19  C   UNL     1     -12.143  11.114  70.442  1.00  0.00    -0.385 A  
HETATM   20  C   UNL     1     -11.655   9.820  70.524  1.00  0.00    -0.365 A  
HETATM   21  C   UNL     1      -8.932  10.797  66.368  1.00  0.00    -0.179 C  
HETATM   22  O   UNL     1     -13.102  11.492  71.334  1.00  0.00    -0.380 OA 
ENDROOT
BRANCH   4  23
HETATM   23  C   UNL     1      -9.137   9.307  63.777  1.00  0.00     0.027 C  
HETATM   24  C   UNL     1      -9.586   9.620  62.697  1.00  0.00     0.310 C  
ENDBRANCH   4  23
TORSDOF 1
ENDMDL
MODEL      105
REMARK 921   NORMALIZED FREE ENERGY PREDICTED BY IDOCK:   -3.35 KCAL/MOL
REMARK 922        TOTAL FREE ENERGY PREDICTED BY IDOCK:   -3.56 KCAL/MOL
REMARK 923 INTER-LIGAND FREE ENERGY PREDICTED BY IDOCK:   -3.55 KCAL/MOL
REMARK 924 INTRA-LIGAND FREE ENERGY PREDICTED BY IDOCK:   -0.01 KCAL/MOL
REMARK 927      BINDING AFFINITY PREDICTED BY RF-SCORE:    0.00 PKD
ROOT
HETATM    1  C   UNL     1      -7.818   5.646  65.513  1.00  0.00    -0.100 C  
HETATM    2  C   UNL     1      -8.684   5.015  64.596  1.00  0.00    -0.141 C  
HETATM    3  C   UNL     1      -8.102   6.302  64.143  1.00  0.00    -0.067 C  
HETATM    4  C   UNL     1      -6.614   7.055  65.344  1.00  0.00    -0.047 C  
HETATM    5  H   UNL     1     -11.979  13.336  67.725  1.00  0.00     0.000 HD 
HETATM    6  O   UNL     1      -5.705   8.137  65.129  1.00  0.00    -0.043 OA 
HETATM    7  C   UNL     1      -6.483   6.269  64.236  1.00  0.00    -0.033 C  
HETATM    8  C   UNL     1      -9.777  10.833  65.637  1.00  0.00    -0.287 A  
HETATM    9  C   UNL     1      -6.855   7.826  63.247  1.00  0.00    -0.071 C  
HETATM   10  C   UNL     1      -5.377   5.373  63.769  1.00  0.00    -0.013 C  
HETATM   11  H   UNL     1      -5.016   8.486  65.684  1.00  0.00     0.000 HD 
HETATM   12  C   UNL     1      -7.878   8.929  64.170  1.00  0.00    -0.135 C  
HETATM   13  C   UNL     1      -9.023   8.412  65.289  1.00  0.00    -0.055 C  
HETATM   14  C   UNL     1      -9.730   9.505  66.100  1.00  0.00    -0.324 A  
HETATM   15  C   UNL     1     -10.520   9.157  67.222  1.00  0.00    -0.335 A  
HETATM   16  C   UNL     1     -11.260  10.152  67.891  1.00  0.00    -0.234 A  
HETATM   17  C   UNL     1     -10.613   7.747  67.767  1.00  0.00    -0.254 C  
HETATM   18  C   UNL     1     -10.065   6.647  66.859  1.00  0.00    -0.258 C  
HETATM   19  C   UNL     1     -11.261  11.461  67.424  1.00  0.00    -0.305 A  
HETATM   20  C   UNL     1     -10.537  11.804  66.295  1.00  0.00    -0.292 A  
HETATM   21  C   UNL     1      -8.723   7.076  66.268  1.00  0.00    -0.154 C  
HETATM   22  O   UNL     1     -11.978  12.441  68.044  1.00  0.00    -0.371 OA 
ENDROOT
BRANCH   4  23
HETATM   23  C   UNL     1      -5.827   6.334  66.470  1.00  0.00    -0.024 C  
HETATM   24  C   UNL     1      -5.222   5.818  67.382  1.00  0.00    -0.005 C  
ENDBRANCH   4  23
TORSDOF 1
ENDMDL
MODEL      106
REMARK 921   NORMALIZED FREE ENERGY PREDICTED BY IDOCK:   -3.25 KCAL/MOL
REMARK 922        TOTAL FREE ENERGY PREDICTED BY IDOCK:   -3.46 KCAL/MOL
REMARK 923 INTER-LIGAND FREE ENERGY PREDICTED BY IDOCK:   -3.49 KCAL/MOL
REMARK 924 INTRA-LIGAND FREE ENERGY PREDICTED BY IDOCK:    0.03 KCAL/MOL
REMARK 927      BINDING AFFINITY PREDICTED BY RF-SCORE:    0.00 PKD
ROOT
HETATM    1  C   UNL     1      -8.210   6.323  71.688  1.00  0.00    -0.118 C  
HETATM    2  C   UNL     1      -7.620   6.806  72.875  1.00  0.00    -0.094 C  
HETATM    3  C   UNL     1      -8.667   7.674  72.282  1.00  0.00    -0.160 C  
HETATM    4  C   UNL     1      -9.730   6.828  70.740  1.00  0.00    -0.179 C  
HETATM    5  H   UNL     1      -5.857  12.277  65.336  1.00  0.00     0.000 HD 
HETATM    6  O   UNL     1     -10.916   7.271  70.076  1.00  0.00    -0.253 OA 
HETATM    7  C   UNL     1     -10.047   6.851  72.068  1.00  0.00    -0.201 C  
HETATM    8  C   UNL     1      -7.891  10.717  68.318  1.00  0.00    -0.113 A  
HETATM    9  C   UNL     1     -10.534   8.647  71.786  1.00  0.00    -0.394 C  
HETATM   10  C   UNL     1     -10.949   5.988  72.896  1.00  0.00    -0.303 C  
HETATM   11  H   UNL     1     -11.408   6.880  69.363  1.00  0.00     0.000 HD 
HETATM   12  C   UNL     1      -9.590   9.358  70.476  1.00  0.00    -0.330 C  
HETATM   13  C   UNL     1      -8.009   8.904  70.121  1.00  0.00    -0.111 C  
HETATM   14  C   UNL     1      -7.384   9.523  68.866  1.00  0.00    -0.073 A  
HETATM   15  C   UNL     1      -6.162   9.019  68.359  1.00  0.00    -0.054 A  
HETATM   16  C   UNL     1      -5.534   9.668  67.276  1.00  0.00    -0.036 A  
HETATM   17  C   UNL     1      -5.476   7.789  68.916  1.00  0.00    -0.026 C  
HETATM   18  C   UNL     1      -5.998   7.291  70.264  1.00  0.00    -0.024 C  
HETATM   19  C   UNL     1      -6.078  10.829  66.740  1.00  0.00    -0.082 A  
HETATM   20  C   UNL     1      -7.243  11.364  67.263  1.00  0.00    -0.119 A  
HETATM   21  C   UNL     1      -7.525   7.298  70.269  1.00  0.00    -0.084 C  
HETATM   22  O   UNL     1      -5.484  11.484  65.703  1.00  0.00    -0.171 OA 
ENDROOT
BRANCH   4  23
HETATM   23  C   UNL     1      -9.790   5.337  70.316  1.00  0.00    -0.284 C  
HETATM   24  C   UNL     1      -9.780   4.174  69.983  1.00  0.00    -0.282 C  
ENDBRANCH   4  23
TORSDOF 1
ENDMDL
MODEL      107
REMARK 921   NORMALIZED FREE ENERGY PREDICTED BY IDOCK:   -3.20 KCAL/MOL
REMARK 922        TOTAL FREE ENERGY PREDICTED BY IDOCK:   -3.41 KCAL/MOL
REMARK 923 INTER-LIGAND FREE ENERGY PREDICTED BY IDOCK:   -3.39 KCAL/MOL
REMARK 924 INTRA-LIGAND FREE ENERGY PREDICTED BY IDOCK:   -0.02 KCAL/MOL
REMARK 927      BINDING AFFINITY PREDICTED BY RF-SCORE:    0.00 PKD
ROOT
HETATM    1  C   UNL     1      -7.707  10.383  66.131  1.00  0.00    -0.129 C  
HETATM    2  C   UNL     1      -6.340  10.318  65.790  1.00  0.00    -0.111 C  
HETATM    3  C   UNL     1      -7.057   9.020  65.802  1.00  0.00    -0.085 C  
HETATM    4  C   UNL     1      -9.099   9.154  65.995  1.00  0.00    -0.197 C  
HETATM    5  H   UNL     1      -8.377   5.843  73.895  1.00  0.00     0.000 HD 
HETATM    6  O   UNL     1     -10.113   8.157  65.848  1.00  0.00    -0.395 OA 
HETATM    7  C   UNL     1      -8.365   9.072  64.846  1.00  0.00    -0.178 C  
HETATM    8  C   UNL     1      -8.157   6.449  70.015  1.00  0.00    -0.121 A  
HETATM    9  C   UNL     1      -8.168   7.246  65.255  1.00  0.00    -0.126 C  
HETATM   10  C   UNL     1      -8.675   9.458  63.432  1.00  0.00    -0.219 C  
HETATM   11  H   UNL     1     -11.057   8.219  65.937  1.00  0.00     0.000 HD 
HETATM   12  C   UNL     1      -8.225   6.982  66.999  1.00  0.00    -0.117 C  
HETATM   13  C   UNL     1      -7.678   8.106  68.125  1.00  0.00    -0.110 C  
HETATM   14  C   UNL     1      -7.926   7.774  69.601  1.00  0.00    -0.116 A  
HETATM   15  C   UNL     1      -7.723   8.763  70.594  1.00  0.00    -0.096 A  
HETATM   16  C   UNL     1      -7.839   8.418  71.956  1.00  0.00    -0.171 A  
HETATM   17  C   UNL     1      -7.392  10.206  70.275  1.00  0.00    -0.108 C  
HETATM   18  C   UNL     1      -6.969  10.486  68.833  1.00  0.00    -0.070 C  
HETATM   19  C   UNL     1      -8.097   7.105  72.330  1.00  0.00    -0.097 A  
HETATM   20  C   UNL     1      -8.242   6.117  71.370  1.00  0.00    -0.123 A  
HETATM   21  C   UNL     1      -7.896   9.756  67.864  1.00  0.00    -0.090 C  
HETATM   22  O   UNL     1      -8.200   6.742  73.640  1.00  0.00    -0.108 OA 
ENDROOT
BRANCH   4  23
HETATM   23  C   UNL     1     -10.001  10.405  65.833  1.00  0.00    -0.317 C  
HETATM   24  C   UNL     1     -10.752  11.346  65.712  1.00  0.00    -0.309 C  
ENDBRANCH   4  23
TORSDOF 1
ENDMDL
MODEL      108
REMARK 921   NORMALIZED FREE ENERGY PREDICTED BY IDOCK:   -3.15 KCAL/MOL
REMARK 922        TOTAL FREE ENERGY PREDICTED BY IDOCK:   -3.36 KCAL/MOL
REMARK 923 INTER-LIGAND FREE ENERGY PREDICTED BY IDOCK:   -3.41 KCAL/MOL
REMARK 924 INTRA-LIGAND FREE ENERGY PREDICTED BY IDOCK:    0.05 KCAL/MOL
REMARK 927      BINDING AFFINITY PREDICTED BY RF-SCORE:    0.00 PKD
ROOT
HETATM    1  C   UNL     1      -9.099   9.150  65.143  1.00  0.00    -0.234 C  
HETATM    2  C   UNL     1      -9.859  10.333  65.039  1.00  0.00    -0.397 C  
HETATM    3  C   UNL     1      -8.536  10.480  65.693  1.00  0.00    -0.182 C  
HETATM    4  C   UNL     1      -7.314   8.833  65.565  1.00  0.00    -0.085 C  
HETATM    5  H   UNL     1      -8.414   7.598  74.001  1.00  0.00     0.000 HD 
HETATM    6  O   UNL     1      -5.930   8.675  65.889  1.00  0.00    -0.047 OA 
HETATM    7  C   UNL     1      -7.353   9.918  64.737  1.00  0.00    -0.136 C  
HETATM    8  C   UNL     1      -7.598   9.155  70.483  1.00  0.00    -0.130 A  
HETATM    9  C   UNL     1      -6.442  10.832  66.107  1.00  0.00    -0.129 C  
HETATM   10  C   UNL     1      -6.900  10.114  63.323  1.00  0.00    -0.128 C  
HETATM   11  H   UNL     1      -5.365   7.913  65.830  1.00  0.00     0.000 HD 
HETATM   12  C   UNL     1      -6.843  10.159  67.688  1.00  0.00    -0.076 C  
HETATM   13  C   UNL     1      -8.336   9.477  68.053  1.00  0.00    -0.118 C  
HETATM   14  C   UNL     1      -8.470   8.817  69.431  1.00  0.00    -0.125 A  
HETATM   15  C   UNL     1      -9.597   8.012  69.726  1.00  0.00    -0.171 A  
HETATM   16  C   UNL     1      -9.772   7.506  71.030  1.00  0.00    -0.170 A  
HETATM   17  C   UNL     1     -10.647   7.645  68.699  1.00  0.00    -0.161 C  
HETATM   18  C   UNL     1     -10.610   8.444  67.396  1.00  0.00    -0.313 C  
HETATM   19  C   UNL     1      -8.875   7.837  72.039  1.00  0.00    -0.130 A  
HETATM   20  C   UNL     1      -7.799   8.668  71.777  1.00  0.00    -0.138 A  
HETATM   21  C   UNL     1      -9.171   8.573  66.903  1.00  0.00    -0.197 C  
HETATM   22  O   UNL     1      -9.028   7.372  73.311  1.00  0.00    -0.137 OA 
ENDROOT
BRANCH   4  23
HETATM   23  C   UNL     1      -7.462   7.593  64.645  1.00  0.00    -0.096 C  
HETATM   24  C   UNL     1      -7.603   6.659  63.888  1.00  0.00    -0.108 C  
ENDBRANCH   4  23
TORSDOF 1
ENDMDL
MODEL      109
REMARK 921   NORMALIZED FREE ENERGY PREDICTED BY IDOCK:   -3.11 KCAL/MOL
REMARK 922        TOTAL FREE ENERGY PREDICTED BY IDOCK:   -3.31 KCAL/MOL
REMARK 923 INTER-LIGAND FREE ENERGY PREDICTED BY IDOCK:   -3.30 KCAL/MOL
REMARK 924 INTRA-LIGAND FREE ENERGY PREDICTED BY IDOCK:   -0.02 KCAL/MOL
REMARK 927      BINDING AFFINITY PREDICTED BY RF-SCORE:    0.00 PKD
ROOT
HETATM    1  C   UNL     1     -11.084   8.427  71.901  1.00  0.00    -0.378 C  
HETATM    2  C   UNL     1      -9.878   8.811  72.521  1.00  0.00    -0.133 C  
HETATM    3  C   UNL     1     -10.080   9.326  71.145  1.00  0.00    -0.374 C  
HETATM    4  C   UNL     1     -11.959   9.023  70.370  1.00  0.00     0.083 C  
HETATM    5  H   UNL     1      -8.573   3.309  64.912  1.00  0.00     0.000 HD 
HETATM    6  O   UNL     1     -12.571   9.543  69.187  1.00  0.00     0.854 OA 
HETATM    7  C   UNL     1     -11.488  10.122  71.027  1.00  0.00    -0.436 C  
HETATM    8  C   UNL     1      -9.355   6.569  66.969  1.00  0.00    -0.155 A  
HETATM    9  C   UNL     1     -10.591  10.535  69.426  1.00  0.00    -0.269 C  
HETATM   10  C   UNL     1     -12.188  11.226  71.759  1.00  0.00     0.279 C  
HETATM   11  H   UNL     1     -13.440   9.403  68.828  1.00  0.00     0.000 HD 
HETATM   12  C   UNL     1     -10.203   9.068  68.525  1.00  0.00    -0.224 C  
HETATM   13  C   UNL     1      -9.869   7.592  69.258  1.00  0.00    -0.170 C  
HETATM   14  C   UNL     1      -9.687   6.389  68.325  1.00  0.00    -0.127 A  
HETATM   15  C   UNL     1      -9.647   5.077  68.857  1.00  0.00    -0.213 A  
HETATM   16  C   UNL     1      -9.362   3.988  68.009  1.00  0.00    -0.220 A  
HETATM   17  C   UNL     1      -9.908   4.764  70.316  1.00  0.00    -0.313 C  
HETATM   18  C   UNL     1      -9.905   5.965  71.263  1.00  0.00    -0.215 C  
HETATM   19  C   UNL     1      -9.067   4.199  66.668  1.00  0.00    -0.135 A  
HETATM   20  C   UNL     1      -9.048   5.482  66.147  1.00  0.00    -0.155 A  
HETATM   21  C   UNL     1     -10.694   7.118  70.648  1.00  0.00    -0.255 C  
HETATM   22  O   UNL     1      -8.774   3.165  65.829  1.00  0.00    -0.116 OA 
ENDROOT
BRANCH   4  23
HETATM   23  C   UNL     1     -13.253   8.605  71.116  1.00  0.00    -0.063 C  
HETATM   24  C   UNL     1     -14.292   8.287  71.648  1.00  0.00    -0.561 C  
ENDBRANCH   4  23
TORSDOF 1
ENDMDL
MODEL      110
REMARK 921   NORMALIZED FREE ENERGY PREDICTED BY IDOCK:   -3.06 KCAL/MOL
REMARK 922        TOTAL FREE ENERGY PREDICTED BY IDOCK:   -3.26 KCAL/MOL
REMARK 923 INTER-LIGAND FREE ENERGY PREDICTED BY IDOCK:   -3.26 KCAL/MOL
REMARK 924 INTRA-LIGAND FREE ENERGY PREDICTED BY IDOCK:   -0.00 KCAL/MOL
REMARK 927      BINDING AFFINITY PREDICTED BY RF-SCORE:    0.00 PKD
ROOT
HETATM    1  C   UNL     1     -10.788   7.074  70.409  1.00  0.00    -0.283 C  
HETATM    2  C   UNL     1     -11.393   5.911  70.928  1.00  0.00    -0.218 C  
HETATM    3  C   UNL     1      -9.915   5.964  71.038  1.00  0.00    -0.239 C  
HETATM    4  C   UNL     1      -9.073   7.779  70.567  1.00  0.00    -0.154 C  
HETATM    5  H   UNL     1      -5.789   4.195  63.476  1.00  0.00     0.000 HD 
HETATM    6  O   UNL     1      -7.737   8.257  70.745  1.00  0.00    -0.070 OA 
HETATM    7  C   UNL     1      -9.441   7.316  71.797  1.00  0.00    -0.162 C  
HETATM    8  C   UNL     1      -6.768   5.001  67.199  1.00  0.00    -0.055 A  
HETATM    9  C   UNL     1      -7.885   6.260  71.722  1.00  0.00    -0.101 C  
HETATM   10  C   UNL     1      -9.763   8.025  73.077  1.00  0.00    -0.348 C  
HETATM   11  H   UNL     1      -7.347   9.096  70.527  1.00  0.00     0.000 HD 
HETATM   12  C   UNL     1      -7.472   5.864  70.053  1.00  0.00    -0.079 C  
HETATM   13  C   UNL     1      -8.618   5.668  68.837  1.00  0.00    -0.101 C  
HETATM   14  C   UNL     1      -8.080   5.461  67.416  1.00  0.00    -0.101 A  
HETATM   15  C   UNL     1      -8.958   5.532  66.308  1.00  0.00    -0.140 A  
HETATM   16  C   UNL     1      -8.481   5.224  65.018  1.00  0.00    -0.150 A  
HETATM   17  C   UNL     1     -10.413   5.937  66.425  1.00  0.00    -0.178 C  
HETATM   18  C   UNL     1     -10.983   5.961  67.843  1.00  0.00    -0.248 C  
HETATM   19  C   UNL     1      -7.170   4.801  64.835  1.00  0.00    -0.063 A  
HETATM   20  C   UNL     1      -6.316   4.674  65.918  1.00  0.00    -0.036 A  
HETATM   21  C   UNL     1      -9.995   6.636  68.792  1.00  0.00    -0.150 C  
HETATM   22  O   UNL     1      -6.686   4.484  63.600  1.00  0.00    -0.040 OA 
ENDROOT
BRANCH   4  23
HETATM   23  C   UNL     1      -9.773   9.153  70.404  1.00  0.00    -0.266 C  
HETATM   24  C   UNL     1     -10.277  10.249  70.308  1.00  0.00    -0.075 C  
ENDBRANCH   4  23
TORSDOF 1
ENDMDL
MODEL      111
REMARK 921   NORMALIZED FREE ENERGY PREDICTED BY IDOCK:   -3.04 KCAL/MOL
REMARK 922        TOTAL FREE ENERGY PREDICTED BY IDOCK:   -3.23 KCAL/MOL
REMARK 923 INTER-LIGAND FREE ENERGY PREDICTED BY IDOCK:   -3.22 KCAL/MOL
REMARK 924 INTRA-LIGAND FREE ENERGY PREDICTED BY IDOCK:   -0.02 KCAL/MOL
REMARK 927      BINDING AFFINITY PREDICTED BY RF-SCORE:    0.00 PKD
ROOT
HETATM    1  C   UNL     1      -8.466   6.516  65.256  1.00  0.00    -0.091 C  
HETATM    2  C   UNL     1      -8.160   7.890  65.187  1.00  0.00    -0.144 C  
HETATM    3  C   UNL     1      -7.260   7.078  66.041  1.00  0.00    -0.074 C  
HETATM    4  C   UNL     1      -7.520   5.044  65.892  1.00  0.00    -0.082 C  
HETATM    5  H   UNL     1     -10.742   5.070  73.862  1.00  0.00     0.000 HD 
HETATM    6  O   UNL     1      -6.726   3.967  66.394  1.00  0.00    -0.050 OA 
HETATM    7  C   UNL     1      -6.641   5.832  65.207  1.00  0.00    -0.043 C  
HETATM    8  C   UNL     1      -8.429   5.552  70.718  1.00  0.00    -0.122 A  
HETATM    9  C   UNL     1      -5.634   5.867  66.796  1.00  0.00    -0.013 C  
HETATM   10  C   UNL     1      -5.921   5.632  63.909  1.00  0.00    -0.024 C  
HETATM   11  H   UNL     1      -6.846   3.027  66.325  1.00  0.00     0.000 HD 
HETATM   12  C   UNL     1      -6.679   5.693  68.208  1.00  0.00    -0.054 C  
HETATM   13  C   UNL     1      -8.261   6.260  68.264  1.00  0.00    -0.115 C  
HETATM   14  C   UNL     1      -9.072   5.905  69.516  1.00  0.00    -0.140 A  
HETATM   15  C   UNL     1     -10.470   6.127  69.543  1.00  0.00    -0.315 A  
HETATM   16  C   UNL     1     -11.189   5.909  70.736  1.00  0.00    -0.281 A  
HETATM   17  C   UNL     1     -11.262   6.585  68.336  1.00  0.00    -0.274 C  
HETATM   18  C   UNL     1     -10.436   7.108  67.161  1.00  0.00    -0.389 C  
HETATM   19  C   UNL     1     -10.526   5.532  71.898  1.00  0.00    -0.225 A  
HETATM   20  C   UNL     1      -9.152   5.366  71.899  1.00  0.00    -0.151 A  
HETATM   21  C   UNL     1      -9.249   6.183  66.902  1.00  0.00    -0.135 C  
HETATM   22  O   UNL     1     -11.195   5.328  73.068  1.00  0.00    -0.290 OA 
ENDROOT
BRANCH   4  23
HETATM   23  C   UNL     1      -8.305   4.250  64.816  1.00  0.00    -0.106 C  
HETATM   24  C   UNL     1      -8.892   3.582  63.995  1.00  0.00    -0.097 C  
ENDBRANCH   4  23
TORSDOF 1
ENDMDL
MODEL      112
REMARK 921   NORMALIZED FREE ENERGY PREDICTED BY IDOCK:   -3.00 KCAL/MOL
REMARK 922        TOTAL FREE ENERGY PREDICTED BY IDOCK:   -3.19 KCAL/MOL
REMARK 923 INTER-LIGAND FREE ENERGY PREDICTED BY IDOCK:   -3.18 KCAL/MOL
REMARK 924 INTRA-LIGAND FREE ENERGY PREDICTED BY IDOCK:   -0.01 KCAL/MOL
REMARK 927      BINDING AFFINITY PREDICTED BY RF-SCORE:    0.00 PKD
ROOT
HETATM    1  C   UNL     1      -9.013   7.579  66.629  1.00  0.00    -0.177 C  
HETATM    2  C   UNL     1     -10.124   6.873  66.122  1.00  0.00     0.248 C  
HETATM    3  C   UNL     1     -10.433   7.895  67.152  1.00  0.00    -0.414 C  
HETATM    4  C   UNL     1      -8.864   9.123  67.659  1.00  0.00    -0.120 C  
HETATM    5  H   UNL     1      -8.574   5.265  75.335  1.00  0.00     0.000 HD 
HETATM    6  O   UNL     1      -8.836  10.318  68.442  1.00  0.00    -0.122 OA 
HETATM    7  C   UNL     1      -9.839   9.342  66.728  1.00  0.00    -0.280 C  
HETATM    8  C   UNL     1      -9.751   7.188  72.113  1.00  0.00    -0.163 A  
HETATM    9  C   UNL     1     -10.966   9.718  68.187  1.00  0.00    -0.228 C  
HETATM   10  C   UNL     1      -9.894  10.242  65.532  1.00  0.00    -0.347 C  
HETATM   11  H   UNL     1      -8.111  10.886  68.676  1.00  0.00     0.000 HD 
HETATM   12  C   UNL     1     -10.462   8.821  69.620  1.00  0.00    -0.220 C  
HETATM   13  C   UNL     1      -9.733   7.307  69.556  1.00  0.00    -0.158 C  
HETATM   14  C   UNL     1      -9.234   6.729  70.886  1.00  0.00    -0.157 A  
HETATM   15  C   UNL     1      -8.399   5.586  70.896  1.00  0.00    -0.120 A  
HETATM   16  C   UNL     1      -8.042   4.992  72.123  1.00  0.00    -0.112 A  
HETATM   17  C   UNL     1      -7.845   4.952  69.637  1.00  0.00    -0.067 C  
HETATM   18  C   UNL     1      -8.484   5.411  68.326  1.00  0.00    -0.097 C  
HETATM   19  C   UNL     1      -8.547   5.488  73.318  1.00  0.00    -0.116 A  
HETATM   20  C   UNL     1      -9.409   6.572  73.320  1.00  0.00    -0.145 A  
HETATM   21  C   UNL     1      -8.647   6.929  68.326  1.00  0.00    -0.125 C  
HETATM   22  O   UNL     1      -8.228   4.924  74.518  1.00  0.00    -0.098 OA 
ENDROOT
BRANCH   4  23
HETATM   23  C   UNL     1      -7.517   9.320  66.916  1.00  0.00    -0.091 C  
HETATM   24  C   UNL     1      -6.440   9.478  66.388  1.00  0.00    -0.070 C  
ENDBRANCH   4  23
TORSDOF 1
ENDMDL
MODEL      113
REMARK 921   NORMALIZED FREE ENERGY PREDICTED BY IDOCK:   -2.85 KCAL/MOL
REMARK 922        TOTAL FREE ENERGY PREDICTED BY IDOCK:   -3.04 KCAL/MOL
REMARK 923 INTER-LIGAND FREE ENERGY PREDICTED BY IDOCK:   -3.03 KCAL/MOL
REMARK 924 INTRA-LIGAND FREE ENERGY PREDICTED BY IDOCK:   -0.01 KCAL/MOL
REMARK 927      BINDING AFFINITY PREDICTED BY RF-SCORE:    0.00 PKD
ROOT
HETATM    1  C   UNL     1      -7.483   7.461  69.838  1.00  0.00    -0.085 C  
HETATM    2  C   UNL     1      -6.657   6.636  69.047  1.00  0.00    -0.044 C  
HETATM    3  C   UNL     1      -6.275   8.068  69.091  1.00  0.00    -0.039 C  
HETATM    4  C   UNL     1      -7.288   9.198  70.477  1.00  0.00    -0.103 C  
HETATM    5  H   UNL     1     -11.316  13.176  64.007  1.00  0.00     0.000 HD 
HETATM    6  O   UNL     1      -7.057  10.532  70.936  1.00  0.00    -0.366 OA 
HETATM    7  C   UNL     1      -6.084   8.570  70.621  1.00  0.00    -0.032 C  
HETATM    8  C   UNL     1      -8.587  11.682  66.413  1.00  0.00    -0.143 A  
HETATM    9  C   UNL     1      -5.376   9.972  69.585  1.00  0.00    -0.038 C  
HETATM   10  C   UNL     1      -5.328   8.124  71.834  1.00  0.00    -0.035 C  
HETATM   11  H   UNL     1      -7.525  11.055  71.577  1.00  0.00     0.000 HD 
HETATM   12  C   UNL     1      -6.590  10.613  68.476  1.00  0.00    -0.055 C  
HETATM   13  C   UNL     1      -7.815   9.677  67.804  1.00  0.00    -0.094 C  
HETATM   14  C   UNL     1      -8.865  10.420  66.970  1.00  0.00    -0.143 A  
HETATM   15  C   UNL     1     -10.054   9.760  66.574  1.00  0.00    -0.307 A  
HETATM   16  C   UNL     1     -10.959  10.409  65.710  1.00  0.00     0.258 A  
HETATM   17  C   UNL     1     -10.427   8.368  67.041  1.00  0.00    -0.375 C  
HETATM   18  C   UNL     1      -9.308   7.572  67.712  1.00  0.00    -0.150 C  
HETATM   19  C   UNL     1     -10.666  11.669  65.202  1.00  0.00    -0.296 A  
HETATM   20  C   UNL     1      -9.481  12.302  65.537  1.00  0.00    -0.029 A  
HETATM   21  C   UNL     1      -8.554   8.458  68.701  1.00  0.00    -0.132 C  
HETATM   22  O   UNL     1     -11.517  12.314  64.354  1.00  0.00    -0.324 OA 
ENDROOT
BRANCH   4  23
HETATM   23  C   UNL     1      -8.164   8.712  71.661  1.00  0.00    -0.199 C  
HETATM   24  C   UNL     1      -8.885   8.374  72.572  1.00  0.00    -0.296 C  
ENDBRANCH   4  23
TORSDOF 1
ENDMDL
MODEL      114
REMARK 921   NORMALIZED FREE ENERGY PREDICTED BY IDOCK:   -2.78 KCAL/MOL
REMARK 922        TOTAL FREE ENERGY PREDICTED BY IDOCK:   -2.96 KCAL/MOL
REMARK 923 INTER-LIGAND FREE ENERGY PREDICTED BY IDOCK:   -2.96 KCAL/MOL
REMARK 924 INTRA-LIGAND FREE ENERGY PREDICTED BY IDOCK:    0.00 KCAL/MOL
REMARK 927      BINDING AFFINITY PREDICTED BY RF-SCORE:    0.00 PKD
ROOT
HETATM    1  C   UNL     1      -8.101   8.778  68.733  1.00  0.00    -0.115 C  
HETATM    2  C   UNL     1      -6.697   8.867  68.834  1.00  0.00    -0.053 C  
HETATM    3  C   UNL     1      -7.249   9.004  67.464  1.00  0.00    -0.080 C  
HETATM    4  C   UNL     1      -9.294   9.183  67.363  1.00  0.00    -0.134 C  
HETATM    5  H   UNL     1      -9.614   1.333  63.872  1.00  0.00     0.000 HD 
HETATM    6  O   UNL     1     -10.143   9.526  66.265  1.00  0.00    -0.269 OA 
HETATM    7  C   UNL     1      -8.363  10.181  67.404  1.00  0.00    -0.118 C  
HETATM    8  C   UNL     1      -8.777   5.099  64.637  1.00  0.00    -0.120 A  
HETATM    9  C   UNL     1      -8.031   9.770  65.598  1.00  0.00    -0.117 C  
HETATM   10  C   UNL     1      -8.458  11.621  67.804  1.00  0.00    -0.144 C  
HETATM   11  H   UNL     1     -11.088   9.609  66.217  1.00  0.00     0.000 HD 
HETATM   12  C   UNL     1      -8.367   8.069  65.267  1.00  0.00    -0.151 C  
HETATM   13  C   UNL     1      -8.164   6.847  66.404  1.00  0.00    -0.117 C  
HETATM   14  C   UNL     1      -8.631   5.445  65.994  1.00  0.00    -0.127 A  
HETATM   15  C   UNL     1      -8.725   4.416  66.963  1.00  0.00    -0.108 A  
HETATM   16  C   UNL     1      -9.041   3.103  66.559  1.00  0.00    -0.170 A  
HETATM   17  C   UNL     1      -8.512   4.648  68.444  1.00  0.00    -0.094 C  
HETATM   18  C   UNL     1      -7.874   5.985  68.821  1.00  0.00    -0.100 C  
HETATM   19  C   UNL     1      -9.208   2.803  65.212  1.00  0.00    -0.130 A  
HETATM   20  C   UNL     1      -9.063   3.788  64.250  1.00  0.00    -0.128 A  
HETATM   21  C   UNL     1      -8.522   7.117  68.027  1.00  0.00    -0.122 C  
HETATM   22  O   UNL     1      -9.500   1.539  64.793  1.00  0.00    -0.126 OA 
ENDROOT
BRANCH   4  23
HETATM   23  C   UNL     1     -10.292   9.487  68.510  1.00  0.00    -0.234 C  
HETATM   24  C   UNL     1     -11.089   9.770  69.376  1.00  0.00    -0.205 C  
ENDBRANCH   4  23
TORSDOF 1
ENDMDL
MODEL      115
REMARK 921   NORMALIZED FREE ENERGY PREDICTED BY IDOCK:   -2.69 KCAL/MOL
REMARK 922        TOTAL FREE ENERGY PREDICTED BY IDOCK:   -2.86 KCAL/MOL
REMARK 923 INTER-LIGAND FREE ENERGY PREDICTED BY IDOCK:   -2.88 KCAL/MOL
REMARK 924 INTRA-LIGAND FREE ENERGY PREDICTED BY IDOCK:    0.01 KCAL/MOL
REMARK 927      BINDING AFFINITY PREDICTED BY RF-SCORE:    0.00 PKD
ROOT
HETATM    1  C   UNL     1      -6.183   4.096  66.320  1.00  0.00    -0.032 C  
HETATM    2  C   UNL     1      -5.358   3.330  67.170  1.00  0.00    -0.012 C  
HETATM    3  C   UNL     1      -6.785   2.927  67.131  1.00  0.00    -0.041 C  
HETATM    4  C   UNL     1      -7.908   3.838  65.671  1.00  0.00    -0.093 C  
HETATM    5  H   UNL     1     -12.028   8.196  71.830  1.00  0.00     0.000 HD 
HETATM    6  O   UNL     1      -9.233   3.561  65.210  1.00  0.00    -0.141 OA 
HETATM    7  C   UNL     1      -7.263   2.637  65.609  1.00  0.00    -0.066 C  
HETATM    8  C   UNL     1     -10.466   5.347  69.615  1.00  0.00    -0.361 A  
HETATM    9  C   UNL     1      -8.670   1.973  66.667  1.00  0.00    -0.123 C  
HETATM   10  C   UNL     1      -6.790   1.814  64.450  1.00  0.00    -0.034 C  
HETATM   11  H   UNL     1      -9.753   3.982  64.535  1.00  0.00     0.000 HD 
HETATM   12  C   UNL     1      -9.341   3.243  67.692  1.00  0.00    -0.245 C  
HETATM   13  C   UNL     1      -8.431   4.520  68.300  1.00  0.00    -0.099 C  
HETATM   14  C   UNL     1      -9.199   5.609  69.059  1.00  0.00    -0.141 A  
HETATM   15  C   UNL     1      -8.560   6.828  69.391  1.00  0.00    -0.132 A  
HETATM   16  C   UNL     1      -9.233   7.775  70.189  1.00  0.00    -0.153 A  
HETATM   17  C   UNL     1      -7.168   7.191  68.919  1.00  0.00    -0.090 C  
HETATM   18  C   UNL     1      -6.347   6.045  68.328  1.00  0.00    -0.044 C  
HETATM   19  C   UNL     1     -10.496   7.496  70.697  1.00  0.00    -0.216 A  
HETATM   20  C   UNL     1     -11.109   6.284  70.427  1.00  0.00    -0.416 A  
HETATM   21  C   UNL     1      -7.210   5.220  67.376  1.00  0.00    -0.075 C  
HETATM   22  O   UNL     1     -11.164   8.388  71.483  1.00  0.00    -0.244 OA 
ENDROOT
BRANCH   4  23
HETATM   23  C   UNL     1      -7.417   4.646  64.442  1.00  0.00    -0.071 C  
HETATM   24  C   UNL     1      -7.031   5.324  63.517  1.00  0.00    -0.046 C  
ENDBRANCH   4  23
TORSDOF 1
ENDMDL
MODEL      116
REMARK 921   NORMALIZED FREE ENERGY PREDICTED BY IDOCK:   -2.55 KCAL/MOL
REMARK 922        TOTAL FREE ENERGY PREDICTED BY IDOCK:   -2.71 KCAL/MOL
REMARK 923 INTER-LIGAND FREE ENERGY PREDICTED BY IDOCK:   -2.74 KCAL/MOL
REMARK 924 INTRA-LIGAND FREE ENERGY PREDICTED BY IDOCK:    0.03 KCAL/MOL
REMARK 927      BINDING AFFINITY PREDICTED BY RF-SCORE:    0.00 PKD
ROOT
HETATM    1  C   UNL     1      -7.760  10.045  65.201  1.00  0.00    -0.137 C  
HETATM    2  C   UNL     1      -6.997  10.698  66.192  1.00  0.00    -0.135 C  
HETATM    3  C   UNL     1      -6.336   9.545  65.534  1.00  0.00    -0.067 C  
HETATM    4  C   UNL     1      -7.320   8.798  63.891  1.00  0.00    -0.099 C  
HETATM    5  H   UNL     1      -9.188   1.756  68.455  1.00  0.00     0.000 HD 
HETATM    6  O   UNL     1      -6.899   7.849  62.908  1.00  0.00    -0.081 OA 
HETATM    7  C   UNL     1      -6.322   9.729  63.923  1.00  0.00    -0.118 C  
HETATM    8  C   UNL     1      -7.313   4.714  66.665  1.00  0.00    -0.081 A  
HETATM    9  C   UNL     1      -5.159   8.282  64.231  1.00  0.00    -0.040 C  
HETATM   10  C   UNL     1      -5.906  10.783  62.943  1.00  0.00    -0.081 C  
HETATM   11  H   UNL     1      -7.353   7.503  62.149  1.00  0.00     0.000 HD 
HETATM   12  C   UNL     1      -5.991   6.973  65.072  1.00  0.00    -0.037 C  
HETATM   13  C   UNL     1      -7.245   7.223  66.165  1.00  0.00    -0.074 C  
HETATM   14  C   UNL     1      -7.947   5.971  66.701  1.00  0.00    -0.102 A  
HETATM   15  C   UNL     1      -9.158   6.091  67.426  1.00  0.00    -0.106 A  
HETATM   16  C   UNL     1      -9.735   4.948  68.016  1.00  0.00    -0.202 A  
HETATM   17  C   UNL     1      -9.894   7.403  67.602  1.00  0.00    -0.194 C  
HETATM   18  C   UNL     1      -9.107   8.660  67.231  1.00  0.00    -0.152 C  
HETATM   19  C   UNL     1      -9.096   3.717  67.937  1.00  0.00    -0.155 A  
HETATM   20  C   UNL     1      -7.884   3.596  67.279  1.00  0.00    -0.079 A  
HETATM   21  C   UNL     1      -8.374   8.447  65.909  1.00  0.00    -0.137 C  
HETATM   22  O   UNL     1      -9.625   2.598  68.510  1.00  0.00    -0.176 OA 
ENDROOT
BRANCH   4  23
HETATM   23  C   UNL     1      -8.476   9.444  63.085  1.00  0.00    -0.205 C  
HETATM   24  C   UNL     1      -9.339   9.977  62.425  1.00  0.00    -0.286 C  
ENDBRANCH   4  23
TORSDOF 1
ENDMDL
MODEL      117
REMARK 921   NORMALIZED FREE ENERGY PREDICTED BY IDOCK:   -2.08 KCAL/MOL
REMARK 922        TOTAL FREE ENERGY PREDICTED BY IDOCK:   -2.22 KCAL/MOL
REMARK 923 INTER-LIGAND FREE ENERGY PREDICTED BY IDOCK:   -2.26 KCAL/MOL
REMARK 924 INTRA-LIGAND FREE ENERGY PREDICTED BY IDOCK:    0.05 KCAL/MOL
REMARK 927      BINDING AFFINITY PREDICTED BY RF-SCORE:    0.00 PKD
ROOT
HETATM    1  C   UNL     1      -9.031   8.092  67.339  1.00  0.00    -0.141 C  
HETATM    2  C   UNL     1     -10.417   8.203  67.570  1.00  0.00    -0.326 C  
HETATM    3  C   UNL     1      -9.546   8.689  68.668  1.00  0.00    -0.159 C  
HETATM    4  C   UNL     1      -7.547   8.810  68.203  1.00  0.00    -0.097 C  
HETATM    5  H   UNL     1      -6.110   2.210  73.521  1.00  0.00     0.000 HD 
HETATM    6  O   UNL     1      -6.462   9.408  68.917  1.00  0.00    -0.047 OA 
HETATM    7  C   UNL     1      -8.491   9.793  68.122  1.00  0.00    -0.114 C  
HETATM    8  C   UNL     1      -7.234   5.652  71.984  1.00  0.00    -0.088 A  
HETATM    9  C   UNL     1      -8.347   9.906  69.995  1.00  0.00    -0.191 C  
HETATM   10  C   UNL     1      -8.545  11.065  67.332  1.00  0.00    -0.132 C  
HETATM   11  H   UNL     1      -5.538   9.464  68.703  1.00  0.00     0.000 HD 
HETATM   12  C   UNL     1      -7.884   8.350  70.686  1.00  0.00    -0.092 C  
HETATM   13  C   UNL     1      -8.325   6.871  70.016  1.00  0.00    -0.139 C  
HETATM   14  C   UNL     1      -7.725   5.618  70.666  1.00  0.00    -0.092 A  
HETATM   15  C   UNL     1      -7.843   4.361  70.025  1.00  0.00    -0.053 A  
HETATM   16  C   UNL     1      -7.393   3.198  70.682  1.00  0.00    -0.037 A  
HETATM   17  C   UNL     1      -8.427   4.186  68.639  1.00  0.00    -0.101 C  
HETATM   18  C   UNL     1      -9.182   5.393  68.081  1.00  0.00    -0.122 C  
HETATM   19  C   UNL     1      -6.886   3.271  71.974  1.00  0.00    -0.019 A  
HETATM   20  C   UNL     1      -6.817   4.487  72.633  1.00  0.00    -0.057 A  
HETATM   21  C   UNL     1      -8.393   6.673  68.345  1.00  0.00    -0.122 C  
HETATM   22  O   UNL     1      -6.457   2.160  72.637  1.00  0.00    -0.013 OA 
ENDROOT
BRANCH   4  23
HETATM   23  C   UNL     1      -6.878   8.749  66.806  1.00  0.00    -0.069 C  
HETATM   24  C   UNL     1      -6.393   8.742  65.697  1.00  0.00    -0.056 C  
ENDBRANCH   4  23
TORSDOF 1
ENDMDL
MODEL      118
REMARK 921   NORMALIZED FREE ENERGY PREDICTED BY IDOCK:   -2.04 KCAL/MOL
REMARK 922        TOTAL FREE ENERGY PREDICTED BY IDOCK:   -2.17 KCAL/MOL
REMARK 923 INTER-LIGAND FREE ENERGY PREDICTED BY IDOCK:   -2.22 KCAL/MOL
REMARK 924 INTRA-LIGAND FREE ENERGY PREDICTED BY IDOCK:    0.04 KCAL/MOL
REMARK 927      BINDING AFFINITY PREDICTED BY RF-SCORE:    0.00 PKD
ROOT
HETATM    1  C   UNL     1      -6.531   6.702  69.191  1.00  0.00    -0.040 C  
HETATM    2  C   UNL     1      -5.439   7.246  68.485  1.00  0.00    -0.022 C  
HETATM    3  C   UNL     1      -6.778   7.695  68.033  1.00  0.00    -0.063 C  
HETATM    4  C   UNL     1      -8.338   7.145  69.253  1.00  0.00    -0.133 C  
HETATM    5  H   UNL     1     -10.979   1.735  63.117  1.00  0.00     0.000 HD 
HETATM    6  O   UNL     1      -9.708   7.555  69.251  1.00  0.00    -0.161 OA 
HETATM    7  C   UNL     1      -7.628   8.312  69.268  1.00  0.00    -0.094 C  
HETATM    8  C   UNL     1      -9.836   4.931  65.103  1.00  0.00     0.038 A  
HETATM    9  C   UNL     1      -8.624   8.785  67.743  1.00  0.00    -0.129 C  
HETATM   10  C   UNL     1      -7.421   9.342  70.335  1.00  0.00    -0.141 C  
HETATM   11  H   UNL     1     -10.429   7.302  69.815  1.00  0.00     0.000 HD 
HETATM   12  C   UNL     1      -9.099   7.352  66.831  1.00  0.00    -0.164 C  
HETATM   13  C   UNL     1      -8.176   5.947  66.765  1.00  0.00    -0.105 C  
HETATM   14  C   UNL     1      -8.801   4.750  66.039  1.00  0.00    -0.123 A  
HETATM   15  C   UNL     1      -8.209   3.468  66.145  1.00  0.00    -0.101 A  
HETATM   16  C   UNL     1      -8.719   2.398  65.382  1.00  0.00    -0.119 A  
HETATM   17  C   UNL     1      -7.039   3.166  67.058  1.00  0.00    -0.058 C  
HETATM   18  C   UNL     1      -6.312   4.383  67.630  1.00  0.00    -0.037 C  
HETATM   19  C   UNL     1      -9.762   2.606  64.488  1.00  0.00    -0.082 A  
HETATM   20  C   UNL     1     -10.313   3.867  64.333  1.00  0.00    -0.242 A  
HETATM   21  C   UNL     1      -7.326   5.416  68.118  1.00  0.00    -0.072 C  
HETATM   22  O   UNL     1     -10.265   1.592  63.728  1.00  0.00    -0.133 OA 
ENDROOT
BRANCH   4  23
HETATM   23  C   UNL     1      -8.280   6.596  70.702  1.00  0.00    -0.124 C  
HETATM   24  C   UNL     1      -8.185   6.140  71.819  1.00  0.00    -0.114 C  
ENDBRANCH   4  23
TORSDOF 1
ENDMDL
MODEL      119
REMARK 921   NORMALIZED FREE ENERGY PREDICTED BY IDOCK:   -1.76 KCAL/MOL
REMARK 922        TOTAL FREE ENERGY PREDICTED BY IDOCK:   -1.88 KCAL/MOL
REMARK 923 INTER-LIGAND FREE ENERGY PREDICTED BY IDOCK:   -1.92 KCAL/MOL
REMARK 924 INTRA-LIGAND FREE ENERGY PREDICTED BY IDOCK:    0.04 KCAL/MOL
REMARK 927      BINDING AFFINITY PREDICTED BY RF-SCORE:    0.00 PKD
ROOT
HETATM    1  C   UNL     1     -10.961  12.649  68.075  1.00  0.00    -0.266 C  
HETATM    2  C   UNL     1     -11.936  12.116  67.207  1.00  0.00    -0.158 C  
HETATM    3  C   UNL     1     -12.363  12.290  68.617  1.00  0.00     0.310 C  
HETATM    4  C   UNL     1     -11.054  13.344  69.799  1.00  0.00     0.128 C  
HETATM    5  H   UNL     1      -9.269   6.053  73.989  1.00  0.00     0.000 HD 
HETATM    6  O   UNL     1     -11.211  13.870  71.120  1.00  0.00     0.039 OA 
HETATM    7  C   UNL     1     -12.131  13.818  69.107  1.00  0.00    -0.374 C  
HETATM    8  C   UNL     1     -11.110   9.118  72.351  1.00  0.00     0.226 A  
HETATM    9  C   UNL     1     -13.179  13.051  70.469  1.00  0.00     0.466 C  
HETATM   10  C   UNL     1     -12.483  15.190  68.621  1.00  0.00     0.263 C  
HETATM   11  H   UNL     1     -10.606  14.358  71.666  1.00  0.00     0.000 HD 
HETATM   12  C   UNL     1     -12.370  11.651  71.174  1.00  0.00    -0.351 C  
HETATM   13  C   UNL     1     -11.343  10.640  70.306  1.00  0.00    -0.401 C  
HETATM   14  C   UNL     1     -10.618   9.551  71.105  1.00  0.00    -0.388 A  
HETATM   15  C   UNL     1      -9.561   8.820  70.510  1.00  0.00    -0.226 A  
HETATM   16  C   UNL     1      -8.978   7.742  71.207  1.00  0.00    -0.147 A  
HETATM   17  C   UNL     1      -8.998   9.139  69.141  1.00  0.00    -0.144 C  
HETATM   18  C   UNL     1      -9.834  10.090  68.285  1.00  0.00    -0.163 C  
HETATM   19  C   UNL     1      -9.469   7.360  72.450  1.00  0.00    -0.152 A  
HETATM   20  C   UNL     1     -10.539   8.031  73.018  1.00  0.00    -0.332 A  
HETATM   21  C   UNL     1     -10.315  11.268  69.129  1.00  0.00    -0.156 C  
HETATM   22  O   UNL     1      -8.933   6.314  73.139  1.00  0.00    -0.130 OA 
ENDROOT
BRANCH   4  23
HETATM   23  C   UNL     1      -9.851  14.219  69.361  1.00  0.00     0.212 C  
HETATM   24  C   UNL     1      -8.949  14.936  68.991  1.00  0.00    -0.174 C  
ENDBRANCH   4  23
TORSDOF 1
ENDMDL
MODEL      120
REMARK 921   NORMALIZED FREE ENERGY PREDICTED BY IDOCK:   -1.73 KCAL/MOL
REMARK 922        TOTAL FREE ENERGY PREDICTED BY IDOCK:   -1.85 KCAL/MOL
REMARK 923 INTER-LIGAND FREE ENERGY PREDICTED BY IDOCK:   -1.90 KCAL/MOL
REMARK 924 INTRA-LIGAND FREE ENERGY PREDICTED BY IDOCK:    0.05 KCAL/MOL
REMARK 927      BINDING AFFINITY PREDICTED BY RF-SCORE:    0.00 PKD
ROOT
HETATM    1  C   UNL     1      -9.714   6.801  71.722  1.00  0.00    -0.164 C  
HETATM    2  C   UNL     1     -10.755   5.850  71.694  1.00  0.00    -0.308 C  
HETATM    3  C   UNL     1      -9.396   5.317  71.430  1.00  0.00    -0.184 C  
HETATM    4  C   UNL     1      -7.860   6.638  71.775  1.00  0.00    -0.102 C  
HETATM    5  H   UNL     1      -6.513   6.990  63.292  1.00  0.00     0.000 HD 
HETATM    6  O   UNL     1      -6.447   6.428  71.825  1.00  0.00    -0.048 OA 
HETATM    7  C   UNL     1      -8.378   5.708  72.630  1.00  0.00    -0.117 C  
HETATM    8  C   UNL     1      -7.010   5.756  66.993  1.00  0.00    -0.065 A  
HETATM    9  C   UNL     1      -7.429   4.438  71.618  1.00  0.00    -0.069 C  
HETATM   10  C   UNL     1      -8.351   5.598  74.124  1.00  0.00    -0.107 C  
HETATM   11  H   UNL     1      -5.737   7.038  71.985  1.00  0.00     0.000 HD 
HETATM   12  C   UNL     1      -7.244   4.975  69.947  1.00  0.00    -0.055 C  
HETATM   13  C   UNL     1      -8.376   5.932  69.151  1.00  0.00    -0.106 C  
HETATM   14  C   UNL     1      -7.995   6.420  67.749  1.00  0.00    -0.114 A  
HETATM   15  C   UNL     1      -8.769   7.419  67.110  1.00  0.00    -0.121 A  
HETATM   16  C   UNL     1      -8.484   7.779  65.777  1.00  0.00    -0.155 A  
HETATM   17  C   UNL     1      -9.906   8.151  67.792  1.00  0.00    -0.209 C  
HETATM   18  C   UNL     1     -10.395   7.540  69.105  1.00  0.00    -0.215 C  
HETATM   19  C   UNL     1      -7.484   7.121  65.070  1.00  0.00    -0.093 A  
HETATM   20  C   UNL     1      -6.757   6.104  65.664  1.00  0.00    -0.048 A  
HETATM   21  C   UNL     1      -9.203   7.145  69.974  1.00  0.00    -0.144 C  
HETATM   22  O   UNL     1      -7.197   7.439  63.776  1.00  0.00    -0.067 OA 
ENDROOT
BRANCH   4  23
HETATM   23  C   UNL     1      -7.903   7.987  72.540  1.00  0.00    -0.163 C  
HETATM   24  C   UNL     1      -7.987   9.023  73.160  1.00  0.00     0.752 C  
ENDBRANCH   4  23
TORSDOF 1
ENDMDL
MODEL      121
REMARK 921   NORMALIZED FREE ENERGY PREDICTED BY IDOCK:   -1.03 KCAL/MOL
REMARK 922        TOTAL FREE ENERGY PREDICTED BY IDOCK:   -1.11 KCAL/MOL
REMARK 923 INTER-LIGAND FREE ENERGY PREDICTED BY IDOCK:   -1.11 KCAL/MOL
REMARK 924 INTRA-LIGAND FREE ENERGY PREDICTED BY IDOCK:    0.00 KCAL/MOL
REMARK 927      BINDING AFFINITY PREDICTED BY RF-SCORE:    0.00 PKD
ROOT
HETATM    1  C   UNL     1      -8.288   5.673  63.953  1.00  0.00    -0.058 C  
HETATM    2  C   UNL     1      -7.067   5.728  63.248  1.00  0.00    -0.046 C  
HETATM    3  C   UNL     1      -6.960   5.373  64.684  1.00  0.00    -0.049 C  
HETATM    4  C   UNL     1      -8.748   4.993  65.623  1.00  0.00    -0.139 C  
HETATM    5  H   UNL     1      -7.747  12.290  70.057  1.00  0.00     0.000 HD 
HETATM    6  O   UNL     1      -9.021   4.440  66.913  1.00  0.00    -0.112 OA 
HETATM    7  C   UNL     1      -7.900   4.099  65.037  1.00  0.00    -0.089 C  
HETATM    8  C   UNL     1      -7.215   8.741  68.447  1.00  0.00    -0.081 A  
HETATM    9  C   UNL     1      -6.824   4.314  66.566  1.00  0.00    -0.055 C  
HETATM   10  C   UNL     1      -8.117   2.716  64.504  1.00  0.00    -0.082 C  
HETATM   11  H   UNL     1      -9.848   4.265  67.348  1.00  0.00     0.000 HD 
HETATM   12  C   UNL     1      -7.032   5.922  67.261  1.00  0.00    -0.069 C  
HETATM   13  C   UNL     1      -7.384   7.289  66.346  1.00  0.00    -0.080 C  
HETATM   14  C   UNL     1      -7.667   8.580  67.124  1.00  0.00    -0.097 A  
HETATM   15  C   UNL     1      -8.206   9.707  66.457  1.00  0.00    -0.119 A  
HETATM   16  C   UNL     1      -8.353  10.925  67.150  1.00  0.00    -0.125 A  
HETATM   17  C   UNL     1      -8.655   9.679  65.010  1.00  0.00    -0.180 C  
HETATM   18  C   UNL     1      -8.206   8.464  64.199  1.00  0.00    -0.122 C  
HETATM   19  C   UNL     1      -7.923  11.041  68.467  1.00  0.00    -0.137 A  
HETATM   20  C   UNL     1      -7.343   9.963  69.113  1.00  0.00    -0.083 A  
HETATM   21  C   UNL     1      -8.408   7.188  65.013  1.00  0.00    -0.051 C  
HETATM   22  O   UNL     1      -8.041  12.211  69.156  1.00  0.00     0.164 OA 
ENDROOT
BRANCH   4  23
HETATM   23  C   UNL     1     -10.138   4.742  64.983  1.00  0.00     0.068 C  
HETATM   24  C   UNL     1     -11.226   4.496  64.513  1.00  0.00     0.429 C  
ENDBRANCH   4  23
TORSDOF 1
ENDMDL
MODEL      122
REMARK 921   NORMALIZED FREE ENERGY PREDICTED BY IDOCK:   -0.78 KCAL/MOL
REMARK 922        TOTAL FREE ENERGY PREDICTED BY IDOCK:   -0.84 KCAL/MOL
REMARK 923 INTER-LIGAND FREE ENERGY PREDICTED BY IDOCK:   -0.83 KCAL/MOL
REMARK 924 INTRA-LIGAND FREE ENERGY PREDICTED BY IDOCK:   -0.02 KCAL/MOL
REMARK 927      BINDING AFFINITY PREDICTED BY RF-SCORE:    0.00 PKD
ROOT
HETATM    1  C   UNL     1      -8.436   5.654  63.881  1.00  0.00     0.005 C  
HETATM    2  C   UNL     1      -7.338   6.177  63.166  1.00  0.00    -0.062 C  
HETATM    3  C   UNL     1      -7.052   4.974  63.985  1.00  0.00    -0.049 C  
HETATM    4  C   UNL     1      -8.707   4.043  64.772  1.00  0.00    -0.119 C  
HETATM    5  H   UNL     1      -6.261   6.712  72.569  1.00  0.00     0.000 HD 
HETATM    6  O   UNL     1      -8.838   2.779  65.427  1.00  0.00    -0.120 OA 
HETATM    7  C   UNL     1      -8.059   3.762  63.604  1.00  0.00    -0.089 C  
HETATM    8  C   UNL     1      -6.366   5.077  68.994  1.00  0.00    -0.031 A  
HETATM    9  C   UNL     1      -6.746   2.949  64.679  1.00  0.00    -0.040 C  
HETATM   10  C   UNL     1      -8.502   3.055  62.360  1.00  0.00    -0.074 C  
HETATM   11  H   UNL     1      -9.602   2.348  65.791  1.00  0.00     0.000 HD 
HETATM   12  C   UNL     1      -6.671   3.712  66.268  1.00  0.00    -0.049 C  
HETATM   13  C   UNL     1      -7.009   5.339  66.531  1.00  0.00    -0.064 C  
HETATM   14  C   UNL     1      -7.030   5.807  67.991  1.00  0.00    -0.065 A  
HETATM   15  C   UNL     1      -7.540   7.087  68.319  1.00  0.00    -0.111 A  
HETATM   16  C   UNL     1      -7.447   7.557  69.644  1.00  0.00    -0.092 A  
HETATM   17  C   UNL     1      -8.204   8.000  67.309  1.00  0.00    -0.122 C  
HETATM   18  C   UNL     1      -8.018   7.614  65.842  1.00  0.00    -0.116 C  
HETATM   19  C   UNL     1      -6.811   6.796  70.618  1.00  0.00    -0.058 A  
HETATM   20  C   UNL     1      -6.259   5.568  70.298  1.00  0.00    -0.026 A  
HETATM   21  C   UNL     1      -8.229   6.112  65.665  1.00  0.00    -0.141 C  
HETATM   22  O   UNL     1      -6.696   7.233  71.904  1.00  0.00    -0.054 OA 
ENDROOT
BRANCH   4  23
HETATM   23  C   UNL     1     -10.197   4.244  64.393  1.00  0.00    -0.076 C  
HETATM   24  C   UNL     1     -11.374   4.387  64.151  1.00  0.00     0.729 C  
ENDBRANCH   4  23
TORSDOF 1
ENDMDL
MODEL      123
REMARK 921   NORMALIZED FREE ENERGY PREDICTED BY IDOCK:    0.22 KCAL/MOL
REMARK 922        TOTAL FREE ENERGY PREDICTED BY IDOCK:    0.21 KCAL/MOL
REMARK 923 INTER-LIGAND FREE ENERGY PREDICTED BY IDOCK:    0.23 KCAL/MOL
REMARK 924 INTRA-LIGAND FREE ENERGY PREDICTED BY IDOCK:   -0.02 KCAL/MOL
REMARK 927      BINDING AFFINITY PREDICTED BY RF-SCORE:    0.00 PKD
ROOT
HETATM    1  C   UNL     1      -7.605  14.551  67.176  1.00  0.00    -0.045 C  
HETATM    2  C   UNL     1      -6.423  14.027  66.611  1.00  0.00     2.464 C  
HETATM    3  C   UNL     1      -6.525  13.926  68.088  1.00  0.00    -0.125 C  
HETATM    4  C   UNL     1      -8.365  14.404  68.869  1.00  0.00    -0.080 C  
HETATM    5  H   UNL     1      -4.880  21.510  72.224  1.00  0.00     0.000 HD 
HETATM    6  O   UNL     1      -8.886  14.234  70.190  1.00  0.00     0.557 OA 
HETATM    7  C   UNL     1      -7.892  13.170  68.523  1.00  0.00    -0.105 C  
HETATM    8  C   UNL     1      -5.658  17.782  71.242  1.00  0.00     0.309 A  
HETATM    9  C   UNL     1      -6.886  13.254  70.111  1.00  0.00     0.535 C  
HETATM   10  C   UNL     1      -8.591  11.890  68.186  1.00  0.00    -0.165 C  
HETATM   11  H   UNL     1      -9.736  14.455  70.551  1.00  0.00     0.000 HD 
HETATM   12  C   UNL     1      -6.502  14.925  70.527  1.00  0.00    -0.004 C  
HETATM   13  C   UNL     1      -6.268  16.134  69.381  1.00  0.00    -0.171 C  
HETATM   14  C   UNL     1      -6.076  17.558  69.917  1.00  0.00    -0.181 A  
HETATM   15  C   UNL     1      -6.117  18.661  69.031  1.00  0.00    -0.247 A  
HETATM   16  C   UNL     1      -5.824  19.954  69.510  1.00  0.00    -0.311 A  
HETATM   17  C   UNL     1      -6.476  18.536  67.565  1.00  0.00    -0.196 C  
HETATM   18  C   UNL     1      -6.484  17.114  67.002  1.00  0.00    -0.225 C  
HETATM   19  C   UNL     1      -5.443  20.143  70.833  1.00  0.00    -0.290 A  
HETATM   20  C   UNL     1      -5.344  19.065  71.696  1.00  0.00    -0.309 A  
HETATM   21  C   UNL     1      -7.191  16.171  67.973  1.00  0.00    -0.139 C  
HETATM   22  O   UNL     1      -5.140  21.380  71.319  1.00  0.00    -0.540 OA 
ENDROOT
BRANCH   4  23
HETATM   23  C   UNL     1      -9.715  14.564  68.124  1.00  0.00    -0.219 C  
HETATM   24  C   UNL     1     -10.796  14.691  67.594  1.00  0.00    -0.284 C  
ENDBRANCH   4  23
TORSDOF 1
ENDMDL
MODEL      124
REMARK 921   NORMALIZED FREE ENERGY PREDICTED BY IDOCK:    1.33 KCAL/MOL
REMARK 922        TOTAL FREE ENERGY PREDICTED BY IDOCK:    1.39 KCAL/MOL
REMARK 923 INTER-LIGAND FREE ENERGY PREDICTED BY IDOCK:    1.34 KCAL/MOL
REMARK 924 INTRA-LIGAND FREE ENERGY PREDICTED BY IDOCK:    0.05 KCAL/MOL
REMARK 927      BINDING AFFINITY PREDICTED BY RF-SCORE:    0.00 PKD
ROOT
HETATM    1  C   UNL     1      -8.157  10.487  70.454  1.00  0.00     0.975 C  
HETATM    2  C   UNL     1      -9.129   9.835  71.242  1.00  0.00     0.906 C  
HETATM    3  C   UNL     1      -8.546   9.023  70.146  1.00  0.00    -0.169 C  
HETATM    4  C   UNL     1      -6.924   9.865  69.205  1.00  0.00    -0.057 C  
HETATM    5  H   UNL     1     -11.810  11.002  62.223  1.00  0.00     0.000 HD 
HETATM    6  O   UNL     1      -6.002   9.307  68.266  1.00  0.00    -0.044 OA 
HETATM    7  C   UNL     1      -6.928   8.987  70.250  1.00  0.00    -0.052 C  
HETATM    8  C   UNL     1      -9.908   9.446  65.294  1.00  0.00    -0.072 A  
HETATM    9  C   UNL     1      -7.336   7.668  68.971  1.00  0.00    -0.086 C  
HETATM   10  C   UNL     1      -5.904   8.674  71.297  1.00  0.00    -0.041 C  
HETATM   11  H   UNL     1      -5.252   9.696  67.831  1.00  0.00     0.000 HD 
HETATM   12  C   UNL     1      -8.227   8.361  67.614  1.00  0.00    -0.126 C  
HETATM   13  C   UNL     1      -9.278   9.665  67.765  1.00  0.00    -0.135 C  
HETATM   14  C   UNL     1      -9.864  10.227  66.465  1.00  0.00    -0.265 A  
HETATM   15  C   UNL     1     -10.557  11.462  66.473  1.00  0.00    -0.309 A  
HETATM   16  C   UNL     1     -11.193  11.914  65.300  1.00  0.00    -0.351 A  
HETATM   17  C   UNL     1     -10.648  12.354  67.694  1.00  0.00    -0.236 C  
HETATM   18  C   UNL     1     -10.228  11.714  69.017  1.00  0.00    -0.077 C  
HETATM   19  C   UNL     1     -11.192  11.131  64.152  1.00  0.00     0.018 A  
HETATM   20  C   UNL     1     -10.567   9.895  64.147  1.00  0.00     1.916 A  
HETATM   21  C   UNL     1      -8.935  10.924  68.829  1.00  0.00    -0.166 C  
HETATM   22  O   UNL     1     -11.811  11.538  63.008  1.00  0.00    -0.103 OA 
ENDROOT
BRANCH   4  23
HETATM   23  C   UNL     1      -6.061  11.068  69.666  1.00  0.00    -0.084 C  
HETATM   24  C   UNL     1      -5.384  11.983  70.078  1.00  0.00    -0.097 C  
ENDBRANCH   4  23
TORSDOF 1
ENDMDL
MODEL      125
REMARK 921   NORMALIZED FREE ENERGY PREDICTED BY IDOCK:    1.53 KCAL/MOL
REMARK 922        TOTAL FREE ENERGY PREDICTED BY IDOCK:    1.60 KCAL/MOL
REMARK 923 INTER-LIGAND FREE ENERGY PREDICTED BY IDOCK:    1.62 KCAL/MOL
REMARK 924 INTRA-LIGAND FREE ENERGY PREDICTED BY IDOCK:   -0.02 KCAL/MOL
REMARK 927      BINDING AFFINITY PREDICTED BY RF-SCORE:    0.00 PKD
ROOT
HETATM    1  C   UNL     1      -8.593  10.535  67.799  1.00  0.00    -0.118 C  
HETATM    2  C   UNL     1      -9.382   9.766  68.678  1.00  0.00    -0.147 C  
HETATM    3  C   UNL     1      -9.680   9.593  67.236  1.00  0.00    -0.213 C  
HETATM    4  C   UNL     1      -8.334  10.474  65.956  1.00  0.00    -0.158 C  
HETATM    5  H   UNL     1     -14.386  16.199  63.836  1.00  0.00     0.000 HD 
HETATM    6  O   UNL     1      -8.184  10.354  64.539  1.00  0.00    -0.165 OA 
HETATM    7  C   UNL     1      -8.344   9.187  66.413  1.00  0.00    -0.124 C  
HETATM    8  C   UNL     1     -12.399  12.872  64.510  1.00  0.00    -0.483 A  
HETATM    9  C   UNL     1      -9.743   8.900  65.188  1.00  0.00     0.402 C  
HETATM   10  C   UNL     1      -7.263   8.155  66.518  1.00  0.00    -0.080 C  
HETATM   11  H   UNL     1      -7.562  10.760  63.948  1.00  0.00     0.000 HD 
HETATM   12  C   UNL     1     -10.659  10.384  64.919  1.00  0.00     0.031 C  
HETATM   13  C   UNL     1     -10.871  11.568  66.096  1.00  0.00    -0.330 C  
HETATM   14  C   UNL     1     -11.578  12.854  65.653  1.00  0.00    -0.401 A  
HETATM   15  C   UNL     1     -11.582  13.989  66.500  1.00  0.00    -0.389 A  
HETATM   16  C   UNL     1     -12.332  15.127  66.140  1.00  0.00     0.537 A  
HETATM   17  C   UNL     1     -10.802  14.060  67.797  1.00  0.00    -0.257 C  
HETATM   18  C   UNL     1     -10.258  12.731  68.318  1.00  0.00    -0.245 C  
HETATM   19  C   UNL     1     -13.109  15.121  64.988  1.00  0.00     0.947 A  
HETATM   20  C   UNL     1     -13.159  13.998  64.180  1.00  0.00     0.933 A  
HETATM   21  C   UNL     1      -9.631  11.937  67.173  1.00  0.00    -0.192 C  
HETATM   22  O   UNL     1     -13.855  16.203  64.624  1.00  0.00     2.306 OA 
ENDROOT
BRANCH   4  23
HETATM   23  C   UNL     1      -6.921  11.026  66.276  1.00  0.00    -0.095 C  
HETATM   24  C   UNL     1      -5.810  11.467  66.470  1.00  0.00    -0.138 C  
ENDBRANCH   4  23
TORSDOF 1
ENDMDL
MODEL      126
REMARK 921   NORMALIZED FREE ENERGY PREDICTED BY IDOCK:    1.92 KCAL/MOL
REMARK 922        TOTAL FREE ENERGY PREDICTED BY IDOCK:    2.02 KCAL/MOL
REMARK 923 INTER-LIGAND FREE ENERGY PREDICTED BY IDOCK:    1.99 KCAL/MOL
REMARK 924 INTRA-LIGAND FREE ENERGY PREDICTED BY IDOCK:    0.03 KCAL/MOL
REMARK 927      BINDING AFFINITY PREDICTED BY RF-SCORE:    0.00 PKD
ROOT
HETATM    1  C   UNL     1      -8.393  13.629  67.952  1.00  0.00    -0.174 C  
HETATM    2  C   UNL     1      -8.055  12.773  66.883  1.00  0.00     0.006 C  
HETATM    3  C   UNL     1      -6.908  13.358  67.621  1.00  0.00    -0.172 C  
HETATM    4  C   UNL     1      -7.401  14.348  69.353  1.00  0.00    -0.060 C  
HETATM    5  H   UNL     1      -5.305  21.739  65.497  1.00  0.00     0.000 HD 
HETATM    6  O   UNL     1      -6.571  14.851  70.403  1.00  0.00    -0.144 OA 
HETATM    7  C   UNL     1      -7.021  13.044  69.207  1.00  0.00     0.033 C  
HETATM    8  C   UNL     1      -5.247  18.088  66.956  1.00  0.00    -0.144 A  
HETATM    9  C   UNL     1      -5.275  13.713  68.994  1.00  0.00    -0.073 C  
HETATM   10  C   UNL     1      -7.224  11.841  70.075  1.00  0.00     0.857 C  
HETATM   11  H   UNL     1      -6.799  15.309  71.204  1.00  0.00     0.000 HD 
HETATM   12  C   UNL     1      -5.302  15.335  68.299  1.00  0.00    -0.115 C  
HETATM   13  C   UNL     1      -6.486  15.864  67.228  1.00  0.00    -0.174 C  
HETATM   14  C   UNL     1      -6.435  17.343  66.828  1.00  0.00    -0.239 A  
HETATM   15  C   UNL     1      -7.522  17.928  66.133  1.00  0.00    -0.315 A  
HETATM   16  C   UNL     1      -7.420  19.254  65.666  1.00  0.00    -0.131 A  
HETATM   17  C   UNL     1      -8.823  17.201  65.864  1.00  0.00    -0.008 C  
HETATM   18  C   UNL     1      -8.800  15.691  66.096  1.00  0.00    -0.311 C  
HETATM   19  C   UNL     1      -6.242  19.971  65.835  1.00  0.00    -0.199 A  
HETATM   20  C   UNL     1      -5.152  19.392  66.463  1.00  0.00    -0.164 A  
HETATM   21  C   UNL     1      -8.087  15.374  67.409  1.00  0.00    -0.204 C  
HETATM   22  O   UNL     1      -6.111  21.249  65.381  1.00  0.00    -0.224 OA 
ENDROOT
BRANCH   4  23
HETATM   23  C   UNL     1      -8.740  14.314  70.134  1.00  0.00     1.650 C  
HETATM   24  C   UNL     1      -9.812  14.305  70.696  1.00  0.00     2.290 C  
ENDBRANCH   4  23
TORSDOF 1
ENDMDL
MODEL      127
REMARK 921   NORMALIZED FREE ENERGY PREDICTED BY IDOCK:    3.33 KCAL/MOL
REMARK 922        TOTAL FREE ENERGY PREDICTED BY IDOCK:    3.50 KCAL/MOL
REMARK 923 INTER-LIGAND FREE ENERGY PREDICTED BY IDOCK:    3.50 KCAL/MOL
REMARK 924 INTRA-LIGAND FREE ENERGY PREDICTED BY IDOCK:    0.01 KCAL/MOL
REMARK 927      BINDING AFFINITY PREDICTED BY RF-SCORE:    0.00 PKD
ROOT
HETATM    1  C   UNL     1     -11.904  13.856  68.958  1.00  0.00    -0.397 C  
HETATM    2  C   UNL     1     -11.191  12.713  68.544  1.00  0.00    -0.315 C  
HETATM    3  C   UNL     1     -10.484  13.593  69.507  1.00  0.00     0.305 C  
HETATM    4  C   UNL     1     -11.637  15.078  70.337  1.00  0.00    -0.287 C  
HETATM    5  H   UNL     1      -7.138  20.834  65.806  1.00  0.00     0.000 HD 
HETATM    6  O   UNL     1     -11.366  15.967  71.424  1.00  0.00    -0.382 OA 
HETATM    7  C   UNL     1     -11.382  13.834  70.836  1.00  0.00     0.705 C  
HETATM    8  C   UNL     1      -8.196  17.914  68.219  1.00  0.00    -0.292 A  
HETATM    9  C   UNL     1      -9.686  14.508  71.297  1.00  0.00     3.422 C  
HETATM   10  C   UNL     1     -12.110  12.988  71.835  1.00  0.00     0.951 C  
HETATM   11  H   UNL     1     -11.899  16.654  71.808  1.00  0.00     0.000 HD 
HETATM   12  C   UNL     1      -9.195  15.789  70.187  1.00  0.00     0.572 C  
HETATM   13  C   UNL     1      -9.650  15.837  68.568  1.00  0.00    -0.204 C  
HETATM   14  C   UNL     1      -9.249  17.090  67.781  1.00  0.00    -0.236 A  
HETATM   15  C   UNL     1      -9.794  17.325  66.495  1.00  0.00    -0.306 A  
HETATM   16  C   UNL     1      -9.333  18.415  65.729  1.00  0.00     0.402 A  
HETATM   17  C   UNL     1     -10.876  16.461  65.881  1.00  0.00    -0.116 C  
HETATM   18  C   UNL     1     -11.136  15.126  66.580  1.00  0.00    -0.305 C  
HETATM   19  C   UNL     1      -8.311  19.227  66.206  1.00  0.00    -0.319 A  
HETATM   20  C   UNL     1      -7.730  18.974  67.437  1.00  0.00    -0.254 A  
HETATM   21  C   UNL     1     -11.183  15.328  68.093  1.00  0.00    -0.328 C  
HETATM   22  O   UNL     1      -7.837  20.279  65.480  1.00  0.00    -0.168 OA 
ENDROOT
BRANCH   4  23
HETATM   23  C   UNL     1     -13.181  15.220  70.323  1.00  0.00    -0.054 C  
HETATM   24  C   UNL     1     -14.386  15.329  70.370  1.00  0.00     1.101 C  
ENDBRANCH   4  23
TORSDOF 1
ENDMDL
MODEL      128
REMARK 921   NORMALIZED FREE ENERGY PREDICTED BY IDOCK:    4.13 KCAL/MOL
REMARK 922        TOTAL FREE ENERGY PREDICTED BY IDOCK:    4.35 KCAL/MOL
REMARK 923 INTER-LIGAND FREE ENERGY PREDICTED BY IDOCK:    4.35 KCAL/MOL
REMARK 924 INTRA-LIGAND FREE ENERGY PREDICTED BY IDOCK:    0.00 KCAL/MOL
REMARK 927      BINDING AFFINITY PREDICTED BY RF-SCORE:    0.00 PKD
ROOT
HETATM    1  C   UNL     1     -11.369  16.369  67.276  1.00  0.00     0.218 C  
HETATM    2  C   UNL     1     -11.387  17.758  67.518  1.00  0.00     0.540 C  
HETATM    3  C   UNL     1     -10.208  17.255  66.771  1.00  0.00    -0.318 C  
HETATM    4  C   UNL     1     -10.337  15.298  66.157  1.00  0.00    -0.302 C  
HETATM    5  H   UNL     1      -4.261  13.297  71.900  1.00  0.00     0.000 HD 
HETATM    6  O   UNL     1      -9.509  14.548  65.265  1.00  0.00    -0.474 OA 
HETATM    7  C   UNL     1     -10.668  16.423  65.458  1.00  0.00    -0.300 C  
HETATM    8  C   UNL     1      -6.280  14.928  68.944  1.00  0.00    -0.086 A  
HETATM    9  C   UNL     1      -8.816  16.665  65.224  1.00  0.00     1.597 C  
HETATM   10  C   UNL     1     -11.571  16.641  64.283  1.00  0.00     0.525 C  
HETATM   11  H   UNL     1      -9.569  13.643  64.981  1.00  0.00     0.000 HD 
HETATM   12  C   UNL     1      -7.915  15.970  66.572  1.00  0.00    -0.271 C  
HETATM   13  C   UNL     1      -8.509  15.898  68.145  1.00  0.00    -0.167 C  
HETATM   14  C   UNL     1      -7.654  15.139  69.166  1.00  0.00    -0.188 A  
HETATM   15  C   UNL     1      -8.184  14.821  70.440  1.00  0.00     1.214 A  
HETATM   16  C   UNL     1      -7.355  14.229  71.414  1.00  0.00     2.830 A  
HETATM   17  C   UNL     1      -9.627  15.074  70.825  1.00  0.00     1.363 C  
HETATM   18  C   UNL     1     -10.415  15.985  69.884  1.00  0.00    -0.287 C  
HETATM   19  C   UNL     1      -6.009  14.007  71.151  1.00  0.00    -0.160 A  
HETATM   20  C   UNL     1      -5.464  14.365  69.930  1.00  0.00    -0.098 A  
HETATM   21  C   UNL     1     -10.141  15.600  68.432  1.00  0.00    -0.214 C  
HETATM   22  O   UNL     1      -5.182  13.449  72.080  1.00  0.00    -0.260 OA 
ENDROOT
BRANCH   4  23
HETATM   23  C   UNL     1     -11.590  14.385  66.107  1.00  0.00    -0.372 C  
HETATM   24  C   UNL     1     -12.555  13.661  66.013  1.00  0.00    -0.441 C  
ENDBRANCH   4  23
TORSDOF 1
ENDMDL
MODEL      129
REMARK 921   NORMALIZED FREE ENERGY PREDICTED BY IDOCK:    5.70 KCAL/MOL
REMARK 922        TOTAL FREE ENERGY PREDICTED BY IDOCK:    6.01 KCAL/MOL
REMARK 923 INTER-LIGAND FREE ENERGY PREDICTED BY IDOCK:    5.96 KCAL/MOL
REMARK 924 INTRA-LIGAND FREE ENERGY PREDICTED BY IDOCK:    0.05 KCAL/MOL
REMARK 927      BINDING AFFINITY PREDICTED BY RF-SCORE:    0.00 PKD
ROOT
HETATM    1  C   UNL     1     -11.730  15.222  69.043  1.00  0.00    -0.368 C  
HETATM    2  C   UNL     1     -12.075  14.839  70.356  1.00  0.00    -0.381 C  
HETATM    3  C   UNL     1     -10.718  15.417  70.194  1.00  0.00    -0.326 C  
HETATM    4  C   UNL     1     -10.341  16.251  68.354  1.00  0.00    -0.271 C  
HETATM    5  H   UNL     1      -4.912   9.781  66.752  1.00  0.00     0.000 HD 
HETATM    6  O   UNL     1      -9.250  17.059  67.906  1.00  0.00    -0.232 OA 
HETATM    7  C   UNL     1     -10.791  16.873  69.482  1.00  0.00    -0.144 C  
HETATM    8  C   UNL     1      -6.761  12.852  68.370  1.00  0.00    -0.092 A  
HETATM    9  C   UNL     1      -9.018  16.751  70.100  1.00  0.00     1.908 C  
HETATM   10  C   UNL     1     -11.533  18.157  69.688  1.00  0.00     3.488 C  
HETATM   11  H   UNL     1      -9.075  17.445  67.055  1.00  0.00     0.000 HD 
HETATM   12  C   UNL     1      -8.204  15.348  69.406  1.00  0.00    -0.250 C  
HETATM   13  C   UNL     1      -8.998  13.921  69.004  1.00  0.00     0.223 C  
HETATM   14  C   UNL     1      -8.166  12.853  68.285  1.00  0.00    -0.153 A  
HETATM   15  C   UNL     1      -8.803  11.734  67.696  1.00  0.00    -0.162 A  
HETATM   16  C   UNL     1      -8.024  10.698  67.141  1.00  0.00    -0.121 A  
HETATM   17  C   UNL     1     -10.308  11.582  67.615  1.00  0.00    -0.209 C  
HETATM   18  C   UNL     1     -11.119  12.543  68.484  1.00  0.00    -0.297 C  
HETATM   19  C   UNL     1      -6.637  10.744  67.217  1.00  0.00    -0.075 A  
HETATM   20  C   UNL     1      -6.003  11.805  67.839  1.00  0.00    -0.050 A  
HETATM   21  C   UNL     1     -10.556  13.958  68.366  1.00  0.00    -0.262 C  
HETATM   22  O   UNL     1      -5.861   9.749  66.700  1.00  0.00    -0.053 OA 
ENDROOT
BRANCH   4  23
HETATM   23  C   UNL     1     -11.352  16.617  67.236  1.00  0.00     0.324 C  
HETATM   24  C   UNL     1     -12.182  16.873  66.393  1.00  0.00     3.468 C  
ENDBRANCH   4  23
TORSDOF 1
ENDMDL
MODEL      130
REMARK 921   NORMALIZED FREE ENERGY PREDICTED BY IDOCK:    7.68 KCAL/MOL
REMARK 922        TOTAL FREE ENERGY PREDICTED BY IDOCK:    8.11 KCAL/MOL
REMARK 923 INTER-LIGAND FREE ENERGY PREDICTED BY IDOCK:    8.09 KCAL/MOL
REMARK 924 INTRA-LIGAND FREE ENERGY PREDICTED BY IDOCK:    0.02 KCAL/MOL
REMARK 927      BINDING AFFINITY PREDICTED BY RF-SCORE:    0.00 PKD
ROOT
HETATM    1  C   UNL     1      -6.671  12.047  70.091  1.00  0.00     0.434 C  
HETATM    2  C   UNL     1      -7.151  12.083  71.417  1.00  0.00     5.478 C  
HETATM    3  C   UNL     1      -8.188  12.169  70.360  1.00  0.00     4.686 C  
HETATM    4  C   UNL     1      -7.518  11.807  68.451  1.00  0.00    -0.105 C  
HETATM    5  H   UNL     1      -8.741  20.124  66.652  1.00  0.00     0.000 HD 
HETATM    6  O   UNL     1      -8.242  11.607  67.235  1.00  0.00    -0.144 OA 
HETATM    7  C   UNL     1      -8.069  10.921  69.331  1.00  0.00     0.001 C  
HETATM    8  C   UNL     1      -9.233  16.386  67.772  1.00  0.00    -0.201 A  
HETATM    9  C   UNL     1      -9.718  11.718  68.899  1.00  0.00     0.005 C  
HETATM   10  C   UNL     1      -8.000   9.428  69.423  1.00  0.00    -0.089 C  
HETATM   11  H   UNL     1      -7.932  11.439  66.352  1.00  0.00     0.000 HD 
HETATM   12  C   UNL     1      -9.500  13.407  68.438  1.00  0.00    -0.176 C  
HETATM   13  C   UNL     1      -8.289  14.391  69.068  1.00  0.00    -0.017 C  
HETATM   14  C   UNL     1      -8.157  15.791  68.458  1.00  0.00    -0.153 A  
HETATM   15  C   UNL     1      -7.025  16.589  68.752  1.00  0.00    -0.180 A  
HETATM   16  C   UNL     1      -6.966  17.917  68.283  1.00  0.00    -0.222 A  
HETATM   17  C   UNL     1      -5.839  16.087  69.549  1.00  0.00    -0.140 C  
HETATM   18  C   UNL     1      -6.053  14.774  70.301  1.00  0.00    -0.167 C  
HETATM   19  C   UNL     1      -8.034  18.464  67.583  1.00  0.00    -0.242 A  
HETATM   20  C   UNL     1      -9.171  17.712  67.338  1.00  0.00    -0.247 A  
HETATM   21  C   UNL     1      -6.762  13.764  69.400  1.00  0.00    -0.079 C  
HETATM   22  O   UNL     1      -8.009  19.750  67.131  1.00  0.00    -0.268 OA 
ENDROOT
BRANCH   4  23
HETATM   23  C   UNL     1      -6.172  11.179  68.006  1.00  0.00    -0.049 C  
HETATM   24  C   UNL     1      -5.148  10.638  67.652  1.00  0.00    -0.036 C  
ENDBRANCH   4  23
TORSDOF 1
ENDMDL
MODEL      131
REMARK 921   NORMALIZED FREE ENERGY PREDICTED BY IDOCK:    9.08 KCAL/MOL
REMARK 922        TOTAL FREE ENERGY PREDICTED BY IDOCK:    9.59 KCAL/MOL
REMARK 923 INTER-LIGAND FREE ENERGY PREDICTED BY IDOCK:    9.60 KCAL/MOL
REMARK 924 INTRA-LIGAND FREE ENERGY PREDICTED BY IDOCK:   -0.01 KCAL/MOL
REMARK 927      BINDING AFFINITY PREDICTED BY RF-SCORE:    0.00 PKD
ROOT
HETATM    1  C   UNL     1     -11.189  13.755  70.531  1.00  0.00     0.421 C  
HETATM    2  C   UNL     1     -11.381  13.806  69.135  1.00  0.00    -0.329 C  
HETATM    3  C   UNL     1     -12.554  13.358  69.925  1.00  0.00    -0.034 C  
HETATM    4  C   UNL     1     -12.370  13.581  71.960  1.00  0.00     0.226 C  
HETATM    5  H   UNL     1     -11.939   5.024  72.662  1.00  0.00     0.000 HD 
HETATM    6  O   UNL     1     -13.342  13.452  73.000  1.00  0.00    -0.518 OA 
HETATM    7  C   UNL     1     -12.932  14.446  71.066  1.00  0.00    -0.416 C  
HETATM    8  C   UNL     1     -13.065   8.695  71.814  1.00  0.00    -0.396 A  
HETATM    9  C   UNL     1     -14.400  13.269  71.048  1.00  0.00     2.068 C  
HETATM   10  C   UNL     1     -13.197  15.919  71.131  1.00  0.00    -0.003 C  
HETATM   11  H   UNL     1     -13.257  13.555  73.941  1.00  0.00     0.000 HD 
HETATM   12  C   UNL     1     -13.887  11.616  71.387  1.00  0.00     1.096 C  
HETATM   13  C   UNL     1     -12.381  11.005  70.949  1.00  0.00    -0.503 C  
HETATM   14  C   UNL     1     -12.046   9.592  71.440  1.00  0.00    -0.472 A  
HETATM   15  C   UNL     1     -10.724   9.097  71.331  1.00  0.00    -0.414 A  
HETATM   16  C   UNL     1     -10.448   7.759  71.674  1.00  0.00    -0.241 A  
HETATM   17  C   UNL     1      -9.557   9.943  70.864  1.00  0.00     0.326 C  
HETATM   18  C   UNL     1      -9.923  11.275  70.209  1.00  0.00     1.813 C  
HETATM   19  C   UNL     1     -11.474   6.908  72.068  1.00  0.00    -0.274 A  
HETATM   20  C   UNL     1     -12.780   7.363  72.126  1.00  0.00    -0.145 A  
HETATM   21  C   UNL     1     -11.008  11.977  71.022  1.00  0.00     3.169 C  
HETATM   22  O   UNL     1     -11.237   5.605  72.393  1.00  0.00    -0.268 OA 
ENDROOT
BRANCH   4  23
HETATM   23  C   UNL     1     -11.320  14.407  72.747  1.00  0.00     1.284 C  
HETATM   24  C   UNL     1     -10.541  15.063  73.402  1.00  0.00     3.210 C  
ENDBRANCH   4  23
TORSDOF 1
ENDMDL
MODEL      132
REMARK 921   NORMALIZED FREE ENERGY PREDICTED BY IDOCK:   12.41 KCAL/MOL
REMARK 922        TOTAL FREE ENERGY PREDICTED BY IDOCK:   13.12 KCAL/MOL
REMARK 923 INTER-LIGAND FREE ENERGY PREDICTED BY IDOCK:   13.09 KCAL/MOL
REMARK 924 INTRA-LIGAND FREE ENERGY PREDICTED BY IDOCK:    0.02 KCAL/MOL
REMARK 927      BINDING AFFINITY PREDICTED BY RF-SCORE:    0.00 PKD
ROOT
HETATM    1  C   UNL     1     -11.628  15.266  70.230  1.00  0.00    -0.332 C  
HETATM    2  C   UNL     1     -11.825  14.293  71.231  1.00  0.00    -0.219 C  
HETATM    3  C   UNL     1     -10.425  14.463  70.773  1.00  0.00     1.180 C  
HETATM    4  C   UNL     1     -10.100  16.082  69.548  1.00  0.00    -0.266 C  
HETATM    5  H   UNL     1      -8.804  10.640  63.020  1.00  0.00     0.000 HD 
HETATM    6  O   UNL     1      -8.880  16.667  69.086  1.00  0.00    -0.235 OA 
HETATM    7  C   UNL     1      -9.957  16.010  70.904  1.00  0.00     1.440 C  
HETATM    8  C   UNL     1      -8.613  12.521  66.469  1.00  0.00     0.022 A  
HETATM    9  C   UNL     1      -8.361  15.076  70.556  1.00  0.00     1.377 C  
HETATM   10  C   UNL     1      -9.950  17.066  71.966  1.00  0.00     6.684 C  
HETATM   11  H   UNL     1      -8.730  17.416  68.521  1.00  0.00     0.000 HD 
HETATM   12  C   UNL     1      -8.465  14.198  69.029  1.00  0.00     0.093 C  
HETATM   13  C   UNL     1      -9.899  13.564  68.421  1.00  0.00    -0.225 C  
HETATM   14  C   UNL     1      -9.836  12.950  67.017  1.00  0.00    -0.233 A  
HETATM   15  C   UNL     1     -11.031  12.617  66.334  1.00  0.00    -0.304 A  
HETATM   16  C   UNL     1     -10.964  11.947  65.096  1.00  0.00    -0.365 A  
HETATM   17  C   UNL     1     -12.410  12.955  66.860  1.00  0.00     0.022 C  
HETATM   18  C   UNL     1     -12.474  13.392  68.323  1.00  0.00     0.347 C  
HETATM   19  C   UNL     1      -9.736  11.564  64.569  1.00  0.00    -0.207 A  
HETATM   20  C   UNL     1      -8.564  11.833  65.254  1.00  0.00     0.547 A  
HETATM   21  C   UNL     1     -11.354  14.387  68.621  1.00  0.00    -0.298 C  
HETATM   22  O   UNL     1      -9.644  10.902  63.380  1.00  0.00    -0.265 OA 
ENDROOT
BRANCH   4  23
HETATM   23  C   UNL     1     -11.033  17.292  69.284  1.00  0.00     0.233 C  
HETATM   24  C   UNL     1     -11.797  18.201  69.049  1.00  0.00     4.097 C  
ENDBRANCH   4  23
TORSDOF 1
ENDMDL
MODEL      133
REMARK 921   NORMALIZED FREE ENERGY PREDICTED BY IDOCK:   21.05 KCAL/MOL
REMARK 922        TOTAL FREE ENERGY PREDICTED BY IDOCK:   22.26 KCAL/MOL
REMARK 923 INTER-LIGAND FREE ENERGY PREDICTED BY IDOCK:   22.26 KCAL/MOL
REMARK 924 INTRA-LIGAND FREE ENERGY PREDICTED BY IDOCK:    0.00 KCAL/MOL
REMARK 927      BINDING AFFINITY PREDICTED BY RF-SCORE:    0.00 PKD
ROOT
HETATM    1  C   UNL     1      -9.475   8.953  67.048  1.00  0.00    -0.215 C  
HETATM    2  C   UNL     1      -9.080   7.833  67.808  1.00  0.00    -0.136 C  
HETATM    3  C   UNL     1     -10.062   8.732  68.460  1.00  0.00    -0.210 C  
HETATM    4  C   UNL     1     -10.862  10.180  67.239  1.00  0.00    -0.230 C  
HETATM    5  H   UNL     1      -6.462  16.080  71.681  1.00  0.00     0.000 HD 
HETATM    6  O   UNL     1     -11.957  11.075  67.453  1.00  0.00    -0.450 OA 
HETATM    7  C   UNL     1     -11.367   8.943  67.519  1.00  0.00     0.957 C  
HETATM    8  C   UNL     1      -8.842  13.125  70.648  1.00  0.00     6.965 A  
HETATM    9  C   UNL     1     -11.874   9.669  69.180  1.00  0.00     0.528 C  
HETATM   10  C   UNL     1     -12.344   8.073  66.791  1.00  0.00     8.317 C  
HETATM   11  H   UNL     1     -12.326  11.744  66.889  1.00  0.00     0.000 HD 
HETATM   12  C   UNL     1     -10.780  10.966  69.661  1.00  0.00    -0.232 C  
HETATM   13  C   UNL     1      -9.149  11.003  69.250  1.00  0.00     0.074 C  
HETATM   14  C   UNL     1      -8.374  12.269  69.633  1.00  0.00     1.653 A  
HETATM   15  C   UNL     1      -7.074  12.490  69.116  1.00  0.00     0.020 A  
HETATM   16  C   UNL     1      -6.323  13.595  69.564  1.00  0.00    -0.114 A  
HETATM   17  C   UNL     1      -6.430  11.594  68.079  1.00  0.00    -0.055 C  
HETATM   18  C   UNL     1      -7.120  10.250  67.842  1.00  0.00    -0.084 C  
HETATM   19  C   UNL     1      -6.827  14.437  70.547  1.00  0.00     0.263 A  
HETATM   20  C   UNL     1      -8.074  14.200  71.101  1.00  0.00     4.463 A  
HETATM   21  C   UNL     1      -8.631  10.448  67.747  1.00  0.00    -0.122 C  
HETATM   22  O   UNL     1      -6.116  15.505  71.008  1.00  0.00     0.194 OA 
ENDROOT
BRANCH   4  23
HETATM   23  C   UNL     1     -10.806  10.274  65.692  1.00  0.00     0.239 C  
HETATM   24  C   UNL     1     -10.720  10.387  64.490  1.00  0.00     0.429 C  
ENDBRANCH   4  23
TORSDOF 1
ENDMDL
MODEL      134
REMARK 921   NORMALIZED FREE ENERGY PREDICTED BY IDOCK:   28.73 KCAL/MOL
REMARK 922        TOTAL FREE ENERGY PREDICTED BY IDOCK:   30.40 KCAL/MOL
REMARK 923 INTER-LIGAND FREE ENERGY PREDICTED BY IDOCK:   30.36 KCAL/MOL
REMARK 924 INTRA-LIGAND FREE ENERGY PREDICTED BY IDOCK:    0.04 KCAL/MOL
REMARK 927      BINDING AFFINITY PREDICTED BY RF-SCORE:    0.00 PKD
ROOT
HETATM    1  C   UNL     1     -11.097   4.886  63.697  1.00  0.00     1.691 C  
HETATM    2  C   UNL     1     -10.467   5.443  62.565  1.00  0.00     1.657 C  
HETATM    3  C   UNL     1      -9.762   4.296  63.188  1.00  0.00    -0.075 C  
HETATM    4  C   UNL     1     -10.830   3.300  64.635  1.00  0.00     0.458 C  
HETATM    5  H   UNL     1      -5.410   6.444  70.521  1.00  0.00     0.000 HD 
HETATM    6  O   UNL     1     -10.566   2.059  65.295  1.00  0.00     0.799 OA 
HETATM    7  C   UNL     1     -10.742   3.009  63.304  1.00  0.00    -0.239 C  
HETATM    8  C   UNL     1      -6.955   4.654  67.379  1.00  0.00    -0.061 A  
HETATM    9  C   UNL     1      -9.035   2.324  63.699  1.00  0.00    -0.090 C  
HETATM   10  C   UNL     1     -11.634   2.224  62.391  1.00  0.00     0.007 C  
HETATM   11  H   UNL     1     -11.060   1.599  65.964  1.00  0.00     0.000 HD 
HETATM   12  C   UNL     1      -8.326   3.158  65.083  1.00  0.00    -0.095 C  
HETATM   13  C   UNL     1      -8.633   4.771  65.449  1.00  0.00    -0.134 C  
HETATM   14  C   UNL     1      -8.044   5.299  66.762  1.00  0.00    -0.105 A  
HETATM   15  C   UNL     1      -8.450   6.559  67.267  1.00  0.00    -0.112 A  
HETATM   16  C   UNL     1      -7.820   7.090  68.410  1.00  0.00    -0.122 A  
HETATM   17  C   UNL     1      -9.556   7.385  66.643  1.00  0.00    -0.251 C  
HETATM   18  C   UNL     1     -10.005   6.949  65.249  1.00  0.00     1.936 C  
HETATM   19  C   UNL     1      -6.767   6.411  69.011  1.00  0.00    -0.053 A  
HETATM   20  C   UNL     1      -6.322   5.206  68.495  1.00  0.00    -0.035 A  
HETATM   21  C   UNL     1     -10.162   5.431  65.201  1.00  0.00     0.676 C  
HETATM   22  O   UNL     1      -6.130   6.909  70.110  1.00  0.00    -0.023 OA 
ENDROOT
BRANCH   4  23
HETATM   23  C   UNL     1     -12.345   3.394  64.949  1.00  0.00     7.360 C  
HETATM   24  C   UNL     1     -13.525   3.524  65.184  1.00  0.00    17.167 C  
ENDBRANCH   4  23
TORSDOF 1
ENDMDL
MODEL      135
REMARK 921   NORMALIZED FREE ENERGY PREDICTED BY IDOCK:   33.14 KCAL/MOL
REMARK 922        TOTAL FREE ENERGY PREDICTED BY IDOCK:   35.06 KCAL/MOL
REMARK 923 INTER-LIGAND FREE ENERGY PREDICTED BY IDOCK:   35.02 KCAL/MOL
REMARK 924 INTRA-LIGAND FREE ENERGY PREDICTED BY IDOCK:    0.04 KCAL/MOL
REMARK 927      BINDING AFFINITY PREDICTED BY RF-SCORE:    0.00 PKD
ROOT
HETATM    1  C   UNL     1      -9.425  14.578  69.683  1.00  0.00     0.390 C  
HETATM    2  C   UNL     1      -8.941  13.281  69.413  1.00  0.00     1.122 C  
HETATM    3  C   UNL     1      -7.905  14.299  69.714  1.00  0.00     0.482 C  
HETATM    4  C   UNL     1      -8.625  16.097  70.404  1.00  0.00     2.008 C  
HETATM    5  H   UNL     1      -6.247  19.687  62.964  1.00  0.00     0.000 HD 
HETATM    6  O   UNL     1      -7.940  17.215  70.973  1.00  0.00     5.020 OA 
HETATM    7  C   UNL     1      -8.201  15.024  71.134  1.00  0.00     2.997 C  
HETATM    8  C   UNL     1      -6.284  17.739  66.380  1.00  0.00    -0.246 A  
HETATM    9  C   UNL     1      -6.458  15.576  70.691  1.00  0.00     0.360 C  
HETATM   10  C   UNL     1      -8.481  14.600  72.543  1.00  0.00     7.616 C  
HETATM   11  H   UNL     1      -8.273  18.046  71.293  1.00  0.00     0.000 HD 
HETATM   12  C   UNL     1      -6.437  16.412  69.138  1.00  0.00    -0.187 C  
HETATM   13  C   UNL     1      -7.495  16.055  67.879  1.00  0.00    -0.142 C  
HETATM   14  C   UNL     1      -7.431  16.968  66.650  1.00  0.00    -0.300 A  
HETATM   15  C   UNL     1      -8.438  16.896  65.658  1.00  0.00     0.540 A  
HETATM   16  C   UNL     1      -8.311  17.653  64.476  1.00  0.00     7.027 A  
HETATM   17  C   UNL     1      -9.681  16.041  65.797  1.00  0.00    -0.340 C  
HETATM   18  C   UNL     1      -9.652  15.006  66.922  1.00  0.00    -0.251 C  
HETATM   19  C   UNL     1      -7.178  18.427  64.255  1.00  0.00     4.441 A  
HETATM   20  C   UNL     1      -6.159  18.463  65.192  1.00  0.00    -0.218 A  
HETATM   21  C   UNL     1      -9.095  15.635  68.197  1.00  0.00    -0.181 C  
HETATM   22  O   UNL     1      -7.022  19.158  63.114  1.00  0.00     2.901 OA 
ENDROOT
BRANCH   4  23
HETATM   23  C   UNL     1     -10.048  16.428  70.925  1.00  0.00     1.750 C  
HETATM   24  C   UNL     1     -11.180  16.653  71.290  1.00  0.00     0.230 C  
ENDBRANCH   4  23
TORSDOF 1
ENDMDL
MODEL      136
REMARK 921   NORMALIZED FREE ENERGY PREDICTED BY IDOCK:   34.46 KCAL/MOL
REMARK 922        TOTAL FREE ENERGY PREDICTED BY IDOCK:   36.46 KCAL/MOL
REMARK 923 INTER-LIGAND FREE ENERGY PREDICTED BY IDOCK:   36.42 KCAL/MOL
REMARK 924 INTRA-LIGAND FREE ENERGY PREDICTED BY IDOCK:    0.04 KCAL/MOL
REMARK 927      BINDING AFFINITY PREDICTED BY RF-SCORE:    0.00 PKD
ROOT
HETATM    1  C   UNL     1      -8.899  17.355  65.139  1.00  0.00     2.497 C  
HETATM    2  C   UNL     1     -10.268  17.091  65.344  1.00  0.00    -0.008 C  
HETATM    3  C   UNL     1      -9.773  18.369  65.910  1.00  0.00     0.043 C  
HETATM    4  C   UNL     1      -7.867  18.891  65.347  1.00  0.00     0.708 C  
HETATM    5  H   UNL     1      -5.273  17.355  73.397  1.00  0.00     0.000 HD 
HETATM    6  O   UNL     1      -7.148  20.114  65.523  1.00  0.00    -0.307 OA 
HETATM    7  C   UNL     1      -9.047  19.264  64.770  1.00  0.00     3.820 C  
HETATM    8  C   UNL     1      -7.167  18.715  70.230  1.00  0.00     1.207 A  
HETATM    9  C   UNL     1      -9.237  20.440  66.226  1.00  0.00    -0.222 C  
HETATM   10  C   UNL     1      -9.374  19.766  63.398  1.00  0.00    13.629 C  
HETATM   11  H   UNL     1      -6.267  20.355  65.263  1.00  0.00     0.000 HD 
HETATM   12  C   UNL     1      -8.422  19.808  67.658  1.00  0.00    -0.361 C  
HETATM   13  C   UNL     1      -8.268  18.165  67.986  1.00  0.00    -0.266 C  
HETATM   14  C   UNL     1      -7.413  17.786  69.201  1.00  0.00    -0.085 A  
HETATM   15  C   UNL     1      -7.030  16.439  69.408  1.00  0.00    -0.210 A  
HETATM   16  C   UNL     1      -6.346  16.080  70.586  1.00  0.00     0.539 A  
HETATM   17  C   UNL     1      -7.310  15.334  68.410  1.00  0.00    -0.114 C  
HETATM   18  C   UNL     1      -8.309  15.675  67.305  1.00  0.00    -0.209 C  
HETATM   19  C   UNL     1      -6.093  17.028  71.570  1.00  0.00     1.973 A  
HETATM   20  C   UNL     1      -6.512  18.338  71.405  1.00  0.00     2.378 A  
HETATM   21  C   UNL     1      -8.011  17.062  66.740  1.00  0.00    -0.274 C  
HETATM   22  O   UNL     1      -5.446  16.705  72.725  1.00  0.00     0.815 OA 
ENDROOT
BRANCH   4  23
HETATM   23  C   UNL     1      -7.005  18.298  64.202  1.00  0.00     4.426 C  
HETATM   24  C   UNL     1      -6.373  17.852  63.271  1.00  0.00     6.440 C  
ENDBRANCH   4  23
TORSDOF 1
ENDMDL
MODEL      137
REMARK 921   NORMALIZED FREE ENERGY PREDICTED BY IDOCK:   41.21 KCAL/MOL
REMARK 922        TOTAL FREE ENERGY PREDICTED BY IDOCK:   43.60 KCAL/MOL
REMARK 923 INTER-LIGAND FREE ENERGY PREDICTED BY IDOCK:   43.59 KCAL/MOL
REMARK 924 INTRA-LIGAND FREE ENERGY PREDICTED BY IDOCK:    0.02 KCAL/MOL
REMARK 927      BINDING AFFINITY PREDICTED BY RF-SCORE:    0.00 PKD
ROOT
HETATM    1  C   UNL     1      -9.617   6.907  66.637  1.00  0.00    -0.218 C  
HETATM    2  C   UNL     1      -8.436   6.912  65.867  1.00  0.00    -0.147 C  
HETATM    3  C   UNL     1      -8.275   6.492  67.280  1.00  0.00    -0.113 C  
HETATM    4  C   UNL     1     -10.031   6.191  68.305  1.00  0.00    -0.143 C  
HETATM    5  H   UNL     1      -8.305  13.219  72.944  1.00  0.00     0.000 HD 
HETATM    6  O   UNL     1     -10.270   5.604  69.587  1.00  0.00    -0.204 OA 
HETATM    7  C   UNL     1      -9.278   5.268  67.638  1.00  0.00    -0.121 C  
HETATM    8  C   UNL     1      -8.100   9.713  71.175  1.00  0.00     0.472 A  
HETATM    9  C   UNL     1      -8.109   5.350  69.110  1.00  0.00    -0.094 C  
HETATM   10  C   UNL     1      -9.615   3.926  67.067  1.00  0.00    -0.227 C  
HETATM   11  H   UNL     1     -11.082   5.465  70.060  1.00  0.00     0.000 HD 
HETATM   12  C   UNL     1      -8.171   6.938  69.876  1.00  0.00    -0.127 C  
HETATM   13  C   UNL     1      -8.480   8.362  69.034  1.00  0.00    -0.123 C  
HETATM   14  C   UNL     1      -8.633   9.635  69.874  1.00  0.00    -0.218 A  
HETATM   15  C   UNL     1      -9.131  10.821  69.282  1.00  0.00    -0.056 A  
HETATM   16  C   UNL     1      -9.158  12.016  70.028  1.00  0.00     3.123 A  
HETATM   17  C   UNL     1      -9.658  10.882  67.863  1.00  0.00    -0.175 C  
HETATM   18  C   UNL     1      -9.336   9.675  66.983  1.00  0.00    -0.180 C  
HETATM   19  C   UNL     1      -8.651  12.051  71.321  1.00  0.00    12.112 A  
HETATM   20  C   UNL     1      -8.109  10.911  71.892  1.00  0.00     8.603 A  
HETATM   21  C   UNL     1      -9.578   8.382  67.758  1.00  0.00    -0.185 C  
HETATM   22  O   UNL     1      -8.652  13.196  72.059  1.00  0.00    13.082 OA 
ENDROOT
BRANCH   4  23
HETATM   23  C   UNL     1     -11.467   6.056  67.735  1.00  0.00     0.605 C  
HETATM   24  C   UNL     1     -12.584   5.893  67.298  1.00  0.00     7.920 C  
ENDBRANCH   4  23
TORSDOF 1
ENDMDL
MODEL      138
REMARK 921   NORMALIZED FREE ENERGY PREDICTED BY IDOCK:   61.01 KCAL/MOL
REMARK 922        TOTAL FREE ENERGY PREDICTED BY IDOCK:   64.55 KCAL/MOL
REMARK 923 INTER-LIGAND FREE ENERGY PREDICTED BY IDOCK:   64.55 KCAL/MOL
REMARK 924 INTRA-LIGAND FREE ENERGY PREDICTED BY IDOCK:    0.01 KCAL/MOL
REMARK 927      BINDING AFFINITY PREDICTED BY RF-SCORE:    0.00 PKD
ROOT
HETATM    1  C   UNL     1      -9.164   6.178  63.628  1.00  0.00     1.295 C  
HETATM    2  C   UNL     1      -8.046   5.317  63.624  1.00  0.00    -0.113 C  
HETATM    3  C   UNL     1      -8.349   5.964  64.924  1.00  0.00    -0.115 C  
HETATM    4  C   UNL     1     -10.143   6.964  65.002  1.00  0.00     3.106 C  
HETATM    5  H   UNL     1      -5.782  14.366  65.321  1.00  0.00     0.000 HD 
HETATM    6  O   UNL     1     -10.848   7.522  66.114  1.00  0.00     0.263 OA 
HETATM    7  C   UNL     1      -9.882   5.676  65.370  1.00  0.00     0.404 C  
HETATM    8  C   UNL     1      -7.147  10.748  66.039  1.00  0.00    -0.102 A  
HETATM    9  C   UNL     1      -9.086   6.414  66.907  1.00  0.00    -0.138 C  
HETATM   10  C   UNL     1     -10.770   4.481  65.529  1.00  0.00    -0.170 C  
HETATM   11  H   UNL     1     -11.678   7.985  66.150  1.00  0.00     0.000 HD 
HETATM   12  C   UNL     1      -8.437   8.020  66.572  1.00  0.00    -0.137 C  
HETATM   13  C   UNL     1      -7.829   8.479  65.071  1.00  0.00    -0.112 C  
HETATM   14  C   UNL     1      -7.431   9.951  64.914  1.00  0.00    -0.135 A  
HETATM   15  C   UNL     1      -7.144  10.475  63.630  1.00  0.00     0.094 A  
HETATM   16  C   UNL     1      -6.666  11.795  63.506  1.00  0.00     3.286 A  
HETATM   17  C   UNL     1      -7.334   9.689  62.350  1.00  0.00    -0.116 C  
HETATM   18  C   UNL     1      -7.550   8.185  62.521  1.00  0.00    -0.114 C  
HETATM   19  C   UNL     1      -6.424  12.565  64.638  1.00  0.00     8.358 A  
HETATM   20  C   UNL     1      -6.647  12.045  65.901  1.00  0.00     1.659 A  
HETATM   21  C   UNL     1      -8.544   7.924  63.651  1.00  0.00     0.342 C  
HETATM   22  O   UNL     1      -5.948  13.839  64.546  1.00  0.00    15.381 OA 
ENDROOT
BRANCH   4  23
HETATM   23  C   UNL     1     -11.332   6.888  64.009  1.00  0.00    15.418 C  
HETATM   24  C   UNL     1     -12.293   6.806  63.278  1.00  0.00    16.193 C  
ENDBRANCH   4  23
TORSDOF 1
ENDMDL
MODEL      139
REMARK 921   NORMALIZED FREE ENERGY PREDICTED BY IDOCK:   62.88 KCAL/MOL
REMARK 922        TOTAL FREE ENERGY PREDICTED BY IDOCK:   66.54 KCAL/MOL
REMARK 923 INTER-LIGAND FREE ENERGY PREDICTED BY IDOCK:   66.49 KCAL/MOL
REMARK 924 INTRA-LIGAND FREE ENERGY PREDICTED BY IDOCK:    0.04 KCAL/MOL
REMARK 927      BINDING AFFINITY PREDICTED BY RF-SCORE:    0.00 PKD
ROOT
HETATM    1  C   UNL     1      -9.490  14.758  63.933  1.00  0.00     6.114 C  
HETATM    2  C   UNL     1     -10.739  14.134  63.738  1.00  0.00     1.285 C  
HETATM    3  C   UNL     1     -10.668  15.075  64.882  1.00  0.00    -0.420 C  
HETATM    4  C   UNL     1      -8.953  16.205  64.973  1.00  0.00     2.392 C  
HETATM    5  H   UNL     1      -6.594  11.716  71.915  1.00  0.00     0.000 HD 
HETATM    6  O   UNL     1      -8.625  17.330  65.792  1.00  0.00    -0.532 OA 
HETATM    7  C   UNL     1     -10.148  16.533  64.399  1.00  0.00     2.508 C  
HETATM    8  C   UNL     1      -8.572  13.937  69.341  1.00  0.00     0.660 A  
HETATM    9  C   UNL     1     -10.764  16.823  66.153  1.00  0.00    -0.116 C  
HETATM   10  C   UNL     1     -10.508  17.530  63.341  1.00  0.00    10.465 C  
HETATM   11  H   UNL     1      -7.832  17.853  65.834  1.00  0.00     0.000 HD 
HETATM   12  C   UNL     1      -9.904  15.794  67.301  1.00  0.00    -0.230 C  
HETATM   13  C   UNL     1      -9.314  14.267  66.914  1.00  0.00    -0.268 C  
HETATM   14  C   UNL     1      -8.473  13.566  67.987  1.00  0.00    -0.176 A  
HETATM   15  C   UNL     1      -7.739  12.399  67.664  1.00  0.00    -0.151 A  
HETATM   16  C   UNL     1      -7.065  11.694  68.681  1.00  0.00    -0.099 A  
HETATM   17  C   UNL     1      -7.624  11.854  66.255  1.00  0.00     0.358 C  
HETATM   18  C   UNL     1      -8.599  12.440  65.235  1.00  0.00     1.343 C  
HETATM   19  C   UNL     1      -7.160  12.106  70.004  1.00  0.00     0.865 A  
HETATM   20  C   UNL     1      -7.920  13.213  70.342  1.00  0.00     3.836 A  
HETATM   21  C   UNL     1      -8.669  13.958  65.389  1.00  0.00     2.132 C  
HETATM   22  O   UNL     1      -6.529  11.434  71.009  1.00  0.00     0.032 OA 
ENDROOT
BRANCH   4  23
HETATM   23  C   UNL     1      -7.881  16.420  63.873  1.00  0.00    15.601 C  
HETATM   24  C   UNL     1      -7.087  16.604  62.979  1.00  0.00    20.891 C  
ENDBRANCH   4  23
TORSDOF 1
ENDMDL
MODEL      140
REMARK 921   NORMALIZED FREE ENERGY PREDICTED BY IDOCK:   63.21 KCAL/MOL
REMARK 922        TOTAL FREE ENERGY PREDICTED BY IDOCK:   66.89 KCAL/MOL
REMARK 923 INTER-LIGAND FREE ENERGY PREDICTED BY IDOCK:   66.84 KCAL/MOL
REMARK 924 INTRA-LIGAND FREE ENERGY PREDICTED BY IDOCK:    0.05 KCAL/MOL
REMARK 927      BINDING AFFINITY PREDICTED BY RF-SCORE:    0.00 PKD
ROOT
HETATM    1  C   UNL     1      -7.655  11.017  71.408  1.00  0.00     5.149 C  
HETATM    2  C   UNL     1      -8.510  10.172  70.670  1.00  0.00     0.848 C  
HETATM    3  C   UNL     1      -7.874  11.268  69.899  1.00  0.00     0.873 C  
HETATM    4  C   UNL     1      -6.404  12.298  70.900  1.00  0.00     1.088 C  
HETATM    5  H   UNL     1     -11.652  19.100  71.212  1.00  0.00     0.000 HD 
HETATM    6  O   UNL     1      -5.456  13.259  70.427  1.00  0.00    -0.117 OA 
HETATM    7  C   UNL     1      -6.261  11.230  70.061  1.00  0.00    -0.149 C  
HETATM    8  C   UNL     1      -9.460  16.069  69.997  1.00  0.00     0.406 A  
HETATM    9  C   UNL     1      -6.554  12.454  68.663  1.00  0.00    -0.079 C  
HETATM   10  C   UNL     1      -5.168  10.218  69.909  1.00  0.00    -0.038 C  
HETATM   11  H   UNL     1      -4.777  13.735  70.889  1.00  0.00     0.000 HD 
HETATM   12  C   UNL     1      -7.573  13.791  69.198  1.00  0.00     0.103 C  
HETATM   13  C   UNL     1      -8.769  13.633  70.370  1.00  0.00     3.959 C  
HETATM   14  C   UNL     1      -9.468  14.923  70.815  1.00  0.00     1.675 A  
HETATM   15  C   UNL     1     -10.305  14.920  71.957  1.00  0.00     2.196 A  
HETATM   16  C   UNL     1     -11.036  16.077  72.291  1.00  0.00     0.834 A  
HETATM   17  C   UNL     1     -10.458  13.721  72.871  1.00  0.00     7.814 C  
HETATM   18  C   UNL     1      -9.914  12.400  72.329  1.00  0.00    17.479 C  
HETATM   19  C   UNL     1     -10.982  17.202  71.477  1.00  0.00     1.486 A  
HETATM   20  C   UNL     1     -10.212  17.200  70.326  1.00  0.00     0.911 A  
HETATM   21  C   UNL     1      -8.541  12.619  71.696  1.00  0.00    16.767 C  
HETATM   22  O   UNL     1     -11.689  18.330  71.769  1.00  0.00     3.756 OA 
ENDROOT
BRANCH   4  23
HETATM   23  C   UNL     1      -5.677  11.907  72.212  1.00  0.00     1.367 C  
HETATM   24  C   UNL     1      -5.146  11.557  73.242  1.00  0.00     0.508 C  
ENDBRANCH   4  23
TORSDOF 1
ENDMDL
MODEL      141
REMARK 921   NORMALIZED FREE ENERGY PREDICTED BY IDOCK:   69.17 KCAL/MOL
REMARK 922        TOTAL FREE ENERGY PREDICTED BY IDOCK:   73.19 KCAL/MOL
REMARK 923 INTER-LIGAND FREE ENERGY PREDICTED BY IDOCK:   73.21 KCAL/MOL
REMARK 924 INTRA-LIGAND FREE ENERGY PREDICTED BY IDOCK:   -0.02 KCAL/MOL
REMARK 927      BINDING AFFINITY PREDICTED BY RF-SCORE:    0.00 PKD
ROOT
HETATM    1  C   UNL     1      -7.272  10.674  70.662  1.00  0.00     0.870 C  
HETATM    2  C   UNL     1      -6.115  11.344  71.108  1.00  0.00     0.618 C  
HETATM    3  C   UNL     1      -7.336  11.570  71.919  1.00  0.00     8.194 C  
HETATM    4  C   UNL     1      -8.929  10.359  71.450  1.00  0.00     4.098 C  
HETATM    5  H   UNL     1     -12.965  17.238  68.241  1.00  0.00     0.000 HD 
HETATM    6  O   UNL     1     -10.170  10.153  72.129  1.00  0.00     1.727 OA 
HETATM    7  C   UNL     1      -7.975  10.162  72.407  1.00  0.00     5.013 C  
HETATM    8  C   UNL     1     -11.053  14.733  70.594  1.00  0.00    -0.103 A  
HETATM    9  C   UNL     1      -8.899  11.458  73.410  1.00  0.00    20.817 C  
HETATM   10  C   UNL     1      -7.498   8.925  73.103  1.00  0.00     0.333 C  
HETATM   11  H   UNL     1     -10.907   9.593  71.913  1.00  0.00     0.000 HD 
HETATM   12  C   UNL     1      -9.721  12.606  72.352  1.00  0.00    19.511 C  
HETATM   13  C   UNL     1      -9.141  13.048  70.837  1.00  0.00     9.413 C  
HETATM   14  C   UNL     1     -10.048  13.952  69.993  1.00  0.00     1.276 A  
HETATM   15  C   UNL     1      -9.756  14.172  68.625  1.00  0.00    -0.196 A  
HETATM   16  C   UNL     1     -10.524  15.095  67.886  1.00  0.00    -0.245 A  
HETATM   17  C   UNL     1      -8.648  13.451  67.886  1.00  0.00    -0.184 C  
HETATM   18  C   UNL     1      -7.644  12.702  68.762  1.00  0.00    -0.022 C  
HETATM   19  C   UNL     1     -11.529  15.828  68.505  1.00  0.00    -0.379 A  
HETATM   20  C   UNL     1     -11.788  15.664  69.856  1.00  0.00    -0.374 A  
HETATM   21  C   UNL     1      -8.378  11.919  69.847  1.00  0.00     2.172 C  
HETATM   22  O   UNL     1     -12.278  16.737  67.818  1.00  0.00     1.078 OA 
ENDROOT
BRANCH   4  23
HETATM   23  C   UNL     1      -8.938   9.070  70.589  1.00  0.00    -0.263 C  
HETATM   24  C   UNL     1      -9.001   8.072  69.907  1.00  0.00    -0.145 C  
ENDBRANCH   4  23
TORSDOF 1
ENDMDL
MODEL      142
REMARK 921   NORMALIZED FREE ENERGY PREDICTED BY IDOCK:   71.28 KCAL/MOL
REMARK 922        TOTAL FREE ENERGY PREDICTED BY IDOCK:   75.43 KCAL/MOL
REMARK 923 INTER-LIGAND FREE ENERGY PREDICTED BY IDOCK:   75.44 KCAL/MOL
REMARK 924 INTRA-LIGAND FREE ENERGY PREDICTED BY IDOCK:   -0.01 KCAL/MOL
REMARK 927      BINDING AFFINITY PREDICTED BY RF-SCORE:    0.00 PKD
ROOT
HETATM    1  C   UNL     1      -6.203  17.118  68.620  1.00  0.00    -0.159 C  
HETATM    2  C   UNL     1      -5.955  16.299  67.499  1.00  0.00    -0.188 C  
HETATM    3  C   UNL     1      -7.385  16.524  67.822  1.00  0.00    -0.154 C  
HETATM    4  C   UNL     1      -7.741  17.954  69.254  1.00  0.00     0.109 C  
HETATM    5  H   UNL     1     -10.229  11.700  74.603  1.00  0.00     0.000 HD 
HETATM    6  O   UNL     1      -8.962  18.570  69.670  1.00  0.00     0.477 OA 
HETATM    7  C   UNL     1      -7.719  18.109  67.898  1.00  0.00    -0.237 C  
HETATM    8  C   UNL     1      -9.853  14.107  71.515  1.00  0.00     5.438 A  
HETATM    9  C   UNL     1      -9.409  17.282  67.907  1.00  0.00    -0.258 C  
HETATM   10  C   UNL     1      -7.517  19.314  67.032  1.00  0.00    -0.238 C  
HETATM   11  H   UNL     1      -9.127  19.231  70.332  1.00  0.00     0.000 HD 
HETATM   12  C   UNL     1      -9.560  16.171  69.269  1.00  0.00    -0.235 C  
HETATM   13  C   UNL     1      -8.262  15.319  69.918  1.00  0.00     0.138 C  
HETATM   14  C   UNL     1      -8.543  14.503  71.185  1.00  0.00     3.921 A  
HETATM   15  C   UNL     1      -7.470  13.958  71.931  1.00  0.00     5.406 A  
HETATM   16  C   UNL     1      -7.739  13.111  73.025  1.00  0.00    11.763 A  
HETATM   17  C   UNL     1      -6.015  14.246  71.624  1.00  0.00    -0.020 C  
HETATM   18  C   UNL     1      -5.739  14.899  70.270  1.00  0.00    -0.138 C  
HETATM   19  C   UNL     1      -9.047  12.765  73.342  1.00  0.00    21.361 A  
HETATM   20  C   UNL     1     -10.103  13.245  72.586  1.00  0.00    13.504 A  
HETATM   21  C   UNL     1      -6.738  16.027  70.020  1.00  0.00     0.083 C  
HETATM   22  O   UNL     1      -9.334  11.937  74.386  1.00  0.00    15.321 OA 
ENDROOT
BRANCH   4  23
HETATM   23  C   UNL     1      -6.762  19.017  69.818  1.00  0.00    -0.101 C  
HETATM   24  C   UNL     1      -6.043  19.881  70.265  1.00  0.00    -0.356 C  
ENDBRANCH   4  23
TORSDOF 1
ENDMDL
MODEL      143
REMARK 921   NORMALIZED FREE ENERGY PREDICTED BY IDOCK:   79.61 KCAL/MOL
REMARK 922        TOTAL FREE ENERGY PREDICTED BY IDOCK:   84.24 KCAL/MOL
REMARK 923 INTER-LIGAND FREE ENERGY PREDICTED BY IDOCK:   84.26 KCAL/MOL
REMARK 924 INTRA-LIGAND FREE ENERGY PREDICTED BY IDOCK:   -0.02 KCAL/MOL
REMARK 927      BINDING AFFINITY PREDICTED BY RF-SCORE:    0.00 PKD
ROOT
HETATM    1  C   UNL     1      -6.756   6.760  67.351  1.00  0.00    -0.067 C  
HETATM    2  C   UNL     1      -6.220   7.984  67.802  1.00  0.00    -0.051 C  
HETATM    3  C   UNL     1      -7.534   7.610  68.380  1.00  0.00    -0.104 C  
HETATM    4  C   UNL     1      -8.159   5.698  67.960  1.00  0.00    -0.097 C  
HETATM    5  H   UNL     1     -14.277   9.011  62.912  1.00  0.00     0.000 HD 
HETATM    6  O   UNL     1      -9.244   4.936  68.496  1.00  0.00    -0.109 OA 
HETATM    7  C   UNL     1      -7.471   6.137  69.055  1.00  0.00    -0.087 C  
HETATM    8  C   UNL     1     -11.939   8.162  65.958  1.00  0.00     8.373 A  
HETATM    9  C   UNL     1      -9.114   6.842  69.642  1.00  0.00    -0.143 C  
HETATM   10  C   UNL     1      -6.606   5.422  70.046  1.00  0.00    -0.046 C  
HETATM   11  H   UNL     1      -9.532   4.052  68.302  1.00  0.00     0.000 HD 
HETATM   12  C   UNL     1     -10.145   7.262  68.273  1.00  0.00    -0.193 C  
HETATM   13  C   UNL     1      -9.548   7.784  66.790  1.00  0.00    -0.274 C  
HETATM   14  C   UNL     1     -10.574   7.976  65.667  1.00  0.00     2.778 A  
HETATM   15  C   UNL     1     -10.139   8.173  64.334  1.00  0.00     4.612 A  
HETATM   16  C   UNL     1     -11.082   8.466  63.328  1.00  0.00    14.017 A  
HETATM   17  C   UNL     1      -8.688   8.078  63.911  1.00  0.00     0.443 C  
HETATM   18  C   UNL     1      -7.665   8.072  65.046  1.00  0.00    -0.112 C  
HETATM   19  C   UNL     1     -12.427   8.614  63.645  1.00  0.00    21.746 A  
HETATM   20  C   UNL     1     -12.858   8.479  64.954  1.00  0.00    21.360 A  
HETATM   21  C   UNL     1      -8.126   7.136  66.161  1.00  0.00    -0.121 C  
HETATM   22  O   UNL     1     -13.357   8.910  62.694  1.00  0.00    12.459 OA 
ENDROOT
BRANCH   4  23
HETATM   23  C   UNL     1      -7.331   4.519  67.386  1.00  0.00    -0.073 C  
HETATM   24  C   UNL     1      -6.735   3.571  66.926  1.00  0.00    -0.049 C  
ENDBRANCH   4  23
TORSDOF 1
ENDMDL
