MODEL        1
REMARK 921   NORMALIZED FREE ENERGY PREDICTED BY IDOCK:   -4.66 KCAL/MOL
REMARK 922        TOTAL FREE ENERGY PREDICTED BY IDOCK:   -5.32 KCAL/MOL
REMARK 923 INTER-LIGAND FREE ENERGY PREDICTED BY IDOCK:   -5.20 KCAL/MOL
REMARK 924 INTRA-LIGAND FREE ENERGY PREDICTED BY IDOCK:   -0.11 KCAL/MOL
REMARK 927      BINDING AFFINITY PREDICTED BY RF-SCORE:    0.00 PKD
ROOT
HETATM    1  C   UNL     1     -13.315  15.365  71.516  1.00  0.00    -0.586 C  
HETATM    2  C   UNL     1     -13.788  14.064  72.147  1.00  0.00    -0.627 C  
ENDROOT
BRANCH   2   3
HETATM    3  C   UNL     1     -13.090  12.880  71.530  1.00  0.00    -0.298 A  
HETATM    4  N   UNL     1     -12.345  13.118  70.427  1.00  0.00    -0.312 NA 
HETATM    5  C   UNL     1     -11.775  12.058  69.816  1.00  0.00    -0.319 A  
HETATM    6  C   UNL     1     -11.907  10.756  70.258  1.00  0.00    -0.438 A  
HETATM    7  C   UNL     1     -12.673  10.519  71.399  1.00  0.00    -0.547 A  
HETATM    8  C   UNL     1     -13.275  11.602  72.047  1.00  0.00    -0.443 A  
BRANCH   7   9
HETATM    9  C   UNL     1     -12.882   9.136  71.911  1.00  0.00    -0.393 C  
HETATM   10  N   UNL     1     -13.805   8.980  72.916  1.00  0.00    -0.923 N  
HETATM   11  S   UNL     1     -12.090   7.770  71.362  1.00  0.00    -0.316 S  
HETATM   12  H1  UNL     1     -13.948   8.033  73.266  1.00  0.00     0.000 HD 
HETATM   13  H2  UNL     1     -14.323   9.774  73.294  1.00  0.00     0.000 HD 
ENDBRANCH   7   9
ENDBRANCH   2   3
TORSDOF 2
ENDMDL
MODEL        2
REMARK 921   NORMALIZED FREE ENERGY PREDICTED BY IDOCK:   -4.53 KCAL/MOL
REMARK 922        TOTAL FREE ENERGY PREDICTED BY IDOCK:   -5.17 KCAL/MOL
REMARK 923 INTER-LIGAND FREE ENERGY PREDICTED BY IDOCK:   -5.07 KCAL/MOL
REMARK 924 INTRA-LIGAND FREE ENERGY PREDICTED BY IDOCK:   -0.11 KCAL/MOL
REMARK 927      BINDING AFFINITY PREDICTED BY RF-SCORE:    0.00 PKD
ROOT
HETATM    1  C   UNL     1     -12.624  15.986  73.589  1.00  0.00    -0.706 C  
HETATM    2  C   UNL     1     -13.694  15.549  72.600  1.00  0.00    -0.667 C  
ENDROOT
BRANCH   2   3
HETATM    3  C   UNL     1     -13.297  14.273  71.905  1.00  0.00    -0.388 A  
HETATM    4  N   UNL     1     -13.630  13.115  72.518  1.00  0.00    -0.625 NA 
HETATM    5  C   UNL     1     -13.217  11.964  71.949  1.00  0.00    -0.362 A  
HETATM    6  C   UNL     1     -12.481  11.906  70.780  1.00  0.00    -0.384 A  
HETATM    7  C   UNL     1     -12.146  13.105  70.151  1.00  0.00    -0.392 A  
HETATM    8  C   UNL     1     -12.562  14.311  70.724  1.00  0.00    -0.427 A  
BRANCH   7   9
HETATM    9  C   UNL     1     -11.329  13.117  68.906  1.00  0.00    -0.289 C  
HETATM   10  N   UNL     1     -10.195  12.345  68.900  1.00  0.00    -0.423 N  
HETATM   11  S   UNL     1     -11.685  13.988  67.524  1.00  0.00    -0.406 S  
HETATM   12  H1  UNL     1      -9.636  12.354  68.047  1.00  0.00     0.000 HD 
HETATM   13  H2  UNL     1      -9.923  11.788  69.711  1.00  0.00     0.000 HD 
ENDBRANCH   7   9
ENDBRANCH   2   3
TORSDOF 2
ENDMDL
MODEL        3
REMARK 921   NORMALIZED FREE ENERGY PREDICTED BY IDOCK:   -4.48 KCAL/MOL
REMARK 922        TOTAL FREE ENERGY PREDICTED BY IDOCK:   -5.12 KCAL/MOL
REMARK 923 INTER-LIGAND FREE ENERGY PREDICTED BY IDOCK:   -5.01 KCAL/MOL
REMARK 924 INTRA-LIGAND FREE ENERGY PREDICTED BY IDOCK:   -0.11 KCAL/MOL
REMARK 927      BINDING AFFINITY PREDICTED BY RF-SCORE:    0.00 PKD
ROOT
HETATM    1  C   UNL     1     -12.220   8.558  72.229  1.00  0.00    -0.454 C  
HETATM    2  C   UNL     1     -13.306   9.620  72.320  1.00  0.00    -0.498 C  
ENDROOT
BRANCH   2   3
HETATM    3  C   UNL     1     -12.948  10.829  71.497  1.00  0.00    -0.456 A  
HETATM    4  N   UNL     1     -12.269  10.607  70.349  1.00  0.00    -0.318 NA 
HETATM    5  C   UNL     1     -11.874  11.683  69.637  1.00  0.00    -0.352 A  
HETATM    6  C   UNL     1     -12.128  12.988  70.013  1.00  0.00    -0.367 A  
HETATM    7  C   UNL     1     -12.834  13.209  71.196  1.00  0.00    -0.349 A  
HETATM    8  C   UNL     1     -13.252  12.108  71.951  1.00  0.00    -0.474 A  
BRANCH   7   9
HETATM    9  C   UNL     1     -13.116  14.590  71.676  1.00  0.00    -0.343 C  
HETATM   10  N   UNL     1     -13.622  15.475  70.758  1.00  0.00    -0.847 N  
HETATM   11  S   UNL     1     -12.869  15.142  73.235  1.00  0.00    -0.552 S  
HETATM   12  H1  UNL     1     -13.815  16.421  71.087  1.00  0.00     0.000 HD 
HETATM   13  H2  UNL     1     -13.797  15.200  69.791  1.00  0.00     0.000 HD 
ENDBRANCH   7   9
ENDBRANCH   2   3
TORSDOF 2
ENDMDL
MODEL        4
REMARK 921   NORMALIZED FREE ENERGY PREDICTED BY IDOCK:   -4.41 KCAL/MOL
REMARK 922        TOTAL FREE ENERGY PREDICTED BY IDOCK:   -5.04 KCAL/MOL
REMARK 923 INTER-LIGAND FREE ENERGY PREDICTED BY IDOCK:   -4.93 KCAL/MOL
REMARK 924 INTRA-LIGAND FREE ENERGY PREDICTED BY IDOCK:   -0.11 KCAL/MOL
REMARK 927      BINDING AFFINITY PREDICTED BY RF-SCORE:    0.00 PKD
ROOT
HETATM    1  C   UNL     1     -11.845  11.598  70.255  1.00  0.00    -0.414 C  
HETATM    2  C   UNL     1     -11.605  11.119  68.831  1.00  0.00    -0.385 C  
ENDROOT
BRANCH   2   3
HETATM    3  C   UNL     1     -11.591  12.277  67.868  1.00  0.00    -0.354 A  
HETATM    4  N   UNL     1     -11.797  13.507  68.390  1.00  0.00    -0.360 NA 
HETATM    5  C   UNL     1     -11.863  14.548  67.533  1.00  0.00    -0.374 A  
HETATM    6  C   UNL     1     -11.728  14.424  66.164  1.00  0.00    -0.384 A  
HETATM    7  C   UNL     1     -11.511  13.153  65.633  1.00  0.00    -0.351 A  
HETATM    8  C   UNL     1     -11.441  12.059  66.502  1.00  0.00    -0.413 A  
BRANCH   7   9
HETATM    9  C   UNL     1     -11.388  12.943  64.164  1.00  0.00    -0.393 C  
HETATM   10  N   UNL     1     -12.170  13.731  63.357  1.00  0.00    -1.075 N  
HETATM   11  S   UNL     1     -10.376  11.835  63.426  1.00  0.00    -0.424 S  
HETATM   12  H1  UNL     1     -12.085  13.587  62.351  1.00  0.00     0.000 HD 
HETATM   13  H2  UNL     1     -12.807  14.428  63.745  1.00  0.00     0.000 HD 
ENDBRANCH   7   9
ENDBRANCH   2   3
TORSDOF 2
ENDMDL
MODEL        5
REMARK 921   NORMALIZED FREE ENERGY PREDICTED BY IDOCK:   -4.39 KCAL/MOL
REMARK 922        TOTAL FREE ENERGY PREDICTED BY IDOCK:   -5.02 KCAL/MOL
REMARK 923 INTER-LIGAND FREE ENERGY PREDICTED BY IDOCK:   -4.91 KCAL/MOL
REMARK 924 INTRA-LIGAND FREE ENERGY PREDICTED BY IDOCK:   -0.11 KCAL/MOL
REMARK 927      BINDING AFFINITY PREDICTED BY RF-SCORE:    0.00 PKD
ROOT
HETATM    1  C   UNL     1     -12.573  13.824  65.840  1.00  0.00    -0.494 C  
HETATM    2  C   UNL     1     -11.583  12.813  66.400  1.00  0.00    -0.435 C  
ENDROOT
BRANCH   2   3
HETATM    3  C   UNL     1     -11.743  12.672  67.891  1.00  0.00    -0.358 A  
HETATM    4  N   UNL     1     -11.662  11.420  68.397  1.00  0.00    -0.454 NA 
HETATM    5  C   UNL     1     -11.877  11.265  69.720  1.00  0.00    -0.364 A  
HETATM    6  C   UNL     1     -12.170  12.308  70.578  1.00  0.00    -0.387 A  
HETATM    7  C   UNL     1     -12.248  13.596  70.049  1.00  0.00    -0.395 A  
HETATM    8  C   UNL     1     -12.030  13.781  68.680  1.00  0.00    -0.401 A  
BRANCH   7   9
HETATM    9  C   UNL     1     -12.590  14.762  70.910  1.00  0.00    -0.336 C  
HETATM   10  N   UNL     1     -13.761  15.420  70.628  1.00  0.00    -0.841 N  
HETATM   11  S   UNL     1     -11.669  15.325  72.187  1.00  0.00    -0.443 S  
HETATM   12  H1  UNL     1     -13.995  16.218  71.218  1.00  0.00     0.000 HD 
HETATM   13  H2  UNL     1     -14.369  15.125  69.863  1.00  0.00     0.000 HD 
ENDBRANCH   7   9
ENDBRANCH   2   3
TORSDOF 2
ENDMDL
MODEL        6
REMARK 921   NORMALIZED FREE ENERGY PREDICTED BY IDOCK:   -4.38 KCAL/MOL
REMARK 922        TOTAL FREE ENERGY PREDICTED BY IDOCK:   -5.01 KCAL/MOL
REMARK 923 INTER-LIGAND FREE ENERGY PREDICTED BY IDOCK:   -4.90 KCAL/MOL
REMARK 924 INTRA-LIGAND FREE ENERGY PREDICTED BY IDOCK:   -0.11 KCAL/MOL
REMARK 927      BINDING AFFINITY PREDICTED BY RF-SCORE:    0.00 PKD
ROOT
HETATM    1  C   UNL     1     -12.034  10.182  71.411  1.00  0.00    -0.447 C  
HETATM    2  C   UNL     1     -13.279  10.878  71.942  1.00  0.00    -0.508 C  
ENDROOT
BRANCH   2   3
HETATM    3  C   UNL     1     -13.197  12.367  71.725  1.00  0.00    -0.334 A  
HETATM    4  N   UNL     1     -13.990  13.141  72.500  1.00  0.00    -0.677 NA 
HETATM    5  C   UNL     1     -13.987  14.470  72.268  1.00  0.00    -0.502 A  
HETATM    6  C   UNL     1     -13.220  15.077  71.292  1.00  0.00    -0.502 A  
HETATM    7  C   UNL     1     -12.402  14.272  70.499  1.00  0.00    -0.430 A  
HETATM    8  C   UNL     1     -12.390  12.891  70.721  1.00  0.00    -0.385 A  
BRANCH   7   9
HETATM    9  C   UNL     1     -11.573  14.856  69.409  1.00  0.00    -0.309 C  
HETATM   10  N   UNL     1     -11.951  14.570  68.120  1.00  0.00    -0.515 N  
HETATM   11  S   UNL     1     -10.231  15.830  69.628  1.00  0.00    -0.289 S  
HETATM   12  H1  UNL     1     -11.383  14.970  67.374  1.00  0.00     0.000 HD 
HETATM   13  H2  UNL     1     -12.762  13.983  67.919  1.00  0.00     0.000 HD 
ENDBRANCH   7   9
ENDBRANCH   2   3
TORSDOF 2
ENDMDL
MODEL        7
REMARK 921   NORMALIZED FREE ENERGY PREDICTED BY IDOCK:   -4.34 KCAL/MOL
REMARK 922        TOTAL FREE ENERGY PREDICTED BY IDOCK:   -4.97 KCAL/MOL
REMARK 923 INTER-LIGAND FREE ENERGY PREDICTED BY IDOCK:   -4.86 KCAL/MOL
REMARK 924 INTRA-LIGAND FREE ENERGY PREDICTED BY IDOCK:   -0.11 KCAL/MOL
REMARK 927      BINDING AFFINITY PREDICTED BY RF-SCORE:    0.00 PKD
ROOT
HETATM    1  C   UNL     1     -11.592  12.094  67.277  1.00  0.00    -0.404 C  
HETATM    2  C   UNL     1     -11.464  11.059  68.385  1.00  0.00    -0.378 C  
ENDROOT
BRANCH   2   3
HETATM    3  C   UNL     1     -12.036  11.580  69.677  1.00  0.00    -0.339 A  
HETATM    4  N   UNL     1     -12.544  10.664  70.533  1.00  0.00    -0.350 NA 
HETATM    5  C   UNL     1     -13.128  11.118  71.661  1.00  0.00    -0.424 A  
HETATM    6  C   UNL     1     -13.230  12.457  71.988  1.00  0.00    -0.514 A  
HETATM    7  C   UNL     1     -12.699  13.395  71.103  1.00  0.00    -0.411 A  
HETATM    8  C   UNL     1     -12.090  12.948  69.926  1.00  0.00    -0.335 A  
BRANCH   7   9
HETATM    9  C   UNL     1     -12.801  14.855  71.378  1.00  0.00    -0.341 C  
HETATM   10  N   UNL     1     -13.768  15.549  70.695  1.00  0.00    -0.846 N  
HETATM   11  S   UNL     1     -11.840  15.708  72.448  1.00  0.00    -0.513 S  
HETATM   12  H1  UNL     1     -13.837  16.549  70.883  1.00  0.00     0.000 HD 
HETATM   13  H2  UNL     1     -14.388  15.087  70.029  1.00  0.00     0.000 HD 
ENDBRANCH   7   9
ENDBRANCH   2   3
TORSDOF 2
ENDMDL
MODEL        8
REMARK 921   NORMALIZED FREE ENERGY PREDICTED BY IDOCK:   -4.34 KCAL/MOL
REMARK 922        TOTAL FREE ENERGY PREDICTED BY IDOCK:   -4.96 KCAL/MOL
REMARK 923 INTER-LIGAND FREE ENERGY PREDICTED BY IDOCK:   -4.85 KCAL/MOL
REMARK 924 INTRA-LIGAND FREE ENERGY PREDICTED BY IDOCK:   -0.10 KCAL/MOL
REMARK 927      BINDING AFFINITY PREDICTED BY RF-SCORE:    0.00 PKD
ROOT
HETATM    1  C   UNL     1     -12.656   9.989  71.641  1.00  0.00    -0.524 C  
HETATM    2  C   UNL     1     -11.681  10.275  70.508  1.00  0.00    -0.418 C  
ENDROOT
BRANCH   2   3
HETATM    3  C   UNL     1     -11.908  11.650  69.936  1.00  0.00    -0.358 A  
HETATM    4  N   UNL     1     -11.597  11.827  68.632  1.00  0.00    -0.283 NA 
HETATM    5  C   UNL     1     -11.723  13.070  68.122  1.00  0.00    -0.351 A  
HETATM    6  C   UNL     1     -12.152  14.161  68.854  1.00  0.00    -0.339 A  
HETATM    7  C   UNL     1     -12.475  13.969  70.197  1.00  0.00    -0.380 A  
HETATM    8  C   UNL     1     -12.352  12.689  70.748  1.00  0.00    -0.372 A  
BRANCH   7   9
HETATM    9  C   UNL     1     -12.915  15.106  71.052  1.00  0.00    -0.431 C  
HETATM   10  N   UNL     1     -14.248  15.431  71.016  1.00  0.00    -0.846 N  
HETATM   11  S   UNL     1     -11.921  16.009  72.048  1.00  0.00    -0.550 S  
HETATM   12  H1  UNL     1     -14.549  16.210  71.601  1.00  0.00     0.000 HD 
HETATM   13  H2  UNL     1     -14.908  14.917  70.430  1.00  0.00     0.000 HD 
ENDBRANCH   7   9
ENDBRANCH   2   3
TORSDOF 2
ENDMDL
MODEL        9
REMARK 921   NORMALIZED FREE ENERGY PREDICTED BY IDOCK:   -4.32 KCAL/MOL
REMARK 922        TOTAL FREE ENERGY PREDICTED BY IDOCK:   -4.94 KCAL/MOL
REMARK 923 INTER-LIGAND FREE ENERGY PREDICTED BY IDOCK:   -4.84 KCAL/MOL
REMARK 924 INTRA-LIGAND FREE ENERGY PREDICTED BY IDOCK:   -0.11 KCAL/MOL
REMARK 927      BINDING AFFINITY PREDICTED BY RF-SCORE:    0.00 PKD
ROOT
HETATM    1  C   UNL     1     -12.051  12.036  63.819  1.00  0.00    -0.599 C  
HETATM    2  C   UNL     1     -12.095  13.356  64.573  1.00  0.00    -0.457 C  
ENDROOT
BRANCH   2   3
HETATM    3  C   UNL     1     -11.912  13.138  66.052  1.00  0.00    -0.433 A  
HETATM    4  N   UNL     1     -11.786  11.859  66.470  1.00  0.00    -0.570 NA 
HETATM    5  C   UNL     1     -11.696  11.639  67.798  1.00  0.00    -0.245 A  
HETATM    6  C   UNL     1     -11.722  12.644  68.745  1.00  0.00    -0.364 A  
HETATM    7  C   UNL     1     -11.848  13.963  68.307  1.00  0.00    -0.412 A  
HETATM    8  C   UNL     1     -11.943  14.214  66.934  1.00  0.00    -0.479 A  
BRANCH   7   9
HETATM    9  C   UNL     1     -11.913  15.092  69.275  1.00  0.00    -0.292 C  
HETATM   10  N   UNL     1     -12.976  15.106  70.143  1.00  0.00    -0.644 N  
HETATM   11  S   UNL     1     -10.799  16.334  69.391  1.00  0.00    -0.343 S  
HETATM   12  H1  UNL     1     -13.021  15.880  70.806  1.00  0.00     0.000 HD 
HETATM   13  H2  UNL     1     -13.690  14.376  70.125  1.00  0.00     0.000 HD 
ENDBRANCH   7   9
ENDBRANCH   2   3
TORSDOF 2
ENDMDL
MODEL       10
REMARK 921   NORMALIZED FREE ENERGY PREDICTED BY IDOCK:   -4.31 KCAL/MOL
REMARK 922        TOTAL FREE ENERGY PREDICTED BY IDOCK:   -4.93 KCAL/MOL
REMARK 923 INTER-LIGAND FREE ENERGY PREDICTED BY IDOCK:   -4.82 KCAL/MOL
REMARK 924 INTRA-LIGAND FREE ENERGY PREDICTED BY IDOCK:   -0.11 KCAL/MOL
REMARK 927      BINDING AFFINITY PREDICTED BY RF-SCORE:    0.00 PKD
ROOT
HETATM    1  C   UNL     1     -12.072  14.412  70.261  1.00  0.00    -0.396 C  
HETATM    2  C   UNL     1     -12.025  13.373  69.150  1.00  0.00    -0.363 C  
ENDROOT
BRANCH   2   3
HETATM    3  C   UNL     1     -11.538  13.983  67.862  1.00  0.00    -0.343 A  
HETATM    4  N   UNL     1     -10.949  15.197  67.946  1.00  0.00    -0.292 NA 
HETATM    5  C   UNL     1     -10.575  15.793  66.794  1.00  0.00    -0.309 A  
HETATM    6  C   UNL     1     -10.757  15.231  65.545  1.00  0.00    -0.385 A  
HETATM    7  C   UNL     1     -11.362  13.977  65.467  1.00  0.00    -0.313 A  
HETATM    8  C   UNL     1     -11.759  13.341  66.648  1.00  0.00    -0.425 A  
BRANCH   7   9
HETATM    9  C   UNL     1     -11.616  13.327  64.151  1.00  0.00    -0.405 C  
HETATM   10  N   UNL     1     -12.406  14.013  63.263  1.00  0.00    -1.145 N  
HETATM   11  S   UNL     1     -11.017  11.841  63.674  1.00  0.00    -0.447 S  
HETATM   12  H1  UNL     1     -12.580  13.567  62.362  1.00  0.00     0.000 HD 
HETATM   13  H2  UNL     1     -12.801  14.925  63.493  1.00  0.00     0.000 HD 
ENDBRANCH   7   9
ENDBRANCH   2   3
TORSDOF 2
ENDMDL
MODEL       11
REMARK 921   NORMALIZED FREE ENERGY PREDICTED BY IDOCK:   -4.30 KCAL/MOL
REMARK 922        TOTAL FREE ENERGY PREDICTED BY IDOCK:   -4.92 KCAL/MOL
REMARK 923 INTER-LIGAND FREE ENERGY PREDICTED BY IDOCK:   -4.80 KCAL/MOL
REMARK 924 INTRA-LIGAND FREE ENERGY PREDICTED BY IDOCK:   -0.11 KCAL/MOL
REMARK 927      BINDING AFFINITY PREDICTED BY RF-SCORE:    0.00 PKD
ROOT
HETATM    1  C   UNL     1     -11.681  14.846  67.971  1.00  0.00    -0.344 C  
HETATM    2  C   UNL     1     -11.739  15.493  69.347  1.00  0.00    -0.382 C  
ENDROOT
BRANCH   2   3
HETATM    3  C   UNL     1     -12.475  14.614  70.325  1.00  0.00    -0.346 A  
HETATM    4  N   UNL     1     -13.306  15.231  71.195  1.00  0.00    -0.482 NA 
HETATM    5  C   UNL     1     -13.915  14.469  72.127  1.00  0.00    -0.501 A  
HETATM    6  C   UNL     1     -13.739  13.103  72.235  1.00  0.00    -0.647 A  
HETATM    7  C   UNL     1     -12.884  12.473  71.331  1.00  0.00    -0.359 A  
HETATM    8  C   UNL     1     -12.240  13.243  70.357  1.00  0.00    -0.404 A  
BRANCH   7   9
HETATM    9  C   UNL     1     -12.625  11.008  71.411  1.00  0.00    -0.393 C  
HETATM   10  N   UNL     1     -13.451  10.275  72.225  1.00  0.00    -0.575 N  
HETATM   11  S   UNL     1     -11.418  10.193  70.589  1.00  0.00    -0.368 S  
HETATM   12  H1  UNL     1     -13.273   9.272  72.279  1.00  0.00     0.000 HD 
HETATM   13  H2  UNL     1     -14.208  10.713  72.752  1.00  0.00     0.000 HD 
ENDBRANCH   7   9
ENDBRANCH   2   3
TORSDOF 2
ENDMDL
MODEL       12
REMARK 921   NORMALIZED FREE ENERGY PREDICTED BY IDOCK:   -4.30 KCAL/MOL
REMARK 922        TOTAL FREE ENERGY PREDICTED BY IDOCK:   -4.91 KCAL/MOL
REMARK 923 INTER-LIGAND FREE ENERGY PREDICTED BY IDOCK:   -4.81 KCAL/MOL
REMARK 924 INTRA-LIGAND FREE ENERGY PREDICTED BY IDOCK:   -0.10 KCAL/MOL
REMARK 927      BINDING AFFINITY PREDICTED BY RF-SCORE:    0.00 PKD
ROOT
HETATM    1  C   UNL     1     -12.785  15.949  73.771  1.00  0.00    -0.729 C  
HETATM    2  C   UNL     1     -13.702  15.649  72.594  1.00  0.00    -0.666 C  
ENDROOT
BRANCH   2   3
HETATM    3  C   UNL     1     -12.954  14.941  71.494  1.00  0.00    -0.342 A  
HETATM    4  N   UNL     1     -12.453  15.712  70.503  1.00  0.00    -0.419 NA 
HETATM    5  C   UNL     1     -11.846  15.089  69.471  1.00  0.00    -0.330 A  
HETATM    6  C   UNL     1     -11.707  13.717  69.378  1.00  0.00    -0.379 A  
HETATM    7  C   UNL     1     -12.222  12.929  70.407  1.00  0.00    -0.381 A  
HETATM    8  C   UNL     1     -12.857  13.554  71.486  1.00  0.00    -0.440 A  
BRANCH   7   9
HETATM    9  C   UNL     1     -12.134  11.443  70.355  1.00  0.00    -0.384 C  
HETATM   10  N   UNL     1     -11.378  10.901  69.346  1.00  0.00    -0.254 N  
HETATM   11  S   UNL     1     -12.875  10.392  71.424  1.00  0.00    -0.486 S  
HETATM   12  H1  UNL     1     -11.318   9.883  69.311  1.00  0.00     0.000 HD 
HETATM   13  H2  UNL     1     -10.899  11.488  68.663  1.00  0.00     0.000 HD 
ENDBRANCH   7   9
ENDBRANCH   2   3
TORSDOF 2
ENDMDL
MODEL       13
REMARK 921   NORMALIZED FREE ENERGY PREDICTED BY IDOCK:   -4.26 KCAL/MOL
REMARK 922        TOTAL FREE ENERGY PREDICTED BY IDOCK:   -4.87 KCAL/MOL
REMARK 923 INTER-LIGAND FREE ENERGY PREDICTED BY IDOCK:   -4.76 KCAL/MOL
REMARK 924 INTRA-LIGAND FREE ENERGY PREDICTED BY IDOCK:   -0.11 KCAL/MOL
REMARK 927      BINDING AFFINITY PREDICTED BY RF-SCORE:    0.00 PKD
ROOT
HETATM    1  C   UNL     1     -10.310  17.291  66.760  1.00  0.00    -0.308 C  
HETATM    2  C   UNL     1      -9.712  16.224  65.854  1.00  0.00    -0.354 C  
ENDROOT
BRANCH   2   3
HETATM    3  C   UNL     1     -10.611  15.018  65.776  1.00  0.00    -0.339 A  
HETATM    4  N   UNL     1     -11.476  14.834  66.799  1.00  0.00    -0.353 NA 
HETATM    5  C   UNL     1     -12.236  13.719  66.784  1.00  0.00    -0.397 A  
HETATM    6  C   UNL     1     -12.181  12.767  65.784  1.00  0.00    -0.469 A  
HETATM    7  C   UNL     1     -11.290  12.966  64.730  1.00  0.00    -0.349 A  
HETATM    8  C   UNL     1     -10.490  14.114  64.726  1.00  0.00    -0.432 A  
BRANCH   7   9
HETATM    9  C   UNL     1     -11.157  11.964  63.636  1.00  0.00    -0.440 C  
HETATM   10  N   UNL     1     -12.316  11.555  63.025  1.00  0.00    -0.935 N  
HETATM   11  S   UNL     1      -9.718  11.308  63.094  1.00  0.00    -0.384 S  
HETATM   12  H1  UNL     1     -12.225  10.869  62.276  1.00  0.00     0.000 HD 
HETATM   13  H2  UNL     1     -13.227  11.920  63.308  1.00  0.00     0.000 HD 
ENDBRANCH   7   9
ENDBRANCH   2   3
TORSDOF 2
ENDMDL
MODEL       14
REMARK 921   NORMALIZED FREE ENERGY PREDICTED BY IDOCK:   -4.25 KCAL/MOL
REMARK 922        TOTAL FREE ENERGY PREDICTED BY IDOCK:   -4.86 KCAL/MOL
REMARK 923 INTER-LIGAND FREE ENERGY PREDICTED BY IDOCK:   -4.76 KCAL/MOL
REMARK 924 INTRA-LIGAND FREE ENERGY PREDICTED BY IDOCK:   -0.10 KCAL/MOL
REMARK 927      BINDING AFFINITY PREDICTED BY RF-SCORE:    0.00 PKD
ROOT
HETATM    1  C   UNL     1      -9.945  17.388  68.675  1.00  0.00    -0.340 C  
HETATM    2  C   UNL     1     -10.173  17.158  67.188  1.00  0.00    -0.316 C  
ENDROOT
BRANCH   2   3
HETATM    3  C   UNL     1     -10.860  15.840  66.945  1.00  0.00    -0.265 A  
HETATM    4  N   UNL     1     -11.346  15.196  68.031  1.00  0.00    -0.326 NA 
HETATM    5  C   UNL     1     -11.898  13.979  67.842  1.00  0.00    -0.376 A  
HETATM    6  C   UNL     1     -11.995  13.364  66.608  1.00  0.00    -0.452 A  
HETATM    7  C   UNL     1     -11.496  14.036  65.493  1.00  0.00    -0.318 A  
HETATM    8  C   UNL     1     -10.918  15.298  65.665  1.00  0.00    -0.348 A  
BRANCH   7   9
HETATM    9  C   UNL     1     -11.540  13.418  64.139  1.00  0.00    -0.398 C  
HETATM   10  N   UNL     1     -12.405  13.975  63.231  1.00  0.00    -1.145 N  
HETATM   11  S   UNL     1     -10.623  12.112  63.640  1.00  0.00    -0.471 S  
HETATM   12  H1  UNL     1     -12.436  13.552  62.303  1.00  0.00     0.000 HD 
HETATM   13  H2  UNL     1     -12.991  14.776  63.472  1.00  0.00     0.000 HD 
ENDBRANCH   7   9
ENDBRANCH   2   3
TORSDOF 2
ENDMDL
MODEL       15
REMARK 921   NORMALIZED FREE ENERGY PREDICTED BY IDOCK:   -4.15 KCAL/MOL
REMARK 922        TOTAL FREE ENERGY PREDICTED BY IDOCK:   -4.75 KCAL/MOL
REMARK 923 INTER-LIGAND FREE ENERGY PREDICTED BY IDOCK:   -4.64 KCAL/MOL
REMARK 924 INTRA-LIGAND FREE ENERGY PREDICTED BY IDOCK:   -0.11 KCAL/MOL
REMARK 927      BINDING AFFINITY PREDICTED BY RF-SCORE:    0.00 PKD
ROOT
HETATM    1  C   UNL     1     -11.457  11.805  63.587  1.00  0.00    -0.524 C  
HETATM    2  C   UNL     1     -12.123  13.174  63.577  1.00  0.00    -0.585 C  
ENDROOT
BRANCH   2   3
HETATM    3  C   UNL     1     -11.774  13.953  64.818  1.00  0.00    -0.386 A  
HETATM    4  N   UNL     1     -11.068  15.093  64.644  1.00  0.00    -0.358 NA 
HETATM    5  C   UNL     1     -10.682  15.764  65.749  1.00  0.00    -0.327 A  
HETATM    6  C   UNL     1     -10.970  15.354  67.036  1.00  0.00    -0.306 A  
HETATM    7  C   UNL     1     -11.702  14.179  67.207  1.00  0.00    -0.421 A  
HETATM    8  C   UNL     1     -12.112  13.466  66.076  1.00  0.00    -0.487 A  
BRANCH   7   9
HETATM    9  C   UNL     1     -12.022  13.663  68.567  1.00  0.00    -0.361 C  
HETATM   10  N   UNL     1     -12.659  14.525  69.424  1.00  0.00    -0.557 N  
HETATM   11  S   UNL     1     -11.671  12.127  69.126  1.00  0.00    -0.326 S  
HETATM   12  H1  UNL     1     -12.878  14.171  70.355  1.00  0.00     0.000 HD 
HETATM   13  H2  UNL     1     -12.903  15.475  69.143  1.00  0.00     0.000 HD 
ENDBRANCH   7   9
ENDBRANCH   2   3
TORSDOF 2
ENDMDL
MODEL       16
REMARK 921   NORMALIZED FREE ENERGY PREDICTED BY IDOCK:   -4.13 KCAL/MOL
REMARK 922        TOTAL FREE ENERGY PREDICTED BY IDOCK:   -4.73 KCAL/MOL
REMARK 923 INTER-LIGAND FREE ENERGY PREDICTED BY IDOCK:   -4.61 KCAL/MOL
REMARK 924 INTRA-LIGAND FREE ENERGY PREDICTED BY IDOCK:   -0.12 KCAL/MOL
REMARK 927      BINDING AFFINITY PREDICTED BY RF-SCORE:    0.00 PKD
ROOT
HETATM    1  C   UNL     1     -11.692  15.145  70.522  1.00  0.00    -0.344 C  
HETATM    2  C   UNL     1     -11.873  15.595  69.080  1.00  0.00    -0.379 C  
ENDROOT
BRANCH   2   3
HETATM    3  C   UNL     1     -11.873  14.416  68.143  1.00  0.00    -0.327 A  
HETATM    4  N   UNL     1     -11.646  13.201  68.691  1.00  0.00    -0.298 NA 
HETATM    5  C   UNL     1     -11.568  12.142  67.857  1.00  0.00    -0.347 A  
HETATM    6  C   UNL     1     -11.710  12.234  66.486  1.00  0.00    -0.420 A  
HETATM    7  C   UNL     1     -11.949  13.490  65.929  1.00  0.00    -0.444 A  
HETATM    8  C   UNL     1     -12.033  14.601  66.773  1.00  0.00    -0.297 A  
BRANCH   7   9
HETATM    9  C   UNL     1     -12.082  13.664  64.456  1.00  0.00    -0.419 C  
HETATM   10  N   UNL     1     -12.097  14.953  63.982  1.00  0.00    -0.895 N  
HETATM   11  S   UNL     1     -12.210  12.424  63.342  1.00  0.00    -0.441 S  
HETATM   12  H1  UNL     1     -12.188  15.072  62.973  1.00  0.00     0.000 HD 
HETATM   13  H2  UNL     1     -12.020  15.754  64.610  1.00  0.00     0.000 HD 
ENDBRANCH   7   9
ENDBRANCH   2   3
TORSDOF 2
ENDMDL
MODEL       17
REMARK 921   NORMALIZED FREE ENERGY PREDICTED BY IDOCK:   -4.12 KCAL/MOL
REMARK 922        TOTAL FREE ENERGY PREDICTED BY IDOCK:   -4.72 KCAL/MOL
REMARK 923 INTER-LIGAND FREE ENERGY PREDICTED BY IDOCK:   -4.60 KCAL/MOL
REMARK 924 INTRA-LIGAND FREE ENERGY PREDICTED BY IDOCK:   -0.12 KCAL/MOL
REMARK 927      BINDING AFFINITY PREDICTED BY RF-SCORE:    0.00 PKD
ROOT
HETATM    1  C   UNL     1     -12.162  11.994  63.526  1.00  0.00    -0.653 C  
HETATM    2  C   UNL     1     -12.020  13.415  64.052  1.00  0.00    -0.520 C  
ENDROOT
BRANCH   2   3
HETATM    3  C   UNL     1     -11.935  13.427  65.556  1.00  0.00    -0.398 A  
HETATM    4  N   UNL     1     -11.870  14.638  66.154  1.00  0.00    -0.323 NA 
HETATM    5  C   UNL     1     -11.718  14.666  67.495  1.00  0.00    -0.379 A  
HETATM    6  C   UNL     1     -11.630  13.534  68.281  1.00  0.00    -0.381 A  
HETATM    7  C   UNL     1     -11.703  12.289  67.658  1.00  0.00    -0.403 A  
HETATM    8  C   UNL     1     -11.859  12.235  66.269  1.00  0.00    -0.387 A  
BRANCH   7   9
HETATM    9  C   UNL     1     -11.585  11.028  68.441  1.00  0.00    -0.302 C  
HETATM   10  N   UNL     1     -11.094   9.930  67.780  1.00  0.00    -0.473 N  
HETATM   11  S   UNL     1     -11.996  10.847  70.052  1.00  0.00    -0.380 S  
HETATM   12  H1  UNL     1     -11.013   9.066  68.318  1.00  0.00     0.000 HD 
HETATM   13  H2  UNL     1     -10.822   9.975  66.797  1.00  0.00     0.000 HD 
ENDBRANCH   7   9
ENDBRANCH   2   3
TORSDOF 2
ENDMDL
MODEL       18
REMARK 921   NORMALIZED FREE ENERGY PREDICTED BY IDOCK:   -4.12 KCAL/MOL
REMARK 922        TOTAL FREE ENERGY PREDICTED BY IDOCK:   -4.71 KCAL/MOL
REMARK 923 INTER-LIGAND FREE ENERGY PREDICTED BY IDOCK:   -4.59 KCAL/MOL
REMARK 924 INTRA-LIGAND FREE ENERGY PREDICTED BY IDOCK:   -0.12 KCAL/MOL
REMARK 927      BINDING AFFINITY PREDICTED BY RF-SCORE:    0.00 PKD
ROOT
HETATM    1  C   UNL     1     -10.399  19.925  67.843  1.00  0.00    -0.545 C  
HETATM    2  C   UNL     1     -10.038  19.263  66.521  1.00  0.00    -0.498 C  
ENDROOT
BRANCH   2   3
HETATM    3  C   UNL     1     -10.316  17.783  66.565  1.00  0.00    -0.345 A  
HETATM    4  N   UNL     1     -10.216  17.109  65.398  1.00  0.00    -0.612 NA 
HETATM    5  C   UNL     1     -10.535  15.797  65.403  1.00  0.00    -0.414 A  
HETATM    6  C   UNL     1     -10.949  15.113  66.530  1.00  0.00    -0.318 A  
HETATM    7  C   UNL     1     -11.045  15.815  67.731  1.00  0.00    -0.313 A  
HETATM    8  C   UNL     1     -10.722  17.176  67.749  1.00  0.00    -0.329 A  
BRANCH   7   9
HETATM    9  C   UNL     1     -11.515  15.147  68.977  1.00  0.00    -0.309 C  
HETATM   10  N   UNL     1     -12.393  14.103  68.828  1.00  0.00    -0.547 N  
HETATM   11  S   UNL     1     -11.058  15.564  70.530  1.00  0.00    -0.362 S  
HETATM   12  H1  UNL     1     -12.715  13.646  69.681  1.00  0.00     0.000 HD 
HETATM   13  H2  UNL     1     -12.710  13.798  67.906  1.00  0.00     0.000 HD 
ENDBRANCH   7   9
ENDBRANCH   2   3
TORSDOF 2
ENDMDL
MODEL       19
REMARK 921   NORMALIZED FREE ENERGY PREDICTED BY IDOCK:   -4.09 KCAL/MOL
REMARK 922        TOTAL FREE ENERGY PREDICTED BY IDOCK:   -4.68 KCAL/MOL
REMARK 923 INTER-LIGAND FREE ENERGY PREDICTED BY IDOCK:   -4.58 KCAL/MOL
REMARK 924 INTRA-LIGAND FREE ENERGY PREDICTED BY IDOCK:   -0.10 KCAL/MOL
REMARK 927      BINDING AFFINITY PREDICTED BY RF-SCORE:    0.00 PKD
ROOT
HETATM    1  C   UNL     1     -12.200   8.739  72.174  1.00  0.00    -0.448 C  
HETATM    2  C   UNL     1     -13.385   9.673  71.973  1.00  0.00    -0.547 C  
ENDROOT
BRANCH   2   3
HETATM    3  C   UNL     1     -12.933  11.015  71.460  1.00  0.00    -0.448 A  
HETATM    4  N   UNL     1     -13.387  12.105  72.119  1.00  0.00    -0.466 NA 
HETATM    5  C   UNL     1     -13.054  13.317  71.629  1.00  0.00    -0.363 A  
HETATM    6  C   UNL     1     -12.277  13.502  70.502  1.00  0.00    -0.433 A  
HETATM    7  C   UNL     1     -11.809  12.373  69.829  1.00  0.00    -0.387 A  
HETATM    8  C   UNL     1     -12.143  11.106  70.319  1.00  0.00    -0.462 A  
BRANCH   7   9
HETATM    9  C   UNL     1     -10.993  12.499  68.590  1.00  0.00    -0.255 C  
HETATM   10  N   UNL     1      -9.649  12.239  68.702  1.00  0.00    -0.390 N  
HETATM   11  S   UNL     1     -11.579  12.926  67.084  1.00  0.00    -0.378 S  
HETATM   12  H1  UNL     1      -9.091  12.326  67.854  1.00  0.00     0.000 HD 
HETATM   13  H2  UNL     1      -9.230  11.971  69.594  1.00  0.00     0.000 HD 
ENDBRANCH   7   9
ENDBRANCH   2   3
TORSDOF 2
ENDMDL
MODEL       20
REMARK 921   NORMALIZED FREE ENERGY PREDICTED BY IDOCK:   -4.08 KCAL/MOL
REMARK 922        TOTAL FREE ENERGY PREDICTED BY IDOCK:   -4.67 KCAL/MOL
REMARK 923 INTER-LIGAND FREE ENERGY PREDICTED BY IDOCK:   -4.56 KCAL/MOL
REMARK 924 INTRA-LIGAND FREE ENERGY PREDICTED BY IDOCK:   -0.12 KCAL/MOL
REMARK 927      BINDING AFFINITY PREDICTED BY RF-SCORE:    0.00 PKD
ROOT
HETATM    1  C   UNL     1      -9.596  20.697  67.324  1.00  0.00    -0.558 C  
HETATM    2  C   UNL     1     -10.379  19.902  66.289  1.00  0.00    -0.608 C  
ENDROOT
BRANCH   2   3
HETATM    3  C   UNL     1     -10.195  18.421  66.494  1.00  0.00    -0.401 A  
HETATM    4  N   UNL     1      -9.388  18.042  67.511  1.00  0.00    -0.256 NA 
HETATM    5  C   UNL     1      -9.151  16.722  67.663  1.00  0.00    -0.218 A  
HETATM    6  C   UNL     1      -9.687  15.747  66.844  1.00  0.00    -0.240 A  
HETATM    7  C   UNL     1     -10.522  16.146  65.801  1.00  0.00    -0.384 A  
HETATM    8  C   UNL     1     -10.781  17.509  65.623  1.00  0.00    -0.089 A  
BRANCH   7   9
HETATM    9  C   UNL     1     -11.110  15.150  64.862  1.00  0.00    -0.414 C  
HETATM   10  N   UNL     1     -11.999  15.624  63.931  1.00  0.00    -0.987 N  
HETATM   11  S   UNL     1     -10.770  13.513  64.852  1.00  0.00    -0.403 S  
HETATM   12  H1  UNL     1     -12.401  14.941  63.288  1.00  0.00     0.000 HD 
HETATM   13  H2  UNL     1     -12.247  16.613  63.883  1.00  0.00     0.000 HD 
ENDBRANCH   7   9
ENDBRANCH   2   3
TORSDOF 2
ENDMDL
MODEL       21
REMARK 921   NORMALIZED FREE ENERGY PREDICTED BY IDOCK:   -4.08 KCAL/MOL
REMARK 922        TOTAL FREE ENERGY PREDICTED BY IDOCK:   -4.67 KCAL/MOL
REMARK 923 INTER-LIGAND FREE ENERGY PREDICTED BY IDOCK:   -4.56 KCAL/MOL
REMARK 924 INTRA-LIGAND FREE ENERGY PREDICTED BY IDOCK:   -0.11 KCAL/MOL
REMARK 927      BINDING AFFINITY PREDICTED BY RF-SCORE:    0.00 PKD
ROOT
HETATM    1  C   UNL     1     -11.542  12.663  67.578  1.00  0.00    -0.418 C  
HETATM    2  C   UNL     1     -11.089  13.329  68.869  1.00  0.00    -0.304 C  
ENDROOT
BRANCH   2   3
HETATM    3  C   UNL     1     -11.954  12.905  70.027  1.00  0.00    -0.309 A  
HETATM    4  N   UNL     1     -12.645  13.878  70.661  1.00  0.00    -0.343 NA 
HETATM    5  C   UNL     1     -13.366  13.528  71.747  1.00  0.00    -0.397 A  
HETATM    6  C   UNL     1     -13.437  12.239  72.238  1.00  0.00    -0.365 A  
HETATM    7  C   UNL     1     -12.725  11.239  71.575  1.00  0.00    -0.481 A  
HETATM    8  C   UNL     1     -11.970  11.579  70.448  1.00  0.00    -0.459 A  
BRANCH   7   9
HETATM    9  C   UNL     1     -12.733   9.834  72.068  1.00  0.00    -0.376 C  
HETATM   10  N   UNL     1     -13.814   9.445  72.819  1.00  0.00    -0.751 N  
HETATM   11  S   UNL     1     -11.539   8.700  71.779  1.00  0.00    -0.360 S  
HETATM   12  H1  UNL     1     -13.819   8.483  73.156  1.00  0.00     0.000 HD 
HETATM   13  H2  UNL     1     -14.578  10.090  73.030  1.00  0.00     0.000 HD 
ENDBRANCH   7   9
ENDBRANCH   2   3
TORSDOF 2
ENDMDL
MODEL       22
REMARK 921   NORMALIZED FREE ENERGY PREDICTED BY IDOCK:   -4.08 KCAL/MOL
REMARK 922        TOTAL FREE ENERGY PREDICTED BY IDOCK:   -4.67 KCAL/MOL
REMARK 923 INTER-LIGAND FREE ENERGY PREDICTED BY IDOCK:   -4.55 KCAL/MOL
REMARK 924 INTRA-LIGAND FREE ENERGY PREDICTED BY IDOCK:   -0.11 KCAL/MOL
REMARK 927      BINDING AFFINITY PREDICTED BY RF-SCORE:    0.00 PKD
ROOT
HETATM    1  C   UNL     1      -9.836  19.880  66.132  1.00  0.00    -0.562 C  
HETATM    2  C   UNL     1     -10.177  19.056  67.365  1.00  0.00    -0.473 C  
ENDROOT
BRANCH   2   3
HETATM    3  C   UNL     1     -10.432  17.617  66.999  1.00  0.00    -0.305 A  
HETATM    4  N   UNL     1     -10.255  17.277  65.702  1.00  0.00    -0.613 NA 
HETATM    5  C   UNL     1     -10.551  16.011  65.341  1.00  0.00    -0.408 A  
HETATM    6  C   UNL     1     -11.018  15.052  66.219  1.00  0.00    -0.338 A  
HETATM    7  C   UNL     1     -11.193  15.409  67.556  1.00  0.00    -0.302 A  
HETATM    8  C   UNL     1     -10.893  16.716  67.953  1.00  0.00    -0.321 A  
BRANCH   7   9
HETATM    9  C   UNL     1     -11.721  14.434  68.549  1.00  0.00    -0.335 C  
HETATM   10  N   UNL     1     -12.537  14.931  69.535  1.00  0.00    -0.584 N  
HETATM   11  S   UNL     1     -11.404  12.792  68.557  1.00  0.00    -0.315 S  
HETATM   12  H1  UNL     1     -12.899  14.263  70.215  1.00  0.00     0.000 HD 
HETATM   13  H2  UNL     1     -12.771  15.924  69.584  1.00  0.00     0.000 HD 
ENDBRANCH   7   9
ENDBRANCH   2   3
TORSDOF 2
ENDMDL
MODEL       23
REMARK 921   NORMALIZED FREE ENERGY PREDICTED BY IDOCK:   -4.03 KCAL/MOL
REMARK 922        TOTAL FREE ENERGY PREDICTED BY IDOCK:   -4.62 KCAL/MOL
REMARK 923 INTER-LIGAND FREE ENERGY PREDICTED BY IDOCK:   -4.51 KCAL/MOL
REMARK 924 INTRA-LIGAND FREE ENERGY PREDICTED BY IDOCK:   -0.11 KCAL/MOL
REMARK 927      BINDING AFFINITY PREDICTED BY RF-SCORE:    0.00 PKD
ROOT
HETATM    1  C   UNL     1     -11.598  11.352  68.696  1.00  0.00    -0.384 C  
HETATM    2  C   UNL     1     -10.896  10.428  67.711  1.00  0.00    -0.351 C  
ENDROOT
BRANCH   2   3
HETATM    3  C   UNL     1     -10.817  11.058  66.345  1.00  0.00    -0.191 A  
HETATM    4  N   UNL     1     -10.254  10.318  65.364  1.00  0.00    -0.281 NA 
HETATM    5  C   UNL     1     -10.105  10.893  64.152  1.00  0.00    -0.355 A  
HETATM    6  C   UNL     1     -10.499  12.185  63.863  1.00  0.00    -0.442 A  
HETATM    7  C   UNL     1     -11.084  12.941  64.879  1.00  0.00    -0.326 A  
HETATM    8  C   UNL     1     -11.246  12.366  66.144  1.00  0.00    -0.364 A  
BRANCH   7   9
HETATM    9  C   UNL     1     -11.503  14.351  64.645  1.00  0.00    -0.387 C  
HETATM   10  N   UNL     1     -12.533  14.553  63.761  1.00  0.00    -1.065 N  
HETATM   11  S   UNL     1     -10.826  15.695  65.372  1.00  0.00    -0.367 S  
HETATM   12  H1  UNL     1     -12.820  15.518  63.600  1.00  0.00     0.000 HD 
HETATM   13  H2  UNL     1     -12.991  13.774  63.286  1.00  0.00     0.000 HD 
ENDBRANCH   7   9
ENDBRANCH   2   3
TORSDOF 2
ENDMDL
MODEL       24
REMARK 921   NORMALIZED FREE ENERGY PREDICTED BY IDOCK:   -4.02 KCAL/MOL
REMARK 922        TOTAL FREE ENERGY PREDICTED BY IDOCK:   -4.61 KCAL/MOL
REMARK 923 INTER-LIGAND FREE ENERGY PREDICTED BY IDOCK:   -4.50 KCAL/MOL
REMARK 924 INTRA-LIGAND FREE ENERGY PREDICTED BY IDOCK:   -0.11 KCAL/MOL
REMARK 927      BINDING AFFINITY PREDICTED BY RF-SCORE:    0.00 PKD
ROOT
HETATM    1  C   UNL     1     -12.828  10.942  71.107  1.00  0.00    -0.508 C  
HETATM    2  C   UNL     1     -11.840  10.707  69.974  1.00  0.00    -0.403 C  
ENDROOT
BRANCH   2   3
HETATM    3  C   UNL     1     -11.818  11.878  69.027  1.00  0.00    -0.308 A  
HETATM    4  N   UNL     1     -11.866  13.111  69.580  1.00  0.00    -0.320 NA 
HETATM    5  C   UNL     1     -11.923  14.170  68.746  1.00  0.00    -0.332 A  
HETATM    6  C   UNL     1     -11.931  14.062  67.369  1.00  0.00    -0.439 A  
HETATM    7  C   UNL     1     -11.876  12.788  66.805  1.00  0.00    -0.452 A  
HETATM    8  C   UNL     1     -11.818  11.675  67.651  1.00  0.00    -0.216 A  
BRANCH   7   9
HETATM    9  C   UNL     1     -11.912  12.598  65.329  1.00  0.00    -0.439 C  
HETATM   10  N   UNL     1     -13.024  13.060  64.670  1.00  0.00    -0.730 N  
HETATM   11  S   UNL     1     -10.712  11.874  64.417  1.00  0.00    -0.351 S  
HETATM   12  H1  UNL     1     -13.049  12.929  63.659  1.00  0.00     0.000 HD 
HETATM   13  H2  UNL     1     -13.791  13.513  65.169  1.00  0.00     0.000 HD 
ENDBRANCH   7   9
ENDBRANCH   2   3
TORSDOF 2
ENDMDL
MODEL       25
REMARK 921   NORMALIZED FREE ENERGY PREDICTED BY IDOCK:   -4.01 KCAL/MOL
REMARK 922        TOTAL FREE ENERGY PREDICTED BY IDOCK:   -4.60 KCAL/MOL
REMARK 923 INTER-LIGAND FREE ENERGY PREDICTED BY IDOCK:   -4.48 KCAL/MOL
REMARK 924 INTRA-LIGAND FREE ENERGY PREDICTED BY IDOCK:   -0.11 KCAL/MOL
REMARK 927      BINDING AFFINITY PREDICTED BY RF-SCORE:    0.00 PKD
ROOT
HETATM    1  C   UNL     1      -9.211   9.424  65.570  1.00  0.00    -0.292 C  
HETATM    2  C   UNL     1      -9.593  10.228  64.336  1.00  0.00    -0.378 C  
ENDROOT
BRANCH   2   3
HETATM    3  C   UNL     1     -10.654  11.246  64.662  1.00  0.00    -0.327 A  
HETATM    4  N   UNL     1     -11.400  11.702  63.631  1.00  0.00    -0.426 NA 
HETATM    5  C   UNL     1     -12.304  12.670  63.892  1.00  0.00    -0.459 A  
HETATM    6  C   UNL     1     -12.507  13.211  65.147  1.00  0.00    -0.539 A  
HETATM    7  C   UNL     1     -11.737  12.733  66.206  1.00  0.00    -0.460 A  
HETATM    8  C   UNL     1     -10.793  11.731  65.959  1.00  0.00    -0.343 A  
BRANCH   7   9
HETATM    9  C   UNL     1     -11.883  13.294  67.578  1.00  0.00    -0.358 C  
HETATM   10  N   UNL     1     -12.186  14.629  67.674  1.00  0.00    -0.587 N  
HETATM   11  S   UNL     1     -11.711  12.431  69.000  1.00  0.00    -0.316 S  
HETATM   12  H1  UNL     1     -12.286  15.012  68.614  1.00  0.00     0.000 HD 
HETATM   13  H2  UNL     1     -12.306  15.211  66.844  1.00  0.00     0.000 HD 
ENDBRANCH   7   9
ENDBRANCH   2   3
TORSDOF 2
ENDMDL
MODEL       26
REMARK 921   NORMALIZED FREE ENERGY PREDICTED BY IDOCK:   -4.00 KCAL/MOL
REMARK 922        TOTAL FREE ENERGY PREDICTED BY IDOCK:   -4.58 KCAL/MOL
REMARK 923 INTER-LIGAND FREE ENERGY PREDICTED BY IDOCK:   -4.48 KCAL/MOL
REMARK 924 INTRA-LIGAND FREE ENERGY PREDICTED BY IDOCK:   -0.10 KCAL/MOL
REMARK 927      BINDING AFFINITY PREDICTED BY RF-SCORE:    0.00 PKD
ROOT
HETATM    1  C   UNL     1     -11.435  14.823  67.454  1.00  0.00    -0.376 C  
HETATM    2  C   UNL     1     -12.121  13.480  67.244  1.00  0.00    -0.367 C  
ENDROOT
BRANCH   2   3
HETATM    3  C   UNL     1     -11.814  12.927  65.877  1.00  0.00    -0.424 A  
HETATM    4  N   UNL     1     -12.604  13.339  64.860  1.00  0.00    -0.636 NA 
HETATM    5  C   UNL     1     -12.392  12.796  63.643  1.00  0.00    -0.463 A  
HETATM    6  C   UNL     1     -11.416  11.853  63.382  1.00  0.00    -0.470 A  
HETATM    7  C   UNL     1     -10.602  11.437  64.435  1.00  0.00    -0.403 A  
HETATM    8  C   UNL     1     -10.804  11.984  65.706  1.00  0.00    -0.329 A  
BRANCH   7   9
HETATM    9  C   UNL     1      -9.551  10.401  64.232  1.00  0.00    -0.318 C  
HETATM   10  N   UNL     1      -9.513   9.789  63.003  1.00  0.00    -0.541 N  
HETATM   11  S   UNL     1      -8.421   9.932  65.371  1.00  0.00    -0.156 S  
HETATM   12  H1  UNL     1      -8.793   9.080  62.864  1.00  0.00     0.000 HD 
HETATM   13  H2  UNL     1     -10.173  10.032  62.264  1.00  0.00     0.000 HD 
ENDBRANCH   7   9
ENDBRANCH   2   3
TORSDOF 2
ENDMDL
MODEL       27
REMARK 921   NORMALIZED FREE ENERGY PREDICTED BY IDOCK:   -3.97 KCAL/MOL
REMARK 922        TOTAL FREE ENERGY PREDICTED BY IDOCK:   -4.55 KCAL/MOL
REMARK 923 INTER-LIGAND FREE ENERGY PREDICTED BY IDOCK:   -4.44 KCAL/MOL
REMARK 924 INTRA-LIGAND FREE ENERGY PREDICTED BY IDOCK:   -0.11 KCAL/MOL
REMARK 927      BINDING AFFINITY PREDICTED BY RF-SCORE:    0.00 PKD
ROOT
HETATM    1  C   UNL     1     -11.275   9.335  71.384  1.00  0.00    -0.433 C  
HETATM    2  C   UNL     1     -12.456  10.293  71.342  1.00  0.00    -0.528 C  
ENDROOT
BRANCH   2   3
HETATM    3  C   UNL     1     -12.280  11.318  70.252  1.00  0.00    -0.345 A  
HETATM    4  N   UNL     1     -12.092  10.849  68.998  1.00  0.00    -0.451 NA 
HETATM    5  C   UNL     1     -11.857  11.750  68.021  1.00  0.00    -0.234 A  
HETATM    6  C   UNL     1     -11.804  13.114  68.232  1.00  0.00    -0.384 A  
HETATM    7  C   UNL     1     -12.004  13.591  69.528  1.00  0.00    -0.390 A  
HETATM    8  C   UNL     1     -12.247  12.675  70.556  1.00  0.00    -0.383 A  
BRANCH   7   9
HETATM    9  C   UNL     1     -11.930  15.047  69.831  1.00  0.00    -0.334 C  
HETATM   10  N   UNL     1     -12.038  15.909  68.769  1.00  0.00    -0.486 N  
HETATM   11  S   UNL     1     -11.730  15.709  71.353  1.00  0.00    -0.472 S  
HETATM   12  H1  UNL     1     -11.987  16.906  68.977  1.00  0.00     0.000 HD 
HETATM   13  H2  UNL     1     -12.164  15.568  67.815  1.00  0.00     0.000 HD 
ENDBRANCH   7   9
ENDBRANCH   2   3
TORSDOF 2
ENDMDL
MODEL       28
REMARK 921   NORMALIZED FREE ENERGY PREDICTED BY IDOCK:   -3.94 KCAL/MOL
REMARK 922        TOTAL FREE ENERGY PREDICTED BY IDOCK:   -4.52 KCAL/MOL
REMARK 923 INTER-LIGAND FREE ENERGY PREDICTED BY IDOCK:   -4.41 KCAL/MOL
REMARK 924 INTRA-LIGAND FREE ENERGY PREDICTED BY IDOCK:   -0.11 KCAL/MOL
REMARK 927      BINDING AFFINITY PREDICTED BY RF-SCORE:    0.00 PKD
ROOT
HETATM    1  C   UNL     1     -12.361  15.734  74.120  1.00  0.00    -0.771 C  
HETATM    2  C   UNL     1     -13.371  15.519  73.002  1.00  0.00    -0.650 C  
ENDROOT
BRANCH   2   3
HETATM    3  C   UNL     1     -12.688  15.065  71.739  1.00  0.00    -0.339 A  
HETATM    4  N   UNL     1     -12.946  13.804  71.325  1.00  0.00    -0.343 NA 
HETATM    5  C   UNL     1     -12.285  13.354  70.238  1.00  0.00    -0.335 A  
HETATM    6  C   UNL     1     -11.370  14.108  69.530  1.00  0.00    -0.308 A  
HETATM    7  C   UNL     1     -11.112  15.410  69.960  1.00  0.00    -0.317 A  
HETATM    8  C   UNL     1     -11.784  15.897  71.086  1.00  0.00    -0.490 A  
BRANCH   7   9
HETATM    9  C   UNL     1     -10.115  16.267  69.262  1.00  0.00    -0.267 C  
HETATM   10  N   UNL     1     -10.580  17.430  68.701  1.00  0.00    -0.348 N  
HETATM   11  S   UNL     1      -8.484  15.929  69.111  1.00  0.00    -0.247 S  
HETATM   12  H1  UNL     1      -9.897  18.017  68.223  1.00  0.00     0.000 HD 
HETATM   13  H2  UNL     1     -11.564  17.695  68.760  1.00  0.00     0.000 HD 
ENDBRANCH   7   9
ENDBRANCH   2   3
TORSDOF 2
ENDMDL
MODEL       29
REMARK 921   NORMALIZED FREE ENERGY PREDICTED BY IDOCK:   -3.93 KCAL/MOL
REMARK 922        TOTAL FREE ENERGY PREDICTED BY IDOCK:   -4.50 KCAL/MOL
REMARK 923 INTER-LIGAND FREE ENERGY PREDICTED BY IDOCK:   -4.39 KCAL/MOL
REMARK 924 INTRA-LIGAND FREE ENERGY PREDICTED BY IDOCK:   -0.11 KCAL/MOL
REMARK 927      BINDING AFFINITY PREDICTED BY RF-SCORE:    0.00 PKD
ROOT
HETATM    1  C   UNL     1     -12.733  15.681  73.501  1.00  0.00    -0.684 C  
HETATM    2  C   UNL     1     -12.143  16.187  72.193  1.00  0.00    -0.593 C  
ENDROOT
BRANCH   2   3
HETATM    3  C   UNL     1     -12.188  15.119  71.132  1.00  0.00    -0.331 A  
HETATM    4  N   UNL     1     -12.362  13.846  71.554  1.00  0.00    -0.293 NA 
HETATM    5  C   UNL     1     -12.329  12.868  70.625  1.00  0.00    -0.302 A  
HETATM    6  C   UNL     1     -12.133  13.097  69.277  1.00  0.00    -0.270 A  
HETATM    7  C   UNL     1     -11.959  14.413  68.848  1.00  0.00    -0.337 A  
HETATM    8  C   UNL     1     -11.987  15.443  69.794  1.00  0.00    -0.381 A  
BRANCH   7   9
HETATM    9  C   UNL     1     -11.713  14.729  67.414  1.00  0.00    -0.350 C  
HETATM   10  N   UNL     1     -12.526  14.115  66.495  1.00  0.00    -0.534 N  
HETATM   11  S   UNL     1     -10.534  15.767  66.840  1.00  0.00    -0.317 S  
HETATM   12  H1  UNL     1     -12.357  14.331  65.513  1.00  0.00     0.000 HD 
HETATM   13  H2  UNL     1     -13.266  13.472  66.781  1.00  0.00     0.000 HD 
ENDBRANCH   7   9
ENDBRANCH   2   3
TORSDOF 2
ENDMDL
MODEL       30
REMARK 921   NORMALIZED FREE ENERGY PREDICTED BY IDOCK:   -3.89 KCAL/MOL
REMARK 922        TOTAL FREE ENERGY PREDICTED BY IDOCK:   -4.46 KCAL/MOL
REMARK 923 INTER-LIGAND FREE ENERGY PREDICTED BY IDOCK:   -4.37 KCAL/MOL
REMARK 924 INTRA-LIGAND FREE ENERGY PREDICTED BY IDOCK:   -0.09 KCAL/MOL
REMARK 927      BINDING AFFINITY PREDICTED BY RF-SCORE:    0.00 PKD
ROOT
HETATM    1  C   UNL     1     -11.826  11.886  63.527  1.00  0.00    -0.560 C  
HETATM    2  C   UNL     1     -12.170  13.368  63.590  1.00  0.00    -0.480 C  
ENDROOT
BRANCH   2   3
HETATM    3  C   UNL     1     -11.734  13.967  64.901  1.00  0.00    -0.380 A  
HETATM    4  N   UNL     1     -12.279  13.444  66.022  1.00  0.00    -0.436 NA 
HETATM    5  C   UNL     1     -11.958  14.017  67.201  1.00  0.00    -0.430 A  
HETATM    6  C   UNL     1     -11.108  15.099  67.322  1.00  0.00    -0.332 A  
HETATM    7  C   UNL     1     -10.546  15.631  66.161  1.00  0.00    -0.325 A  
HETATM    8  C   UNL     1     -10.865  15.053  64.928  1.00  0.00    -0.430 A  
BRANCH   7   9
HETATM    9  C   UNL     1      -9.645  16.815  66.215  1.00  0.00    -0.289 C  
HETATM   10  N   UNL     1     -10.236  18.050  66.112  1.00  0.00    -0.382 N  
HETATM   11  S   UNL     1      -7.984  16.760  66.396  1.00  0.00    -0.323 S  
HETATM   12  H1  UNL     1      -9.619  18.861  66.149  1.00  0.00     0.000 HD 
HETATM   13  H2  UNL     1     -11.246  18.152  66.002  1.00  0.00     0.000 HD 
ENDBRANCH   7   9
ENDBRANCH   2   3
TORSDOF 2
ENDMDL
MODEL       31
REMARK 921   NORMALIZED FREE ENERGY PREDICTED BY IDOCK:   -3.88 KCAL/MOL
REMARK 922        TOTAL FREE ENERGY PREDICTED BY IDOCK:   -4.45 KCAL/MOL
REMARK 923 INTER-LIGAND FREE ENERGY PREDICTED BY IDOCK:   -4.35 KCAL/MOL
REMARK 924 INTRA-LIGAND FREE ENERGY PREDICTED BY IDOCK:   -0.10 KCAL/MOL
REMARK 927      BINDING AFFINITY PREDICTED BY RF-SCORE:    0.00 PKD
ROOT
HETATM    1  C   UNL     1     -12.288  13.887  65.846  1.00  0.00    -0.517 C  
HETATM    2  C   UNL     1     -11.543  12.719  66.475  1.00  0.00    -0.435 C  
ENDROOT
BRANCH   2   3
HETATM    3  C   UNL     1     -11.837  12.624  67.950  1.00  0.00    -0.332 A  
HETATM    4  N   UNL     1     -12.065  13.786  68.603  1.00  0.00    -0.355 NA 
HETATM    5  C   UNL     1     -12.255  13.727  69.937  1.00  0.00    -0.321 A  
HETATM    6  C   UNL     1     -12.233  12.552  70.665  1.00  0.00    -0.365 A  
HETATM    7  C   UNL     1     -12.002  11.357  69.983  1.00  0.00    -0.442 A  
HETATM    8  C   UNL     1     -11.801  11.394  68.600  1.00  0.00    -0.377 A  
BRANCH   7   9
HETATM    9  C   UNL     1     -11.935  10.059  70.709  1.00  0.00    -0.335 C  
HETATM   10  N   UNL     1     -13.130   9.476  71.051  1.00  0.00    -0.542 N  
HETATM   11  S   UNL     1     -10.530   9.259  71.134  1.00  0.00    -0.333 S  
HETATM   12  H1  UNL     1     -13.084   8.587  71.548  1.00  0.00     0.000 HD 
HETATM   13  H2  UNL     1     -14.023   9.913  70.818  1.00  0.00     0.000 HD 
ENDBRANCH   7   9
ENDBRANCH   2   3
TORSDOF 2
ENDMDL
MODEL       32
REMARK 921   NORMALIZED FREE ENERGY PREDICTED BY IDOCK:   -3.88 KCAL/MOL
REMARK 922        TOTAL FREE ENERGY PREDICTED BY IDOCK:   -4.45 KCAL/MOL
REMARK 923 INTER-LIGAND FREE ENERGY PREDICTED BY IDOCK:   -4.33 KCAL/MOL
REMARK 924 INTRA-LIGAND FREE ENERGY PREDICTED BY IDOCK:   -0.12 KCAL/MOL
REMARK 927      BINDING AFFINITY PREDICTED BY RF-SCORE:    0.00 PKD
ROOT
HETATM    1  C   UNL     1     -11.234  10.281  70.594  1.00  0.00    -0.406 C  
HETATM    2  C   UNL     1     -11.999  10.793  69.383  1.00  0.00    -0.353 C  
ENDROOT
BRANCH   2   3
HETATM    3  C   UNL     1     -11.979  12.298  69.330  1.00  0.00    -0.259 A  
HETATM    4  N   UNL     1     -11.701  12.864  68.134  1.00  0.00    -0.336 NA 
HETATM    5  C   UNL     1     -11.605  14.209  68.084  1.00  0.00    -0.331 A  
HETATM    6  C   UNL     1     -11.778  15.031  69.180  1.00  0.00    -0.345 A  
HETATM    7  C   UNL     1     -12.070  14.441  70.410  1.00  0.00    -0.399 A  
HETATM    8  C   UNL     1     -12.173  13.049  70.485  1.00  0.00    -0.392 A  
BRANCH   7   9
HETATM    9  C   UNL     1     -12.239  15.267  71.638  1.00  0.00    -0.365 C  
HETATM   10  N   UNL     1     -11.712  16.534  71.612  1.00  0.00    -0.634 N  
HETATM   11  S   UNL     1     -13.018  14.776  73.033  1.00  0.00    -0.510 S  
HETATM   12  H1  UNL     1     -11.828  17.098  72.453  1.00  0.00     0.000 HD 
HETATM   13  H2  UNL     1     -11.226  16.893  70.789  1.00  0.00     0.000 HD 
ENDBRANCH   7   9
ENDBRANCH   2   3
TORSDOF 2
ENDMDL
MODEL       33
REMARK 921   NORMALIZED FREE ENERGY PREDICTED BY IDOCK:   -3.88 KCAL/MOL
REMARK 922        TOTAL FREE ENERGY PREDICTED BY IDOCK:   -4.45 KCAL/MOL
REMARK 923 INTER-LIGAND FREE ENERGY PREDICTED BY IDOCK:   -4.33 KCAL/MOL
REMARK 924 INTRA-LIGAND FREE ENERGY PREDICTED BY IDOCK:   -0.11 KCAL/MOL
REMARK 927      BINDING AFFINITY PREDICTED BY RF-SCORE:    0.00 PKD
ROOT
HETATM    1  C   UNL     1     -13.127  11.401  71.767  1.00  0.00    -0.523 C  
HETATM    2  C   UNL     1     -13.588  12.752  72.294  1.00  0.00    -0.563 C  
ENDROOT
BRANCH   2   3
HETATM    3  C   UNL     1     -12.820  13.874  71.646  1.00  0.00    -0.349 A  
HETATM    4  N   UNL     1     -12.655  15.001  72.375  1.00  0.00    -0.325 NA 
HETATM    5  C   UNL     1     -12.035  16.044  71.783  1.00  0.00    -0.517 A  
HETATM    6  C   UNL     1     -11.562  16.020  70.486  1.00  0.00    -0.383 A  
HETATM    7  C   UNL     1     -11.733  14.852  69.742  1.00  0.00    -0.344 A  
HETATM    8  C   UNL     1     -12.373  13.759  70.334  1.00  0.00    -0.423 A  
BRANCH   7   9
HETATM    9  C   UNL     1     -11.274  14.768  68.327  1.00  0.00    -0.286 C  
HETATM   10  N   UNL     1     -10.158  15.493  67.992  1.00  0.00    -0.222 N  
HETATM   11  S   UNL     1     -12.004  13.863  67.126  1.00  0.00    -0.400 S  
HETATM   12  H1  UNL     1      -9.845  15.435  67.023  1.00  0.00     0.000 HD 
HETATM   13  H2  UNL     1      -9.665  16.064  68.680  1.00  0.00     0.000 HD 
ENDBRANCH   7   9
ENDBRANCH   2   3
TORSDOF 2
ENDMDL
MODEL       34
REMARK 921   NORMALIZED FREE ENERGY PREDICTED BY IDOCK:   -3.87 KCAL/MOL
REMARK 922        TOTAL FREE ENERGY PREDICTED BY IDOCK:   -4.44 KCAL/MOL
REMARK 923 INTER-LIGAND FREE ENERGY PREDICTED BY IDOCK:   -4.34 KCAL/MOL
REMARK 924 INTRA-LIGAND FREE ENERGY PREDICTED BY IDOCK:   -0.10 KCAL/MOL
REMARK 927      BINDING AFFINITY PREDICTED BY RF-SCORE:    0.00 PKD
ROOT
HETATM    1  C   UNL     1     -13.472  13.956  72.550  1.00  0.00    -0.676 C  
HETATM    2  C   UNL     1     -13.307  15.338  71.933  1.00  0.00    -0.524 C  
ENDROOT
BRANCH   2   3
HETATM    3  C   UNL     1     -12.357  15.297  70.765  1.00  0.00    -0.380 A  
HETATM    4  N   UNL     1     -11.385  16.236  70.737  1.00  0.00    -0.374 NA 
HETATM    5  C   UNL     1     -10.571  16.261  69.660  1.00  0.00    -0.320 A  
HETATM    6  C   UNL     1     -10.675  15.385  68.598  1.00  0.00    -0.246 A  
HETATM    7  C   UNL     1     -11.678  14.416  68.637  1.00  0.00    -0.367 A  
HETATM    8  C   UNL     1     -12.534  14.371  69.742  1.00  0.00    -0.262 A  
BRANCH   7   9
HETATM    9  C   UNL     1     -11.867  13.459  67.512  1.00  0.00    -0.366 C  
HETATM   10  N   UNL     1     -11.721  12.125  67.801  1.00  0.00    -0.337 N  
HETATM   11  S   UNL     1     -12.243  13.878  65.937  1.00  0.00    -0.483 S  
HETATM   12  H1  UNL     1     -11.851  11.470  67.030  1.00  0.00     0.000 HD 
HETATM   13  H2  UNL     1     -11.494  11.804  68.743  1.00  0.00     0.000 HD 
ENDBRANCH   7   9
ENDBRANCH   2   3
TORSDOF 2
ENDMDL
MODEL       35
REMARK 921   NORMALIZED FREE ENERGY PREDICTED BY IDOCK:   -3.86 KCAL/MOL
REMARK 922        TOTAL FREE ENERGY PREDICTED BY IDOCK:   -4.43 KCAL/MOL
REMARK 923 INTER-LIGAND FREE ENERGY PREDICTED BY IDOCK:   -4.33 KCAL/MOL
REMARK 924 INTRA-LIGAND FREE ENERGY PREDICTED BY IDOCK:   -0.10 KCAL/MOL
REMARK 927      BINDING AFFINITY PREDICTED BY RF-SCORE:    0.00 PKD
ROOT
HETATM    1  C   UNL     1     -13.431  15.218  71.436  1.00  0.00    -0.588 C  
HETATM    2  C   UNL     1     -12.362  15.544  70.402  1.00  0.00    -0.451 C  
ENDROOT
BRANCH   2   3
HETATM    3  C   UNL     1     -12.111  14.367  69.496  1.00  0.00    -0.322 A  
HETATM    4  N   UNL     1     -12.145  13.141  70.065  1.00  0.00    -0.326 NA 
HETATM    5  C   UNL     1     -11.849  12.080  69.285  1.00  0.00    -0.318 A  
HETATM    6  C   UNL     1     -11.519  12.180  67.947  1.00  0.00    -0.392 A  
HETATM    7  C   UNL     1     -11.491  13.448  67.366  1.00  0.00    -0.368 A  
HETATM    8  C   UNL     1     -11.794  14.562  68.156  1.00  0.00    -0.348 A  
BRANCH   7   9
HETATM    9  C   UNL     1     -11.115  13.631  65.937  1.00  0.00    -0.284 C  
HETATM   10  N   UNL     1      -9.853  13.232  65.571  1.00  0.00    -0.476 N  
HETATM   11  S   UNL     1     -12.101  14.275  64.751  1.00  0.00    -0.457 S  
HETATM   12  H1  UNL     1      -9.596  13.357  64.593  1.00  0.00     0.000 HD 
HETATM   13  H2  UNL     1      -9.203  12.829  66.248  1.00  0.00     0.000 HD 
ENDBRANCH   7   9
ENDBRANCH   2   3
TORSDOF 2
ENDMDL
MODEL       36
REMARK 921   NORMALIZED FREE ENERGY PREDICTED BY IDOCK:   -3.86 KCAL/MOL
REMARK 922        TOTAL FREE ENERGY PREDICTED BY IDOCK:   -4.42 KCAL/MOL
REMARK 923 INTER-LIGAND FREE ENERGY PREDICTED BY IDOCK:   -4.33 KCAL/MOL
REMARK 924 INTRA-LIGAND FREE ENERGY PREDICTED BY IDOCK:   -0.10 KCAL/MOL
REMARK 927      BINDING AFFINITY PREDICTED BY RF-SCORE:    0.00 PKD
ROOT
HETATM    1  C   UNL     1     -13.948  15.131  72.339  1.00  0.00    -0.616 C  
HETATM    2  C   UNL     1     -12.834  15.474  71.360  1.00  0.00    -0.531 C  
ENDROOT
BRANCH   2   3
HETATM    3  C   UNL     1     -12.505  14.295  70.483  1.00  0.00    -0.361 A  
HETATM    4  N   UNL     1     -12.497  13.078  71.073  1.00  0.00    -0.353 NA 
HETATM    5  C   UNL     1     -12.131  12.020  70.320  1.00  0.00    -0.312 A  
HETATM    6  C   UNL     1     -11.770  12.112  68.990  1.00  0.00    -0.377 A  
HETATM    7  C   UNL     1     -11.785  13.370  68.387  1.00  0.00    -0.390 A  
HETATM    8  C   UNL     1     -12.160  14.482  69.148  1.00  0.00    -0.299 A  
BRANCH   7   9
HETATM    9  C   UNL     1     -11.379  13.546  66.965  1.00  0.00    -0.324 C  
HETATM   10  N   UNL     1     -12.363  13.906  66.078  1.00  0.00    -0.467 N  
HETATM   11  S   UNL     1      -9.829  13.345  66.370  1.00  0.00    -0.297 S  
HETATM   12  H1  UNL     1     -12.084  14.026  65.105  1.00  0.00     0.000 HD 
HETATM   13  H2  UNL     1     -13.328  14.046  66.379  1.00  0.00     0.000 HD 
ENDBRANCH   7   9
ENDBRANCH   2   3
TORSDOF 2
ENDMDL
MODEL       37
REMARK 921   NORMALIZED FREE ENERGY PREDICTED BY IDOCK:   -3.85 KCAL/MOL
REMARK 922        TOTAL FREE ENERGY PREDICTED BY IDOCK:   -4.41 KCAL/MOL
REMARK 923 INTER-LIGAND FREE ENERGY PREDICTED BY IDOCK:   -4.29 KCAL/MOL
REMARK 924 INTRA-LIGAND FREE ENERGY PREDICTED BY IDOCK:   -0.12 KCAL/MOL
REMARK 927      BINDING AFFINITY PREDICTED BY RF-SCORE:    0.00 PKD
ROOT
HETATM    1  C   UNL     1     -12.627  15.362  70.508  1.00  0.00    -0.471 C  
HETATM    2  C   UNL     1     -12.836  14.433  71.695  1.00  0.00    -0.416 C  
ENDROOT
BRANCH   2   3
HETATM    3  C   UNL     1     -12.716  12.991  71.277  1.00  0.00    -0.293 A  
HETATM    4  N   UNL     1     -13.214  12.065  72.128  1.00  0.00    -0.436 NA 
HETATM    5  C   UNL     1     -13.049  10.765  71.807  1.00  0.00    -0.468 A  
HETATM    6  C   UNL     1     -12.406  10.334  70.663  1.00  0.00    -0.416 A  
HETATM    7  C   UNL     1     -11.898  11.294  69.787  1.00  0.00    -0.437 A  
HETATM    8  C   UNL     1     -12.057  12.648  70.101  1.00  0.00    -0.368 A  
BRANCH   7   9
HETATM    9  C   UNL     1     -11.168  10.899  68.552  1.00  0.00    -0.274 C  
HETATM   10  N   UNL     1     -11.277   9.588  68.158  1.00  0.00    -0.509 N  
HETATM   11  S   UNL     1     -10.234  11.918  67.611  1.00  0.00    -0.204 S  
HETATM   12  H1  UNL     1     -10.777   9.318  67.312  1.00  0.00     0.000 HD 
HETATM   13  H2  UNL     1     -11.834   8.916  68.688  1.00  0.00     0.000 HD 
ENDBRANCH   7   9
ENDBRANCH   2   3
TORSDOF 2
ENDMDL
MODEL       38
REMARK 921   NORMALIZED FREE ENERGY PREDICTED BY IDOCK:   -3.84 KCAL/MOL
REMARK 922        TOTAL FREE ENERGY PREDICTED BY IDOCK:   -4.40 KCAL/MOL
REMARK 923 INTER-LIGAND FREE ENERGY PREDICTED BY IDOCK:   -4.30 KCAL/MOL
REMARK 924 INTRA-LIGAND FREE ENERGY PREDICTED BY IDOCK:   -0.10 KCAL/MOL
REMARK 927      BINDING AFFINITY PREDICTED BY RF-SCORE:    0.00 PKD
ROOT
HETATM    1  C   UNL     1      -8.412   9.178  63.011  1.00  0.00    -0.206 C  
HETATM    2  C   UNL     1      -9.496  10.152  62.573  1.00  0.00    -0.269 C  
ENDROOT
BRANCH   2   3
HETATM    3  C   UNL     1      -9.965  10.994  63.730  1.00  0.00    -0.350 A  
HETATM    4  N   UNL     1      -9.982  10.403  64.947  1.00  0.00    -0.327 NA 
HETATM    5  C   UNL     1     -10.470  11.117  65.982  1.00  0.00    -0.256 A  
HETATM    6  C   UNL     1     -10.946  12.409  65.867  1.00  0.00    -0.323 A  
HETATM    7  C   UNL     1     -10.920  13.013  64.610  1.00  0.00    -0.364 A  
HETATM    8  C   UNL     1     -10.420  12.292  63.522  1.00  0.00    -0.459 A  
BRANCH   7   9
HETATM    9  C   UNL     1     -11.445  14.392  64.409  1.00  0.00    -0.288 C  
HETATM   10  N   UNL     1     -12.498  14.535  63.539  1.00  0.00    -1.063 N  
HETATM   11  S   UNL     1     -10.860  15.769  65.156  1.00  0.00    -0.397 S  
HETATM   12  H1  UNL     1     -12.857  15.480  63.402  1.00  0.00     0.000 HD 
HETATM   13  H2  UNL     1     -12.902  13.734  63.053  1.00  0.00     0.000 HD 
ENDBRANCH   7   9
ENDBRANCH   2   3
TORSDOF 2
ENDMDL
MODEL       39
REMARK 921   NORMALIZED FREE ENERGY PREDICTED BY IDOCK:   -3.83 KCAL/MOL
REMARK 922        TOTAL FREE ENERGY PREDICTED BY IDOCK:   -4.39 KCAL/MOL
REMARK 923 INTER-LIGAND FREE ENERGY PREDICTED BY IDOCK:   -4.29 KCAL/MOL
REMARK 924 INTRA-LIGAND FREE ENERGY PREDICTED BY IDOCK:   -0.10 KCAL/MOL
REMARK 927      BINDING AFFINITY PREDICTED BY RF-SCORE:    0.00 PKD
ROOT
HETATM    1  C   UNL     1     -10.488  19.642  66.227  1.00  0.00    -0.621 C  
HETATM    2  C   UNL     1      -9.529  18.734  66.983  1.00  0.00    -0.322 C  
ENDROOT
BRANCH   2   3
HETATM    3  C   UNL     1     -10.180  17.415  67.310  1.00  0.00    -0.324 A  
HETATM    4  N   UNL     1     -10.527  17.209  68.601  1.00  0.00    -0.353 NA 
HETATM    5  C   UNL     1     -11.042  16.005  68.926  1.00  0.00    -0.331 A  
HETATM    6  C   UNL     1     -11.236  14.982  68.018  1.00  0.00    -0.324 A  
HETATM    7  C   UNL     1     -10.880  15.204  66.687  1.00  0.00    -0.318 A  
HETATM    8  C   UNL     1     -10.343  16.444  66.327  1.00  0.00    -0.337 A  
BRANCH   7   9
HETATM    9  C   UNL     1     -11.034  14.135  65.662  1.00  0.00    -0.308 C  
HETATM   10  N   UNL     1     -10.147  14.148  64.614  1.00  0.00    -0.632 N  
HETATM   11  S   UNL     1     -12.190  12.928  65.688  1.00  0.00    -0.423 S  
HETATM   12  H1  UNL     1     -10.253  13.416  63.912  1.00  0.00     0.000 HD 
HETATM   13  H2  UNL     1      -9.416  14.857  64.541  1.00  0.00     0.000 HD 
ENDBRANCH   7   9
ENDBRANCH   2   3
TORSDOF 2
ENDMDL
MODEL       40
REMARK 921   NORMALIZED FREE ENERGY PREDICTED BY IDOCK:   -3.83 KCAL/MOL
REMARK 922        TOTAL FREE ENERGY PREDICTED BY IDOCK:   -4.39 KCAL/MOL
REMARK 923 INTER-LIGAND FREE ENERGY PREDICTED BY IDOCK:   -4.27 KCAL/MOL
REMARK 924 INTRA-LIGAND FREE ENERGY PREDICTED BY IDOCK:   -0.11 KCAL/MOL
REMARK 927      BINDING AFFINITY PREDICTED BY RF-SCORE:    0.00 PKD
ROOT
HETATM    1  C   UNL     1     -11.273   6.283  69.489  1.00  0.00    -0.500 C  
HETATM    2  C   UNL     1     -11.225   6.623  70.972  1.00  0.00    -0.349 C  
ENDROOT
BRANCH   2   3
HETATM    3  C   UNL     1     -11.860   7.962  71.238  1.00  0.00    -0.296 A  
HETATM    4  N   UNL     1     -12.809   8.007  72.200  1.00  0.00    -0.277 NA 
HETATM    5  C   UNL     1     -13.442   9.182  72.401  1.00  0.00    -0.476 A  
HETATM    6  C   UNL     1     -13.171  10.332  71.685  1.00  0.00    -0.509 A  
HETATM    7  C   UNL     1     -12.188  10.279  70.697  1.00  0.00    -0.422 A  
HETATM    8  C   UNL     1     -11.519   9.071  70.471  1.00  0.00    -0.248 A  
BRANCH   7   9
HETATM    9  C   UNL     1     -11.867  11.473  69.867  1.00  0.00    -0.355 C  
HETATM   10  N   UNL     1     -11.994  12.700  70.469  1.00  0.00    -0.533 N  
HETATM   11  S   UNL     1     -11.363  11.436  68.273  1.00  0.00    -0.310 S  
HETATM   12  H1  UNL     1     -11.775  13.517  69.900  1.00  0.00     0.000 HD 
HETATM   13  H2  UNL     1     -12.296  12.790  71.440  1.00  0.00     0.000 HD 
ENDBRANCH   7   9
ENDBRANCH   2   3
TORSDOF 2
ENDMDL
MODEL       41
REMARK 921   NORMALIZED FREE ENERGY PREDICTED BY IDOCK:   -3.81 KCAL/MOL
REMARK 922        TOTAL FREE ENERGY PREDICTED BY IDOCK:   -4.37 KCAL/MOL
REMARK 923 INTER-LIGAND FREE ENERGY PREDICTED BY IDOCK:   -4.27 KCAL/MOL
REMARK 924 INTRA-LIGAND FREE ENERGY PREDICTED BY IDOCK:   -0.10 KCAL/MOL
REMARK 927      BINDING AFFINITY PREDICTED BY RF-SCORE:    0.00 PKD
ROOT
HETATM    1  C   UNL     1      -9.970  18.117  67.992  1.00  0.00    -0.353 C  
HETATM    2  C   UNL     1      -9.213  17.652  66.757  1.00  0.00    -0.281 C  
ENDROOT
BRANCH   2   3
HETATM    3  C   UNL     1      -9.448  16.186  66.501  1.00  0.00    -0.264 A  
HETATM    4  N   UNL     1      -8.666  15.316  67.178  1.00  0.00    -0.196 NA 
HETATM    5  C   UNL     1      -8.811  14.002  66.906  1.00  0.00    -0.194 A  
HETATM    6  C   UNL     1      -9.710  13.504  65.982  1.00  0.00    -0.233 A  
HETATM    7  C   UNL     1     -10.516  14.408  65.291  1.00  0.00    -0.410 A  
HETATM    8  C   UNL     1     -10.383  15.775  65.556  1.00  0.00    -0.430 A  
BRANCH   7   9
HETATM    9  C   UNL     1     -11.485  13.943  64.260  1.00  0.00    -0.318 C  
HETATM   10  N   UNL     1     -12.384  14.868  63.791  1.00  0.00    -1.071 N  
HETATM   11  S   UNL     1     -11.560  12.396  63.631  1.00  0.00    -0.521 S  
HETATM   12  H1  UNL     1     -13.048  14.548  63.085  1.00  0.00     0.000 HD 
HETATM   13  H2  UNL     1     -12.390  15.829  64.133  1.00  0.00     0.000 HD 
ENDBRANCH   7   9
ENDBRANCH   2   3
TORSDOF 2
ENDMDL
MODEL       42
REMARK 921   NORMALIZED FREE ENERGY PREDICTED BY IDOCK:   -3.81 KCAL/MOL
REMARK 922        TOTAL FREE ENERGY PREDICTED BY IDOCK:   -4.37 KCAL/MOL
REMARK 923 INTER-LIGAND FREE ENERGY PREDICTED BY IDOCK:   -4.26 KCAL/MOL
REMARK 924 INTRA-LIGAND FREE ENERGY PREDICTED BY IDOCK:   -0.10 KCAL/MOL
REMARK 927      BINDING AFFINITY PREDICTED BY RF-SCORE:    0.00 PKD
ROOT
HETATM    1  C   UNL     1     -11.049  10.084  70.679  1.00  0.00    -0.408 C  
HETATM    2  C   UNL     1     -11.913  11.148  70.016  1.00  0.00    -0.447 C  
ENDROOT
BRANCH   2   3
HETATM    3  C   UNL     1     -11.559  11.300  68.560  1.00  0.00    -0.315 A  
HETATM    4  N   UNL     1     -10.913  10.264  67.978  1.00  0.00    -0.283 NA 
HETATM    5  C   UNL     1     -10.521  10.413  66.695  1.00  0.00    -0.215 A  
HETATM    6  C   UNL     1     -10.746  11.555  65.951  1.00  0.00    -0.325 A  
HETATM    7  C   UNL     1     -11.416  12.617  66.557  1.00  0.00    -0.409 A  
HETATM    8  C   UNL     1     -11.831  12.486  67.887  1.00  0.00    -0.383 A  
BRANCH   7   9
HETATM    9  C   UNL     1     -11.664  13.889  65.823  1.00  0.00    -0.359 C  
HETATM   10  N   UNL     1     -12.955  14.134  65.426  1.00  0.00    -0.709 N  
HETATM   11  S   UNL     1     -10.504  15.034  65.452  1.00  0.00    -0.410 S  
HETATM   12  H1  UNL     1     -13.124  15.005  64.923  1.00  0.00     0.000 HD 
HETATM   13  H2  UNL     1     -13.709  13.476  65.623  1.00  0.00     0.000 HD 
ENDBRANCH   7   9
ENDBRANCH   2   3
TORSDOF 2
ENDMDL
MODEL       43
REMARK 921   NORMALIZED FREE ENERGY PREDICTED BY IDOCK:   -3.80 KCAL/MOL
REMARK 922        TOTAL FREE ENERGY PREDICTED BY IDOCK:   -4.36 KCAL/MOL
REMARK 923 INTER-LIGAND FREE ENERGY PREDICTED BY IDOCK:   -4.25 KCAL/MOL
REMARK 924 INTRA-LIGAND FREE ENERGY PREDICTED BY IDOCK:   -0.12 KCAL/MOL
REMARK 927      BINDING AFFINITY PREDICTED BY RF-SCORE:    0.00 PKD
ROOT
HETATM    1  C   UNL     1     -10.658  19.661  65.707  1.00  0.00    -0.537 C  
HETATM    2  C   UNL     1      -9.915  18.507  66.365  1.00  0.00    -0.399 C  
ENDROOT
BRANCH   2   3
HETATM    3  C   UNL     1     -10.446  17.181  65.888  1.00  0.00    -0.258 A  
HETATM    4  N   UNL     1     -11.039  17.163  64.673  1.00  0.00    -1.007 NA 
HETATM    5  C   UNL     1     -11.588  16.001  64.262  1.00  0.00    -0.138 A  
HETATM    6  C   UNL     1     -11.572  14.838  65.008  1.00  0.00    -0.378 A  
HETATM    7  C   UNL     1     -10.954  14.864  66.258  1.00  0.00    -0.338 A  
HETATM    8  C   UNL     1     -10.380  16.058  66.706  1.00  0.00    -0.300 A  
BRANCH   7   9
HETATM    9  C   UNL     1     -10.928  13.655  67.127  1.00  0.00    -0.288 C  
HETATM   10  N   UNL     1     -10.519  13.833  68.425  1.00  0.00    -0.247 N  
HETATM   11  S   UNL     1     -11.357  12.111  66.651  1.00  0.00    -0.355 S  
HETATM   12  H1  UNL     1     -10.501  13.004  69.020  1.00  0.00     0.000 HD 
HETATM   13  H2  UNL     1     -10.245  14.750  68.779  1.00  0.00     0.000 HD 
ENDBRANCH   7   9
ENDBRANCH   2   3
TORSDOF 2
ENDMDL
MODEL       44
REMARK 921   NORMALIZED FREE ENERGY PREDICTED BY IDOCK:   -3.80 KCAL/MOL
REMARK 922        TOTAL FREE ENERGY PREDICTED BY IDOCK:   -4.36 KCAL/MOL
REMARK 923 INTER-LIGAND FREE ENERGY PREDICTED BY IDOCK:   -4.24 KCAL/MOL
REMARK 924 INTRA-LIGAND FREE ENERGY PREDICTED BY IDOCK:   -0.12 KCAL/MOL
REMARK 927      BINDING AFFINITY PREDICTED BY RF-SCORE:    0.00 PKD
ROOT
HETATM    1  C   UNL     1     -10.595  10.711  69.345  1.00  0.00    -0.270 C  
HETATM    2  C   UNL     1     -11.266  11.620  68.326  1.00  0.00    -0.320 C  
ENDROOT
BRANCH   2   3
HETATM    3  C   UNL     1     -11.678  12.925  68.956  1.00  0.00    -0.327 A  
HETATM    4  N   UNL     1     -11.368  14.054  68.279  1.00  0.00    -0.271 NA 
HETATM    5  C   UNL     1     -11.661  15.234  68.863  1.00  0.00    -0.347 A  
HETATM    6  C   UNL     1     -12.258  15.349  70.103  1.00  0.00    -0.407 A  
HETATM    7  C   UNL     1     -12.579  14.180  70.794  1.00  0.00    -0.432 A  
HETATM    8  C   UNL     1     -12.283  12.945  70.208  1.00  0.00    -0.362 A  
BRANCH   7   9
HETATM    9  C   UNL     1     -13.196  14.232  72.148  1.00  0.00    -0.402 C  
HETATM   10  N   UNL     1     -13.853  13.104  72.574  1.00  0.00    -0.520 N  
HETATM   11  S   UNL     1     -13.148  15.543  73.184  1.00  0.00    -0.579 S  
HETATM   12  H1  UNL     1     -14.276  13.140  73.501  1.00  0.00     0.000 HD 
HETATM   13  H2  UNL     1     -13.916  12.270  71.989  1.00  0.00     0.000 HD 
ENDBRANCH   7   9
ENDBRANCH   2   3
TORSDOF 2
ENDMDL
MODEL       45
REMARK 921   NORMALIZED FREE ENERGY PREDICTED BY IDOCK:   -3.79 KCAL/MOL
REMARK 922        TOTAL FREE ENERGY PREDICTED BY IDOCK:   -4.34 KCAL/MOL
REMARK 923 INTER-LIGAND FREE ENERGY PREDICTED BY IDOCK:   -4.23 KCAL/MOL
REMARK 924 INTRA-LIGAND FREE ENERGY PREDICTED BY IDOCK:   -0.11 KCAL/MOL
REMARK 927      BINDING AFFINITY PREDICTED BY RF-SCORE:    0.00 PKD
ROOT
HETATM    1  C   UNL     1     -12.435  12.712  64.932  1.00  0.00    -0.564 C  
HETATM    2  C   UNL     1     -11.266  13.684  64.881  1.00  0.00    -0.349 C  
ENDROOT
BRANCH   2   3
HETATM    3  C   UNL     1     -11.246  14.568  66.100  1.00  0.00    -0.339 A  
HETATM    4  N   UNL     1     -10.708  15.800  65.953  1.00  0.00    -0.325 NA 
HETATM    5  C   UNL     1     -10.613  16.578  67.051  1.00  0.00    -0.255 A  
HETATM    6  C   UNL     1     -11.036  16.187  68.307  1.00  0.00    -0.348 A  
HETATM    7  C   UNL     1     -11.595  14.917  68.451  1.00  0.00    -0.348 A  
HETATM    8  C   UNL     1     -11.702  14.093  67.326  1.00  0.00    -0.421 A  
BRANCH   7   9
HETATM    9  C   UNL     1     -12.044  14.420  69.781  1.00  0.00    -0.334 C  
HETATM   10  N   UNL     1     -11.867  13.083  70.036  1.00  0.00    -0.472 N  
HETATM   11  S   UNL     1     -12.738  15.357  70.980  1.00  0.00    -0.473 S  
HETATM   12  H1  UNL     1     -12.175  12.744  70.948  1.00  0.00     0.000 HD 
HETATM   13  H2  UNL     1     -11.447  12.458  69.347  1.00  0.00     0.000 HD 
ENDBRANCH   7   9
ENDBRANCH   2   3
TORSDOF 2
ENDMDL
MODEL       46
REMARK 921   NORMALIZED FREE ENERGY PREDICTED BY IDOCK:   -3.78 KCAL/MOL
REMARK 922        TOTAL FREE ENERGY PREDICTED BY IDOCK:   -4.34 KCAL/MOL
REMARK 923 INTER-LIGAND FREE ENERGY PREDICTED BY IDOCK:   -4.23 KCAL/MOL
REMARK 924 INTRA-LIGAND FREE ENERGY PREDICTED BY IDOCK:   -0.11 KCAL/MOL
REMARK 927      BINDING AFFINITY PREDICTED BY RF-SCORE:    0.00 PKD
ROOT
HETATM    1  C   UNL     1     -11.329  12.105  66.025  1.00  0.00    -0.410 C  
HETATM    2  C   UNL     1     -12.134  13.374  66.266  1.00  0.00    -0.475 C  
ENDROOT
BRANCH   2   3
HETATM    3  C   UNL     1     -11.564  14.164  67.416  1.00  0.00    -0.372 A  
HETATM    4  N   UNL     1     -10.263  14.520  67.326  1.00  0.00    -0.254 NA 
HETATM    5  C   UNL     1      -9.715  15.162  68.379  1.00  0.00    -0.212 A  
HETATM    6  C   UNL     1     -10.408  15.475  69.532  1.00  0.00    -0.271 A  
HETATM    7  C   UNL     1     -11.752  15.109  69.615  1.00  0.00    -0.353 A  
HETATM    8  C   UNL     1     -12.340  14.441  68.536  1.00  0.00    -0.039 A  
BRANCH   7   9
HETATM    9  C   UNL     1     -12.550  15.388  70.841  1.00  0.00    -0.438 C  
HETATM   10  N   UNL     1     -13.916  15.344  70.715  1.00  0.00    -0.859 N  
HETATM   11  S   UNL     1     -11.918  15.745  72.347  1.00  0.00    -0.545 S  
HETATM   12  H1  UNL     1     -14.463  15.535  71.555  1.00  0.00     0.000 HD 
HETATM   13  H2  UNL     1     -14.364  15.129  69.823  1.00  0.00     0.000 HD 
ENDBRANCH   7   9
ENDBRANCH   2   3
TORSDOF 2
ENDMDL
MODEL       47
REMARK 921   NORMALIZED FREE ENERGY PREDICTED BY IDOCK:   -3.78 KCAL/MOL
REMARK 922        TOTAL FREE ENERGY PREDICTED BY IDOCK:   -4.33 KCAL/MOL
REMARK 923 INTER-LIGAND FREE ENERGY PREDICTED BY IDOCK:   -4.22 KCAL/MOL
REMARK 924 INTRA-LIGAND FREE ENERGY PREDICTED BY IDOCK:   -0.11 KCAL/MOL
REMARK 927      BINDING AFFINITY PREDICTED BY RF-SCORE:    0.00 PKD
ROOT
HETATM    1  C   UNL     1      -8.909  17.340  66.474  1.00  0.00    -0.290 C  
HETATM    2  C   UNL     1      -9.296  17.428  67.943  1.00  0.00    -0.267 C  
ENDROOT
BRANCH   2   3
HETATM    3  C   UNL     1     -10.297  16.361  68.301  1.00  0.00    -0.279 A  
HETATM    4  N   UNL     1     -10.501  15.384  67.388  1.00  0.00    -0.272 NA 
HETATM    5  C   UNL     1     -11.448  14.462  67.658  1.00  0.00    -0.346 A  
HETATM    6  C   UNL     1     -12.211  14.461  68.810  1.00  0.00    -0.200 A  
HETATM    7  C   UNL     1     -11.993  15.469  69.749  1.00  0.00    -0.384 A  
HETATM    8  C   UNL     1     -11.016  16.437  69.489  1.00  0.00    -0.317 A  
BRANCH   7   9
HETATM    9  C   UNL     1     -12.801  15.546  70.997  1.00  0.00    -0.482 C  
HETATM   10  N   UNL     1     -14.155  15.361  70.872  1.00  0.00    -0.864 N  
HETATM   11  S   UNL     1     -12.192  15.832  72.528  1.00  0.00    -0.524 S  
HETATM   12  H1  UNL     1     -14.708  15.414  71.728  1.00  0.00     0.000 HD 
HETATM   13  H2  UNL     1     -14.589  15.181  69.966  1.00  0.00     0.000 HD 
ENDBRANCH   7   9
ENDBRANCH   2   3
TORSDOF 2
ENDMDL
MODEL       48
REMARK 921   NORMALIZED FREE ENERGY PREDICTED BY IDOCK:   -3.74 KCAL/MOL
REMARK 922        TOTAL FREE ENERGY PREDICTED BY IDOCK:   -4.29 KCAL/MOL
REMARK 923 INTER-LIGAND FREE ENERGY PREDICTED BY IDOCK:   -4.17 KCAL/MOL
REMARK 924 INTRA-LIGAND FREE ENERGY PREDICTED BY IDOCK:   -0.11 KCAL/MOL
REMARK 927      BINDING AFFINITY PREDICTED BY RF-SCORE:    0.00 PKD
ROOT
HETATM    1  C   UNL     1     -12.095  14.850  64.805  1.00  0.00    -0.335 C  
HETATM    2  C   UNL     1     -12.813  13.848  65.697  1.00  0.00    -0.467 C  
ENDROOT
BRANCH   2   3
HETATM    3  C   UNL     1     -11.997  12.593  65.865  1.00  0.00    -0.438 A  
HETATM    4  N   UNL     1     -12.010  12.016  67.087  1.00  0.00    -0.598 NA 
HETATM    5  C   UNL     1     -11.225  10.934  67.277  1.00  0.00    -0.233 A  
HETATM    6  C   UNL     1     -10.419  10.389  66.296  1.00  0.00    -0.229 A  
HETATM    7  C   UNL     1     -10.414  10.988  65.037  1.00  0.00    -0.344 A  
HETATM    8  C   UNL     1     -11.219  12.110  64.817  1.00  0.00    -0.373 A  
BRANCH   7   9
HETATM    9  C   UNL     1      -9.547  10.470  63.943  1.00  0.00    -0.309 C  
HETATM   10  N   UNL     1     -10.093  10.428  62.684  1.00  0.00    -0.689 N  
HETATM   11  S   UNL     1      -7.970   9.945  64.124  1.00  0.00    -0.156 S  
HETATM   12  H1  UNL     1      -9.498  10.073  61.935  1.00  0.00     0.000 HD 
HETATM   13  H2  UNL     1     -11.050  10.736  62.506  1.00  0.00     0.000 HD 
ENDBRANCH   7   9
ENDBRANCH   2   3
TORSDOF 2
ENDMDL
MODEL       49
REMARK 921   NORMALIZED FREE ENERGY PREDICTED BY IDOCK:   -3.70 KCAL/MOL
REMARK 922        TOTAL FREE ENERGY PREDICTED BY IDOCK:   -4.25 KCAL/MOL
REMARK 923 INTER-LIGAND FREE ENERGY PREDICTED BY IDOCK:   -4.13 KCAL/MOL
REMARK 924 INTRA-LIGAND FREE ENERGY PREDICTED BY IDOCK:   -0.12 KCAL/MOL
REMARK 927      BINDING AFFINITY PREDICTED BY RF-SCORE:    0.00 PKD
ROOT
HETATM    1  C   UNL     1     -10.211  10.335  69.472  1.00  0.00    -0.261 C  
HETATM    2  C   UNL     1     -11.463  10.398  68.609  1.00  0.00    -0.238 C  
ENDROOT
BRANCH   2   3
HETATM    3  C   UNL     1     -11.660  11.780  68.045  1.00  0.00    -0.316 A  
HETATM    4  N   UNL     1     -11.839  11.874  66.709  1.00  0.00    -0.607 NA 
HETATM    5  C   UNL     1     -11.942  13.110  66.176  1.00  0.00    -0.422 A  
HETATM    6  C   UNL     1     -11.879  14.273  66.919  1.00  0.00    -0.458 A  
HETATM    7  C   UNL     1     -11.699  14.168  68.298  1.00  0.00    -0.383 A  
HETATM    8  C   UNL     1     -11.588  12.897  68.872  1.00  0.00    -0.360 A  
BRANCH   7   9
HETATM    9  C   UNL     1     -11.591  15.382  69.154  1.00  0.00    -0.339 C  
HETATM   10  N   UNL     1     -11.189  16.541  68.540  1.00  0.00    -0.345 N  
HETATM   11  S   UNL     1     -11.924  15.443  70.792  1.00  0.00    -0.399 S  
HETATM   12  H1  UNL     1     -11.115  17.372  69.127  1.00  0.00     0.000 HD 
HETATM   13  H2  UNL     1     -10.973  16.570  67.542  1.00  0.00     0.000 HD 
ENDBRANCH   7   9
ENDBRANCH   2   3
TORSDOF 2
ENDMDL
MODEL       50
REMARK 921   NORMALIZED FREE ENERGY PREDICTED BY IDOCK:   -3.70 KCAL/MOL
REMARK 922        TOTAL FREE ENERGY PREDICTED BY IDOCK:   -4.24 KCAL/MOL
REMARK 923 INTER-LIGAND FREE ENERGY PREDICTED BY IDOCK:   -4.14 KCAL/MOL
REMARK 924 INTRA-LIGAND FREE ENERGY PREDICTED BY IDOCK:   -0.10 KCAL/MOL
REMARK 927      BINDING AFFINITY PREDICTED BY RF-SCORE:    0.00 PKD
ROOT
HETATM    1  C   UNL     1      -9.914   9.616  65.966  1.00  0.00    -0.344 C  
HETATM    2  C   UNL     1      -9.561  10.348  64.680  1.00  0.00    -0.360 C  
ENDROOT
BRANCH   2   3
HETATM    3  C   UNL     1     -10.507  11.494  64.435  1.00  0.00    -0.325 A  
HETATM    4  N   UNL     1     -11.624  11.222  63.723  1.00  0.00    -0.064 NA 
HETATM    5  C   UNL     1     -12.446  12.252  63.429  1.00  0.00    -0.481 A  
HETATM    6  C   UNL     1     -12.210  13.556  63.817  1.00  0.00    -0.449 A  
HETATM    7  C   UNL     1     -11.058  13.829  64.554  1.00  0.00    -0.388 A  
HETATM    8  C   UNL     1     -10.191  12.777  64.869  1.00  0.00    -0.294 A  
BRANCH   7   9
HETATM    9  C   UNL     1     -10.726  15.217  64.978  1.00  0.00    -0.439 C  
HETATM   10  N   UNL     1     -11.358  16.237  64.311  1.00  0.00    -0.642 N  
HETATM   11  S   UNL     1      -9.657  15.628  66.196  1.00  0.00    -0.356 S  
HETATM   12  H1  UNL     1     -11.130  17.188  64.601  1.00  0.00     0.000 HD 
HETATM   13  H2  UNL     1     -12.023  16.053  63.559  1.00  0.00     0.000 HD 
ENDBRANCH   7   9
ENDBRANCH   2   3
TORSDOF 2
ENDMDL
MODEL       51
REMARK 921   NORMALIZED FREE ENERGY PREDICTED BY IDOCK:   -3.68 KCAL/MOL
REMARK 922        TOTAL FREE ENERGY PREDICTED BY IDOCK:   -4.22 KCAL/MOL
REMARK 923 INTER-LIGAND FREE ENERGY PREDICTED BY IDOCK:   -4.12 KCAL/MOL
REMARK 924 INTRA-LIGAND FREE ENERGY PREDICTED BY IDOCK:   -0.10 KCAL/MOL
REMARK 927      BINDING AFFINITY PREDICTED BY RF-SCORE:    0.00 PKD
ROOT
HETATM    1  C   UNL     1      -8.371   9.464  65.028  1.00  0.00    -0.155 C  
HETATM    2  C   UNL     1      -9.594   9.980  64.284  1.00  0.00    -0.301 C  
ENDROOT
BRANCH   2   3
HETATM    3  C   UNL     1     -10.287  11.062  65.071  1.00  0.00    -0.295 A  
HETATM    4  N   UNL     1     -10.643  10.760  66.340  1.00  0.00    -0.232 NA 
HETATM    5  C   UNL     1     -11.331  11.691  67.035  1.00  0.00    -0.305 A  
HETATM    6  C   UNL     1     -11.684  12.925  66.524  1.00  0.00    -0.453 A  
HETATM    7  C   UNL     1     -11.308  13.230  65.216  1.00  0.00    -0.317 A  
HETATM    8  C   UNL     1     -10.596  12.281  64.476  1.00  0.00    -0.346 A  
BRANCH   7   9
HETATM    9  C   UNL     1     -11.682  14.530  64.592  1.00  0.00    -0.431 C  
HETATM   10  N   UNL     1     -12.648  14.496  63.618  1.00  0.00    -0.992 N  
HETATM   11  S   UNL     1     -11.025  16.016  64.986  1.00  0.00    -0.297 S  
HETATM   12  H1  UNL     1     -12.904  15.386  63.191  1.00  0.00     0.000 HD 
HETATM   13  H2  UNL     1     -13.090  13.620  63.333  1.00  0.00     0.000 HD 
ENDBRANCH   7   9
ENDBRANCH   2   3
TORSDOF 2
ENDMDL
MODEL       52
REMARK 921   NORMALIZED FREE ENERGY PREDICTED BY IDOCK:   -3.67 KCAL/MOL
REMARK 922        TOTAL FREE ENERGY PREDICTED BY IDOCK:   -4.22 KCAL/MOL
REMARK 923 INTER-LIGAND FREE ENERGY PREDICTED BY IDOCK:   -4.12 KCAL/MOL
REMARK 924 INTRA-LIGAND FREE ENERGY PREDICTED BY IDOCK:   -0.10 KCAL/MOL
REMARK 927      BINDING AFFINITY PREDICTED BY RF-SCORE:    0.00 PKD
ROOT
HETATM    1  C   UNL     1     -10.270  16.694  68.617  1.00  0.00    -0.284 C  
HETATM    2  C   UNL     1     -11.658  16.070  68.598  1.00  0.00    -0.343 C  
ENDROOT
BRANCH   2   3
HETATM    3  C   UNL     1     -11.629  14.710  67.952  1.00  0.00    -0.348 A  
HETATM    4  N   UNL     1     -11.623  14.675  66.600  1.00  0.00    -0.365 NA 
HETATM    5  C   UNL     1     -11.673  13.466  66.004  1.00  0.00    -0.362 A  
HETATM    6  C   UNL     1     -11.725  12.271  66.696  1.00  0.00    -0.417 A  
HETATM    7  C   UNL     1     -11.726  12.314  68.090  1.00  0.00    -0.408 A  
HETATM    8  C   UNL     1     -11.676  13.557  68.730  1.00  0.00    -0.373 A  
BRANCH   7   9
HETATM    9  C   UNL     1     -11.812  11.066  68.898  1.00  0.00    -0.308 C  
HETATM   10  N   UNL     1     -11.393   9.906  68.295  1.00  0.00    -0.530 N  
HETATM   11  S   UNL     1     -12.370  10.968  70.471  1.00  0.00    -0.377 S  
HETATM   12  H1  UNL     1     -11.452   9.052  68.848  1.00  0.00     0.000 HD 
HETATM   13  H2  UNL     1     -11.039   9.900  67.337  1.00  0.00     0.000 HD 
ENDBRANCH   7   9
ENDBRANCH   2   3
TORSDOF 2
ENDMDL
MODEL       53
REMARK 921   NORMALIZED FREE ENERGY PREDICTED BY IDOCK:   -3.66 KCAL/MOL
REMARK 922        TOTAL FREE ENERGY PREDICTED BY IDOCK:   -4.21 KCAL/MOL
REMARK 923 INTER-LIGAND FREE ENERGY PREDICTED BY IDOCK:   -4.09 KCAL/MOL
REMARK 924 INTRA-LIGAND FREE ENERGY PREDICTED BY IDOCK:   -0.12 KCAL/MOL
REMARK 927      BINDING AFFINITY PREDICTED BY RF-SCORE:    0.00 PKD
ROOT
HETATM    1  C   UNL     1      -7.974  16.189  68.570  1.00  0.00    -0.175 C  
HETATM    2  C   UNL     1      -8.073  15.078  67.535  1.00  0.00    -0.200 C  
ENDROOT
BRANCH   2   3
HETATM    3  C   UNL     1      -9.145  15.380  66.521  1.00  0.00    -0.300 A  
HETATM    4  N   UNL     1      -9.565  16.663  66.440  1.00  0.00    -0.269 NA 
HETATM    5  C   UNL     1     -10.577  16.938  65.591  1.00  0.00    -0.221 A  
HETATM    6  C   UNL     1     -11.199  15.988  64.804  1.00  0.00    -0.348 A  
HETATM    7  C   UNL     1     -10.757  14.668  64.889  1.00  0.00    -0.447 A  
HETATM    8  C   UNL     1      -9.710  14.359  65.764  1.00  0.00    -0.283 A  
BRANCH   7   9
HETATM    9  C   UNL     1     -11.403  13.588  64.092  1.00  0.00    -0.340 C  
HETATM   10  N   UNL     1     -12.425  13.961  63.256  1.00  0.00    -1.112 N  
HETATM   11  S   UNL     1     -10.981  11.971  64.133  1.00  0.00    -0.397 S  
HETATM   12  H1  UNL     1     -12.867  13.221  62.710  1.00  0.00     0.000 HD 
HETATM   13  H2  UNL     1     -12.729  14.933  63.183  1.00  0.00     0.000 HD 
ENDBRANCH   7   9
ENDBRANCH   2   3
TORSDOF 2
ENDMDL
MODEL       54
REMARK 921   NORMALIZED FREE ENERGY PREDICTED BY IDOCK:   -3.66 KCAL/MOL
REMARK 922        TOTAL FREE ENERGY PREDICTED BY IDOCK:   -4.20 KCAL/MOL
REMARK 923 INTER-LIGAND FREE ENERGY PREDICTED BY IDOCK:   -4.10 KCAL/MOL
REMARK 924 INTRA-LIGAND FREE ENERGY PREDICTED BY IDOCK:   -0.10 KCAL/MOL
REMARK 927      BINDING AFFINITY PREDICTED BY RF-SCORE:    0.00 PKD
ROOT
HETATM    1  C   UNL     1     -14.409   8.009  71.555  1.00  0.00    -0.546 C  
HETATM    2  C   UNL     1     -13.538   8.906  72.422  1.00  0.00    -0.500 C  
ENDROOT
BRANCH   2   3
HETATM    3  C   UNL     1     -12.112   8.905  71.937  1.00  0.00    -0.373 A  
HETATM    4  N   UNL     1     -11.207   8.255  72.704  1.00  0.00    -0.376 NA 
HETATM    5  C   UNL     1      -9.913   8.307  72.325  1.00  0.00    -0.296 A  
HETATM    6  C   UNL     1      -9.468   8.980  71.203  1.00  0.00    -0.348 A  
HETATM    7  C   UNL     1     -10.408   9.644  70.415  1.00  0.00    -0.350 A  
HETATM    8  C   UNL     1     -11.755   9.605  70.789  1.00  0.00    -0.390 A  
BRANCH   7   9
HETATM    9  C   UNL     1      -9.994  10.414  69.210  1.00  0.00    -0.228 C  
HETATM   10  N   UNL     1      -8.798  11.084  69.282  1.00  0.00    -0.383 N  
HETATM   11  S   UNL     1     -10.862  10.523  67.785  1.00  0.00    -0.312 S  
HETATM   12  H1  UNL     1      -8.515  11.612  68.456  1.00  0.00     0.000 HD 
HETATM   13  H2  UNL     1      -8.220  11.057  70.123  1.00  0.00     0.000 HD 
ENDBRANCH   7   9
ENDBRANCH   2   3
TORSDOF 2
ENDMDL
MODEL       55
REMARK 921   NORMALIZED FREE ENERGY PREDICTED BY IDOCK:   -3.65 KCAL/MOL
REMARK 922        TOTAL FREE ENERGY PREDICTED BY IDOCK:   -4.19 KCAL/MOL
REMARK 923 INTER-LIGAND FREE ENERGY PREDICTED BY IDOCK:   -4.08 KCAL/MOL
REMARK 924 INTRA-LIGAND FREE ENERGY PREDICTED BY IDOCK:   -0.11 KCAL/MOL
REMARK 927      BINDING AFFINITY PREDICTED BY RF-SCORE:    0.00 PKD
ROOT
HETATM    1  C   UNL     1      -6.466  19.671  69.773  1.00  0.00    -0.355 C  
HETATM    2  C   UNL     1      -6.734  19.872  68.288  1.00  0.00    -0.323 C  
ENDROOT
BRANCH   2   3
HETATM    3  C   UNL     1      -8.148  19.489  67.939  1.00  0.00    -0.305 A  
HETATM    4  N   UNL     1      -8.859  20.379  67.210  1.00  0.00    -0.354 NA 
HETATM    5  C   UNL     1     -10.151  20.087  66.952  1.00  0.00    -0.467 A  
HETATM    6  C   UNL     1     -10.779  18.935  67.387  1.00  0.00    -0.519 A  
HETATM    7  C   UNL     1     -10.038  18.020  68.134  1.00  0.00    -0.378 A  
HETATM    8  C   UNL     1      -8.697  18.303  68.415  1.00  0.00    -0.325 A  
BRANCH   7   9
HETATM    9  C   UNL     1     -10.660  16.773  68.659  1.00  0.00    -0.353 C  
HETATM   10  N   UNL     1     -10.938  16.737  70.003  1.00  0.00    -0.388 N  
HETATM   11  S   UNL     1     -11.047  15.426  67.748  1.00  0.00    -0.314 S  
HETATM   12  H1  UNL     1     -11.364  15.883  70.362  1.00  0.00     0.000 HD 
HETATM   13  H2  UNL     1     -10.728  17.527  70.614  1.00  0.00     0.000 HD 
ENDBRANCH   7   9
ENDBRANCH   2   3
TORSDOF 2
ENDMDL
MODEL       56
REMARK 921   NORMALIZED FREE ENERGY PREDICTED BY IDOCK:   -3.65 KCAL/MOL
REMARK 922        TOTAL FREE ENERGY PREDICTED BY IDOCK:   -4.19 KCAL/MOL
REMARK 923 INTER-LIGAND FREE ENERGY PREDICTED BY IDOCK:   -4.07 KCAL/MOL
REMARK 924 INTRA-LIGAND FREE ENERGY PREDICTED BY IDOCK:   -0.12 KCAL/MOL
REMARK 927      BINDING AFFINITY PREDICTED BY RF-SCORE:    0.00 PKD
ROOT
HETATM    1  C   UNL     1     -12.140  11.251  69.731  1.00  0.00    -0.394 C  
HETATM    2  C   UNL     1     -12.245  12.705  70.168  1.00  0.00    -0.310 C  
ENDROOT
BRANCH   2   3
HETATM    3  C   UNL     1     -11.762  13.630  69.082  1.00  0.00    -0.329 A  
HETATM    4  N   UNL     1     -11.456  14.895  69.449  1.00  0.00    -0.281 NA 
HETATM    5  C   UNL     1     -11.094  15.759  68.477  1.00  0.00    -0.335 A  
HETATM    6  C   UNL     1     -11.015  15.421  67.140  1.00  0.00    -0.317 A  
HETATM    7  C   UNL     1     -11.327  14.113  66.770  1.00  0.00    -0.353 A  
HETATM    8  C   UNL     1     -11.707  13.201  67.760  1.00  0.00    -0.401 A  
BRANCH   7   9
HETATM    9  C   UNL     1     -11.293  13.689  65.343  1.00  0.00    -0.301 C  
HETATM   10  N   UNL     1     -10.316  14.243  64.553  1.00  0.00    -0.589 N  
HETATM   11  S   UNL     1     -12.340  12.596  64.632  1.00  0.00    -0.461 S  
HETATM   12  H1  UNL     1     -10.293  13.953  63.576  1.00  0.00     0.000 HD 
HETATM   13  H2  UNL     1      -9.645  14.915  64.927  1.00  0.00     0.000 HD 
ENDBRANCH   7   9
ENDBRANCH   2   3
TORSDOF 2
ENDMDL
MODEL       57
REMARK 921   NORMALIZED FREE ENERGY PREDICTED BY IDOCK:   -3.62 KCAL/MOL
REMARK 922        TOTAL FREE ENERGY PREDICTED BY IDOCK:   -4.15 KCAL/MOL
REMARK 923 INTER-LIGAND FREE ENERGY PREDICTED BY IDOCK:   -4.05 KCAL/MOL
REMARK 924 INTRA-LIGAND FREE ENERGY PREDICTED BY IDOCK:   -0.11 KCAL/MOL
REMARK 927      BINDING AFFINITY PREDICTED BY RF-SCORE:    0.00 PKD
ROOT
HETATM    1  C   UNL     1     -11.980  13.013  63.703  1.00  0.00    -0.608 C  
HETATM    2  C   UNL     1     -12.463  13.441  65.081  1.00  0.00    -0.509 C  
ENDROOT
BRANCH   2   3
HETATM    3  C   UNL     1     -11.711  12.714  66.166  1.00  0.00    -0.406 A  
HETATM    4  N   UNL     1     -10.671  11.944  65.776  1.00  0.00    -0.274 NA 
HETATM    5  C   UNL     1     -10.033  11.227  66.725  1.00  0.00    -0.206 A  
HETATM    6  C   UNL     1     -10.381  11.241  68.061  1.00  0.00    -0.204 A  
HETATM    7  C   UNL     1     -11.452  12.042  68.456  1.00  0.00    -0.345 A  
HETATM    8  C   UNL     1     -12.129  12.793  67.490  1.00  0.00    -0.213 A  
BRANCH   7   9
HETATM    9  C   UNL     1     -11.900  12.082  69.876  1.00  0.00    -0.331 C  
HETATM   10  N   UNL     1     -11.869  13.303  70.503  1.00  0.00    -0.542 N  
HETATM   11  S   UNL     1     -12.438  10.768  70.758  1.00  0.00    -0.409 S  
HETATM   12  H1  UNL     1     -12.176  13.329  71.475  1.00  0.00     0.000 HD 
HETATM   13  H2  UNL     1     -11.553  14.144  70.019  1.00  0.00     0.000 HD 
ENDBRANCH   7   9
ENDBRANCH   2   3
TORSDOF 2
ENDMDL
MODEL       58
REMARK 921   NORMALIZED FREE ENERGY PREDICTED BY IDOCK:   -3.62 KCAL/MOL
REMARK 922        TOTAL FREE ENERGY PREDICTED BY IDOCK:   -4.15 KCAL/MOL
REMARK 923 INTER-LIGAND FREE ENERGY PREDICTED BY IDOCK:   -4.04 KCAL/MOL
REMARK 924 INTRA-LIGAND FREE ENERGY PREDICTED BY IDOCK:   -0.11 KCAL/MOL
REMARK 927      BINDING AFFINITY PREDICTED BY RF-SCORE:    0.00 PKD
ROOT
HETATM    1  C   UNL     1      -9.959   9.658  66.434  1.00  0.00    -0.323 C  
HETATM    2  C   UNL     1     -10.167  10.560  65.226  1.00  0.00    -0.352 C  
ENDROOT
BRANCH   2   3
HETATM    3  C   UNL     1     -10.977  11.776  65.594  1.00  0.00    -0.295 A  
HETATM    4  N   UNL     1     -11.603  12.421  64.584  1.00  0.00    -0.330 NA 
HETATM    5  C   UNL     1     -12.270  13.555  64.884  1.00  0.00    -0.410 A  
HETATM    6  C   UNL     1     -12.351  14.084  66.157  1.00  0.00    -0.491 A  
HETATM    7  C   UNL     1     -11.706  13.411  67.195  1.00  0.00    -0.424 A  
HETATM    8  C   UNL     1     -11.007  12.234  66.907  1.00  0.00    -0.312 A  
BRANCH   7   9
HETATM    9  C   UNL     1     -11.726  13.942  68.586  1.00  0.00    -0.361 C  
HETATM   10  N   UNL     1     -11.722  13.019  69.602  1.00  0.00    -0.375 N  
HETATM   11  S   UNL     1     -11.749  15.560  69.003  1.00  0.00    -0.366 S  
HETATM   12  H1  UNL     1     -11.736  13.384  70.555  1.00  0.00     0.000 HD 
HETATM   13  H2  UNL     1     -11.706  12.016  69.414  1.00  0.00     0.000 HD 
ENDBRANCH   7   9
ENDBRANCH   2   3
TORSDOF 2
ENDMDL
MODEL       59
REMARK 921   NORMALIZED FREE ENERGY PREDICTED BY IDOCK:   -3.61 KCAL/MOL
REMARK 922        TOTAL FREE ENERGY PREDICTED BY IDOCK:   -4.15 KCAL/MOL
REMARK 923 INTER-LIGAND FREE ENERGY PREDICTED BY IDOCK:   -4.05 KCAL/MOL
REMARK 924 INTRA-LIGAND FREE ENERGY PREDICTED BY IDOCK:   -0.10 KCAL/MOL
REMARK 927      BINDING AFFINITY PREDICTED BY RF-SCORE:    0.00 PKD
ROOT
HETATM    1  C   UNL     1     -11.757  11.656  68.804  1.00  0.00    -0.392 C  
HETATM    2  C   UNL     1     -11.252  11.374  67.397  1.00  0.00    -0.370 C  
ENDROOT
BRANCH   2   3
HETATM    3  C   UNL     1     -11.442  12.574  66.506  1.00  0.00    -0.362 A  
HETATM    4  N   UNL     1     -12.323  12.446  65.489  1.00  0.00    -0.624 NA 
HETATM    5  C   UNL     1     -12.450  13.484  64.635  1.00  0.00    -0.323 A  
HETATM    6  C   UNL     1     -11.736  14.661  64.748  1.00  0.00    -0.429 A  
HETATM    7  C   UNL     1     -10.831  14.787  65.802  1.00  0.00    -0.334 A  
HETATM    8  C   UNL     1     -10.682  13.724  66.698  1.00  0.00    -0.277 A  
BRANCH   7   9
HETATM    9  C   UNL     1     -10.007  16.017  65.964  1.00  0.00    -0.339 C  
HETATM   10  N   UNL     1     -10.585  17.205  65.595  1.00  0.00    -0.271 N  
HETATM   11  S   UNL     1      -8.445  16.063  66.560  1.00  0.00    -0.323 S  
HETATM   12  H1  UNL     1     -10.020  18.047  65.707  1.00  0.00     0.000 HD 
HETATM   13  H2  UNL     1     -11.536  17.245  65.227  1.00  0.00     0.000 HD 
ENDBRANCH   7   9
ENDBRANCH   2   3
TORSDOF 2
ENDMDL
MODEL       60
REMARK 921   NORMALIZED FREE ENERGY PREDICTED BY IDOCK:   -3.61 KCAL/MOL
REMARK 922        TOTAL FREE ENERGY PREDICTED BY IDOCK:   -4.14 KCAL/MOL
REMARK 923 INTER-LIGAND FREE ENERGY PREDICTED BY IDOCK:   -4.05 KCAL/MOL
REMARK 924 INTRA-LIGAND FREE ENERGY PREDICTED BY IDOCK:   -0.10 KCAL/MOL
REMARK 927      BINDING AFFINITY PREDICTED BY RF-SCORE:    0.00 PKD
ROOT
HETATM    1  C   UNL     1     -13.712  15.431  71.421  1.00  0.00    -0.591 C  
HETATM    2  C   UNL     1     -12.217  15.217  71.236  1.00  0.00    -0.408 C  
ENDROOT
BRANCH   2   3
HETATM    3  C   UNL     1     -11.851  15.199  69.775  1.00  0.00    -0.333 A  
HETATM    4  N   UNL     1     -12.041  14.036  69.113  1.00  0.00    -0.355 NA 
HETATM    5  C   UNL     1     -11.649  13.978  67.823  1.00  0.00    -0.345 A  
HETATM    6  C   UNL     1     -11.071  15.037  67.149  1.00  0.00    -0.332 A  
HETATM    7  C   UNL     1     -10.882  16.235  67.838  1.00  0.00    -0.330 A  
HETATM    8  C   UNL     1     -11.280  16.317  69.176  1.00  0.00    -0.309 A  
BRANCH   7   9
HETATM    9  C   UNL     1     -10.238  17.406  67.181  1.00  0.00    -0.323 C  
HETATM   10  N   UNL     1      -9.220  17.141  66.299  1.00  0.00    -0.252 N  
HETATM   11  S   UNL     1     -10.656  19.006  67.428  1.00  0.00    -0.469 S  
HETATM   12  H1  UNL     1      -8.779  17.943  65.849  1.00  0.00     0.000 HD 
HETATM   13  H2  UNL     1      -8.919  16.185  66.102  1.00  0.00     0.000 HD 
ENDBRANCH   7   9
ENDBRANCH   2   3
TORSDOF 2
ENDMDL
MODEL       61
REMARK 921   NORMALIZED FREE ENERGY PREDICTED BY IDOCK:   -3.60 KCAL/MOL
REMARK 922        TOTAL FREE ENERGY PREDICTED BY IDOCK:   -4.14 KCAL/MOL
REMARK 923 INTER-LIGAND FREE ENERGY PREDICTED BY IDOCK:   -4.02 KCAL/MOL
REMARK 924 INTRA-LIGAND FREE ENERGY PREDICTED BY IDOCK:   -0.12 KCAL/MOL
REMARK 927      BINDING AFFINITY PREDICTED BY RF-SCORE:    0.00 PKD
ROOT
HETATM    1  C   UNL     1     -13.543  13.570  72.262  1.00  0.00    -0.690 C  
HETATM    2  C   UNL     1     -13.504  14.842  71.428  1.00  0.00    -0.502 C  
ENDROOT
BRANCH   2   3
HETATM    3  C   UNL     1     -12.528  14.709  70.288  1.00  0.00    -0.346 A  
HETATM    4  N   UNL     1     -12.272  15.827  69.571  1.00  0.00    -0.259 NA 
HETATM    5  C   UNL     1     -11.459  15.711  68.500  1.00  0.00    -0.375 A  
HETATM    6  C   UNL     1     -10.877  14.522  68.103  1.00  0.00    -0.246 A  
HETATM    7  C   UNL     1     -11.143  13.375  68.850  1.00  0.00    -0.307 A  
HETATM    8  C   UNL     1     -11.984  13.471  69.964  1.00  0.00    -0.410 A  
BRANCH   7   9
HETATM    9  C   UNL     1     -10.574  12.055  68.461  1.00  0.00    -0.231 C  
HETATM   10  N   UNL     1     -10.426  11.124  69.459  1.00  0.00    -0.439 N  
HETATM   11  S   UNL     1     -10.108  11.619  66.915  1.00  0.00    -0.215 S  
HETATM   12  H1  UNL     1     -10.037  10.220  69.192  1.00  0.00     0.000 HD 
HETATM   13  H2  UNL     1     -10.694  11.327  70.423  1.00  0.00     0.000 HD 
ENDBRANCH   7   9
ENDBRANCH   2   3
TORSDOF 2
ENDMDL
MODEL       62
REMARK 921   NORMALIZED FREE ENERGY PREDICTED BY IDOCK:   -3.60 KCAL/MOL
REMARK 922        TOTAL FREE ENERGY PREDICTED BY IDOCK:   -4.13 KCAL/MOL
REMARK 923 INTER-LIGAND FREE ENERGY PREDICTED BY IDOCK:   -4.04 KCAL/MOL
REMARK 924 INTRA-LIGAND FREE ENERGY PREDICTED BY IDOCK:   -0.09 KCAL/MOL
REMARK 927      BINDING AFFINITY PREDICTED BY RF-SCORE:    0.00 PKD
ROOT
HETATM    1  C   UNL     1     -12.272  13.149  64.624  1.00  0.00    -0.471 C  
HETATM    2  C   UNL     1     -11.082  13.512  65.502  1.00  0.00    -0.303 C  
ENDROOT
BRANCH   2   3
HETATM    3  C   UNL     1     -11.420  13.350  66.961  1.00  0.00    -0.337 A  
HETATM    4  N   UNL     1     -11.621  14.483  67.671  1.00  0.00    -0.362 NA 
HETATM    5  C   UNL     1     -11.850  14.360  68.995  1.00  0.00    -0.323 A  
HETATM    6  C   UNL     1     -11.893  13.149  69.657  1.00  0.00    -0.390 A  
HETATM    7  C   UNL     1     -11.688  11.984  68.918  1.00  0.00    -0.383 A  
HETATM    8  C   UNL     1     -11.448  12.087  67.544  1.00  0.00    -0.403 A  
BRANCH   7   9
HETATM    9  C   UNL     1     -11.691  10.646  69.573  1.00  0.00    -0.284 C  
HETATM   10  N   UNL     1     -12.896  10.189  70.047  1.00  0.00    -0.522 N  
HETATM   11  S   UNL     1     -10.353   9.664  69.772  1.00  0.00    -0.260 S  
HETATM   12  H1  UNL     1     -12.897   9.274  70.495  1.00  0.00     0.000 HD 
HETATM   13  H2  UNL     1     -13.750  10.741  69.954  1.00  0.00     0.000 HD 
ENDBRANCH   7   9
ENDBRANCH   2   3
TORSDOF 2
ENDMDL
MODEL       63
REMARK 921   NORMALIZED FREE ENERGY PREDICTED BY IDOCK:   -3.58 KCAL/MOL
REMARK 922        TOTAL FREE ENERGY PREDICTED BY IDOCK:   -4.12 KCAL/MOL
REMARK 923 INTER-LIGAND FREE ENERGY PREDICTED BY IDOCK:   -4.00 KCAL/MOL
REMARK 924 INTRA-LIGAND FREE ENERGY PREDICTED BY IDOCK:   -0.12 KCAL/MOL
REMARK 927      BINDING AFFINITY PREDICTED BY RF-SCORE:    0.00 PKD
ROOT
HETATM    1  C   UNL     1      -8.562   9.295  64.279  1.00  0.00    -0.214 C  
HETATM    2  C   UNL     1      -9.335  10.160  63.294  1.00  0.00    -0.332 C  
ENDROOT
BRANCH   2   3
HETATM    3  C   UNL     1     -10.349  11.014  64.009  1.00  0.00    -0.371 A  
HETATM    4  N   UNL     1     -11.048  11.892  63.254  1.00  0.00    -0.349 NA 
HETATM    5  C   UNL     1     -11.907  12.718  63.888  1.00  0.00    -0.468 A  
HETATM    6  C   UNL     1     -12.111  12.711  65.254  1.00  0.00    -0.519 A  
HETATM    7  C   UNL     1     -11.390  11.800  66.025  1.00  0.00    -0.335 A  
HETATM    8  C   UNL     1     -10.493  10.935  65.390  1.00  0.00    -0.291 A  
BRANCH   7   9
HETATM    9  C   UNL     1     -11.539  11.759  67.506  1.00  0.00    -0.291 C  
HETATM   10  N   UNL     1     -11.533  10.520  68.097  1.00  0.00    -0.468 N  
HETATM   11  S   UNL     1     -11.707  13.094  68.499  1.00  0.00    -0.363 S  
HETATM   12  H1  UNL     1     -11.634  10.493  69.112  1.00  0.00     0.000 HD 
HETATM   13  H2  UNL     1     -11.431   9.666  67.547  1.00  0.00     0.000 HD 
ENDBRANCH   7   9
ENDBRANCH   2   3
TORSDOF 2
ENDMDL
MODEL       64
REMARK 921   NORMALIZED FREE ENERGY PREDICTED BY IDOCK:   -3.57 KCAL/MOL
REMARK 922        TOTAL FREE ENERGY PREDICTED BY IDOCK:   -4.10 KCAL/MOL
REMARK 923 INTER-LIGAND FREE ENERGY PREDICTED BY IDOCK:   -3.99 KCAL/MOL
REMARK 924 INTRA-LIGAND FREE ENERGY PREDICTED BY IDOCK:   -0.10 KCAL/MOL
REMARK 927      BINDING AFFINITY PREDICTED BY RF-SCORE:    0.00 PKD
ROOT
HETATM    1  C   UNL     1     -10.304  19.815  65.862  1.00  0.00    -0.582 C  
HETATM    2  C   UNL     1     -10.872  19.538  67.247  1.00  0.00    -0.557 C  
ENDROOT
BRANCH   2   3
HETATM    3  C   UNL     1     -10.140  18.402  67.912  1.00  0.00    -0.362 A  
HETATM    4  N   UNL     1      -8.789  18.441  67.874  1.00  0.00    -0.275 NA 
HETATM    5  C   UNL     1      -8.118  17.394  68.398  1.00  0.00    -0.264 A  
HETATM    6  C   UNL     1      -8.733  16.297  68.970  1.00  0.00    -0.246 A  
HETATM    7  C   UNL     1     -10.126  16.267  69.010  1.00  0.00    -0.259 A  
HETATM    8  C   UNL     1     -10.843  17.340  68.471  1.00  0.00    -0.240 A  
BRANCH   7   9
HETATM    9  C   UNL     1     -10.854  15.101  69.585  1.00  0.00    -0.286 C  
HETATM   10  N   UNL     1     -10.827  14.964  70.950  1.00  0.00    -0.543 N  
HETATM   11  S   UNL     1     -11.699  13.958  68.705  1.00  0.00    -0.380 S  
HETATM   12  H1  UNL     1     -11.325  14.166  71.343  1.00  0.00     0.000 HD 
HETATM   13  H2  UNL     1     -10.331  15.630  71.544  1.00  0.00     0.000 HD 
ENDBRANCH   7   9
ENDBRANCH   2   3
TORSDOF 2
ENDMDL
MODEL       65
REMARK 921   NORMALIZED FREE ENERGY PREDICTED BY IDOCK:   -3.55 KCAL/MOL
REMARK 922        TOTAL FREE ENERGY PREDICTED BY IDOCK:   -4.08 KCAL/MOL
REMARK 923 INTER-LIGAND FREE ENERGY PREDICTED BY IDOCK:   -3.98 KCAL/MOL
REMARK 924 INTRA-LIGAND FREE ENERGY PREDICTED BY IDOCK:   -0.10 KCAL/MOL
REMARK 927      BINDING AFFINITY PREDICTED BY RF-SCORE:    0.00 PKD
ROOT
HETATM    1  C   UNL     1     -11.504   8.599  71.734  1.00  0.00    -0.394 C  
HETATM    2  C   UNL     1     -12.062   9.974  71.397  1.00  0.00    -0.498 C  
ENDROOT
BRANCH   2   3
HETATM    3  C   UNL     1     -11.385  10.547  70.179  1.00  0.00    -0.323 A  
HETATM    4  N   UNL     1     -10.156  10.067  69.882  1.00  0.00    -0.247 NA 
HETATM    5  C   UNL     1      -9.503  10.622  68.840  1.00  0.00    -0.192 A  
HETATM    6  C   UNL     1     -10.019  11.642  68.065  1.00  0.00    -0.194 A  
HETATM    7  C   UNL     1     -11.289  12.129  68.375  1.00  0.00    -0.336 A  
HETATM    8  C   UNL     1     -11.985  11.570  69.452  1.00  0.00    -0.392 A  
BRANCH   7   9
HETATM    9  C   UNL     1     -11.894  13.249  67.601  1.00  0.00    -0.357 C  
HETATM   10  N   UNL     1     -12.277  14.359  68.312  1.00  0.00    -0.600 N  
HETATM   11  S   UNL     1     -12.137  13.261  65.947  1.00  0.00    -0.447 S  
HETATM   12  H1  UNL     1     -12.691  15.125  67.781  1.00  0.00     0.000 HD 
HETATM   13  H2  UNL     1     -12.153  14.415  69.323  1.00  0.00     0.000 HD 
ENDBRANCH   7   9
ENDBRANCH   2   3
TORSDOF 2
ENDMDL
MODEL       66
REMARK 921   NORMALIZED FREE ENERGY PREDICTED BY IDOCK:   -3.54 KCAL/MOL
REMARK 922        TOTAL FREE ENERGY PREDICTED BY IDOCK:   -4.06 KCAL/MOL
REMARK 923 INTER-LIGAND FREE ENERGY PREDICTED BY IDOCK:   -3.96 KCAL/MOL
REMARK 924 INTRA-LIGAND FREE ENERGY PREDICTED BY IDOCK:   -0.11 KCAL/MOL
REMARK 927      BINDING AFFINITY PREDICTED BY RF-SCORE:    0.00 PKD
ROOT
HETATM    1  C   UNL     1     -12.124  14.986  70.313  1.00  0.00    -0.378 C  
HETATM    2  C   UNL     1     -11.442  14.401  69.085  1.00  0.00    -0.328 C  
ENDROOT
BRANCH   2   3
HETATM    3  C   UNL     1     -10.948  15.492  68.171  1.00  0.00    -0.312 A  
HETATM    4  N   UNL     1     -10.916  15.213  66.849  1.00  0.00    -0.322 NA 
HETATM    5  C   UNL     1     -10.406  16.150  66.023  1.00  0.00    -0.358 A  
HETATM    6  C   UNL     1      -9.922  17.370  66.453  1.00  0.00    -0.322 A  
HETATM    7  C   UNL     1      -9.962  17.653  67.818  1.00  0.00    -0.315 A  
HETATM    8  C   UNL     1     -10.485  16.695  68.693  1.00  0.00    -0.323 A  
BRANCH   7   9
HETATM    9  C   UNL     1      -9.428  18.936  68.354  1.00  0.00    -0.356 C  
HETATM   10  N   UNL     1     -10.346  19.839  68.831  1.00  0.00    -0.594 N  
HETATM   11  S   UNL     1      -7.812  19.359  68.423  1.00  0.00    -0.350 S  
HETATM   12  H1  UNL     1      -9.981  20.717  69.198  1.00  0.00     0.000 HD 
HETATM   13  H2  UNL     1     -11.347  19.640  68.819  1.00  0.00     0.000 HD 
ENDBRANCH   7   9
ENDBRANCH   2   3
TORSDOF 2
ENDMDL
MODEL       67
REMARK 921   NORMALIZED FREE ENERGY PREDICTED BY IDOCK:   -3.54 KCAL/MOL
REMARK 922        TOTAL FREE ENERGY PREDICTED BY IDOCK:   -4.06 KCAL/MOL
REMARK 923 INTER-LIGAND FREE ENERGY PREDICTED BY IDOCK:   -3.95 KCAL/MOL
REMARK 924 INTRA-LIGAND FREE ENERGY PREDICTED BY IDOCK:   -0.11 KCAL/MOL
REMARK 927      BINDING AFFINITY PREDICTED BY RF-SCORE:    0.00 PKD
ROOT
HETATM    1  C   UNL     1     -11.057  14.861  66.463  1.00  0.00    -0.341 C  
HETATM    2  C   UNL     1     -10.627  15.417  67.813  1.00  0.00    -0.274 C  
ENDROOT
BRANCH   2   3
HETATM    3  C   UNL     1     -11.419  14.793  68.931  1.00  0.00    -0.297 A  
HETATM    4  N   UNL     1     -12.058  15.637  69.772  1.00  0.00    -0.360 NA 
HETATM    5  C   UNL     1     -12.710  15.099  70.824  1.00  0.00    -0.405 A  
HETATM    6  C   UNL     1     -12.761  13.743  71.082  1.00  0.00    -0.438 A  
HETATM    7  C   UNL     1     -12.103  12.878  70.208  1.00  0.00    -0.377 A  
HETATM    8  C   UNL     1     -11.420  13.413  69.112  1.00  0.00    -0.351 A  
BRANCH   7   9
HETATM    9  C   UNL     1     -12.093  11.407  70.444  1.00  0.00    -0.384 C  
HETATM   10  N   UNL     1     -11.290  10.653  69.625  1.00  0.00    -0.271 N  
HETATM   11  S   UNL     1     -12.972  10.610  71.621  1.00  0.00    -0.456 S  
HETATM   12  H1  UNL     1     -11.283   9.646  69.787  1.00  0.00     0.000 HD 
HETATM   13  H2  UNL     1     -10.727  11.080  68.888  1.00  0.00     0.000 HD 
ENDBRANCH   7   9
ENDBRANCH   2   3
TORSDOF 2
ENDMDL
MODEL       68
REMARK 921   NORMALIZED FREE ENERGY PREDICTED BY IDOCK:   -3.53 KCAL/MOL
REMARK 922        TOTAL FREE ENERGY PREDICTED BY IDOCK:   -4.06 KCAL/MOL
REMARK 923 INTER-LIGAND FREE ENERGY PREDICTED BY IDOCK:   -3.94 KCAL/MOL
REMARK 924 INTRA-LIGAND FREE ENERGY PREDICTED BY IDOCK:   -0.11 KCAL/MOL
REMARK 927      BINDING AFFINITY PREDICTED BY RF-SCORE:    0.00 PKD
ROOT
HETATM    1  C   UNL     1      -9.990   7.902  66.906  1.00  0.00    -0.332 C  
HETATM    2  C   UNL     1     -10.310   8.779  68.107  1.00  0.00    -0.266 C  
ENDROOT
BRANCH   2   3
HETATM    3  C   UNL     1     -10.744  10.154  67.670  1.00  0.00    -0.285 A  
HETATM    4  N   UNL     1     -11.294  10.949  68.615  1.00  0.00    -0.272 NA 
HETATM    5  C   UNL     1     -11.758  12.155  68.226  1.00  0.00    -0.342 A  
HETATM    6  C   UNL     1     -11.698  12.618  66.926  1.00  0.00    -0.453 A  
HETATM    7  C   UNL     1     -11.125  11.793  65.958  1.00  0.00    -0.363 A  
HETATM    8  C   UNL     1     -10.638  10.538  66.338  1.00  0.00    -0.218 A  
BRANCH   7   9
HETATM    9  C   UNL     1     -11.055  12.216  64.531  1.00  0.00    -0.325 C  
HETATM   10  N   UNL     1      -9.804  12.435  64.010  1.00  0.00    -0.594 N  
HETATM   11  S   UNL     1     -12.369  12.440  63.522  1.00  0.00    -0.496 S  
HETATM   12  H1  UNL     1      -9.757  12.725  63.033  1.00  0.00     0.000 HD 
HETATM   13  H2  UNL     1      -8.961  12.315  64.573  1.00  0.00     0.000 HD 
ENDBRANCH   7   9
ENDBRANCH   2   3
TORSDOF 2
ENDMDL
MODEL       69
REMARK 921   NORMALIZED FREE ENERGY PREDICTED BY IDOCK:   -3.53 KCAL/MOL
REMARK 922        TOTAL FREE ENERGY PREDICTED BY IDOCK:   -4.06 KCAL/MOL
REMARK 923 INTER-LIGAND FREE ENERGY PREDICTED BY IDOCK:   -3.94 KCAL/MOL
REMARK 924 INTRA-LIGAND FREE ENERGY PREDICTED BY IDOCK:   -0.12 KCAL/MOL
REMARK 927      BINDING AFFINITY PREDICTED BY RF-SCORE:    0.00 PKD
ROOT
HETATM    1  C   UNL     1     -10.983   6.804  67.545  1.00  0.00    -0.375 C  
HETATM    2  C   UNL     1     -10.640   5.685  68.518  1.00  0.00    -0.259 C  
ENDROOT
BRANCH   2   3
HETATM    3  C   UNL     1     -10.912   6.104  69.939  1.00  0.00    -0.389 A  
HETATM    4  N   UNL     1     -10.527   5.247  70.912  1.00  0.00    -0.236 NA 
HETATM    5  C   UNL     1     -10.830   5.570  72.187  1.00  0.00    -0.235 A  
HETATM    6  C   UNL     1     -11.503   6.721  72.547  1.00  0.00    -0.270 A  
HETATM    7  C   UNL     1     -11.893   7.602  71.539  1.00  0.00    -0.323 A  
HETATM    8  C   UNL     1     -11.591   7.287  70.210  1.00  0.00    -0.208 A  
BRANCH   7   9
HETATM    9  C   UNL     1     -12.649   8.846  71.854  1.00  0.00    -0.377 C  
HETATM   10  N   UNL     1     -13.576   8.770  72.863  1.00  0.00    -0.841 N  
HETATM   11  S   UNL     1     -12.456  10.317  71.084  1.00  0.00    -0.428 S  
HETATM   12  H1  UNL     1     -14.094   9.622  73.079  1.00  0.00     0.000 HD 
HETATM   13  H2  UNL     1     -13.740   7.901  73.374  1.00  0.00     0.000 HD 
ENDBRANCH   7   9
ENDBRANCH   2   3
TORSDOF 2
ENDMDL
MODEL       70
REMARK 921   NORMALIZED FREE ENERGY PREDICTED BY IDOCK:   -3.52 KCAL/MOL
REMARK 922        TOTAL FREE ENERGY PREDICTED BY IDOCK:   -4.04 KCAL/MOL
REMARK 923 INTER-LIGAND FREE ENERGY PREDICTED BY IDOCK:   -3.94 KCAL/MOL
REMARK 924 INTRA-LIGAND FREE ENERGY PREDICTED BY IDOCK:   -0.10 KCAL/MOL
REMARK 927      BINDING AFFINITY PREDICTED BY RF-SCORE:    0.00 PKD
ROOT
HETATM    1  C   UNL     1     -12.223  13.498  70.567  1.00  0.00    -0.433 C  
HETATM    2  C   UNL     1     -11.722  12.311  69.758  1.00  0.00    -0.368 C  
ENDROOT
BRANCH   2   3
HETATM    3  C   UNL     1     -12.010  11.014  70.468  1.00  0.00    -0.379 A  
HETATM    4  N   UNL     1     -13.021  11.022  71.367  1.00  0.00    -0.422 NA 
HETATM    5  C   UNL     1     -13.244   9.890  72.067  1.00  0.00    -0.456 A  
HETATM    6  C   UNL     1     -12.504   8.734  71.914  1.00  0.00    -0.434 A  
HETATM    7  C   UNL     1     -11.466   8.732  70.982  1.00  0.00    -0.337 A  
HETATM    8  C   UNL     1     -11.215   9.894  70.245  1.00  0.00    -0.364 A  
BRANCH   7   9
HETATM    9  C   UNL     1     -10.609   7.530  70.788  1.00  0.00    -0.220 C  
HETATM   10  N   UNL     1      -9.488   7.433  71.575  1.00  0.00    -0.152 N  
HETATM   11  S   UNL     1     -10.904   6.297  69.697  1.00  0.00    -0.376 S  
HETATM   12  H1  UNL     1      -8.902   6.609  71.441  1.00  0.00     0.000 HD 
HETATM   13  H2  UNL     1      -9.253   8.151  72.261  1.00  0.00     0.000 HD 
ENDBRANCH   7   9
ENDBRANCH   2   3
TORSDOF 2
ENDMDL
MODEL       71
REMARK 921   NORMALIZED FREE ENERGY PREDICTED BY IDOCK:   -3.51 KCAL/MOL
REMARK 922        TOTAL FREE ENERGY PREDICTED BY IDOCK:   -4.03 KCAL/MOL
REMARK 923 INTER-LIGAND FREE ENERGY PREDICTED BY IDOCK:   -3.92 KCAL/MOL
REMARK 924 INTRA-LIGAND FREE ENERGY PREDICTED BY IDOCK:   -0.11 KCAL/MOL
REMARK 927      BINDING AFFINITY PREDICTED BY RF-SCORE:    0.00 PKD
ROOT
HETATM    1  C   UNL     1     -12.206  12.539  70.688  1.00  0.00    -0.365 C  
HETATM    2  C   UNL     1     -11.875  11.544  69.586  1.00  0.00    -0.421 C  
ENDROOT
BRANCH   2   3
HETATM    3  C   UNL     1     -11.618  12.251  68.281  1.00  0.00    -0.331 A  
HETATM    4  N   UNL     1     -12.137  13.492  68.147  1.00  0.00    -0.321 NA 
HETATM    5  C   UNL     1     -11.982  14.111  66.957  1.00  0.00    -0.439 A  
HETATM    6  C   UNL     1     -11.323  13.550  65.881  1.00  0.00    -0.321 A  
HETATM    7  C   UNL     1     -10.786  12.271  66.028  1.00  0.00    -0.296 A  
HETATM    8  C   UNL     1     -10.936  11.610  67.252  1.00  0.00    -0.318 A  
BRANCH   7   9
HETATM    9  C   UNL     1     -10.089  11.595  64.899  1.00  0.00    -0.260 C  
HETATM   10  N   UNL     1     -10.008  12.287  63.716  1.00  0.00    -0.573 N  
HETATM   11  S   UNL     1      -9.401  10.072  64.959  1.00  0.00    -0.277 S  
HETATM   12  H1  UNL     1      -9.531  11.823  62.943  1.00  0.00     0.000 HD 
HETATM   13  H2  UNL     1     -10.406  13.221  63.615  1.00  0.00     0.000 HD 
ENDBRANCH   7   9
ENDBRANCH   2   3
TORSDOF 2
ENDMDL
MODEL       72
REMARK 921   NORMALIZED FREE ENERGY PREDICTED BY IDOCK:   -3.49 KCAL/MOL
REMARK 922        TOTAL FREE ENERGY PREDICTED BY IDOCK:   -4.02 KCAL/MOL
REMARK 923 INTER-LIGAND FREE ENERGY PREDICTED BY IDOCK:   -3.91 KCAL/MOL
REMARK 924 INTRA-LIGAND FREE ENERGY PREDICTED BY IDOCK:   -0.10 KCAL/MOL
REMARK 927      BINDING AFFINITY PREDICTED BY RF-SCORE:    0.00 PKD
ROOT
HETATM    1  C   UNL     1     -10.666  11.341  67.318  1.00  0.00    -0.295 C  
HETATM    2  C   UNL     1     -10.690  12.183  68.586  1.00  0.00    -0.261 C  
ENDROOT
BRANCH   2   3
HETATM    3  C   UNL     1     -11.444  11.481  69.684  1.00  0.00    -0.301 A  
HETATM    4  N   UNL     1     -12.232  12.249  70.471  1.00  0.00    -0.350 NA 
HETATM    5  C   UNL     1     -12.856  11.650  71.507  1.00  0.00    -0.364 A  
HETATM    6  C   UNL     1     -12.737  10.306  71.801  1.00  0.00    -0.535 A  
HETATM    7  C   UNL     1     -11.926   9.519  70.983  1.00  0.00    -0.407 A  
HETATM    8  C   UNL     1     -11.269  10.118  69.904  1.00  0.00    -0.343 A  
BRANCH   7   9
HETATM    9  C   UNL     1     -11.729   8.069  71.260  1.00  0.00    -0.282 C  
HETATM   10  N   UNL     1     -12.804   7.244  71.043  1.00  0.00    -0.581 N  
HETATM   11  S   UNL     1     -10.312   7.373  71.809  1.00  0.00    -0.192 S  
HETATM   12  H1  UNL     1     -12.669   6.251  71.233  1.00  0.00     0.000 HD 
HETATM   13  H2  UNL     1     -13.697   7.607  70.707  1.00  0.00     0.000 HD 
ENDBRANCH   7   9
ENDBRANCH   2   3
TORSDOF 2
ENDMDL
MODEL       73
REMARK 921   NORMALIZED FREE ENERGY PREDICTED BY IDOCK:   -3.48 KCAL/MOL
REMARK 922        TOTAL FREE ENERGY PREDICTED BY IDOCK:   -4.01 KCAL/MOL
REMARK 923 INTER-LIGAND FREE ENERGY PREDICTED BY IDOCK:   -3.89 KCAL/MOL
REMARK 924 INTRA-LIGAND FREE ENERGY PREDICTED BY IDOCK:   -0.12 KCAL/MOL
REMARK 927      BINDING AFFINITY PREDICTED BY RF-SCORE:    0.00 PKD
ROOT
HETATM    1  C   UNL     1      -9.839   9.591  66.109  1.00  0.00    -0.343 C  
HETATM    2  C   UNL     1     -10.533   9.215  67.410  1.00  0.00    -0.339 C  
ENDROOT
BRANCH   2   3
HETATM    3  C   UNL     1     -11.031  10.441  68.130  1.00  0.00    -0.281 A  
HETATM    4  N   UNL     1     -11.380  10.288  69.427  1.00  0.00    -0.237 NA 
HETATM    5  C   UNL     1     -11.899  11.357  70.067  1.00  0.00    -0.359 A  
HETATM    6  C   UNL     1     -12.088  12.590  69.472  1.00  0.00    -0.248 A  
HETATM    7  C   UNL     1     -11.722  12.741  68.134  1.00  0.00    -0.392 A  
HETATM    8  C   UNL     1     -11.183  11.646  67.451  1.00  0.00    -0.358 A  
BRANCH   7   9
HETATM    9  C   UNL     1     -11.927  14.033  67.423  1.00  0.00    -0.404 C  
HETATM   10  N   UNL     1     -11.861  15.176  68.180  1.00  0.00    -0.491 N  
HETATM   11  S   UNL     1     -12.223  14.200  65.786  1.00  0.00    -0.436 S  
HETATM   12  H1  UNL     1     -12.002  16.061  67.692  1.00  0.00     0.000 HD 
HETATM   13  H2  UNL     1     -11.681  15.142  69.184  1.00  0.00     0.000 HD 
ENDBRANCH   7   9
ENDBRANCH   2   3
TORSDOF 2
ENDMDL
MODEL       74
REMARK 921   NORMALIZED FREE ENERGY PREDICTED BY IDOCK:   -3.47 KCAL/MOL
REMARK 922        TOTAL FREE ENERGY PREDICTED BY IDOCK:   -3.99 KCAL/MOL
REMARK 923 INTER-LIGAND FREE ENERGY PREDICTED BY IDOCK:   -3.88 KCAL/MOL
REMARK 924 INTRA-LIGAND FREE ENERGY PREDICTED BY IDOCK:   -0.11 KCAL/MOL
REMARK 927      BINDING AFFINITY PREDICTED BY RF-SCORE:    0.00 PKD
ROOT
HETATM    1  C   UNL     1     -13.572   7.361  71.642  1.00  0.00    -0.449 C  
HETATM    2  C   UNL     1     -12.105   7.320  72.045  1.00  0.00    -0.327 C  
ENDROOT
BRANCH   2   3
HETATM    3  C   UNL     1     -11.332   6.369  71.169  1.00  0.00    -0.319 A  
HETATM    4  N   UNL     1     -10.527   5.481  71.795  1.00  0.00    -0.222 NA 
HETATM    5  C   UNL     1      -9.770   4.671  71.025  1.00  0.00    -0.188 A  
HETATM    6  C   UNL     1      -9.777   4.699  69.644  1.00  0.00    -0.283 A  
HETATM    7  C   UNL     1     -10.613   5.615  69.006  1.00  0.00    -0.316 A  
HETATM    8  C   UNL     1     -11.406   6.465  69.783  1.00  0.00    -0.494 A  
BRANCH   7   9
HETATM    9  C   UNL     1     -10.647   5.720  67.520  1.00  0.00    -0.253 C  
HETATM   10  N   UNL     1     -11.339   6.780  66.989  1.00  0.00    -0.778 N  
HETATM   11  S   UNL     1      -9.912   4.659  66.458  1.00  0.00    -0.251 S  
HETATM   12  H1  UNL     1     -11.362   6.851  65.972  1.00  0.00     0.000 HD 
HETATM   13  H2  UNL     1     -11.809   7.464  67.583  1.00  0.00     0.000 HD 
ENDBRANCH   7   9
ENDBRANCH   2   3
TORSDOF 2
ENDMDL
MODEL       75
REMARK 921   NORMALIZED FREE ENERGY PREDICTED BY IDOCK:   -3.47 KCAL/MOL
REMARK 922        TOTAL FREE ENERGY PREDICTED BY IDOCK:   -3.99 KCAL/MOL
REMARK 923 INTER-LIGAND FREE ENERGY PREDICTED BY IDOCK:   -3.87 KCAL/MOL
REMARK 924 INTRA-LIGAND FREE ENERGY PREDICTED BY IDOCK:   -0.11 KCAL/MOL
REMARK 927      BINDING AFFINITY PREDICTED BY RF-SCORE:    0.00 PKD
ROOT
HETATM    1  C   UNL     1      -7.690  15.221  67.277  1.00  0.00    -0.243 C  
HETATM    2  C   UNL     1      -8.558  14.623  68.374  1.00  0.00    -0.169 C  
ENDROOT
BRANCH   2   3
HETATM    3  C   UNL     1      -9.888  14.175  67.826  1.00  0.00    -0.231 A  
HETATM    4  N   UNL     1     -10.673  13.446  68.650  1.00  0.00    -0.253 NA 
HETATM    5  C   UNL     1     -11.834  12.972  68.151  1.00  0.00    -0.340 A  
HETATM    6  C   UNL     1     -12.260  13.195  66.856  1.00  0.00    -0.284 A  
HETATM    7  C   UNL     1     -11.447  13.952  66.014  1.00  0.00    -0.345 A  
HETATM    8  C   UNL     1     -10.238  14.452  66.509  1.00  0.00    -0.276 A  
BRANCH   7   9
HETATM    9  C   UNL     1     -11.831  14.205  64.597  1.00  0.00    -0.431 C  
HETATM   10  N   UNL     1     -11.840  15.513  64.180  1.00  0.00    -0.877 N  
HETATM   11  S   UNL     1     -12.246  13.030  63.482  1.00  0.00    -0.423 S  
HETATM   12  H1  UNL     1     -12.103  15.685  63.210  1.00  0.00     0.000 HD 
HETATM   13  H2  UNL     1     -11.595  16.276  64.812  1.00  0.00     0.000 HD 
ENDBRANCH   7   9
ENDBRANCH   2   3
TORSDOF 2
ENDMDL
MODEL       76
REMARK 921   NORMALIZED FREE ENERGY PREDICTED BY IDOCK:   -3.46 KCAL/MOL
REMARK 922        TOTAL FREE ENERGY PREDICTED BY IDOCK:   -3.98 KCAL/MOL
REMARK 923 INTER-LIGAND FREE ENERGY PREDICTED BY IDOCK:   -3.87 KCAL/MOL
REMARK 924 INTRA-LIGAND FREE ENERGY PREDICTED BY IDOCK:   -0.11 KCAL/MOL
REMARK 927      BINDING AFFINITY PREDICTED BY RF-SCORE:    0.00 PKD
ROOT
HETATM    1  C   UNL     1     -11.368  14.850  65.700  1.00  0.00    -0.325 C  
HETATM    2  C   UNL     1     -12.083  13.507  65.664  1.00  0.00    -0.467 C  
ENDROOT
BRANCH   2   3
HETATM    3  C   UNL     1     -11.196  12.439  65.081  1.00  0.00    -0.315 A  
HETATM    4  N   UNL     1     -10.799  12.607  63.799  1.00  0.00    -0.427 NA 
HETATM    5  C   UNL     1     -10.067  11.623  63.236  1.00  0.00    -0.423 A  
HETATM    6  C   UNL     1      -9.700  10.466  63.896  1.00  0.00    -0.367 A  
HETATM    7  C   UNL     1     -10.109  10.302  65.220  1.00  0.00    -0.359 A  
HETATM    8  C   UNL     1     -10.870  11.308  65.823  1.00  0.00    -0.257 A  
BRANCH   7   9
HETATM    9  C   UNL     1      -9.775   9.066  65.980  1.00  0.00    -0.269 C  
HETATM   10  N   UNL     1      -8.947   8.161  65.362  1.00  0.00    -0.390 N  
HETATM   11  S   UNL     1     -10.321   8.698  67.517  1.00  0.00    -0.272 S  
HETATM   12  H1  UNL     1      -8.719   7.315  65.883  1.00  0.00     0.000 HD 
HETATM   13  H2  UNL     1      -8.578   8.328  64.425  1.00  0.00     0.000 HD 
ENDBRANCH   7   9
ENDBRANCH   2   3
TORSDOF 2
ENDMDL
MODEL       77
REMARK 921   NORMALIZED FREE ENERGY PREDICTED BY IDOCK:   -3.45 KCAL/MOL
REMARK 922        TOTAL FREE ENERGY PREDICTED BY IDOCK:   -3.97 KCAL/MOL
REMARK 923 INTER-LIGAND FREE ENERGY PREDICTED BY IDOCK:   -3.85 KCAL/MOL
REMARK 924 INTRA-LIGAND FREE ENERGY PREDICTED BY IDOCK:   -0.12 KCAL/MOL
REMARK 927      BINDING AFFINITY PREDICTED BY RF-SCORE:    0.00 PKD
ROOT
HETATM    1  C   UNL     1      -9.916  10.952  67.185  1.00  0.00    -0.221 C  
HETATM    2  C   UNL     1     -10.838  12.110  66.832  1.00  0.00    -0.291 C  
ENDROOT
BRANCH   2   3
HETATM    3  C   UNL     1     -11.427  12.728  68.073  1.00  0.00    -0.318 A  
HETATM    4  N   UNL     1     -11.392  14.077  68.158  1.00  0.00    -0.276 NA 
HETATM    5  C   UNL     1     -11.846  14.644  69.296  1.00  0.00    -0.321 A  
HETATM    6  C   UNL     1     -12.343  13.926  70.366  1.00  0.00    -0.433 A  
HETATM    7  C   UNL     1     -12.380  12.535  70.269  1.00  0.00    -0.265 A  
HETATM    8  C   UNL     1     -11.914  11.925  69.100  1.00  0.00    -0.336 A  
BRANCH   7   9
HETATM    9  C   UNL     1     -12.875  11.699  71.397  1.00  0.00    -0.356 C  
HETATM   10  N   UNL     1     -13.552  12.347  72.400  1.00  0.00    -0.567 N  
HETATM   11  S   UNL     1     -12.676  10.044  71.535  1.00  0.00    -0.465 S  
HETATM   12  H1  UNL     1     -13.891  11.773  73.172  1.00  0.00     0.000 HD 
HETATM   13  H2  UNL     1     -13.709  13.355  72.374  1.00  0.00     0.000 HD 
ENDBRANCH   7   9
ENDBRANCH   2   3
TORSDOF 2
ENDMDL
MODEL       78
REMARK 921   NORMALIZED FREE ENERGY PREDICTED BY IDOCK:   -3.45 KCAL/MOL
REMARK 922        TOTAL FREE ENERGY PREDICTED BY IDOCK:   -3.97 KCAL/MOL
REMARK 923 INTER-LIGAND FREE ENERGY PREDICTED BY IDOCK:   -3.85 KCAL/MOL
REMARK 924 INTRA-LIGAND FREE ENERGY PREDICTED BY IDOCK:   -0.11 KCAL/MOL
REMARK 927      BINDING AFFINITY PREDICTED BY RF-SCORE:    0.00 PKD
ROOT
HETATM    1  C   UNL     1     -10.287  16.824  66.103  1.00  0.00    -0.338 C  
HETATM    2  C   UNL     1     -10.971  16.187  64.902  1.00  0.00    -0.364 C  
ENDROOT
BRANCH   2   3
HETATM    3  C   UNL     1     -11.151  14.706  65.106  1.00  0.00    -0.377 A  
HETATM    4  N   UNL     1     -12.307  14.164  64.663  1.00  0.00    -0.580 NA 
HETATM    5  C   UNL     1     -12.518  12.853  64.905  1.00  0.00    -0.478 A  
HETATM    6  C   UNL     1     -11.620  12.042  65.572  1.00  0.00    -0.352 A  
HETATM    7  C   UNL     1     -10.427  12.607  66.022  1.00  0.00    -0.288 A  
HETATM    8  C   UNL     1     -10.188  13.964  65.784  1.00  0.00    -0.331 A  
BRANCH   7   9
HETATM    9  C   UNL     1      -9.429  11.798  66.774  1.00  0.00    -0.193 C  
HETATM   10  N   UNL     1      -8.132  11.839  66.326  1.00  0.00    -0.382 N  
HETATM   11  S   UNL     1      -9.760  10.854  68.114  1.00  0.00    -0.172 S  
HETATM   12  H1  UNL     1      -7.449  11.284  66.842  1.00  0.00     0.000 HD 
HETATM   13  H2  UNL     1      -7.864  12.398  65.515  1.00  0.00     0.000 HD 
ENDBRANCH   7   9
ENDBRANCH   2   3
TORSDOF 2
ENDMDL
MODEL       79
REMARK 921   NORMALIZED FREE ENERGY PREDICTED BY IDOCK:   -3.44 KCAL/MOL
REMARK 922        TOTAL FREE ENERGY PREDICTED BY IDOCK:   -3.95 KCAL/MOL
REMARK 923 INTER-LIGAND FREE ENERGY PREDICTED BY IDOCK:   -3.86 KCAL/MOL
REMARK 924 INTRA-LIGAND FREE ENERGY PREDICTED BY IDOCK:   -0.09 KCAL/MOL
REMARK 927      BINDING AFFINITY PREDICTED BY RF-SCORE:    0.00 PKD
ROOT
HETATM    1  C   UNL     1     -12.589  11.846  63.458  1.00  0.00    -0.579 C  
HETATM    2  C   UNL     1     -11.881  13.190  63.549  1.00  0.00    -0.539 C  
ENDROOT
BRANCH   2   3
HETATM    3  C   UNL     1     -11.497  13.502  64.972  1.00  0.00    -0.318 A  
HETATM    4  N   UNL     1     -12.474  13.974  65.778  1.00  0.00    -0.491 NA 
HETATM    5  C   UNL     1     -12.132  14.330  67.034  1.00  0.00    -0.390 A  
HETATM    6  C   UNL     1     -10.848  14.235  67.536  1.00  0.00    -0.284 A  
HETATM    7  C   UNL     1      -9.847  13.743  66.699  1.00  0.00    -0.286 A  
HETATM    8  C   UNL     1     -10.178  13.369  65.393  1.00  0.00    -0.311 A  
BRANCH   7   9
HETATM    9  C   UNL     1      -8.436  13.643  67.166  1.00  0.00    -0.174 C  
HETATM   10  N   UNL     1      -7.801  12.441  66.969  1.00  0.00    -0.336 N  
HETATM   11  S   UNL     1      -7.570  14.870  67.900  1.00  0.00    -0.152 S  
HETATM   12  H1  UNL     1      -6.835  12.373  67.289  1.00  0.00     0.000 HD 
HETATM   13  H2  UNL     1      -8.274  11.653  66.525  1.00  0.00     0.000 HD 
ENDBRANCH   7   9
ENDBRANCH   2   3
TORSDOF 2
ENDMDL
MODEL       80
REMARK 921   NORMALIZED FREE ENERGY PREDICTED BY IDOCK:   -3.42 KCAL/MOL
REMARK 922        TOTAL FREE ENERGY PREDICTED BY IDOCK:   -3.94 KCAL/MOL
REMARK 923 INTER-LIGAND FREE ENERGY PREDICTED BY IDOCK:   -3.82 KCAL/MOL
REMARK 924 INTRA-LIGAND FREE ENERGY PREDICTED BY IDOCK:   -0.11 KCAL/MOL
REMARK 927      BINDING AFFINITY PREDICTED BY RF-SCORE:    0.00 PKD
ROOT
HETATM    1  C   UNL     1     -10.711   9.370  69.091  1.00  0.00    -0.216 C  
HETATM    2  C   UNL     1     -10.632   9.813  67.637  1.00  0.00    -0.333 C  
ENDROOT
BRANCH   2   3
HETATM    3  C   UNL     1     -11.080  11.243  67.484  1.00  0.00    -0.286 A  
HETATM    4  N   UNL     1     -11.214  11.965  68.620  1.00  0.00    -0.235 NA 
HETATM    5  C   UNL     1     -11.687  13.224  68.508  1.00  0.00    -0.352 A  
HETATM    6  C   UNL     1     -12.033  13.810  67.307  1.00  0.00    -0.436 A  
HETATM    7  C   UNL     1     -11.888  13.061  66.139  1.00  0.00    -0.466 A  
HETATM    8  C   UNL     1     -11.401  11.753  66.231  1.00  0.00    -0.350 A  
BRANCH   7   9
HETATM    9  C   UNL     1     -12.271  13.620  64.813  1.00  0.00    -0.403 C  
HETATM   10  N   UNL     1     -12.753  12.734  63.882  1.00  0.00    -0.715 N  
HETATM   11  S   UNL     1     -12.165  15.230  64.375  1.00  0.00    -0.032 S  
HETATM   12  H1  UNL     1     -13.016  13.117  62.974  1.00  0.00     0.000 HD 
HETATM   13  H2  UNL     1     -12.845  11.738  64.089  1.00  0.00     0.000 HD 
ENDBRANCH   7   9
ENDBRANCH   2   3
TORSDOF 2
ENDMDL
MODEL       81
REMARK 921   NORMALIZED FREE ENERGY PREDICTED BY IDOCK:   -3.41 KCAL/MOL
REMARK 922        TOTAL FREE ENERGY PREDICTED BY IDOCK:   -3.93 KCAL/MOL
REMARK 923 INTER-LIGAND FREE ENERGY PREDICTED BY IDOCK:   -3.81 KCAL/MOL
REMARK 924 INTRA-LIGAND FREE ENERGY PREDICTED BY IDOCK:   -0.12 KCAL/MOL
REMARK 927      BINDING AFFINITY PREDICTED BY RF-SCORE:    0.00 PKD
ROOT
HETATM    1  C   UNL     1      -5.728  19.967  71.482  1.00  0.00    -0.403 C  
HETATM    2  C   UNL     1      -5.158  20.658  70.252  1.00  0.00    -0.338 C  
ENDROOT
BRANCH   2   3
HETATM    3  C   UNL     1      -6.049  20.450  69.055  1.00  0.00    -0.341 A  
HETATM    4  N   UNL     1      -5.794  21.207  67.965  1.00  0.00    -0.337 NA 
HETATM    5  C   UNL     1      -6.628  21.089  66.911  1.00  0.00    -0.327 A  
HETATM    6  C   UNL     1      -7.717  20.239  66.886  1.00  0.00    -0.353 A  
HETATM    7  C   UNL     1      -7.971  19.457  68.013  1.00  0.00    -0.340 A  
HETATM    8  C   UNL     1      -7.120  19.564  69.118  1.00  0.00    -0.392 A  
BRANCH   7   9
HETATM    9  C   UNL     1      -9.145  18.542  68.065  1.00  0.00    -0.301 C  
HETATM   10  N   UNL     1      -9.009  17.399  68.814  1.00  0.00    -0.254 N  
HETATM   11  S   UNL     1     -10.606  18.797  67.293  1.00  0.00    -0.424 S  
HETATM   12  H1  UNL     1      -9.813  16.773  68.849  1.00  0.00     0.000 HD 
HETATM   13  H2  UNL     1      -8.143  17.187  69.311  1.00  0.00     0.000 HD 
ENDBRANCH   7   9
ENDBRANCH   2   3
TORSDOF 2
ENDMDL
MODEL       82
REMARK 921   NORMALIZED FREE ENERGY PREDICTED BY IDOCK:   -3.41 KCAL/MOL
REMARK 922        TOTAL FREE ENERGY PREDICTED BY IDOCK:   -3.93 KCAL/MOL
REMARK 923 INTER-LIGAND FREE ENERGY PREDICTED BY IDOCK:   -3.83 KCAL/MOL
REMARK 924 INTRA-LIGAND FREE ENERGY PREDICTED BY IDOCK:   -0.10 KCAL/MOL
REMARK 927      BINDING AFFINITY PREDICTED BY RF-SCORE:    0.00 PKD
ROOT
HETATM    1  C   UNL     1      -7.612   6.909  73.467  1.00  0.00    -0.086 C  
HETATM    2  C   UNL     1      -8.968   6.580  74.075  1.00  0.00    -0.169 C  
ENDROOT
BRANCH   2   3
HETATM    3  C   UNL     1     -10.065   6.721  73.054  1.00  0.00    -0.191 A  
HETATM    4  N   UNL     1     -10.072   5.829  72.038  1.00  0.00    -0.182 NA 
HETATM    5  C   UNL     1     -11.002   5.985  71.073  1.00  0.00    -0.286 A  
HETATM    6  C   UNL     1     -11.942   6.998  71.070  1.00  0.00    -0.406 A  
HETATM    7  C   UNL     1     -11.932   7.912  72.123  1.00  0.00    -0.379 A  
HETATM    8  C   UNL     1     -10.976   7.770  73.134  1.00  0.00    -0.372 A  
BRANCH   7   9
HETATM    9  C   UNL     1     -12.897   9.045  72.167  1.00  0.00    -0.410 C  
HETATM   10  N   UNL     1     -13.947   8.933  73.044  1.00  0.00    -0.882 N  
HETATM   11  S   UNL     1     -12.800  10.435  71.243  1.00  0.00    -0.463 S  
HETATM   12  H1  UNL     1     -14.608   9.709  73.073  1.00  0.00     0.000 HD 
HETATM   13  H2  UNL     1     -14.062   8.110  73.637  1.00  0.00     0.000 HD 
ENDBRANCH   7   9
ENDBRANCH   2   3
TORSDOF 2
ENDMDL
MODEL       83
REMARK 921   NORMALIZED FREE ENERGY PREDICTED BY IDOCK:   -3.41 KCAL/MOL
REMARK 922        TOTAL FREE ENERGY PREDICTED BY IDOCK:   -3.92 KCAL/MOL
REMARK 923 INTER-LIGAND FREE ENERGY PREDICTED BY IDOCK:   -3.81 KCAL/MOL
REMARK 924 INTRA-LIGAND FREE ENERGY PREDICTED BY IDOCK:   -0.11 KCAL/MOL
REMARK 927      BINDING AFFINITY PREDICTED BY RF-SCORE:    0.00 PKD
ROOT
HETATM    1  C   UNL     1      -8.657  12.490  67.203  1.00  0.00    -0.200 C  
HETATM    2  C   UNL     1      -9.665  13.602  67.452  1.00  0.00    -0.228 C  
ENDROOT
BRANCH   2   3
HETATM    3  C   UNL     1     -10.565  13.264  68.611  1.00  0.00    -0.246 A  
HETATM    4  N   UNL     1     -10.797  11.952  68.841  1.00  0.00    -0.227 NA 
HETATM    5  C   UNL     1     -11.660  11.632  69.828  1.00  0.00    -0.315 A  
HETATM    6  C   UNL     1     -12.312  12.566  70.610  1.00  0.00    -0.369 A  
HETATM    7  C   UNL     1     -12.064  13.917  70.369  1.00  0.00    -0.421 A  
HETATM    8  C   UNL     1     -11.174  14.273  69.351  1.00  0.00    -0.313 A  
BRANCH   7   9
HETATM    9  C   UNL     1     -12.756  14.977  71.155  1.00  0.00    -0.362 C  
HETATM   10  N   UNL     1     -12.162  16.214  71.185  1.00  0.00    -0.567 N  
HETATM   11  S   UNL     1     -14.189  14.781  71.993  1.00  0.00    -0.564 S  
HETATM   12  H1  UNL     1     -12.635  16.940  71.723  1.00  0.00     0.000 HD 
HETATM   13  H2  UNL     1     -11.287  16.399  70.693  1.00  0.00     0.000 HD 
ENDBRANCH   7   9
ENDBRANCH   2   3
TORSDOF 2
ENDMDL
MODEL       84
REMARK 921   NORMALIZED FREE ENERGY PREDICTED BY IDOCK:   -3.40 KCAL/MOL
REMARK 922        TOTAL FREE ENERGY PREDICTED BY IDOCK:   -3.91 KCAL/MOL
REMARK 923 INTER-LIGAND FREE ENERGY PREDICTED BY IDOCK:   -3.80 KCAL/MOL
REMARK 924 INTRA-LIGAND FREE ENERGY PREDICTED BY IDOCK:   -0.11 KCAL/MOL
REMARK 927      BINDING AFFINITY PREDICTED BY RF-SCORE:    0.00 PKD
ROOT
HETATM    1  C   UNL     1      -9.656  10.974  63.084  1.00  0.00    -0.384 C  
HETATM    2  C   UNL     1     -11.090  11.353  63.426  1.00  0.00    -0.308 C  
ENDROOT
BRANCH   2   3
HETATM    3  C   UNL     1     -11.138  12.651  64.189  1.00  0.00    -0.382 A  
HETATM    4  N   UNL     1     -12.094  13.536  63.827  1.00  0.00    -0.582 NA 
HETATM    5  C   UNL     1     -12.105  14.734  64.448  1.00  0.00    -0.440 A  
HETATM    6  C   UNL     1     -11.201  15.099  65.427  1.00  0.00    -0.338 A  
HETATM    7  C   UNL     1     -10.220  14.179  65.797  1.00  0.00    -0.347 A  
HETATM    8  C   UNL     1     -10.189  12.931  65.167  1.00  0.00    -0.288 A  
BRANCH   7   9
HETATM    9  C   UNL     1      -9.196  14.519  66.824  1.00  0.00    -0.267 C  
HETATM   10  N   UNL     1      -8.477  15.671  66.626  1.00  0.00    -0.270 N  
HETATM   11  S   UNL     1      -8.857  13.615  68.189  1.00  0.00    -0.191 S  
HETATM   12  H1  UNL     1      -7.775  15.903  67.329  1.00  0.00     0.000 HD 
HETATM   13  H2  UNL     1      -8.637  16.268  65.813  1.00  0.00     0.000 HD 
ENDBRANCH   7   9
ENDBRANCH   2   3
TORSDOF 2
ENDMDL
MODEL       85
REMARK 921   NORMALIZED FREE ENERGY PREDICTED BY IDOCK:   -3.37 KCAL/MOL
REMARK 922        TOTAL FREE ENERGY PREDICTED BY IDOCK:   -3.88 KCAL/MOL
REMARK 923 INTER-LIGAND FREE ENERGY PREDICTED BY IDOCK:   -3.78 KCAL/MOL
REMARK 924 INTRA-LIGAND FREE ENERGY PREDICTED BY IDOCK:   -0.10 KCAL/MOL
REMARK 927      BINDING AFFINITY PREDICTED BY RF-SCORE:    0.00 PKD
ROOT
HETATM    1  C   UNL     1     -11.402  11.981  65.914  1.00  0.00    -0.391 C  
HETATM    2  C   UNL     1     -12.273  13.221  66.052  1.00  0.00    -0.483 C  
ENDROOT
BRANCH   2   3
HETATM    3  C   UNL     1     -11.760  14.120  67.147  1.00  0.00    -0.403 A  
HETATM    4  N   UNL     1     -12.120  13.807  68.412  1.00  0.00    -0.353 NA 
HETATM    5  C   UNL     1     -11.733  14.643  69.398  1.00  0.00    -0.316 A  
HETATM    6  C   UNL     1     -10.992  15.789  69.186  1.00  0.00    -0.265 A  
HETATM    7  C   UNL     1     -10.620  16.103  67.879  1.00  0.00    -0.309 A  
HETATM    8  C   UNL     1     -11.011  15.251  66.840  1.00  0.00    -0.315 A  
BRANCH   7   9
HETATM    9  C   UNL     1      -9.847  17.339  67.575  1.00  0.00    -0.275 C  
HETATM   10  N   UNL     1      -9.087  17.330  66.432  1.00  0.00    -0.262 N  
HETATM   11  S   UNL     1      -9.836  18.727  68.506  1.00  0.00    -0.410 S  
HETATM   12  H1  UNL     1      -8.558  18.177  66.224  1.00  0.00     0.000 HD 
HETATM   13  H2  UNL     1      -9.052  16.514  65.819  1.00  0.00     0.000 HD 
ENDBRANCH   7   9
ENDBRANCH   2   3
TORSDOF 2
ENDMDL
MODEL       86
REMARK 921   NORMALIZED FREE ENERGY PREDICTED BY IDOCK:   -3.34 KCAL/MOL
REMARK 922        TOTAL FREE ENERGY PREDICTED BY IDOCK:   -3.85 KCAL/MOL
REMARK 923 INTER-LIGAND FREE ENERGY PREDICTED BY IDOCK:   -3.73 KCAL/MOL
REMARK 924 INTRA-LIGAND FREE ENERGY PREDICTED BY IDOCK:   -0.11 KCAL/MOL
REMARK 927      BINDING AFFINITY PREDICTED BY RF-SCORE:    0.00 PKD
ROOT
HETATM    1  C   UNL     1     -10.823   9.868  69.924  1.00  0.00    -0.316 C  
HETATM    2  C   UNL     1     -11.903  10.726  69.281  1.00  0.00    -0.359 C  
ENDROOT
BRANCH   2   3
HETATM    3  C   UNL     1     -11.478  11.193  67.913  1.00  0.00    -0.284 A  
HETATM    4  N   UNL     1     -11.947  12.393  67.505  1.00  0.00    -0.506 NA 
HETATM    5  C   UNL     1     -11.639  12.794  66.254  1.00  0.00    -0.379 A  
HETATM    6  C   UNL     1     -10.873  12.050  65.377  1.00  0.00    -0.336 A  
HETATM    7  C   UNL     1     -10.388  10.814  65.807  1.00  0.00    -0.295 A  
HETATM    8  C   UNL     1     -10.697  10.378  67.100  1.00  0.00    -0.316 A  
BRANCH   7   9
HETATM    9  C   UNL     1      -9.582   9.948  64.903  1.00  0.00    -0.288 C  
HETATM   10  N   UNL     1      -9.909   9.968  63.570  1.00  0.00    -0.500 N  
HETATM   11  S   UNL     1      -8.319   8.963  65.380  1.00  0.00    -0.157 S  
HETATM   12  H1  UNL     1      -9.356   9.374  62.951  1.00  0.00     0.000 HD 
HETATM   13  H2  UNL     1     -10.668  10.550  63.214  1.00  0.00     0.000 HD 
ENDBRANCH   7   9
ENDBRANCH   2   3
TORSDOF 2
ENDMDL
MODEL       87
REMARK 921   NORMALIZED FREE ENERGY PREDICTED BY IDOCK:   -3.31 KCAL/MOL
REMARK 922        TOTAL FREE ENERGY PREDICTED BY IDOCK:   -3.82 KCAL/MOL
REMARK 923 INTER-LIGAND FREE ENERGY PREDICTED BY IDOCK:   -3.73 KCAL/MOL
REMARK 924 INTRA-LIGAND FREE ENERGY PREDICTED BY IDOCK:   -0.09 KCAL/MOL
REMARK 927      BINDING AFFINITY PREDICTED BY RF-SCORE:    0.00 PKD
ROOT
HETATM    1  C   UNL     1     -10.911   2.861  73.255  1.00  0.00    -0.279 C  
HETATM    2  C   UNL     1     -10.142   4.173  73.186  1.00  0.00    -0.204 C  
ENDROOT
BRANCH   2   3
HETATM    3  C   UNL     1     -10.657   5.042  72.069  1.00  0.00    -0.174 A  
HETATM    4  N   UNL     1     -10.091   4.873  70.853  1.00  0.00    -0.224 NA 
HETATM    5  C   UNL     1     -10.487   5.694  69.859  1.00  0.00    -0.308 A  
HETATM    6  C   UNL     1     -11.433   6.688  70.015  1.00  0.00    -0.434 A  
HETATM    7  C   UNL     1     -12.016   6.854  71.271  1.00  0.00    -0.402 A  
HETATM    8  C   UNL     1     -11.621   6.014  72.318  1.00  0.00    -0.359 A  
BRANCH   7   9
HETATM    9  C   UNL     1     -13.021   7.925  71.517  1.00  0.00    -0.311 C  
HETATM   10  N   UNL     1     -14.339   7.599  71.314  1.00  0.00    -0.647 N  
HETATM   11  S   UNL     1     -12.674   9.481  72.022  1.00  0.00    -0.385 S  
HETATM   12  H1  UNL     1     -15.027   8.332  71.483  1.00  0.00     0.000 HD 
HETATM   13  H2  UNL     1     -14.617   6.665  71.008  1.00  0.00     0.000 HD 
ENDBRANCH   7   9
ENDBRANCH   2   3
TORSDOF 2
ENDMDL
MODEL       88
REMARK 921   NORMALIZED FREE ENERGY PREDICTED BY IDOCK:   -3.26 KCAL/MOL
REMARK 922        TOTAL FREE ENERGY PREDICTED BY IDOCK:   -3.76 KCAL/MOL
REMARK 923 INTER-LIGAND FREE ENERGY PREDICTED BY IDOCK:   -3.64 KCAL/MOL
REMARK 924 INTRA-LIGAND FREE ENERGY PREDICTED BY IDOCK:   -0.11 KCAL/MOL
REMARK 927      BINDING AFFINITY PREDICTED BY RF-SCORE:    0.00 PKD
ROOT
HETATM    1  C   UNL     1     -11.754  15.816  68.657  1.00  0.00    -0.353 C  
HETATM    2  C   UNL     1     -10.572  15.465  67.765  1.00  0.00    -0.274 C  
ENDROOT
BRANCH   2   3
HETATM    3  C   UNL     1     -10.962  14.441  66.731  1.00  0.00    -0.314 A  
HETATM    4  N   UNL     1     -12.274  14.365  66.412  1.00  0.00    -0.392 NA 
HETATM    5  C   UNL     1     -12.652  13.403  65.545  1.00  0.00    -0.465 A  
HETATM    6  C   UNL     1     -11.777  12.503  64.967  1.00  0.00    -0.407 A  
HETATM    7  C   UNL     1     -10.425  12.591  65.298  1.00  0.00    -0.313 A  
HETATM    8  C   UNL     1     -10.010  13.580  66.196  1.00  0.00    -0.310 A  
BRANCH   7   9
HETATM    9  C   UNL     1      -9.432  11.634  64.736  1.00  0.00    -0.063 C  
HETATM   10  N   UNL     1      -8.292  11.421  65.469  1.00  0.00    -0.370 N  
HETATM   11  S   UNL     1      -9.598  10.802  63.295  1.00  0.00    -0.379 S  
HETATM   12  H1  UNL     1      -7.612  10.765  65.084  1.00  0.00     0.000 HD 
HETATM   13  H2  UNL     1      -8.131  11.896  66.358  1.00  0.00     0.000 HD 
ENDBRANCH   7   9
ENDBRANCH   2   3
TORSDOF 2
ENDMDL
MODEL       89
REMARK 921   NORMALIZED FREE ENERGY PREDICTED BY IDOCK:   -3.26 KCAL/MOL
REMARK 922        TOTAL FREE ENERGY PREDICTED BY IDOCK:   -3.75 KCAL/MOL
REMARK 923 INTER-LIGAND FREE ENERGY PREDICTED BY IDOCK:   -3.66 KCAL/MOL
REMARK 924 INTRA-LIGAND FREE ENERGY PREDICTED BY IDOCK:   -0.10 KCAL/MOL
REMARK 927      BINDING AFFINITY PREDICTED BY RF-SCORE:    0.00 PKD
ROOT
HETATM    1  C   UNL     1     -11.875  12.163  63.822  1.00  0.00    -0.592 C  
HETATM    2  C   UNL     1     -12.541  12.954  64.938  1.00  0.00    -0.525 C  
ENDROOT
BRANCH   2   3
HETATM    3  C   UNL     1     -11.645  13.044  66.145  1.00  0.00    -0.366 A  
HETATM    4  N   UNL     1     -11.914  12.203  67.168  1.00  0.00    -0.584 NA 
HETATM    5  C   UNL     1     -11.169  12.321  68.288  1.00  0.00    -0.267 A  
HETATM    6  C   UNL     1     -10.153  13.244  68.439  1.00  0.00    -0.237 A  
HETATM    7  C   UNL     1      -9.878  14.106  67.377  1.00  0.00    -0.239 A  
HETATM    8  C   UNL     1     -10.639  14.003  66.208  1.00  0.00    -0.281 A  
BRANCH   7   9
HETATM    9  C   UNL     1      -8.817  15.145  67.484  1.00  0.00    -0.182 C  
HETATM   10  N   UNL     1      -9.200  16.447  67.273  1.00  0.00    -0.213 N  
HETATM   11  S   UNL     1      -7.210  14.855  67.842  1.00  0.00    -0.171 S  
HETATM   12  H1  UNL     1      -8.473  17.158  67.347  1.00  0.00     0.000 HD 
HETATM   13  H2  UNL     1     -10.166  16.690  67.053  1.00  0.00     0.000 HD 
ENDBRANCH   7   9
ENDBRANCH   2   3
TORSDOF 2
ENDMDL
MODEL       90
REMARK 921   NORMALIZED FREE ENERGY PREDICTED BY IDOCK:   -3.24 KCAL/MOL
REMARK 922        TOTAL FREE ENERGY PREDICTED BY IDOCK:   -3.73 KCAL/MOL
REMARK 923 INTER-LIGAND FREE ENERGY PREDICTED BY IDOCK:   -3.62 KCAL/MOL
REMARK 924 INTRA-LIGAND FREE ENERGY PREDICTED BY IDOCK:   -0.11 KCAL/MOL
REMARK 927      BINDING AFFINITY PREDICTED BY RF-SCORE:    0.00 PKD
ROOT
HETATM    1  C   UNL     1      -9.407   9.771  69.669  1.00  0.00    -0.237 C  
HETATM    2  C   UNL     1     -10.449   9.164  68.741  1.00  0.00    -0.236 C  
ENDROOT
BRANCH   2   3
HETATM    3  C   UNL     1     -10.629  10.008  67.506  1.00  0.00    -0.280 A  
HETATM    4  N   UNL     1     -10.064   9.549  66.366  1.00  0.00    -0.264 NA 
HETATM    5  C   UNL     1     -10.150  10.328  65.268  1.00  0.00    -0.289 A  
HETATM    6  C   UNL     1     -10.781  11.556  65.245  1.00  0.00    -0.337 A  
HETATM    7  C   UNL     1     -11.365  12.021  66.424  1.00  0.00    -0.411 A  
HETATM    8  C   UNL     1     -11.288  11.231  67.575  1.00  0.00    -0.360 A  
BRANCH   7   9
HETATM    9  C   UNL     1     -12.035  13.350  66.478  1.00  0.00    -0.400 C  
HETATM   10  N   UNL     1     -12.154  13.935  67.715  1.00  0.00    -0.467 N  
HETATM   11  S   UNL     1     -12.645  14.181  65.162  1.00  0.00    -0.339 S  
HETATM   12  H1  UNL     1     -12.613  14.845  67.751  1.00  0.00     0.000 HD 
HETATM   13  H2  UNL     1     -11.800  13.480  68.557  1.00  0.00     0.000 HD 
ENDBRANCH   7   9
ENDBRANCH   2   3
TORSDOF 2
ENDMDL
MODEL       91
REMARK 921   NORMALIZED FREE ENERGY PREDICTED BY IDOCK:   -3.23 KCAL/MOL
REMARK 922        TOTAL FREE ENERGY PREDICTED BY IDOCK:   -3.72 KCAL/MOL
REMARK 923 INTER-LIGAND FREE ENERGY PREDICTED BY IDOCK:   -3.62 KCAL/MOL
REMARK 924 INTRA-LIGAND FREE ENERGY PREDICTED BY IDOCK:   -0.10 KCAL/MOL
REMARK 927      BINDING AFFINITY PREDICTED BY RF-SCORE:    0.00 PKD
ROOT
HETATM    1  C   UNL     1     -10.665  12.695  68.320  1.00  0.00    -0.248 C  
HETATM    2  C   UNL     1     -11.838  11.923  68.907  1.00  0.00    -0.366 C  
ENDROOT
BRANCH   2   3
HETATM    3  C   UNL     1     -11.420  10.534  69.313  1.00  0.00    -0.256 A  
HETATM    4  N   UNL     1     -10.819   9.776  68.368  1.00  0.00    -0.224 NA 
HETATM    5  C   UNL     1     -10.506   8.504  68.691  1.00  0.00    -0.169 A  
HETATM    6  C   UNL     1     -10.762   7.941  69.927  1.00  0.00    -0.244 A  
HETATM    7  C   UNL     1     -11.379   8.730  70.898  1.00  0.00    -0.322 A  
HETATM    8  C   UNL     1     -11.713  10.052  70.585  1.00  0.00    -0.421 A  
BRANCH   7   9
HETATM    9  C   UNL     1     -11.711   8.178  72.240  1.00  0.00    -0.379 C  
HETATM   10  N   UNL     1     -12.966   8.445  72.728  1.00  0.00    -0.621 N  
HETATM   11  S   UNL     1     -10.685   7.262  73.191  1.00  0.00    -0.371 S  
HETATM   12  H1  UNL     1     -13.193   8.067  73.647  1.00  0.00     0.000 HD 
HETATM   13  H2  UNL     1     -13.640   8.997  72.196  1.00  0.00     0.000 HD 
ENDBRANCH   7   9
ENDBRANCH   2   3
TORSDOF 2
ENDMDL
MODEL       92
REMARK 921   NORMALIZED FREE ENERGY PREDICTED BY IDOCK:   -3.23 KCAL/MOL
REMARK 922        TOTAL FREE ENERGY PREDICTED BY IDOCK:   -3.72 KCAL/MOL
REMARK 923 INTER-LIGAND FREE ENERGY PREDICTED BY IDOCK:   -3.62 KCAL/MOL
REMARK 924 INTRA-LIGAND FREE ENERGY PREDICTED BY IDOCK:   -0.09 KCAL/MOL
REMARK 927      BINDING AFFINITY PREDICTED BY RF-SCORE:    0.00 PKD
ROOT
HETATM    1  C   UNL     1     -11.196  14.634  65.643  1.00  0.00    -0.342 C  
HETATM    2  C   UNL     1     -12.104  13.433  65.862  1.00  0.00    -0.486 C  
ENDROOT
BRANCH   2   3
HETATM    3  C   UNL     1     -11.312  12.153  65.874  1.00  0.00    -0.356 A  
HETATM    4  N   UNL     1     -10.877  11.693  64.679  1.00  0.00    -0.307 NA 
HETATM    5  C   UNL     1     -10.230  10.509  64.661  1.00  0.00    -0.294 A  
HETATM    6  C   UNL     1      -9.988   9.750  65.790  1.00  0.00    -0.349 A  
HETATM    7  C   UNL     1     -10.435  10.233  67.020  1.00  0.00    -0.304 A  
HETATM    8  C   UNL     1     -11.109  11.458  67.062  1.00  0.00    -0.364 A  
BRANCH   7   9
HETATM    9  C   UNL     1     -10.235   9.452  68.272  1.00  0.00    -0.196 C  
HETATM   10  N   UNL     1     -10.691   8.157  68.276  1.00  0.00    -0.422 N  
HETATM   11  S   UNL     1      -9.500  10.022  69.661  1.00  0.00    -0.201 S  
HETATM   12  H1  UNL     1     -10.553   7.623  69.133  1.00  0.00     0.000 HD 
HETATM   13  H2  UNL     1     -11.147   7.749  67.458  1.00  0.00     0.000 HD 
ENDBRANCH   7   9
ENDBRANCH   2   3
TORSDOF 2
ENDMDL
MODEL       93
REMARK 921   NORMALIZED FREE ENERGY PREDICTED BY IDOCK:   -3.22 KCAL/MOL
REMARK 922        TOTAL FREE ENERGY PREDICTED BY IDOCK:   -3.71 KCAL/MOL
REMARK 923 INTER-LIGAND FREE ENERGY PREDICTED BY IDOCK:   -3.60 KCAL/MOL
REMARK 924 INTRA-LIGAND FREE ENERGY PREDICTED BY IDOCK:   -0.12 KCAL/MOL
REMARK 927      BINDING AFFINITY PREDICTED BY RF-SCORE:    0.00 PKD
ROOT
HETATM    1  C   UNL     1     -14.148   8.944  72.532  1.00  0.00    -0.441 C  
HETATM    2  C   UNL     1     -13.084   9.667  71.718  1.00  0.00    -0.514 C  
ENDROOT
BRANCH   2   3
HETATM    3  C   UNL     1     -11.742   8.999  71.870  1.00  0.00    -0.374 A  
HETATM    4  N   UNL     1     -11.650   8.019  72.797  1.00  0.00    -0.392 NA 
HETATM    5  C   UNL     1     -10.438   7.461  73.000  1.00  0.00    -0.323 A  
HETATM    6  C   UNL     1      -9.298   7.833  72.314  1.00  0.00    -0.212 A  
HETATM    7  C   UNL     1      -9.402   8.842  71.357  1.00  0.00    -0.328 A  
HETATM    8  C   UNL     1     -10.648   9.435  71.130  1.00  0.00    -0.403 A  
BRANCH   7   9
HETATM    9  C   UNL     1      -8.207   9.312  70.602  1.00  0.00    -0.190 C  
HETATM   10  N   UNL     1      -8.376  10.408  69.793  1.00  0.00    -0.373 N  
HETATM   11  S   UNL     1      -6.687   8.619  70.667  1.00  0.00    -0.049 S  
HETATM   12  H1  UNL     1      -7.558  10.730  69.276  1.00  0.00     0.000 HD 
HETATM   13  H2  UNL     1      -9.278  10.878  69.711  1.00  0.00     0.000 HD 
ENDBRANCH   7   9
ENDBRANCH   2   3
TORSDOF 2
ENDMDL
MODEL       94
REMARK 921   NORMALIZED FREE ENERGY PREDICTED BY IDOCK:   -3.20 KCAL/MOL
REMARK 922        TOTAL FREE ENERGY PREDICTED BY IDOCK:   -3.69 KCAL/MOL
REMARK 923 INTER-LIGAND FREE ENERGY PREDICTED BY IDOCK:   -3.58 KCAL/MOL
REMARK 924 INTRA-LIGAND FREE ENERGY PREDICTED BY IDOCK:   -0.11 KCAL/MOL
REMARK 927      BINDING AFFINITY PREDICTED BY RF-SCORE:    0.00 PKD
ROOT
HETATM    1  C   UNL     1      -6.031  19.744  65.985  1.00  0.00    -0.188 C  
HETATM    2  C   UNL     1      -7.024  20.482  66.871  1.00  0.00    -0.342 C  
ENDROOT
BRANCH   2   3
HETATM    3  C   UNL     1      -8.302  19.699  67.018  1.00  0.00    -0.294 A  
HETATM    4  N   UNL     1      -9.318  20.306  67.672  1.00  0.00    -0.366 NA 
HETATM    5  C   UNL     1     -10.444  19.592  67.880  1.00  0.00    -0.427 A  
HETATM    6  C   UNL     1     -10.613  18.287  67.460  1.00  0.00    -0.432 A  
HETATM    7  C   UNL     1      -9.562  17.668  66.783  1.00  0.00    -0.297 A  
HETATM    8  C   UNL     1      -8.385  18.389  66.557  1.00  0.00    -0.290 A  
BRANCH   7   9
HETATM    9  C   UNL     1      -9.666  16.254  66.330  1.00  0.00    -0.304 C  
HETATM   10  N   UNL     1     -10.663  15.960  65.434  1.00  0.00    -0.396 N  
HETATM   11  S   UNL     1      -8.667  15.005  66.820  1.00  0.00    -0.241 S  
HETATM   12  H1  UNL     1     -10.734  14.991  65.124  1.00  0.00     0.000 HD 
HETATM   13  H2  UNL     1     -11.305  16.678  65.094  1.00  0.00     0.000 HD 
ENDBRANCH   7   9
ENDBRANCH   2   3
TORSDOF 2
ENDMDL
MODEL       95
REMARK 921   NORMALIZED FREE ENERGY PREDICTED BY IDOCK:   -3.20 KCAL/MOL
REMARK 922        TOTAL FREE ENERGY PREDICTED BY IDOCK:   -3.69 KCAL/MOL
REMARK 923 INTER-LIGAND FREE ENERGY PREDICTED BY IDOCK:   -3.58 KCAL/MOL
REMARK 924 INTRA-LIGAND FREE ENERGY PREDICTED BY IDOCK:   -0.10 KCAL/MOL
REMARK 927      BINDING AFFINITY PREDICTED BY RF-SCORE:    0.00 PKD
ROOT
HETATM    1  C   UNL     1      -9.017  15.206  66.821  1.00  0.00    -0.293 C  
HETATM    2  C   UNL     1      -9.849  16.234  66.067  1.00  0.00    -0.371 C  
ENDROOT
BRANCH   2   3
HETATM    3  C   UNL     1      -9.594  17.623  66.592  1.00  0.00    -0.295 A  
HETATM    4  N   UNL     1     -10.658  18.456  66.656  1.00  0.00    -0.367 NA 
HETATM    5  C   UNL     1     -10.435  19.726  67.052  1.00  0.00    -0.469 A  
HETATM    6  C   UNL     1      -9.190  20.215  67.397  1.00  0.00    -0.495 A  
HETATM    7  C   UNL     1      -8.099  19.349  67.334  1.00  0.00    -0.313 A  
HETATM    8  C   UNL     1      -8.305  18.028  66.924  1.00  0.00    -0.263 A  
BRANCH   7   9
HETATM    9  C   UNL     1      -6.724  19.818  67.662  1.00  0.00    -0.234 C  
HETATM   10  N   UNL     1      -6.454  20.071  68.984  1.00  0.00    -0.316 N  
HETATM   11  S   UNL     1      -5.493  20.056  66.557  1.00  0.00    -0.170 S  
HETATM   12  H1  UNL     1      -5.512  20.393  69.209  1.00  0.00     0.000 HD 
HETATM   13  H2  UNL     1      -7.162  19.944  69.708  1.00  0.00     0.000 HD 
ENDBRANCH   7   9
ENDBRANCH   2   3
TORSDOF 2
ENDMDL
MODEL       96
REMARK 921   NORMALIZED FREE ENERGY PREDICTED BY IDOCK:   -3.20 KCAL/MOL
REMARK 922        TOTAL FREE ENERGY PREDICTED BY IDOCK:   -3.69 KCAL/MOL
REMARK 923 INTER-LIGAND FREE ENERGY PREDICTED BY IDOCK:   -3.57 KCAL/MOL
REMARK 924 INTRA-LIGAND FREE ENERGY PREDICTED BY IDOCK:   -0.12 KCAL/MOL
REMARK 927      BINDING AFFINITY PREDICTED BY RF-SCORE:    0.00 PKD
ROOT
HETATM    1  C   UNL     1     -10.573   8.198  67.399  1.00  0.00    -0.325 C  
HETATM    2  C   UNL     1     -10.208   9.529  66.758  1.00  0.00    -0.313 C  
ENDROOT
BRANCH   2   3
HETATM    3  C   UNL     1     -10.851  10.675  67.494  1.00  0.00    -0.296 A  
HETATM    4  N   UNL     1     -10.829  11.881  66.883  1.00  0.00    -0.250 NA 
HETATM    5  C   UNL     1     -11.333  12.935  67.559  1.00  0.00    -0.308 A  
HETATM    6  C   UNL     1     -11.869  12.846  68.830  1.00  0.00    -0.353 A  
HETATM    7  C   UNL     1     -11.892  11.598  69.451  1.00  0.00    -0.408 A  
HETATM    8  C   UNL     1     -11.374  10.492  68.770  1.00  0.00    -0.310 A  
BRANCH   7   9
HETATM    9  C   UNL     1     -12.428  11.436  70.831  1.00  0.00    -0.379 C  
HETATM   10  N   UNL     1     -12.474  10.159  71.333  1.00  0.00    -0.388 N  
HETATM   11  S   UNL     1     -12.968  12.678  71.812  1.00  0.00    -0.238 S  
HETATM   12  H1  UNL     1     -12.841  10.049  72.279  1.00  0.00     0.000 HD 
HETATM   13  H2  UNL     1     -12.157   9.358  70.786  1.00  0.00     0.000 HD 
ENDBRANCH   7   9
ENDBRANCH   2   3
TORSDOF 2
ENDMDL
MODEL       97
REMARK 921   NORMALIZED FREE ENERGY PREDICTED BY IDOCK:   -3.18 KCAL/MOL
REMARK 922        TOTAL FREE ENERGY PREDICTED BY IDOCK:   -3.67 KCAL/MOL
REMARK 923 INTER-LIGAND FREE ENERGY PREDICTED BY IDOCK:   -3.55 KCAL/MOL
REMARK 924 INTRA-LIGAND FREE ENERGY PREDICTED BY IDOCK:   -0.12 KCAL/MOL
REMARK 927      BINDING AFFINITY PREDICTED BY RF-SCORE:    0.00 PKD
ROOT
HETATM    1  C   UNL     1     -10.522   3.144  73.246  1.00  0.00    -0.255 C  
HETATM    2  C   UNL     1      -9.538   3.837  72.314  1.00  0.00    -0.205 C  
ENDROOT
BRANCH   2   3
HETATM    3  C   UNL     1     -10.235   4.867  71.465  1.00  0.00    -0.194 A  
HETATM    4  N   UNL     1     -11.052   5.734  72.104  1.00  0.00    -0.266 NA 
HETATM    5  C   UNL     1     -11.742   6.616  71.351  1.00  0.00    -0.324 A  
HETATM    6  C   UNL     1     -11.656   6.681  69.974  1.00  0.00    -0.423 A  
HETATM    7  C   UNL     1     -10.807   5.787  69.322  1.00  0.00    -0.374 A  
HETATM    8  C   UNL     1     -10.082   4.863  70.082  1.00  0.00    -0.332 A  
BRANCH   7   9
HETATM    9  C   UNL     1     -10.689   5.782  67.837  1.00  0.00    -0.213 C  
HETATM   10  N   UNL     1     -11.387   6.748  67.156  1.00  0.00    -0.755 N  
HETATM   11  S   UNL     1      -9.777   4.704  66.942  1.00  0.00    -0.211 S  
HETATM   12  H1  UNL     1     -11.306   6.745  66.139  1.00  0.00     0.000 HD 
HETATM   13  H2  UNL     1     -11.960   7.438  67.644  1.00  0.00     0.000 HD 
ENDBRANCH   7   9
ENDBRANCH   2   3
TORSDOF 2
ENDMDL
MODEL       98
REMARK 921   NORMALIZED FREE ENERGY PREDICTED BY IDOCK:   -3.18 KCAL/MOL
REMARK 922        TOTAL FREE ENERGY PREDICTED BY IDOCK:   -3.67 KCAL/MOL
REMARK 923 INTER-LIGAND FREE ENERGY PREDICTED BY IDOCK:   -3.56 KCAL/MOL
REMARK 924 INTRA-LIGAND FREE ENERGY PREDICTED BY IDOCK:   -0.10 KCAL/MOL
REMARK 927      BINDING AFFINITY PREDICTED BY RF-SCORE:    0.00 PKD
ROOT
HETATM    1  C   UNL     1      -9.206  10.807  68.748  1.00  0.00    -0.192 C  
HETATM    2  C   UNL     1      -8.730   9.798  69.783  1.00  0.00    -0.228 C  
ENDROOT
BRANCH   2   3
HETATM    3  C   UNL     1      -9.872   9.337  70.651  1.00  0.00    -0.270 A  
HETATM    4  N   UNL     1     -11.003  10.075  70.613  1.00  0.00    -0.318 NA 
HETATM    5  C   UNL     1     -12.010   9.721  71.440  1.00  0.00    -0.411 A  
HETATM    6  C   UNL     1     -11.946   8.651  72.312  1.00  0.00    -0.438 A  
HETATM    7  C   UNL     1     -10.777   7.891  72.341  1.00  0.00    -0.367 A  
HETATM    8  C   UNL     1      -9.720   8.240  71.494  1.00  0.00    -0.251 A  
BRANCH   7   9
HETATM    9  C   UNL     1     -10.629   6.743  73.278  1.00  0.00    -0.309 C  
HETATM   10  N   UNL     1     -10.016   6.997  74.480  1.00  0.00    -0.460 N  
HETATM   11  S   UNL     1     -11.151   5.182  72.985  1.00  0.00    -0.322 S  
HETATM   12  H1  UNL     1      -9.915   6.211  75.121  1.00  0.00     0.000 HD 
HETATM   13  H2  UNL     1      -9.677   7.930  74.720  1.00  0.00     0.000 HD 
ENDBRANCH   7   9
ENDBRANCH   2   3
TORSDOF 2
ENDMDL
MODEL       99
REMARK 921   NORMALIZED FREE ENERGY PREDICTED BY IDOCK:   -3.18 KCAL/MOL
REMARK 922        TOTAL FREE ENERGY PREDICTED BY IDOCK:   -3.66 KCAL/MOL
REMARK 923 INTER-LIGAND FREE ENERGY PREDICTED BY IDOCK:   -3.56 KCAL/MOL
REMARK 924 INTRA-LIGAND FREE ENERGY PREDICTED BY IDOCK:   -0.11 KCAL/MOL
REMARK 927      BINDING AFFINITY PREDICTED BY RF-SCORE:    0.00 PKD
ROOT
HETATM    1  C   UNL     1     -12.432  12.716  65.181  1.00  0.00    -0.531 C  
HETATM    2  C   UNL     1     -12.408  14.021  65.962  1.00  0.00    -0.504 C  
ENDROOT
BRANCH   2   3
HETATM    3  C   UNL     1     -10.996  14.501  66.168  1.00  0.00    -0.322 A  
HETATM    4  N   UNL     1     -10.084  13.574  66.539  1.00  0.00    -0.275 NA 
HETATM    5  C   UNL     1      -8.830  13.999  66.801  1.00  0.00    -0.157 A  
HETATM    6  C   UNL     1      -8.431  15.318  66.707  1.00  0.00    -0.290 A  
HETATM    7  C   UNL     1      -9.376  16.268  66.319  1.00  0.00    -0.360 A  
HETATM    8  C   UNL     1     -10.683  15.851  66.044  1.00  0.00    -0.289 A  
BRANCH   7   9
HETATM    9  C   UNL     1      -9.022  17.712  66.227  1.00  0.00    -0.183 C  
HETATM   10  N   UNL     1      -7.694  18.016  66.060  1.00  0.00    -0.219 N  
HETATM   11  S   UNL     1     -10.107  18.981  66.308  1.00  0.00    -0.427 S  
HETATM   12  H1  UNL     1      -7.452  19.004  65.997  1.00  0.00     0.000 HD 
HETATM   13  H2  UNL     1      -6.982  17.286  66.001  1.00  0.00     0.000 HD 
ENDBRANCH   7   9
ENDBRANCH   2   3
TORSDOF 2
ENDMDL
MODEL      100
REMARK 921   NORMALIZED FREE ENERGY PREDICTED BY IDOCK:   -3.17 KCAL/MOL
REMARK 922        TOTAL FREE ENERGY PREDICTED BY IDOCK:   -3.65 KCAL/MOL
REMARK 923 INTER-LIGAND FREE ENERGY PREDICTED BY IDOCK:   -3.54 KCAL/MOL
REMARK 924 INTRA-LIGAND FREE ENERGY PREDICTED BY IDOCK:   -0.11 KCAL/MOL
REMARK 927      BINDING AFFINITY PREDICTED BY RF-SCORE:    0.00 PKD
ROOT
HETATM    1  C   UNL     1     -11.969  13.007  63.703  1.00  0.00    -0.608 C  
HETATM    2  C   UNL     1     -12.356  13.478  65.097  1.00  0.00    -0.488 C  
ENDROOT
BRANCH   2   3
HETATM    3  C   UNL     1     -11.527  12.787  66.149  1.00  0.00    -0.351 A  
HETATM    4  N   UNL     1     -12.158  12.447  67.296  1.00  0.00    -0.494 NA 
HETATM    5  C   UNL     1     -11.415  11.896  68.278  1.00  0.00    -0.311 A  
HETATM    6  C   UNL     1     -10.058  11.659  68.174  1.00  0.00    -0.202 A  
HETATM    7  C   UNL     1      -9.416  12.009  66.986  1.00  0.00    -0.199 A  
HETATM    8  C   UNL     1     -10.165  12.583  65.954  1.00  0.00    -0.280 A  
BRANCH   7   9
HETATM    9  C   UNL     1      -7.950  11.809  66.817  1.00  0.00    -0.116 C  
HETATM   10  N   UNL     1      -7.549  10.987  65.793  1.00  0.00    -0.356 N  
HETATM   11  S   UNL     1      -6.762  12.506  67.766  1.00  0.00    -0.140 S  
HETATM   12  H1  UNL     1      -6.545  10.851  65.678  1.00  0.00     0.000 HD 
HETATM   13  H2  UNL     1      -8.224  10.534  65.176  1.00  0.00     0.000 HD 
ENDBRANCH   7   9
ENDBRANCH   2   3
TORSDOF 2
ENDMDL
MODEL      101
REMARK 921   NORMALIZED FREE ENERGY PREDICTED BY IDOCK:   -3.17 KCAL/MOL
REMARK 922        TOTAL FREE ENERGY PREDICTED BY IDOCK:   -3.65 KCAL/MOL
REMARK 923 INTER-LIGAND FREE ENERGY PREDICTED BY IDOCK:   -3.54 KCAL/MOL
REMARK 924 INTRA-LIGAND FREE ENERGY PREDICTED BY IDOCK:   -0.11 KCAL/MOL
REMARK 927      BINDING AFFINITY PREDICTED BY RF-SCORE:    0.00 PKD
ROOT
HETATM    1  C   UNL     1      -7.731  10.552  68.639  1.00  0.00    -0.106 C  
HETATM    2  C   UNL     1      -8.374   9.450  69.468  1.00  0.00    -0.127 C  
ENDROOT
BRANCH   2   3
HETATM    3  C   UNL     1      -9.804   9.788  69.799  1.00  0.00    -0.234 A  
HETATM    4  N   UNL     1     -10.299  10.930  69.269  1.00  0.00    -0.213 NA 
HETATM    5  C   UNL     1     -11.553  11.288  69.614  1.00  0.00    -0.330 A  
HETATM    6  C   UNL     1     -12.352  10.555  70.471  1.00  0.00    -0.432 A  
HETATM    7  C   UNL     1     -11.836   9.376  71.010  1.00  0.00    -0.396 A  
HETATM    8  C   UNL     1     -10.538   8.986  70.666  1.00  0.00    -0.290 A  
BRANCH   7   9
HETATM    9  C   UNL     1     -12.631   8.554  71.963  1.00  0.00    -0.364 C  
HETATM   10  N   UNL     1     -11.929   7.813  72.880  1.00  0.00    -0.609 N  
HETATM   11  S   UNL     1     -14.301   8.466  72.006  1.00  0.00    -0.437 S  
HETATM   12  H1  UNL     1     -12.474   7.250  73.532  1.00  0.00     0.000 HD 
HETATM   13  H2  UNL     1     -10.908   7.825  72.907  1.00  0.00     0.000 HD 
ENDBRANCH   7   9
ENDBRANCH   2   3
TORSDOF 2
ENDMDL
MODEL      102
REMARK 921   NORMALIZED FREE ENERGY PREDICTED BY IDOCK:   -3.16 KCAL/MOL
REMARK 922        TOTAL FREE ENERGY PREDICTED BY IDOCK:   -3.64 KCAL/MOL
REMARK 923 INTER-LIGAND FREE ENERGY PREDICTED BY IDOCK:   -3.53 KCAL/MOL
REMARK 924 INTRA-LIGAND FREE ENERGY PREDICTED BY IDOCK:   -0.11 KCAL/MOL
REMARK 927      BINDING AFFINITY PREDICTED BY RF-SCORE:    0.00 PKD
ROOT
HETATM    1  C   UNL     1     -13.005  10.432  71.827  1.00  0.00    -0.580 C  
HETATM    2  C   UNL     1     -12.649  11.683  71.037  1.00  0.00    -0.431 C  
ENDROOT
BRANCH   2   3
HETATM    3  C   UNL     1     -11.915  11.329  69.770  1.00  0.00    -0.360 A  
HETATM    4  N   UNL     1     -11.976  12.224  68.759  1.00  0.00    -0.282 NA 
HETATM    5  C   UNL     1     -11.388  11.891  67.591  1.00  0.00    -0.304 A  
HETATM    6  C   UNL     1     -10.730  10.695  67.377  1.00  0.00    -0.326 A  
HETATM    7  C   UNL     1     -10.668   9.778  68.426  1.00  0.00    -0.262 A  
HETATM    8  C   UNL     1     -11.271  10.102  69.646  1.00  0.00    -0.310 A  
BRANCH   7   9
HETATM    9  C   UNL     1     -10.000   8.458  68.255  1.00  0.00    -0.187 C  
HETATM   10  N   UNL     1      -8.949   8.180  69.093  1.00  0.00    -0.144 N  
HETATM   11  S   UNL     1     -10.430   7.295  67.134  1.00  0.00    -0.344 S  
HETATM   12  H1  UNL     1      -8.493   7.276  68.975  1.00  0.00     0.000 HD 
HETATM   13  H2  UNL     1      -8.639   8.848  69.800  1.00  0.00     0.000 HD 
ENDBRANCH   7   9
ENDBRANCH   2   3
TORSDOF 2
ENDMDL
MODEL      103
REMARK 921   NORMALIZED FREE ENERGY PREDICTED BY IDOCK:   -3.15 KCAL/MOL
REMARK 922        TOTAL FREE ENERGY PREDICTED BY IDOCK:   -3.64 KCAL/MOL
REMARK 923 INTER-LIGAND FREE ENERGY PREDICTED BY IDOCK:   -3.53 KCAL/MOL
REMARK 924 INTRA-LIGAND FREE ENERGY PREDICTED BY IDOCK:   -0.10 KCAL/MOL
REMARK 927      BINDING AFFINITY PREDICTED BY RF-SCORE:    0.00 PKD
ROOT
HETATM    1  C   UNL     1     -10.250  10.969  63.655  1.00  0.00    -0.431 C  
HETATM    2  C   UNL     1      -9.443  11.194  64.925  1.00  0.00    -0.251 C  
ENDROOT
BRANCH   2   3
HETATM    3  C   UNL     1     -10.345  11.526  66.085  1.00  0.00    -0.245 A  
HETATM    4  N   UNL     1     -10.922  12.748  66.078  1.00  0.00    -0.274 NA 
HETATM    5  C   UNL     1     -11.673  13.092  67.146  1.00  0.00    -0.382 A  
HETATM    6  C   UNL     1     -11.884  12.266  68.233  1.00  0.00    -0.367 A  
HETATM    7  C   UNL     1     -11.288  11.005  68.231  1.00  0.00    -0.366 A  
HETATM    8  C   UNL     1     -10.505  10.628  67.136  1.00  0.00    -0.295 A  
BRANCH   7   9
HETATM    9  C   UNL     1     -11.448  10.077  69.384  1.00  0.00    -0.083 C  
HETATM   10  N   UNL     1     -10.949   8.807  69.234  1.00  0.00    -0.422 N  
HETATM   11  S   UNL     1     -12.180  10.457  70.839  1.00  0.00    -0.418 S  
HETATM   12  H1  UNL     1     -11.059   8.172  70.024  1.00  0.00     0.000 HD 
HETATM   13  H2  UNL     1     -10.489   8.513  68.371  1.00  0.00     0.000 HD 
ENDBRANCH   7   9
ENDBRANCH   2   3
TORSDOF 2
ENDMDL
MODEL      104
REMARK 921   NORMALIZED FREE ENERGY PREDICTED BY IDOCK:   -3.14 KCAL/MOL
REMARK 922        TOTAL FREE ENERGY PREDICTED BY IDOCK:   -3.62 KCAL/MOL
REMARK 923 INTER-LIGAND FREE ENERGY PREDICTED BY IDOCK:   -3.52 KCAL/MOL
REMARK 924 INTRA-LIGAND FREE ENERGY PREDICTED BY IDOCK:   -0.10 KCAL/MOL
REMARK 927      BINDING AFFINITY PREDICTED BY RF-SCORE:    0.00 PKD
ROOT
HETATM    1  C   UNL     1     -10.742  19.611  66.872  1.00  0.00    -0.570 C  
HETATM    2  C   UNL     1      -9.427  20.324  67.151  1.00  0.00    -0.557 C  
ENDROOT
BRANCH   2   3
HETATM    3  C   UNL     1      -8.267  19.366  67.072  1.00  0.00    -0.272 A  
HETATM    4  N   UNL     1      -7.758  19.124  65.843  1.00  0.00    -0.438 NA 
HETATM    5  C   UNL     1      -6.769  18.212  65.743  1.00  0.00    -0.273 A  
HETATM    6  C   UNL     1      -6.251  17.521  66.822  1.00  0.00    -0.218 A  
HETATM    7  C   UNL     1      -6.779  17.778  68.087  1.00  0.00    -0.204 A  
HETATM    8  C   UNL     1      -7.806  18.720  68.214  1.00  0.00    -0.333 A  
BRANCH   7   9
HETATM    9  C   UNL     1      -6.289  17.047  69.288  1.00  0.00    -0.229 C  
HETATM   10  N   UNL     1      -5.583  17.776  70.213  1.00  0.00    -0.249 N  
HETATM   11  S   UNL     1      -6.532  15.422  69.598  1.00  0.00    -0.179 S  
HETATM   12  H1  UNL     1      -5.247  17.274  71.036  1.00  0.00     0.000 HD 
HETATM   13  H2  UNL     1      -5.402  18.772  70.084  1.00  0.00     0.000 HD 
ENDBRANCH   7   9
ENDBRANCH   2   3
TORSDOF 2
ENDMDL
MODEL      105
REMARK 921   NORMALIZED FREE ENERGY PREDICTED BY IDOCK:   -3.14 KCAL/MOL
REMARK 922        TOTAL FREE ENERGY PREDICTED BY IDOCK:   -3.62 KCAL/MOL
REMARK 923 INTER-LIGAND FREE ENERGY PREDICTED BY IDOCK:   -3.51 KCAL/MOL
REMARK 924 INTRA-LIGAND FREE ENERGY PREDICTED BY IDOCK:   -0.11 KCAL/MOL
REMARK 927      BINDING AFFINITY PREDICTED BY RF-SCORE:    0.00 PKD
ROOT
HETATM    1  C   UNL     1      -6.552  16.043  69.738  1.00  0.00    -0.143 C  
HETATM    2  C   UNL     1      -6.682  17.436  69.140  1.00  0.00    -0.243 C  
ENDROOT
BRANCH   2   3
HETATM    3  C   UNL     1      -8.074  17.670  68.615  1.00  0.00    -0.269 A  
HETATM    4  N   UNL     1      -8.422  18.951  68.358  1.00  0.00    -0.338 NA 
HETATM    5  C   UNL     1      -9.690  19.187  67.959  1.00  0.00    -0.344 A  
HETATM    6  C   UNL     1     -10.640  18.198  67.797  1.00  0.00    -0.407 A  
HETATM    7  C   UNL     1     -10.272  16.878  68.060  1.00  0.00    -0.310 A  
HETATM    8  C   UNL     1      -8.964  16.610  68.476  1.00  0.00    -0.235 A  
BRANCH   7   9
HETATM    9  C   UNL     1     -11.255  15.766  67.935  1.00  0.00    -0.313 C  
HETATM   10  N   UNL     1     -12.111  15.573  68.990  1.00  0.00    -0.583 N  
HETATM   11  S   UNL     1     -11.399  14.745  66.619  1.00  0.00    -0.325 S  
HETATM   12  H1  UNL     1     -12.783  14.811  68.905  1.00  0.00     0.000 HD 
HETATM   13  H2  UNL     1     -12.075  16.163  69.822  1.00  0.00     0.000 HD 
ENDBRANCH   7   9
ENDBRANCH   2   3
TORSDOF 2
ENDMDL
MODEL      106
REMARK 921   NORMALIZED FREE ENERGY PREDICTED BY IDOCK:   -3.13 KCAL/MOL
REMARK 922        TOTAL FREE ENERGY PREDICTED BY IDOCK:   -3.62 KCAL/MOL
REMARK 923 INTER-LIGAND FREE ENERGY PREDICTED BY IDOCK:   -3.50 KCAL/MOL
REMARK 924 INTRA-LIGAND FREE ENERGY PREDICTED BY IDOCK:   -0.12 KCAL/MOL
REMARK 927      BINDING AFFINITY PREDICTED BY RF-SCORE:    0.00 PKD
ROOT
HETATM    1  C   UNL     1     -11.382  11.284  67.319  1.00  0.00    -0.329 C  
HETATM    2  C   UNL     1     -10.945  11.832  65.968  1.00  0.00    -0.355 C  
ENDROOT
BRANCH   2   3
HETATM    3  C   UNL     1     -10.690  13.315  66.044  1.00  0.00    -0.277 A  
HETATM    4  N   UNL     1     -10.974  14.040  64.939  1.00  0.00    -0.370 NA 
HETATM    5  C   UNL     1     -10.682  15.357  64.962  1.00  0.00    -0.438 A  
HETATM    6  C   UNL     1     -10.117  15.998  66.047  1.00  0.00    -0.362 A  
HETATM    7  C   UNL     1      -9.831  15.245  67.185  1.00  0.00    -0.225 A  
HETATM    8  C   UNL     1     -10.124  13.877  67.183  1.00  0.00    -0.252 A  
BRANCH   7   9
HETATM    9  C   UNL     1      -9.193  15.866  68.379  1.00  0.00    -0.197 C  
HETATM   10  N   UNL     1      -9.132  15.102  69.518  1.00  0.00    -0.420 N  
HETATM   11  S   UNL     1      -8.549  17.407  68.440  1.00  0.00    -0.275 S  
HETATM   12  H1  UNL     1      -8.695  15.528  70.335  1.00  0.00     0.000 HD 
HETATM   13  H2  UNL     1      -9.505  14.153  69.545  1.00  0.00     0.000 HD 
ENDBRANCH   7   9
ENDBRANCH   2   3
TORSDOF 2
ENDMDL
MODEL      107
REMARK 921   NORMALIZED FREE ENERGY PREDICTED BY IDOCK:   -3.13 KCAL/MOL
REMARK 922        TOTAL FREE ENERGY PREDICTED BY IDOCK:   -3.61 KCAL/MOL
REMARK 923 INTER-LIGAND FREE ENERGY PREDICTED BY IDOCK:   -3.49 KCAL/MOL
REMARK 924 INTRA-LIGAND FREE ENERGY PREDICTED BY IDOCK:   -0.11 KCAL/MOL
REMARK 927      BINDING AFFINITY PREDICTED BY RF-SCORE:    0.00 PKD
ROOT
HETATM    1  C   UNL     1      -9.899   7.948  70.756  1.00  0.00    -0.188 C  
HETATM    2  C   UNL     1      -9.355   9.004  69.806  1.00  0.00    -0.176 C  
ENDROOT
BRANCH   2   3
HETATM    3  C   UNL     1     -10.332  10.139  69.645  1.00  0.00    -0.247 A  
HETATM    4  N   UNL     1     -10.246  10.861  68.505  1.00  0.00    -0.177 NA 
HETATM    5  C   UNL     1     -11.063  11.928  68.377  1.00  0.00    -0.244 A  
HETATM    6  C   UNL     1     -11.975  12.316  69.339  1.00  0.00    -0.318 A  
HETATM    7  C   UNL     1     -12.060  11.564  70.510  1.00  0.00    -0.472 A  
HETATM    8  C   UNL     1     -11.223  10.454  70.666  1.00  0.00    -0.358 A  
BRANCH   7   9
HETATM    9  C   UNL     1     -13.000  11.944  71.601  1.00  0.00    -0.342 C  
HETATM   10  N   UNL     1     -13.498  10.925  72.374  1.00  0.00    -0.460 N  
HETATM   11  S   UNL     1     -13.489  13.502  71.959  1.00  0.00    -0.513 S  
HETATM   12  H1  UNL     1     -14.142  11.185  73.121  1.00  0.00     0.000 HD 
HETATM   13  H2  UNL     1     -13.237   9.952  72.209  1.00  0.00     0.000 HD 
ENDBRANCH   7   9
ENDBRANCH   2   3
TORSDOF 2
ENDMDL
MODEL      108
REMARK 921   NORMALIZED FREE ENERGY PREDICTED BY IDOCK:   -3.11 KCAL/MOL
REMARK 922        TOTAL FREE ENERGY PREDICTED BY IDOCK:   -3.59 KCAL/MOL
REMARK 923 INTER-LIGAND FREE ENERGY PREDICTED BY IDOCK:   -3.48 KCAL/MOL
REMARK 924 INTRA-LIGAND FREE ENERGY PREDICTED BY IDOCK:   -0.11 KCAL/MOL
REMARK 927      BINDING AFFINITY PREDICTED BY RF-SCORE:    0.00 PKD
ROOT
HETATM    1  C   UNL     1      -7.613   7.970  74.095  1.00  0.00    -0.237 C  
HETATM    2  C   UNL     1      -8.988   7.383  73.811  1.00  0.00    -0.275 C  
ENDROOT
BRANCH   2   3
HETATM    3  C   UNL     1      -9.712   8.188  72.763  1.00  0.00    -0.281 A  
HETATM    4  N   UNL     1      -8.954   8.757  71.799  1.00  0.00    -0.302 NA 
HETATM    5  C   UNL     1      -9.576   9.543  70.896  1.00  0.00    -0.146 A  
HETATM    6  C   UNL     1     -10.935   9.792  70.903  1.00  0.00    -0.411 A  
HETATM    7  C   UNL     1     -11.711   9.198  71.898  1.00  0.00    -0.436 A  
HETATM    8  C   UNL     1     -11.088   8.379  72.845  1.00  0.00    -0.030 A  
BRANCH   7   9
HETATM    9  C   UNL     1     -13.177   9.447  71.982  1.00  0.00    -0.449 C  
HETATM   10  N   UNL     1     -13.577  10.752  72.134  1.00  0.00    -0.444 N  
HETATM   11  S   UNL     1     -14.365   8.274  71.901  1.00  0.00    -0.472 S  
HETATM   12  H1  UNL     1     -14.581  10.922  72.192  1.00  0.00     0.000 HD 
HETATM   13  H2  UNL     1     -12.901  11.515  72.188  1.00  0.00     0.000 HD 
ENDBRANCH   7   9
ENDBRANCH   2   3
TORSDOF 2
ENDMDL
MODEL      109
REMARK 921   NORMALIZED FREE ENERGY PREDICTED BY IDOCK:   -3.11 KCAL/MOL
REMARK 922        TOTAL FREE ENERGY PREDICTED BY IDOCK:   -3.58 KCAL/MOL
REMARK 923 INTER-LIGAND FREE ENERGY PREDICTED BY IDOCK:   -3.48 KCAL/MOL
REMARK 924 INTRA-LIGAND FREE ENERGY PREDICTED BY IDOCK:   -0.10 KCAL/MOL
REMARK 927      BINDING AFFINITY PREDICTED BY RF-SCORE:    0.00 PKD
ROOT
HETATM    1  C   UNL     1      -8.350  16.300  66.286  1.00  0.00    -0.343 C  
HETATM    2  C   UNL     1      -8.170  14.968  67.000  1.00  0.00    -0.246 C  
ENDROOT
BRANCH   2   3
HETATM    3  C   UNL     1      -9.462  14.194  67.028  1.00  0.00    -0.251 A  
HETATM    4  N   UNL     1     -10.089  14.010  65.845  1.00  0.00    -0.311 NA 
HETATM    5  C   UNL     1     -11.284  13.384  65.860  1.00  0.00    -0.300 A  
HETATM    6  C   UNL     1     -11.894  12.922  67.010  1.00  0.00    -0.437 A  
HETATM    7  C   UNL     1     -11.239  13.111  68.227  1.00  0.00    -0.307 A  
HETATM    8  C   UNL     1      -9.999  13.759  68.236  1.00  0.00    -0.243 A  
BRANCH   7   9
HETATM    9  C   UNL     1     -11.853  12.666  69.509  1.00  0.00    -0.312 C  
HETATM   10  N   UNL     1     -12.354  13.644  70.330  1.00  0.00    -0.351 N  
HETATM   11  S   UNL     1     -11.982  11.079  70.020  1.00  0.00    -0.379 S  
HETATM   12  H1  UNL     1     -12.774  13.339  71.208  1.00  0.00     0.000 HD 
HETATM   13  H2  UNL     1     -12.308  14.632  70.075  1.00  0.00     0.000 HD 
ENDBRANCH   7   9
ENDBRANCH   2   3
TORSDOF 2
ENDMDL
MODEL      110
REMARK 921   NORMALIZED FREE ENERGY PREDICTED BY IDOCK:   -3.08 KCAL/MOL
REMARK 922        TOTAL FREE ENERGY PREDICTED BY IDOCK:   -3.55 KCAL/MOL
REMARK 923 INTER-LIGAND FREE ENERGY PREDICTED BY IDOCK:   -3.45 KCAL/MOL
REMARK 924 INTRA-LIGAND FREE ENERGY PREDICTED BY IDOCK:   -0.10 KCAL/MOL
REMARK 927      BINDING AFFINITY PREDICTED BY RF-SCORE:    0.00 PKD
ROOT
HETATM    1  C   UNL     1     -13.032  10.667  71.393  1.00  0.00    -0.545 C  
HETATM    2  C   UNL     1     -13.489   9.335  71.969  1.00  0.00    -0.519 C  
ENDROOT
BRANCH   2   3
HETATM    3  C   UNL     1     -12.383   8.314  71.909  1.00  0.00    -0.338 A  
HETATM    4  N   UNL     1     -12.747   7.035  71.659  1.00  0.00    -0.377 NA 
HETATM    5  C   UNL     1     -11.779   6.095  71.675  1.00  0.00    -0.228 A  
HETATM    6  C   UNL     1     -10.449   6.367  71.929  1.00  0.00    -0.239 A  
HETATM    7  C   UNL     1     -10.081   7.689  72.181  1.00  0.00    -0.246 A  
HETATM    8  C   UNL     1     -11.067   8.680  72.170  1.00  0.00    -0.434 A  
BRANCH   7   9
HETATM    9  C   UNL     1      -8.670   8.048  72.492  1.00  0.00    -0.173 C  
HETATM   10  N   UNL     1      -7.896   8.485  71.446  1.00  0.00    -0.115 N  
HETATM   11  S   UNL     1      -7.960   7.967  74.004  1.00  0.00    -0.234 S  
HETATM   12  H1  UNL     1      -6.929   8.731  71.659  1.00  0.00     0.000 HD 
HETATM   13  H2  UNL     1      -8.270   8.559  70.499  1.00  0.00     0.000 HD 
ENDBRANCH   7   9
ENDBRANCH   2   3
TORSDOF 2
ENDMDL
MODEL      111
REMARK 921   NORMALIZED FREE ENERGY PREDICTED BY IDOCK:   -3.07 KCAL/MOL
REMARK 922        TOTAL FREE ENERGY PREDICTED BY IDOCK:   -3.54 KCAL/MOL
REMARK 923 INTER-LIGAND FREE ENERGY PREDICTED BY IDOCK:   -3.43 KCAL/MOL
REMARK 924 INTRA-LIGAND FREE ENERGY PREDICTED BY IDOCK:   -0.12 KCAL/MOL
REMARK 927      BINDING AFFINITY PREDICTED BY RF-SCORE:    0.00 PKD
ROOT
HETATM    1  C   UNL     1      -7.781   7.973  74.341  1.00  0.00    -0.266 C  
HETATM    2  C   UNL     1      -9.163   7.803  73.726  1.00  0.00    -0.316 C  
ENDROOT
BRANCH   2   3
HETATM    3  C   UNL     1      -9.237   8.466  72.376  1.00  0.00    -0.275 A  
HETATM    4  N   UNL     1      -8.075   8.603  71.698  1.00  0.00    -0.205 NA 
HETATM    5  C   UNL     1      -8.111   9.261  70.521  1.00  0.00    -0.174 A  
HETATM    6  C   UNL     1      -9.263   9.794  69.974  1.00  0.00    -0.266 A  
HETATM    7  C   UNL     1     -10.459   9.644  70.677  1.00  0.00    -0.379 A  
HETATM    8  C   UNL     1     -10.445   8.966  71.900  1.00  0.00    -0.415 A  
BRANCH   7   9
HETATM    9  C   UNL     1     -11.731  10.220  70.160  1.00  0.00    -0.284 C  
HETATM   10  N   UNL     1     -12.883   9.876  70.824  1.00  0.00    -0.530 N  
HETATM   11  S   UNL     1     -11.866  11.248  68.849  1.00  0.00    -0.315 S  
HETATM   12  H1  UNL     1     -13.754  10.270  70.470  1.00  0.00     0.000 HD 
HETATM   13  H2  UNL     1     -12.867   9.254  71.633  1.00  0.00     0.000 HD 
ENDBRANCH   7   9
ENDBRANCH   2   3
TORSDOF 2
ENDMDL
MODEL      112
REMARK 921   NORMALIZED FREE ENERGY PREDICTED BY IDOCK:   -3.06 KCAL/MOL
REMARK 922        TOTAL FREE ENERGY PREDICTED BY IDOCK:   -3.53 KCAL/MOL
REMARK 923 INTER-LIGAND FREE ENERGY PREDICTED BY IDOCK:   -3.42 KCAL/MOL
REMARK 924 INTRA-LIGAND FREE ENERGY PREDICTED BY IDOCK:   -0.11 KCAL/MOL
REMARK 927      BINDING AFFINITY PREDICTED BY RF-SCORE:    0.00 PKD
ROOT
HETATM    1  C   UNL     1     -10.616  20.009  65.735  1.00  0.00    -0.428 C  
HETATM    2  C   UNL     1      -9.478  19.987  66.746  1.00  0.00    -0.530 C  
ENDROOT
BRANCH   2   3
HETATM    3  C   UNL     1      -9.416  18.662  67.459  1.00  0.00    -0.291 A  
HETATM    4  N   UNL     1     -10.583  18.000  67.619  1.00  0.00    -0.413 NA 
HETATM    5  C   UNL     1     -10.558  16.848  68.322  1.00  0.00    -0.363 A  
HETATM    6  C   UNL     1      -9.411  16.313  68.877  1.00  0.00    -0.252 A  
HETATM    7  C   UNL     1      -8.210  17.000  68.704  1.00  0.00    -0.261 A  
HETATM    8  C   UNL     1      -8.213  18.197  67.980  1.00  0.00    -0.266 A  
BRANCH   7   9
HETATM    9  C   UNL     1      -6.943  16.496  69.301  1.00  0.00    -0.227 C  
HETATM   10  N   UNL     1      -6.089  17.433  69.828  1.00  0.00    -0.248 N  
HETATM   11  S   UNL     1      -6.483  14.890  69.385  1.00  0.00    -0.144 S  
HETATM   12  H1  UNL     1      -5.221  17.087  70.237  1.00  0.00     0.000 HD 
HETATM   13  H2  UNL     1      -6.312  18.429  69.810  1.00  0.00     0.000 HD 
ENDBRANCH   7   9
ENDBRANCH   2   3
TORSDOF 2
ENDMDL
MODEL      113
REMARK 921   NORMALIZED FREE ENERGY PREDICTED BY IDOCK:   -3.06 KCAL/MOL
REMARK 922        TOTAL FREE ENERGY PREDICTED BY IDOCK:   -3.53 KCAL/MOL
REMARK 923 INTER-LIGAND FREE ENERGY PREDICTED BY IDOCK:   -3.41 KCAL/MOL
REMARK 924 INTRA-LIGAND FREE ENERGY PREDICTED BY IDOCK:   -0.12 KCAL/MOL
REMARK 927      BINDING AFFINITY PREDICTED BY RF-SCORE:    0.00 PKD
ROOT
HETATM    1  C   UNL     1     -12.152  12.869  63.563  1.00  0.00    -0.633 C  
HETATM    2  C   UNL     1     -11.127  11.744  63.527  1.00  0.00    -0.503 C  
ENDROOT
BRANCH   2   3
HETATM    3  C   UNL     1     -10.239  11.785  64.743  1.00  0.00    -0.282 A  
HETATM    4  N   UNL     1      -9.180  10.943  64.754  1.00  0.00    -0.205 NA 
HETATM    5  C   UNL     1      -8.417  10.912  65.866  1.00  0.00    -0.158 A  
HETATM    6  C   UNL     1      -8.656  11.690  66.983  1.00  0.00    -0.169 A  
HETATM    7  C   UNL     1      -9.747  12.558  66.962  1.00  0.00    -0.213 A  
HETATM    8  C   UNL     1     -10.553  12.607  65.820  1.00  0.00    -0.296 A  
BRANCH   7   9
HETATM    9  C   UNL     1     -10.079  13.403  68.143  1.00  0.00    -0.244 C  
HETATM   10  N   UNL     1      -9.050  13.708  68.998  1.00  0.00    -0.366 N  
HETATM   11  S   UNL     1     -11.596  14.008  68.504  1.00  0.00    -0.344 S  
HETATM   12  H1  UNL     1      -9.278  14.286  69.807  1.00  0.00     0.000 HD 
HETATM   13  H2  UNL     1      -8.100  13.371  68.833  1.00  0.00     0.000 HD 
ENDBRANCH   7   9
ENDBRANCH   2   3
TORSDOF 2
ENDMDL
MODEL      114
REMARK 921   NORMALIZED FREE ENERGY PREDICTED BY IDOCK:   -3.05 KCAL/MOL
REMARK 922        TOTAL FREE ENERGY PREDICTED BY IDOCK:   -3.53 KCAL/MOL
REMARK 923 INTER-LIGAND FREE ENERGY PREDICTED BY IDOCK:   -3.41 KCAL/MOL
REMARK 924 INTRA-LIGAND FREE ENERGY PREDICTED BY IDOCK:   -0.11 KCAL/MOL
REMARK 927      BINDING AFFINITY PREDICTED BY RF-SCORE:    0.00 PKD
ROOT
HETATM    1  C   UNL     1     -10.506  16.082  66.573  1.00  0.00    -0.303 C  
HETATM    2  C   UNL     1     -10.312  15.024  67.650  1.00  0.00    -0.243 C  
ENDROOT
BRANCH   2   3
HETATM    3  C   UNL     1     -10.122  13.661  67.038  1.00  0.00    -0.248 A  
HETATM    4  N   UNL     1      -9.297  12.809  67.689  1.00  0.00    -0.184 NA 
HETATM    5  C   UNL     1      -9.056  11.611  67.117  1.00  0.00    -0.171 A  
HETATM    6  C   UNL     1      -9.605  11.211  65.914  1.00  0.00    -0.250 A  
HETATM    7  C   UNL     1     -10.458  12.093  65.251  1.00  0.00    -0.311 A  
HETATM    8  C   UNL     1     -10.721  13.341  65.825  1.00  0.00    -0.286 A  
BRANCH   7   9
HETATM    9  C   UNL     1     -11.060  11.738  63.936  1.00  0.00    -0.408 C  
HETATM   10  N   UNL     1     -10.231  11.149  63.013  1.00  0.00    -0.650 N  
HETATM   11  S   UNL     1     -12.653  11.994  63.500  1.00  0.00    -0.358 S  
HETATM   12  H1  UNL     1     -10.644  10.906  62.112  1.00  0.00     0.000 HD 
HETATM   13  H2  UNL     1      -9.249  10.964  63.218  1.00  0.00     0.000 HD 
ENDBRANCH   7   9
ENDBRANCH   2   3
TORSDOF 2
ENDMDL
MODEL      115
REMARK 921   NORMALIZED FREE ENERGY PREDICTED BY IDOCK:   -3.05 KCAL/MOL
REMARK 922        TOTAL FREE ENERGY PREDICTED BY IDOCK:   -3.52 KCAL/MOL
REMARK 923 INTER-LIGAND FREE ENERGY PREDICTED BY IDOCK:   -3.40 KCAL/MOL
REMARK 924 INTRA-LIGAND FREE ENERGY PREDICTED BY IDOCK:   -0.12 KCAL/MOL
REMARK 927      BINDING AFFINITY PREDICTED BY RF-SCORE:    0.00 PKD
ROOT
HETATM    1  C   UNL     1     -11.092  11.525  67.132  1.00  0.00    -0.355 C  
HETATM    2  C   UNL     1     -11.869  11.793  68.413  1.00  0.00    -0.347 C  
ENDROOT
BRANCH   2   3
HETATM    3  C   UNL     1     -11.555  13.162  68.958  1.00  0.00    -0.312 A  
HETATM    4  N   UNL     1     -11.995  13.438  70.206  1.00  0.00    -0.330 NA 
HETATM    5  C   UNL     1     -11.789  14.684  70.681  1.00  0.00    -0.305 A  
HETATM    6  C   UNL     1     -11.155  15.682  69.967  1.00  0.00    -0.332 A  
HETATM    7  C   UNL     1     -10.700  15.389  68.682  1.00  0.00    -0.246 A  
HETATM    8  C   UNL     1     -10.904  14.104  68.168  1.00  0.00    -0.258 A  
BRANCH   7   9
HETATM    9  C   UNL     1     -10.036  16.426  67.846  1.00  0.00    -0.243 C  
HETATM   10  N   UNL     1      -9.923  17.682  68.389  1.00  0.00    -0.334 N  
HETATM   11  S   UNL     1      -9.418  16.183  66.311  1.00  0.00    -0.341 S  
HETATM   12  H1  UNL     1      -9.468  18.392  67.816  1.00  0.00     0.000 HD 
HETATM   13  H2  UNL     1     -10.278  17.895  69.322  1.00  0.00     0.000 HD 
ENDBRANCH   7   9
ENDBRANCH   2   3
TORSDOF 2
ENDMDL
MODEL      116
REMARK 921   NORMALIZED FREE ENERGY PREDICTED BY IDOCK:   -3.04 KCAL/MOL
REMARK 922        TOTAL FREE ENERGY PREDICTED BY IDOCK:   -3.51 KCAL/MOL
REMARK 923 INTER-LIGAND FREE ENERGY PREDICTED BY IDOCK:   -3.41 KCAL/MOL
REMARK 924 INTRA-LIGAND FREE ENERGY PREDICTED BY IDOCK:   -0.10 KCAL/MOL
REMARK 927      BINDING AFFINITY PREDICTED BY RF-SCORE:    0.00 PKD
ROOT
HETATM    1  C   UNL     1     -10.984   4.240  73.401  1.00  0.00    -0.366 C  
HETATM    2  C   UNL     1     -10.703   5.728  73.548  1.00  0.00    -0.300 C  
ENDROOT
BRANCH   2   3
HETATM    3  C   UNL     1     -10.781   6.426  72.216  1.00  0.00    -0.222 A  
HETATM    4  N   UNL     1     -10.463   5.694  71.124  1.00  0.00    -0.231 NA 
HETATM    5  C   UNL     1     -10.453   6.322  69.930  1.00  0.00    -0.227 A  
HETATM    6  C   UNL     1     -10.752   7.661  69.765  1.00  0.00    -0.243 A  
HETATM    7  C   UNL     1     -11.083   8.409  70.895  1.00  0.00    -0.289 A  
HETATM    8  C   UNL     1     -11.098   7.779  72.143  1.00  0.00    -0.331 A  
BRANCH   7   9
HETATM    9  C   UNL     1     -11.386   9.863  70.793  1.00  0.00    -0.353 C  
HETATM   10  N   UNL     1     -10.412  10.663  70.249  1.00  0.00    -0.390 N  
HETATM   11  S   UNL     1     -12.809  10.592  71.281  1.00  0.00    -0.458 S  
HETATM   12  H1  UNL     1     -10.620  11.659  70.180  1.00  0.00     0.000 HD 
HETATM   13  H2  UNL     1      -9.522  10.280  69.930  1.00  0.00     0.000 HD 
ENDBRANCH   7   9
ENDBRANCH   2   3
TORSDOF 2
ENDMDL
MODEL      117
REMARK 921   NORMALIZED FREE ENERGY PREDICTED BY IDOCK:   -3.03 KCAL/MOL
REMARK 922        TOTAL FREE ENERGY PREDICTED BY IDOCK:   -3.50 KCAL/MOL
REMARK 923 INTER-LIGAND FREE ENERGY PREDICTED BY IDOCK:   -3.40 KCAL/MOL
REMARK 924 INTRA-LIGAND FREE ENERGY PREDICTED BY IDOCK:   -0.11 KCAL/MOL
REMARK 927      BINDING AFFINITY PREDICTED BY RF-SCORE:    0.00 PKD
ROOT
HETATM    1  C   UNL     1     -10.289   7.656  66.705  1.00  0.00    -0.343 C  
HETATM    2  C   UNL     1     -10.552   6.168  66.885  1.00  0.00    -0.380 C  
ENDROOT
BRANCH   2   3
HETATM    3  C   UNL     1     -10.364   5.757  68.321  1.00  0.00    -0.212 A  
HETATM    4  N   UNL     1      -9.678   4.613  68.544  1.00  0.00    -0.155 NA 
HETATM    5  C   UNL     1      -9.565   4.189  69.820  1.00  0.00    -0.211 A  
HETATM    6  C   UNL     1     -10.104   4.858  70.902  1.00  0.00    -0.292 A  
HETATM    7  C   UNL     1     -10.806   6.040  70.665  1.00  0.00    -0.364 A  
HETATM    8  C   UNL     1     -10.937   6.498  69.349  1.00  0.00    -0.395 A  
BRANCH   7   9
HETATM    9  C   UNL     1     -11.439   6.796  71.781  1.00  0.00    -0.281 C  
HETATM   10  N   UNL     1     -12.782   7.054  71.672  1.00  0.00    -0.377 N  
HETATM   11  S   UNL     1     -10.648   7.347  73.147  1.00  0.00    -0.388 S  
HETATM   12  H1  UNL     1     -13.215   7.572  72.437  1.00  0.00     0.000 HD 
HETATM   13  H2  UNL     1     -13.323   6.743  70.864  1.00  0.00     0.000 HD 
ENDBRANCH   7   9
ENDBRANCH   2   3
TORSDOF 2
ENDMDL
MODEL      118
REMARK 921   NORMALIZED FREE ENERGY PREDICTED BY IDOCK:   -3.03 KCAL/MOL
REMARK 922        TOTAL FREE ENERGY PREDICTED BY IDOCK:   -3.50 KCAL/MOL
REMARK 923 INTER-LIGAND FREE ENERGY PREDICTED BY IDOCK:   -3.39 KCAL/MOL
REMARK 924 INTRA-LIGAND FREE ENERGY PREDICTED BY IDOCK:   -0.11 KCAL/MOL
REMARK 927      BINDING AFFINITY PREDICTED BY RF-SCORE:    0.00 PKD
ROOT
HETATM    1  C   UNL     1      -7.556   8.295  64.315  1.00  0.00    -0.122 C  
HETATM    2  C   UNL     1      -8.376   8.061  65.576  1.00  0.00    -0.153 C  
ENDROOT
BRANCH   2   3
HETATM    3  C   UNL     1      -9.195   9.277  65.920  1.00  0.00    -0.219 A  
HETATM    4  N   UNL     1      -9.422   9.509  67.232  1.00  0.00    -0.134 NA 
HETATM    5  C   UNL     1     -10.216  10.551  67.556  1.00  0.00    -0.206 A  
HETATM    6  C   UNL     1     -10.801  11.388  66.626  1.00  0.00    -0.339 A  
HETATM    7  C   UNL     1     -10.558  11.146  65.274  1.00  0.00    -0.303 A  
HETATM    8  C   UNL     1      -9.739  10.070  64.914  1.00  0.00    -0.377 A  
BRANCH   7   9
HETATM    9  C   UNL     1     -11.181  11.990  64.217  1.00  0.00    -0.357 C  
HETATM   10  N   UNL     1     -11.612  11.348  63.083  1.00  0.00    -0.873 N  
HETATM   11  S   UNL     1     -11.398  13.646  64.304  1.00  0.00    -0.308 S  
HETATM   12  H1  UNL     1     -12.038  11.927  62.360  1.00  0.00     0.000 HD 
HETATM   13  H2  UNL     1     -11.510  10.339  62.969  1.00  0.00     0.000 HD 
ENDBRANCH   7   9
ENDBRANCH   2   3
TORSDOF 2
ENDMDL
MODEL      119
REMARK 921   NORMALIZED FREE ENERGY PREDICTED BY IDOCK:   -3.03 KCAL/MOL
REMARK 922        TOTAL FREE ENERGY PREDICTED BY IDOCK:   -3.50 KCAL/MOL
REMARK 923 INTER-LIGAND FREE ENERGY PREDICTED BY IDOCK:   -3.40 KCAL/MOL
REMARK 924 INTRA-LIGAND FREE ENERGY PREDICTED BY IDOCK:   -0.10 KCAL/MOL
REMARK 927      BINDING AFFINITY PREDICTED BY RF-SCORE:    0.00 PKD
ROOT
HETATM    1  C   UNL     1     -10.974   4.924  73.141  1.00  0.00    -0.376 C  
HETATM    2  C   UNL     1     -12.035   5.759  72.439  1.00  0.00    -0.164 C  
ENDROOT
BRANCH   2   3
HETATM    3  C   UNL     1     -11.402   6.815  71.570  1.00  0.00    -0.275 A  
HETATM    4  N   UNL     1     -11.141   8.007  72.152  1.00  0.00    -0.286 NA 
HETATM    5  C   UNL     1     -10.644   8.989  71.371  1.00  0.00    -0.323 A  
HETATM    6  C   UNL     1     -10.387   8.840  70.022  1.00  0.00    -0.213 A  
HETATM    7  C   UNL     1     -10.654   7.606  69.430  1.00  0.00    -0.217 A  
HETATM    8  C   UNL     1     -11.171   6.574  70.220  1.00  0.00    -0.433 A  
BRANCH   7   9
HETATM    9  C   UNL     1     -10.428   7.386  67.975  1.00  0.00    -0.199 C  
HETATM   10  N   UNL     1     -11.296   6.537  67.333  1.00  0.00    -0.758 N  
HETATM   11  S   UNL     1      -9.213   8.089  67.067  1.00  0.00    -0.156 S  
HETATM   12  H1  UNL     1     -11.141   6.387  66.337  1.00  0.00     0.000 HD 
HETATM   13  H2  UNL     1     -12.060   6.078  67.831  1.00  0.00     0.000 HD 
ENDBRANCH   7   9
ENDBRANCH   2   3
TORSDOF 2
ENDMDL
MODEL      120
REMARK 921   NORMALIZED FREE ENERGY PREDICTED BY IDOCK:   -3.01 KCAL/MOL
REMARK 922        TOTAL FREE ENERGY PREDICTED BY IDOCK:   -3.48 KCAL/MOL
REMARK 923 INTER-LIGAND FREE ENERGY PREDICTED BY IDOCK:   -3.36 KCAL/MOL
REMARK 924 INTRA-LIGAND FREE ENERGY PREDICTED BY IDOCK:   -0.12 KCAL/MOL
REMARK 927      BINDING AFFINITY PREDICTED BY RF-SCORE:    0.00 PKD
ROOT
HETATM    1  C   UNL     1     -10.673   6.067  68.574  1.00  0.00    -0.354 C  
HETATM    2  C   UNL     1      -9.898   6.164  69.881  1.00  0.00    -0.205 C  
ENDROOT
BRANCH   2   3
HETATM    3  C   UNL     1     -10.539   7.156  70.815  1.00  0.00    -0.222 A  
HETATM    4  N   UNL     1     -10.636   6.795  72.115  1.00  0.00    -0.208 NA 
HETATM    5  C   UNL     1     -11.275   7.639  72.953  1.00  0.00    -0.372 A  
HETATM    6  C   UNL     1     -11.827   8.842  72.557  1.00  0.00    -0.272 A  
HETATM    7  C   UNL     1     -11.719   9.209  71.216  1.00  0.00    -0.396 A  
HETATM    8  C   UNL     1     -11.062   8.349  70.329  1.00  0.00    -0.216 A  
BRANCH   7   9
HETATM    9  C   UNL     1     -12.317  10.477  70.715  1.00  0.00    -0.378 C  
HETATM   10  N   UNL     1     -12.492  10.588  69.358  1.00  0.00    -0.495 N  
HETATM   11  S   UNL     1     -12.793  11.765  71.668  1.00  0.00    -0.241 S  
HETATM   12  H1  UNL     1     -12.902  11.457  69.015  1.00  0.00     0.000 HD 
HETATM   13  H2  UNL     1     -12.224   9.836  68.721  1.00  0.00     0.000 HD 
ENDBRANCH   7   9
ENDBRANCH   2   3
TORSDOF 2
ENDMDL
MODEL      121
REMARK 921   NORMALIZED FREE ENERGY PREDICTED BY IDOCK:   -3.00 KCAL/MOL
REMARK 922        TOTAL FREE ENERGY PREDICTED BY IDOCK:   -3.46 KCAL/MOL
REMARK 923 INTER-LIGAND FREE ENERGY PREDICTED BY IDOCK:   -3.35 KCAL/MOL
REMARK 924 INTRA-LIGAND FREE ENERGY PREDICTED BY IDOCK:   -0.11 KCAL/MOL
REMARK 927      BINDING AFFINITY PREDICTED BY RF-SCORE:    0.00 PKD
ROOT
HETATM    1  C   UNL     1     -11.400  10.304  69.003  1.00  0.00    -0.237 C  
HETATM    2  C   UNL     1     -11.343  10.964  67.633  1.00  0.00    -0.345 C  
ENDROOT
BRANCH   2   3
HETATM    3  C   UNL     1     -11.447  12.462  67.751  1.00  0.00    -0.324 A  
HETATM    4  N   UNL     1     -11.790  12.956  68.962  1.00  0.00    -0.311 NA 
HETATM    5  C   UNL     1     -11.961  14.291  69.068  1.00  0.00    -0.325 A  
HETATM    6  C   UNL     1     -11.802  15.171  68.015  1.00  0.00    -0.225 A  
HETATM    7  C   UNL     1     -11.443  14.654  66.770  1.00  0.00    -0.371 A  
HETATM    8  C   UNL     1     -11.262  13.273  66.636  1.00  0.00    -0.332 A  
BRANCH   7   9
HETATM    9  C   UNL     1     -11.285  15.542  65.585  1.00  0.00    -0.155 C  
HETATM   10  N   UNL     1     -11.739  15.059  64.383  1.00  0.00    -0.643 N  
HETATM   11  S   UNL     1     -10.607  17.070  65.605  1.00  0.00    -0.083 S  
HETATM   12  H1  UNL     1     -11.630  15.668  63.571  1.00  0.00     0.000 HD 
HETATM   13  H2  UNL     1     -12.165  14.135  64.304  1.00  0.00     0.000 HD 
ENDBRANCH   7   9
ENDBRANCH   2   3
TORSDOF 2
ENDMDL
MODEL      122
REMARK 921   NORMALIZED FREE ENERGY PREDICTED BY IDOCK:   -2.97 KCAL/MOL
REMARK 922        TOTAL FREE ENERGY PREDICTED BY IDOCK:   -3.43 KCAL/MOL
REMARK 923 INTER-LIGAND FREE ENERGY PREDICTED BY IDOCK:   -3.32 KCAL/MOL
REMARK 924 INTRA-LIGAND FREE ENERGY PREDICTED BY IDOCK:   -0.11 KCAL/MOL
REMARK 927      BINDING AFFINITY PREDICTED BY RF-SCORE:    0.00 PKD
ROOT
HETATM    1  C   UNL     1      -9.887   9.807  65.233  1.00  0.00    -0.335 C  
HETATM    2  C   UNL     1     -10.440  11.096  65.825  1.00  0.00    -0.305 C  
ENDROOT
BRANCH   2   3
HETATM    3  C   UNL     1     -10.904  10.882  67.242  1.00  0.00    -0.287 A  
HETATM    4  N   UNL     1     -11.503  11.930  67.852  1.00  0.00    -0.296 NA 
HETATM    5  C   UNL     1     -11.857  11.782  69.146  1.00  0.00    -0.326 A  
HETATM    6  C   UNL     1     -11.646  10.626  69.872  1.00  0.00    -0.396 A  
HETATM    7  C   UNL     1     -11.033   9.548  69.234  1.00  0.00    -0.167 A  
HETATM    8  C   UNL     1     -10.655   9.679  67.894  1.00  0.00    -0.308 A  
BRANCH   7   9
HETATM    9  C   UNL     1     -10.747   8.282  69.966  1.00  0.00    -0.239 C  
HETATM   10  N   UNL     1     -11.830   7.534  70.357  1.00  0.00    -0.501 N  
HETATM   11  S   UNL     1      -9.225   7.704  70.342  1.00  0.00    -0.156 S  
HETATM   12  H1  UNL     1     -11.634   6.668  70.858  1.00  0.00     0.000 HD 
HETATM   13  H2  UNL     1     -12.786   7.831  70.156  1.00  0.00     0.000 HD 
ENDBRANCH   7   9
ENDBRANCH   2   3
TORSDOF 2
ENDMDL
MODEL      123
REMARK 921   NORMALIZED FREE ENERGY PREDICTED BY IDOCK:   -2.96 KCAL/MOL
REMARK 922        TOTAL FREE ENERGY PREDICTED BY IDOCK:   -3.42 KCAL/MOL
REMARK 923 INTER-LIGAND FREE ENERGY PREDICTED BY IDOCK:   -3.31 KCAL/MOL
REMARK 924 INTRA-LIGAND FREE ENERGY PREDICTED BY IDOCK:   -0.11 KCAL/MOL
REMARK 927      BINDING AFFINITY PREDICTED BY RF-SCORE:    0.00 PKD
ROOT
HETATM    1  C   UNL     1      -9.866  20.057  67.504  1.00  0.00    -0.551 C  
HETATM    2  C   UNL     1      -9.957  18.990  66.423  1.00  0.00    -0.447 C  
ENDROOT
BRANCH   2   3
HETATM    3  C   UNL     1      -9.311  17.707  66.875  1.00  0.00    -0.264 A  
HETATM    4  N   UNL     1      -8.351  17.808  67.822  1.00  0.00    -0.231 NA 
HETATM    5  C   UNL     1      -7.708  16.678  68.185  1.00  0.00    -0.173 A  
HETATM    6  C   UNL     1      -7.979  15.435  67.647  1.00  0.00    -0.172 A  
HETATM    7  C   UNL     1      -8.973  15.338  66.673  1.00  0.00    -0.324 A  
HETATM    8  C   UNL     1      -9.652  16.496  66.281  1.00  0.00    -0.333 A  
BRANCH   7   9
HETATM    9  C   UNL     1      -9.294  14.034  66.030  1.00  0.00    -0.055 C  
HETATM   10  N   UNL     1      -8.490  12.969  66.350  1.00  0.00    -0.347 N  
HETATM   11  S   UNL     1     -10.551  13.767  64.959  1.00  0.00    -0.409 S  
HETATM   12  H1  UNL     1      -8.711  12.076  65.909  1.00  0.00     0.000 HD 
HETATM   13  H2  UNL     1      -7.708  13.066  66.998  1.00  0.00     0.000 HD 
ENDBRANCH   7   9
ENDBRANCH   2   3
TORSDOF 2
ENDMDL
MODEL      124
REMARK 921   NORMALIZED FREE ENERGY PREDICTED BY IDOCK:   -2.96 KCAL/MOL
REMARK 922        TOTAL FREE ENERGY PREDICTED BY IDOCK:   -3.42 KCAL/MOL
REMARK 923 INTER-LIGAND FREE ENERGY PREDICTED BY IDOCK:   -3.31 KCAL/MOL
REMARK 924 INTRA-LIGAND FREE ENERGY PREDICTED BY IDOCK:   -0.10 KCAL/MOL
REMARK 927      BINDING AFFINITY PREDICTED BY RF-SCORE:    0.00 PKD
ROOT
HETATM    1  C   UNL     1      -8.924   7.485  68.127  1.00  0.00    -0.129 C  
HETATM    2  C   UNL     1     -10.286   8.078  67.795  1.00  0.00    -0.294 C  
ENDROOT
BRANCH   2   3
HETATM    3  C   UNL     1     -10.770   8.973  68.906  1.00  0.00    -0.123 A  
HETATM    4  N   UNL     1     -11.086   8.375  70.077  1.00  0.00    -0.200 NA 
HETATM    5  C   UNL     1     -11.592   9.149  71.059  1.00  0.00    -0.306 A  
HETATM    6  C   UNL     1     -11.799  10.509  70.934  1.00  0.00    -0.455 A  
HETATM    7  C   UNL     1     -11.466  11.120  69.725  1.00  0.00    -0.388 A  
HETATM    8  C   UNL     1     -10.941  10.336  68.692  1.00  0.00    -0.289 A  
BRANCH   7   9
HETATM    9  C   UNL     1     -11.692  12.576  69.511  1.00  0.00    -0.309 C  
HETATM   10  N   UNL     1     -12.112  13.305  70.596  1.00  0.00    -0.496 N  
HETATM   11  S   UNL     1     -11.471  13.388  68.066  1.00  0.00    -0.326 S  
HETATM   12  H1  UNL     1     -12.267  14.302  70.449  1.00  0.00     0.000 HD 
HETATM   13  H2  UNL     1     -12.264  12.869  71.506  1.00  0.00     0.000 HD 
ENDBRANCH   7   9
ENDBRANCH   2   3
TORSDOF 2
ENDMDL
MODEL      125
REMARK 921   NORMALIZED FREE ENERGY PREDICTED BY IDOCK:   -2.96 KCAL/MOL
REMARK 922        TOTAL FREE ENERGY PREDICTED BY IDOCK:   -3.42 KCAL/MOL
REMARK 923 INTER-LIGAND FREE ENERGY PREDICTED BY IDOCK:   -3.30 KCAL/MOL
REMARK 924 INTRA-LIGAND FREE ENERGY PREDICTED BY IDOCK:   -0.12 KCAL/MOL
REMARK 927      BINDING AFFINITY PREDICTED BY RF-SCORE:    0.00 PKD
ROOT
HETATM    1  C   UNL     1      -7.302  12.973  67.558  1.00  0.00    -0.154 C  
HETATM    2  C   UNL     1      -8.771  12.697  67.269  1.00  0.00    -0.198 C  
ENDROOT
BRANCH   2   3
HETATM    3  C   UNL     1      -9.433  13.899  66.648  1.00  0.00    -0.285 A  
HETATM    4  N   UNL     1     -10.146  13.688  65.519  1.00  0.00    -0.294 NA 
HETATM    5  C   UNL     1     -10.683  14.764  64.907  1.00  0.00    -0.417 A  
HETATM    6  C   UNL     1     -10.548  16.058  65.371  1.00  0.00    -0.428 A  
HETATM    7  C   UNL     1      -9.815  16.267  66.539  1.00  0.00    -0.287 A  
HETATM    8  C   UNL     1      -9.247  15.167  67.190  1.00  0.00    -0.226 A  
BRANCH   7   9
HETATM    9  C   UNL     1      -9.604  17.639  67.078  1.00  0.00    -0.276 C  
HETATM   10  N   UNL     1      -8.851  17.748  68.221  1.00  0.00    -0.271 N  
HETATM   11  S   UNL     1     -10.204  19.047  66.405  1.00  0.00    -0.463 S  
HETATM   12  H1  UNL     1      -8.706  18.688  68.590  1.00  0.00     0.000 HD 
HETATM   13  H2  UNL     1      -8.454  16.927  68.680  1.00  0.00     0.000 HD 
ENDBRANCH   7   9
ENDBRANCH   2   3
TORSDOF 2
ENDMDL
MODEL      126
REMARK 921   NORMALIZED FREE ENERGY PREDICTED BY IDOCK:   -2.94 KCAL/MOL
REMARK 922        TOTAL FREE ENERGY PREDICTED BY IDOCK:   -3.40 KCAL/MOL
REMARK 923 INTER-LIGAND FREE ENERGY PREDICTED BY IDOCK:   -3.29 KCAL/MOL
REMARK 924 INTRA-LIGAND FREE ENERGY PREDICTED BY IDOCK:   -0.11 KCAL/MOL
REMARK 927      BINDING AFFINITY PREDICTED BY RF-SCORE:    0.00 PKD
ROOT
HETATM    1  C   UNL     1     -14.020   9.245  72.300  1.00  0.00    -0.439 C  
HETATM    2  C   UNL     1     -12.958   9.491  71.238  1.00  0.00    -0.407 C  
ENDROOT
BRANCH   2   3
HETATM    3  C   UNL     1     -11.680   8.768  71.575  1.00  0.00    -0.309 A  
HETATM    4  N   UNL     1     -10.526   9.446  71.382  1.00  0.00    -0.331 NA 
HETATM    5  C   UNL     1      -9.369   8.790  71.607  1.00  0.00    -0.275 A  
HETATM    6  C   UNL     1      -9.301   7.475  72.025  1.00  0.00    -0.165 A  
HETATM    7  C   UNL     1     -10.496   6.784  72.227  1.00  0.00    -0.233 A  
HETATM    8  C   UNL     1     -11.708   7.443  71.998  1.00  0.00    -0.325 A  
BRANCH   7   9
HETATM    9  C   UNL     1     -10.495   5.355  72.647  1.00  0.00    -0.217 C  
HETATM   10  N   UNL     1     -11.440   4.979  73.570  1.00  0.00    -0.451 N  
HETATM   11  S   UNL     1      -9.446   4.181  72.086  1.00  0.00    -0.140 S  
HETATM   12  H1  UNL     1     -11.439   4.001  73.857  1.00  0.00     0.000 HD 
HETATM   13  H2  UNL     1     -12.111   5.648  73.950  1.00  0.00     0.000 HD 
ENDBRANCH   7   9
ENDBRANCH   2   3
TORSDOF 2
ENDMDL
MODEL      127
REMARK 921   NORMALIZED FREE ENERGY PREDICTED BY IDOCK:   -2.94 KCAL/MOL
REMARK 922        TOTAL FREE ENERGY PREDICTED BY IDOCK:   -3.40 KCAL/MOL
REMARK 923 INTER-LIGAND FREE ENERGY PREDICTED BY IDOCK:   -3.28 KCAL/MOL
REMARK 924 INTRA-LIGAND FREE ENERGY PREDICTED BY IDOCK:   -0.12 KCAL/MOL
REMARK 927      BINDING AFFINITY PREDICTED BY RF-SCORE:    0.00 PKD
ROOT
HETATM    1  C   UNL     1     -12.282  10.850  70.872  1.00  0.00    -0.485 C  
HETATM    2  C   UNL     1     -11.509   9.607  70.454  1.00  0.00    -0.325 C  
ENDROOT
BRANCH   2   3
HETATM    3  C   UNL     1     -10.934   9.770  69.072  1.00  0.00    -0.163 A  
HETATM    4  N   UNL     1     -10.209   8.736  68.587  1.00  0.00    -0.191 NA 
HETATM    5  C   UNL     1      -9.623   8.894  67.382  1.00  0.00    -0.157 A  
HETATM    6  C   UNL     1      -9.726  10.044  66.623  1.00  0.00    -0.246 A  
HETATM    7  C   UNL     1     -10.478  11.104  67.128  1.00  0.00    -0.270 A  
HETATM    8  C   UNL     1     -11.094  10.964  68.376  1.00  0.00    -0.320 A  
BRANCH   7   9
HETATM    9  C   UNL     1     -10.605  12.383  66.376  1.00  0.00    -0.244 C  
HETATM   10  N   UNL     1      -9.504  12.802  65.673  1.00  0.00    -0.464 N  
HETATM   11  S   UNL     1     -11.975  13.340  66.319  1.00  0.00    -0.415 S  
HETATM   12  H1  UNL     1      -9.591  13.678  65.158  1.00  0.00     0.000 HD 
HETATM   13  H2  UNL     1      -8.637  12.262  65.666  1.00  0.00     0.000 HD 
ENDBRANCH   7   9
ENDBRANCH   2   3
TORSDOF 2
ENDMDL
MODEL      128
REMARK 921   NORMALIZED FREE ENERGY PREDICTED BY IDOCK:   -2.93 KCAL/MOL
REMARK 922        TOTAL FREE ENERGY PREDICTED BY IDOCK:   -3.39 KCAL/MOL
REMARK 923 INTER-LIGAND FREE ENERGY PREDICTED BY IDOCK:   -3.28 KCAL/MOL
REMARK 924 INTRA-LIGAND FREE ENERGY PREDICTED BY IDOCK:   -0.10 KCAL/MOL
REMARK 927      BINDING AFFINITY PREDICTED BY RF-SCORE:    0.00 PKD
ROOT
HETATM    1  C   UNL     1     -12.211  13.436  67.155  1.00  0.00    -0.306 C  
HETATM    2  C   UNL     1     -11.482  12.100  67.142  1.00  0.00    -0.413 C  
ENDROOT
BRANCH   2   3
HETATM    3  C   UNL     1     -11.600  11.408  68.475  1.00  0.00    -0.318 A  
HETATM    4  N   UNL     1     -12.100  12.137  69.498  1.00  0.00    -0.244 NA 
HETATM    5  C   UNL     1     -12.142  11.558  70.717  1.00  0.00    -0.309 A  
HETATM    6  C   UNL     1     -11.709  10.271  70.970  1.00  0.00    -0.461 A  
HETATM    7  C   UNL     1     -11.199   9.524  69.908  1.00  0.00    -0.209 A  
HETATM    8  C   UNL     1     -11.145  10.104  68.636  1.00  0.00    -0.254 A  
BRANCH   7   9
HETATM    9  C   UNL     1     -10.687   8.141  70.116  1.00  0.00    -0.243 C  
HETATM   10  N   UNL     1      -9.336   7.951  69.969  1.00  0.00    -0.157 N  
HETATM   11  S   UNL     1     -11.621   6.813  70.516  1.00  0.00    -0.370 S  
HETATM   12  H1  UNL     1      -8.985   7.004  70.112  1.00  0.00     0.000 HD 
HETATM   13  H2  UNL     1      -8.711   8.721  69.728  1.00  0.00     0.000 HD 
ENDBRANCH   7   9
ENDBRANCH   2   3
TORSDOF 2
ENDMDL
MODEL      129
REMARK 921   NORMALIZED FREE ENERGY PREDICTED BY IDOCK:   -2.91 KCAL/MOL
REMARK 922        TOTAL FREE ENERGY PREDICTED BY IDOCK:   -3.37 KCAL/MOL
REMARK 923 INTER-LIGAND FREE ENERGY PREDICTED BY IDOCK:   -3.27 KCAL/MOL
REMARK 924 INTRA-LIGAND FREE ENERGY PREDICTED BY IDOCK:   -0.09 KCAL/MOL
REMARK 927      BINDING AFFINITY PREDICTED BY RF-SCORE:    0.00 PKD
ROOT
HETATM    1  C   UNL     1     -11.032   5.549  73.141  1.00  0.00    -0.340 C  
HETATM    2  C   UNL     1     -12.169   6.006  72.239  1.00  0.00    -0.125 C  
ENDROOT
BRANCH   2   3
HETATM    3  C   UNL     1     -12.006   7.454  71.858  1.00  0.00    -0.302 A  
HETATM    4  N   UNL     1     -12.895   8.327  72.383  1.00  0.00    -0.268 NA 
HETATM    5  C   UNL     1     -12.811   9.616  71.993  1.00  0.00    -0.410 A  
HETATM    6  C   UNL     1     -11.870  10.088  71.098  1.00  0.00    -0.481 A  
HETATM    7  C   UNL     1     -10.953   9.182  70.564  1.00  0.00    -0.307 A  
HETATM    8  C   UNL     1     -11.022   7.840  70.953  1.00  0.00    -0.260 A  
BRANCH   7   9
HETATM    9  C   UNL     1      -9.932   9.616  69.571  1.00  0.00    -0.209 C  
HETATM   10  N   UNL     1      -8.776  10.163  70.068  1.00  0.00    -0.368 N  
HETATM   11  S   UNL     1     -10.081   9.488  67.911  1.00  0.00    -0.204 S  
HETATM   12  H1  UNL     1      -8.077  10.460  69.388  1.00  0.00     0.000 HD 
HETATM   13  H2  UNL     1      -8.622  10.267  71.072  1.00  0.00     0.000 HD 
ENDBRANCH   7   9
ENDBRANCH   2   3
TORSDOF 2
ENDMDL
MODEL      130
REMARK 921   NORMALIZED FREE ENERGY PREDICTED BY IDOCK:   -2.91 KCAL/MOL
REMARK 922        TOTAL FREE ENERGY PREDICTED BY IDOCK:   -3.36 KCAL/MOL
REMARK 923 INTER-LIGAND FREE ENERGY PREDICTED BY IDOCK:   -3.25 KCAL/MOL
REMARK 924 INTRA-LIGAND FREE ENERGY PREDICTED BY IDOCK:   -0.11 KCAL/MOL
REMARK 927      BINDING AFFINITY PREDICTED BY RF-SCORE:    0.00 PKD
ROOT
HETATM    1  C   UNL     1     -12.445  12.711  65.162  1.00  0.00    -0.531 C  
HETATM    2  C   UNL     1     -12.494  13.994  65.980  1.00  0.00    -0.489 C  
ENDROOT
BRANCH   2   3
HETATM    3  C   UNL     1     -11.107  14.524  66.235  1.00  0.00    -0.332 A  
HETATM    4  N   UNL     1     -10.849  15.783  65.816  1.00  0.00    -0.308 NA 
HETATM    5  C   UNL     1      -9.591  16.248  65.967  1.00  0.00    -0.337 A  
HETATM    6  C   UNL     1      -8.564  15.513  66.527  1.00  0.00    -0.320 A  
HETATM    7  C   UNL     1      -8.839  14.217  66.962  1.00  0.00    -0.237 A  
HETATM    8  C   UNL     1     -10.136  13.713  66.813  1.00  0.00    -0.269 A  
BRANCH   7   9
HETATM    9  C   UNL     1      -7.772  13.359  67.546  1.00  0.00    -0.176 C  
HETATM   10  N   UNL     1      -6.762  13.998  68.223  1.00  0.00    -0.096 N  
HETATM   11  S   UNL     1      -7.708  11.691  67.448  1.00  0.00    -0.155 S  
HETATM   12  H1  UNL     1      -6.032  13.410  68.623  1.00  0.00     0.000 HD 
HETATM   13  H2  UNL     1      -6.744  15.014  68.321  1.00  0.00     0.000 HD 
ENDBRANCH   7   9
ENDBRANCH   2   3
TORSDOF 2
ENDMDL
MODEL      131
REMARK 921   NORMALIZED FREE ENERGY PREDICTED BY IDOCK:   -2.90 KCAL/MOL
REMARK 922        TOTAL FREE ENERGY PREDICTED BY IDOCK:   -3.35 KCAL/MOL
REMARK 923 INTER-LIGAND FREE ENERGY PREDICTED BY IDOCK:   -3.24 KCAL/MOL
REMARK 924 INTRA-LIGAND FREE ENERGY PREDICTED BY IDOCK:   -0.11 KCAL/MOL
REMARK 927      BINDING AFFINITY PREDICTED BY RF-SCORE:    0.00 PKD
ROOT
HETATM    1  C   UNL     1      -7.172  20.012  66.516  1.00  0.00    -0.284 C  
HETATM    2  C   UNL     1      -8.612  19.852  66.982  1.00  0.00    -0.389 C  
ENDROOT
BRANCH   2   3
HETATM    3  C   UNL     1      -8.905  18.419  67.343  1.00  0.00    -0.257 A  
HETATM    4  N   UNL     1      -8.587  18.028  68.597  1.00  0.00    -0.293 NA 
HETATM    5  C   UNL     1      -8.772  16.730  68.914  1.00  0.00    -0.224 A  
HETATM    6  C   UNL     1      -9.270  15.788  68.034  1.00  0.00    -0.188 A  
HETATM    7  C   UNL     1      -9.601  16.200  66.743  1.00  0.00    -0.256 A  
HETATM    8  C   UNL     1      -9.415  17.541  66.392  1.00  0.00    -0.276 A  
BRANCH   7   9
HETATM    9  C   UNL     1     -10.113  15.232  65.734  1.00  0.00    -0.356 C  
HETATM   10  N   UNL     1      -9.624  13.951  65.799  1.00  0.00    -0.509 N  
HETATM   11  S   UNL     1     -11.232  15.578  64.541  1.00  0.00    -0.211 S  
HETATM   12  H1  UNL     1      -9.975  13.288  65.108  1.00  0.00     0.000 HD 
HETATM   13  H2  UNL     1      -8.941  13.675  66.506  1.00  0.00     0.000 HD 
ENDBRANCH   7   9
ENDBRANCH   2   3
TORSDOF 2
ENDMDL
MODEL      132
REMARK 921   NORMALIZED FREE ENERGY PREDICTED BY IDOCK:   -2.89 KCAL/MOL
REMARK 922        TOTAL FREE ENERGY PREDICTED BY IDOCK:   -3.34 KCAL/MOL
REMARK 923 INTER-LIGAND FREE ENERGY PREDICTED BY IDOCK:   -3.24 KCAL/MOL
REMARK 924 INTRA-LIGAND FREE ENERGY PREDICTED BY IDOCK:   -0.11 KCAL/MOL
REMARK 927      BINDING AFFINITY PREDICTED BY RF-SCORE:    0.00 PKD
ROOT
HETATM    1  C   UNL     1     -12.335  13.672  66.104  1.00  0.00    -0.476 C  
HETATM    2  C   UNL     1     -11.147  12.726  65.997  1.00  0.00    -0.315 C  
ENDROOT
BRANCH   2   3
HETATM    3  C   UNL     1     -11.022  11.877  67.235  1.00  0.00    -0.268 A  
HETATM    4  N   UNL     1     -12.150  11.672  67.951  1.00  0.00    -0.585 NA 
HETATM    5  C   UNL     1     -12.043  10.977  69.103  1.00  0.00    -0.263 A  
HETATM    6  C   UNL     1     -10.853  10.465  69.583  1.00  0.00    -0.320 A  
HETATM    7  C   UNL     1      -9.694  10.677  68.836  1.00  0.00    -0.210 A  
HETATM    8  C   UNL     1      -9.781  11.396  67.640  1.00  0.00    -0.183 A  
BRANCH   7   9
HETATM    9  C   UNL     1      -8.373  10.180  69.310  1.00  0.00    -0.158 C  
HETATM   10  N   UNL     1      -7.466  11.125  69.724  1.00  0.00    -0.350 N  
HETATM   11  S   UNL     1      -7.911   8.575  69.381  1.00  0.00    -0.108 S  
HETATM   12  H1  UNL     1      -6.561  10.784  70.048  1.00  0.00     0.000 HD 
HETATM   13  H2  UNL     1      -7.687  12.121  69.707  1.00  0.00     0.000 HD 
ENDBRANCH   7   9
ENDBRANCH   2   3
TORSDOF 2
ENDMDL
MODEL      133
REMARK 921   NORMALIZED FREE ENERGY PREDICTED BY IDOCK:   -2.86 KCAL/MOL
REMARK 922        TOTAL FREE ENERGY PREDICTED BY IDOCK:   -3.31 KCAL/MOL
REMARK 923 INTER-LIGAND FREE ENERGY PREDICTED BY IDOCK:   -3.20 KCAL/MOL
REMARK 924 INTRA-LIGAND FREE ENERGY PREDICTED BY IDOCK:   -0.11 KCAL/MOL
REMARK 927      BINDING AFFINITY PREDICTED BY RF-SCORE:    0.00 PKD
ROOT
HETATM    1  C   UNL     1     -11.963   6.677  71.502  1.00  0.00    -0.402 C  
HETATM    2  C   UNL     1     -11.234   5.969  70.368  1.00  0.00    -0.380 C  
ENDROOT
BRANCH   2   3
HETATM    3  C   UNL     1     -10.952   6.918  69.233  1.00  0.00    -0.221 A  
HETATM    4  N   UNL     1     -10.869   6.382  67.995  1.00  0.00    -0.294 NA 
HETATM    5  C   UNL     1     -10.542   7.204  66.976  1.00  0.00    -0.343 A  
HETATM    6  C   UNL     1     -10.294   8.555  67.130  1.00  0.00    -0.377 A  
HETATM    7  C   UNL     1     -10.386   9.102  68.410  1.00  0.00    -0.242 A  
HETATM    8  C   UNL     1     -10.722   8.268  69.481  1.00  0.00    -0.179 A  
BRANCH   7   9
HETATM    9  C   UNL     1     -10.102  10.544  68.652  1.00  0.00    -0.180 C  
HETATM   10  N   UNL     1     -10.822  11.161  69.644  1.00  0.00    -0.427 N  
HETATM   11  S   UNL     1      -8.979  11.462  67.819  1.00  0.00    -0.151 S  
HETATM   12  H1  UNL     1     -10.627  12.148  69.809  1.00  0.00     0.000 HD 
HETATM   13  H2  UNL     1     -11.521  10.655  70.190  1.00  0.00     0.000 HD 
ENDBRANCH   7   9
ENDBRANCH   2   3
TORSDOF 2
ENDMDL
MODEL      134
REMARK 921   NORMALIZED FREE ENERGY PREDICTED BY IDOCK:   -2.84 KCAL/MOL
REMARK 922        TOTAL FREE ENERGY PREDICTED BY IDOCK:   -3.29 KCAL/MOL
REMARK 923 INTER-LIGAND FREE ENERGY PREDICTED BY IDOCK:   -3.19 KCAL/MOL
REMARK 924 INTRA-LIGAND FREE ENERGY PREDICTED BY IDOCK:   -0.10 KCAL/MOL
REMARK 927      BINDING AFFINITY PREDICTED BY RF-SCORE:    0.00 PKD
ROOT
HETATM    1  C   UNL     1     -11.174  12.956  65.905  1.00  0.00    -0.323 C  
HETATM    2  C   UNL     1     -11.428  14.436  65.655  1.00  0.00    -0.336 C  
ENDROOT
BRANCH   2   3
HETATM    3  C   UNL     1     -10.906  15.272  66.794  1.00  0.00    -0.312 A  
HETATM    4  N   UNL     1     -11.693  15.373  67.888  1.00  0.00    -0.269 NA 
HETATM    5  C   UNL     1     -11.276  16.179  68.887  1.00  0.00    -0.351 A  
HETATM    6  C   UNL     1     -10.096  16.897  68.852  1.00  0.00    -0.297 A  
HETATM    7  C   UNL     1      -9.287  16.784  67.722  1.00  0.00    -0.233 A  
HETATM    8  C   UNL     1      -9.700  15.955  66.673  1.00  0.00    -0.270 A  
BRANCH   7   9
HETATM    9  C   UNL     1      -8.017  17.553  67.605  1.00  0.00    -0.202 C  
HETATM   10  N   UNL     1      -7.521  18.110  68.757  1.00  0.00    -0.287 N  
HETATM   11  S   UNL     1      -7.153  17.786  66.192  1.00  0.00    -0.306 S  
HETATM   12  H1  UNL     1      -6.651  18.637  68.676  1.00  0.00     0.000 HD 
HETATM   13  H2  UNL     1      -7.999  18.002  69.652  1.00  0.00     0.000 HD 
ENDBRANCH   7   9
ENDBRANCH   2   3
TORSDOF 2
ENDMDL
MODEL      135
REMARK 921   NORMALIZED FREE ENERGY PREDICTED BY IDOCK:   -2.83 KCAL/MOL
REMARK 922        TOTAL FREE ENERGY PREDICTED BY IDOCK:   -3.28 KCAL/MOL
REMARK 923 INTER-LIGAND FREE ENERGY PREDICTED BY IDOCK:   -3.17 KCAL/MOL
REMARK 924 INTRA-LIGAND FREE ENERGY PREDICTED BY IDOCK:   -0.11 KCAL/MOL
REMARK 927      BINDING AFFINITY PREDICTED BY RF-SCORE:    0.00 PKD
ROOT
HETATM    1  C   UNL     1     -12.754  10.529  71.597  1.00  0.00    -0.550 C  
HETATM    2  C   UNL     1     -11.595   9.892  70.844  1.00  0.00    -0.456 C  
ENDROOT
BRANCH   2   3
HETATM    3  C   UNL     1     -11.234  10.701  69.626  1.00  0.00    -0.289 A  
HETATM    4  N   UNL     1     -12.245  11.341  68.996  1.00  0.00    -0.464 NA 
HETATM    5  C   UNL     1     -11.952  12.008  67.860  1.00  0.00    -0.134 A  
HETATM    6  C   UNL     1     -10.685  12.074  67.314  1.00  0.00    -0.269 A  
HETATM    7  C   UNL     1      -9.646  11.415  67.972  1.00  0.00    -0.184 A  
HETATM    8  C   UNL     1      -9.927  10.716  69.150  1.00  0.00    -0.228 A  
BRANCH   7   9
HETATM    9  C   UNL     1      -8.262  11.420  67.422  1.00  0.00    -0.145 C  
HETATM   10  N   UNL     1      -7.994  12.323  66.423  1.00  0.00    -0.368 N  
HETATM   11  S   UNL     1      -7.018  10.423  67.925  1.00  0.00    -0.083 S  
HETATM   12  H1  UNL     1      -7.046  12.326  66.047  1.00  0.00     0.000 HD 
HETATM   13  H2  UNL     1      -8.710  12.961  66.073  1.00  0.00     0.000 HD 
ENDBRANCH   7   9
ENDBRANCH   2   3
TORSDOF 2
ENDMDL
MODEL      136
REMARK 921   NORMALIZED FREE ENERGY PREDICTED BY IDOCK:   -2.81 KCAL/MOL
REMARK 922        TOTAL FREE ENERGY PREDICTED BY IDOCK:   -3.25 KCAL/MOL
REMARK 923 INTER-LIGAND FREE ENERGY PREDICTED BY IDOCK:   -3.15 KCAL/MOL
REMARK 924 INTRA-LIGAND FREE ENERGY PREDICTED BY IDOCK:   -0.11 KCAL/MOL
REMARK 927      BINDING AFFINITY PREDICTED BY RF-SCORE:    0.00 PKD
ROOT
HETATM    1  C   UNL     1      -7.801   6.945  64.731  1.00  0.00    -0.119 C  
HETATM    2  C   UNL     1      -7.981   8.237  65.515  1.00  0.00    -0.120 C  
ENDROOT
BRANCH   2   3
HETATM    3  C   UNL     1      -8.615   9.303  64.660  1.00  0.00    -0.187 A  
HETATM    4  N   UNL     1      -8.439   9.197  63.323  1.00  0.00    -0.199 NA 
HETATM    5  C   UNL     1      -8.935  10.183  62.547  1.00  0.00    -0.271 A  
HETATM    6  C   UNL     1      -9.611  11.282  63.040  1.00  0.00    -0.397 A  
HETATM    7  C   UNL     1      -9.792  11.382  64.420  1.00  0.00    -0.303 A  
HETATM    8  C   UNL     1      -9.285  10.372  65.244  1.00  0.00    -0.240 A  
BRANCH   7   9
HETATM    9  C   UNL     1     -10.484  12.555  65.021  1.00  0.00    -0.297 C  
HETATM   10  N   UNL     1     -10.049  13.798  64.635  1.00  0.00    -0.619 N  
HETATM   11  S   UNL     1     -11.743  12.478  66.119  1.00  0.00    -0.397 S  
HETATM   12  H1  UNL     1     -10.523  14.601  65.047  1.00  0.00     0.000 HD 
HETATM   13  H2  UNL     1      -9.286  13.913  63.966  1.00  0.00     0.000 HD 
ENDBRANCH   7   9
ENDBRANCH   2   3
TORSDOF 2
ENDMDL
MODEL      137
REMARK 921   NORMALIZED FREE ENERGY PREDICTED BY IDOCK:   -2.81 KCAL/MOL
REMARK 922        TOTAL FREE ENERGY PREDICTED BY IDOCK:   -3.25 KCAL/MOL
REMARK 923 INTER-LIGAND FREE ENERGY PREDICTED BY IDOCK:   -3.15 KCAL/MOL
REMARK 924 INTRA-LIGAND FREE ENERGY PREDICTED BY IDOCK:   -0.10 KCAL/MOL
REMARK 927      BINDING AFFINITY PREDICTED BY RF-SCORE:    0.00 PKD
ROOT
HETATM    1  C   UNL     1     -11.879  12.557  66.508  1.00  0.00    -0.434 C  
HETATM    2  C   UNL     1     -12.061  14.068  66.489  1.00  0.00    -0.488 C  
ENDROOT
BRANCH   2   3
HETATM    3  C   UNL     1     -11.140  14.734  67.477  1.00  0.00    -0.319 A  
HETATM    4  N   UNL     1     -11.642  15.782  68.168  1.00  0.00    -0.311 NA 
HETATM    5  C   UNL     1     -10.809  16.439  69.003  1.00  0.00    -0.331 A  
HETATM    6  C   UNL     1      -9.484  16.098  69.189  1.00  0.00    -0.251 A  
HETATM    7  C   UNL     1      -8.974  15.013  68.476  1.00  0.00    -0.186 A  
HETATM    8  C   UNL     1      -9.819  14.318  67.604  1.00  0.00    -0.224 A  
BRANCH   7   9
HETATM    9  C   UNL     1      -7.546  14.610  68.605  1.00  0.00    -0.129 C  
HETATM   10  N   UNL     1      -7.287  13.467  69.320  1.00  0.00    -0.316 N  
HETATM   11  S   UNL     1      -6.245  15.431  67.951  1.00  0.00    -0.158 S  
HETATM   12  H1  UNL     1      -6.309  13.191  69.409  1.00  0.00     0.000 HD 
HETATM   13  H2  UNL     1      -8.037  12.919  69.743  1.00  0.00     0.000 HD 
ENDBRANCH   7   9
ENDBRANCH   2   3
TORSDOF 2
ENDMDL
MODEL      138
REMARK 921   NORMALIZED FREE ENERGY PREDICTED BY IDOCK:   -2.79 KCAL/MOL
REMARK 922        TOTAL FREE ENERGY PREDICTED BY IDOCK:   -3.23 KCAL/MOL
REMARK 923 INTER-LIGAND FREE ENERGY PREDICTED BY IDOCK:   -3.12 KCAL/MOL
REMARK 924 INTRA-LIGAND FREE ENERGY PREDICTED BY IDOCK:   -0.11 KCAL/MOL
REMARK 927      BINDING AFFINITY PREDICTED BY RF-SCORE:    0.00 PKD
ROOT
HETATM    1  C   UNL     1     -10.616   5.800  66.987  1.00  0.00    -0.373 C  
HETATM    2  C   UNL     1      -9.983   5.291  68.273  1.00  0.00    -0.214 C  
ENDROOT
BRANCH   2   3
HETATM    3  C   UNL     1     -10.429   6.112  69.455  1.00  0.00    -0.256 A  
HETATM    4  N   UNL     1     -10.795   7.390  69.207  1.00  0.00    -0.183 NA 
HETATM    5  C   UNL     1     -11.125   8.162  70.263  1.00  0.00    -0.221 A  
HETATM    6  C   UNL     1     -11.114   7.719  71.572  1.00  0.00    -0.270 A  
HETATM    7  C   UNL     1     -10.740   6.398  71.819  1.00  0.00    -0.273 A  
HETATM    8  C   UNL     1     -10.392   5.579  70.740  1.00  0.00    -0.321 A  
BRANCH   7   9
HETATM    9  C   UNL     1     -10.676   5.864  73.207  1.00  0.00    -0.265 C  
HETATM   10  N   UNL     1     -10.507   6.778  74.217  1.00  0.00    -0.459 N  
HETATM   11  S   UNL     1     -10.797   4.251  73.630  1.00  0.00    -0.288 S  
HETATM   12  H1  UNL     1     -10.463   6.412  75.168  1.00  0.00     0.000 HD 
HETATM   13  H2  UNL     1     -10.429   7.778  74.025  1.00  0.00     0.000 HD 
ENDBRANCH   7   9
ENDBRANCH   2   3
TORSDOF 2
ENDMDL
MODEL      139
REMARK 921   NORMALIZED FREE ENERGY PREDICTED BY IDOCK:   -2.78 KCAL/MOL
REMARK 922        TOTAL FREE ENERGY PREDICTED BY IDOCK:   -3.21 KCAL/MOL
REMARK 923 INTER-LIGAND FREE ENERGY PREDICTED BY IDOCK:   -3.10 KCAL/MOL
REMARK 924 INTRA-LIGAND FREE ENERGY PREDICTED BY IDOCK:   -0.11 KCAL/MOL
REMARK 927      BINDING AFFINITY PREDICTED BY RF-SCORE:    0.00 PKD
ROOT
HETATM    1  C   UNL     1      -7.917   6.063  68.452  1.00  0.00    -0.107 C  
HETATM    2  C   UNL     1      -9.435   6.111  68.547  1.00  0.00    -0.121 C  
ENDROOT
BRANCH   2   3
HETATM    3  C   UNL     1      -9.882   7.198  69.489  1.00  0.00    -0.162 A  
HETATM    4  N   UNL     1      -9.003   8.196  69.730  1.00  0.00    -0.143 NA 
HETATM    5  C   UNL     1      -9.356   9.138  70.629  1.00  0.00    -0.258 A  
HETATM    6  C   UNL     1     -10.560   9.139  71.307  1.00  0.00    -0.399 A  
HETATM    7  C   UNL     1     -11.464   8.108  71.049  1.00  0.00    -0.301 A  
HETATM    8  C   UNL     1     -11.118   7.119  70.122  1.00  0.00    -0.301 A  
BRANCH   7   9
HETATM    9  C   UNL     1     -12.766   8.030  71.767  1.00  0.00    -0.329 C  
HETATM   10  N   UNL     1     -13.271   6.776  72.003  1.00  0.00    -0.527 N  
HETATM   11  S   UNL     1     -13.654   9.340  72.307  1.00  0.00    -0.453 S  
HETATM   12  H1  UNL     1     -14.163   6.723  72.495  1.00  0.00     0.000 HD 
HETATM   13  H2  UNL     1     -12.777   5.935  71.701  1.00  0.00     0.000 HD 
ENDBRANCH   7   9
ENDBRANCH   2   3
TORSDOF 2
ENDMDL
MODEL      140
REMARK 921   NORMALIZED FREE ENERGY PREDICTED BY IDOCK:   -2.77 KCAL/MOL
REMARK 922        TOTAL FREE ENERGY PREDICTED BY IDOCK:   -3.20 KCAL/MOL
REMARK 923 INTER-LIGAND FREE ENERGY PREDICTED BY IDOCK:   -3.09 KCAL/MOL
REMARK 924 INTRA-LIGAND FREE ENERGY PREDICTED BY IDOCK:   -0.12 KCAL/MOL
REMARK 927      BINDING AFFINITY PREDICTED BY RF-SCORE:    0.00 PKD
ROOT
HETATM    1  C   UNL     1      -8.701  11.122  68.349  1.00  0.00    -0.157 C  
HETATM    2  C   UNL     1      -8.176  10.375  69.567  1.00  0.00    -0.137 C  
ENDROOT
BRANCH   2   3
HETATM    3  C   UNL     1      -9.223   9.444  70.121  1.00  0.00    -0.234 A  
HETATM    4  N   UNL     1      -8.942   8.122  70.087  1.00  0.00    -0.145 NA 
HETATM    5  C   UNL     1      -9.899   7.268  70.509  1.00  0.00    -0.183 A  
HETATM    6  C   UNL     1     -11.136   7.671  70.974  1.00  0.00    -0.273 A  
HETATM    7  C   UNL     1     -11.416   9.037  71.011  1.00  0.00    -0.358 A  
HETATM    8  C   UNL     1     -10.440   9.940  70.576  1.00  0.00    -0.330 A  
BRANCH   7   9
HETATM    9  C   UNL     1     -12.740   9.538  71.471  1.00  0.00    -0.372 C  
HETATM   10  N   UNL     1     -12.876  10.897  71.606  1.00  0.00    -0.449 N  
HETATM   11  S   UNL     1     -14.065   8.584  71.830  1.00  0.00    -0.448 S  
HETATM   12  H1  UNL     1     -13.783  11.240  71.921  1.00  0.00     0.000 HD 
HETATM   13  H2  UNL     1     -12.106  11.535  71.400  1.00  0.00     0.000 HD 
ENDBRANCH   7   9
ENDBRANCH   2   3
TORSDOF 2
ENDMDL
MODEL      141
REMARK 921   NORMALIZED FREE ENERGY PREDICTED BY IDOCK:   -2.76 KCAL/MOL
REMARK 922        TOTAL FREE ENERGY PREDICTED BY IDOCK:   -3.20 KCAL/MOL
REMARK 923 INTER-LIGAND FREE ENERGY PREDICTED BY IDOCK:   -3.09 KCAL/MOL
REMARK 924 INTRA-LIGAND FREE ENERGY PREDICTED BY IDOCK:   -0.10 KCAL/MOL
REMARK 927      BINDING AFFINITY PREDICTED BY RF-SCORE:    0.00 PKD
ROOT
HETATM    1  C   UNL     1      -9.410   1.789  70.288  1.00  0.00    -0.172 C  
HETATM    2  C   UNL     1      -8.938   3.234  70.354  1.00  0.00    -0.169 C  
ENDROOT
BRANCH   2   3
HETATM    3  C   UNL     1      -9.784   4.035  71.309  1.00  0.00    -0.185 A  
HETATM    4  N   UNL     1     -10.069   3.461  72.499  1.00  0.00    -0.158 NA 
HETATM    5  C   UNL     1     -10.888   4.131  73.337  1.00  0.00    -0.244 A  
HETATM    6  C   UNL     1     -11.442   5.363  73.046  1.00  0.00    -0.324 A  
HETATM    7  C   UNL     1     -11.140   5.950  71.818  1.00  0.00    -0.324 A  
HETATM    8  C   UNL     1     -10.294   5.273  70.933  1.00  0.00    -0.303 A  
BRANCH   7   9
HETATM    9  C   UNL     1     -11.727   7.262  71.428  1.00  0.00    -0.287 C  
HETATM   10  N   UNL     1     -13.036   7.258  71.013  1.00  0.00    -0.592 N  
HETATM   11  S   UNL     1     -10.925   8.729  71.458  1.00  0.00    -0.335 S  
HETATM   12  H1  UNL     1     -13.437   8.156  70.746  1.00  0.00     0.000 HD 
HETATM   13  H2  UNL     1     -13.581   6.396  70.974  1.00  0.00     0.000 HD 
ENDBRANCH   7   9
ENDBRANCH   2   3
TORSDOF 2
ENDMDL
MODEL      142
REMARK 921   NORMALIZED FREE ENERGY PREDICTED BY IDOCK:   -2.76 KCAL/MOL
REMARK 922        TOTAL FREE ENERGY PREDICTED BY IDOCK:   -3.20 KCAL/MOL
REMARK 923 INTER-LIGAND FREE ENERGY PREDICTED BY IDOCK:   -3.08 KCAL/MOL
REMARK 924 INTRA-LIGAND FREE ENERGY PREDICTED BY IDOCK:   -0.12 KCAL/MOL
REMARK 927      BINDING AFFINITY PREDICTED BY RF-SCORE:    0.00 PKD
ROOT
HETATM    1  C   UNL     1      -6.536   7.941  71.727  1.00  0.00    -0.041 C  
HETATM    2  C   UNL     1      -7.456   6.817  72.180  1.00  0.00    -0.093 C  
ENDROOT
BRANCH   2   3
HETATM    3  C   UNL     1      -8.871   7.309  72.336  1.00  0.00    -0.123 A  
HETATM    4  N   UNL     1      -9.677   6.601  73.159  1.00  0.00    -0.155 NA 
HETATM    5  C   UNL     1     -10.968   6.982  73.252  1.00  0.00    -0.262 A  
HETATM    6  C   UNL     1     -11.504   8.050  72.560  1.00  0.00    -0.471 A  
HETATM    7  C   UNL     1     -10.666   8.779  71.716  1.00  0.00    -0.413 A  
HETATM    8  C   UNL     1      -9.324   8.401  71.603  1.00  0.00    -0.280 A  
BRANCH   7   9
HETATM    9  C   UNL     1     -11.186   9.924  70.917  1.00  0.00    -0.360 C  
HETATM   10  N   UNL     1     -10.352  10.439  69.957  1.00  0.00    -0.429 N  
HETATM   11  S   UNL     1     -12.695  10.621  71.094  1.00  0.00    -0.451 S  
HETATM   12  H1  UNL     1     -10.708  11.223  69.410  1.00  0.00     0.000 HD 
HETATM   13  H2  UNL     1      -9.419  10.057  69.798  1.00  0.00     0.000 HD 
ENDBRANCH   7   9
ENDBRANCH   2   3
TORSDOF 2
ENDMDL
MODEL      143
REMARK 921   NORMALIZED FREE ENERGY PREDICTED BY IDOCK:   -2.75 KCAL/MOL
REMARK 922        TOTAL FREE ENERGY PREDICTED BY IDOCK:   -3.19 KCAL/MOL
REMARK 923 INTER-LIGAND FREE ENERGY PREDICTED BY IDOCK:   -3.08 KCAL/MOL
REMARK 924 INTRA-LIGAND FREE ENERGY PREDICTED BY IDOCK:   -0.10 KCAL/MOL
REMARK 927      BINDING AFFINITY PREDICTED BY RF-SCORE:    0.00 PKD
ROOT
HETATM    1  C   UNL     1      -6.240  20.034  70.127  1.00  0.00    -0.393 C  
HETATM    2  C   UNL     1      -5.749  19.854  68.698  1.00  0.00    -0.259 C  
ENDROOT
BRANCH   2   3
HETATM    3  C   UNL     1      -6.469  18.719  68.019  1.00  0.00    -0.218 A  
HETATM    4  N   UNL     1      -5.783  17.564  67.869  1.00  0.00    -0.138 NA 
HETATM    5  C   UNL     1      -6.385  16.561  67.196  1.00  0.00    -0.185 A  
HETATM    6  C   UNL     1      -7.656  16.650  66.661  1.00  0.00    -0.314 A  
HETATM    7  C   UNL     1      -8.359  17.843  66.824  1.00  0.00    -0.273 A  
HETATM    8  C   UNL     1      -7.754  18.897  67.517  1.00  0.00    -0.251 A  
BRANCH   7   9
HETATM    9  C   UNL     1      -9.720  18.018  66.246  1.00  0.00    -0.270 C  
HETATM   10  N   UNL     1     -10.349  16.889  65.784  1.00  0.00    -0.328 N  
HETATM   11  S   UNL     1     -10.539  19.471  66.121  1.00  0.00    -0.452 S  
HETATM   12  H1  UNL     1     -11.281  17.009  65.388  1.00  0.00     0.000 HD 
HETATM   13  H2  UNL     1      -9.903  15.972  65.833  1.00  0.00     0.000 HD 
ENDBRANCH   7   9
ENDBRANCH   2   3
TORSDOF 2
ENDMDL
MODEL      144
REMARK 921   NORMALIZED FREE ENERGY PREDICTED BY IDOCK:   -2.74 KCAL/MOL
REMARK 922        TOTAL FREE ENERGY PREDICTED BY IDOCK:   -3.17 KCAL/MOL
REMARK 923 INTER-LIGAND FREE ENERGY PREDICTED BY IDOCK:   -3.08 KCAL/MOL
REMARK 924 INTRA-LIGAND FREE ENERGY PREDICTED BY IDOCK:   -0.09 KCAL/MOL
REMARK 927      BINDING AFFINITY PREDICTED BY RF-SCORE:    0.00 PKD
ROOT
HETATM    1  C   UNL     1      -8.857  18.267  66.990  1.00  0.00    -0.267 C  
HETATM    2  C   UNL     1      -8.831  17.632  68.373  1.00  0.00    -0.281 C  
ENDROOT
BRANCH   2   3
HETATM    3  C   UNL     1      -9.843  16.520  68.475  1.00  0.00    -0.243 A  
HETATM    4  N   UNL     1     -11.017  16.816  69.077  1.00  0.00    -0.281 NA 
HETATM    5  C   UNL     1     -11.905  15.814  69.244  1.00  0.00    -0.346 A  
HETATM    6  C   UNL     1     -11.681  14.514  68.834  1.00  0.00    -0.354 A  
HETATM    7  C   UNL     1     -10.469  14.217  68.211  1.00  0.00    -0.247 A  
HETATM    8  C   UNL     1      -9.533  15.240  68.027  1.00  0.00    -0.198 A  
BRANCH   7   9
HETATM    9  C   UNL     1     -10.150  12.831  67.771  1.00  0.00    -0.224 C  
HETATM   10  N   UNL     1      -9.447  12.047  68.652  1.00  0.00    -0.378 N  
HETATM   11  S   UNL     1     -10.581  12.158  66.302  1.00  0.00    -0.259 S  
HETATM   12  H1  UNL     1      -9.229  11.097  68.350  1.00  0.00     0.000 HD 
HETATM   13  H2  UNL     1      -9.156  12.398  69.565  1.00  0.00     0.000 HD 
ENDBRANCH   7   9
ENDBRANCH   2   3
TORSDOF 2
ENDMDL
MODEL      145
REMARK 921   NORMALIZED FREE ENERGY PREDICTED BY IDOCK:   -2.73 KCAL/MOL
REMARK 922        TOTAL FREE ENERGY PREDICTED BY IDOCK:   -3.17 KCAL/MOL
REMARK 923 INTER-LIGAND FREE ENERGY PREDICTED BY IDOCK:   -3.06 KCAL/MOL
REMARK 924 INTRA-LIGAND FREE ENERGY PREDICTED BY IDOCK:   -0.11 KCAL/MOL
REMARK 927      BINDING AFFINITY PREDICTED BY RF-SCORE:    0.00 PKD
ROOT
HETATM    1  C   UNL     1     -12.479  11.941  70.613  1.00  0.00    -0.347 C  
HETATM    2  C   UNL     1     -12.077  11.208  69.341  1.00  0.00    -0.396 C  
ENDROOT
BRANCH   2   3
HETATM    3  C   UNL     1     -11.359  12.131  68.391  1.00  0.00    -0.286 A  
HETATM    4  N   UNL     1     -11.173  11.683  67.129  1.00  0.00    -0.297 NA 
HETATM    5  C   UNL     1     -10.467  12.464  66.285  1.00  0.00    -0.245 A  
HETATM    6  C   UNL     1      -9.931  13.687  66.639  1.00  0.00    -0.283 A  
HETATM    7  C   UNL     1     -10.131  14.144  67.941  1.00  0.00    -0.235 A  
HETATM    8  C   UNL     1     -10.859  13.351  68.833  1.00  0.00    -0.253 A  
BRANCH   7   9
HETATM    9  C   UNL     1      -9.556  15.440  68.398  1.00  0.00    -0.200 C  
HETATM   10  N   UNL     1      -8.208  15.463  68.659  1.00  0.00    -0.148 N  
HETATM   11  S   UNL     1     -10.414  16.858  68.613  1.00  0.00    -0.369 S  
HETATM   12  H1  UNL     1      -7.815  16.350  68.972  1.00  0.00     0.000 HD 
HETATM   13  H2  UNL     1      -7.627  14.631  68.546  1.00  0.00     0.000 HD 
ENDBRANCH   7   9
ENDBRANCH   2   3
TORSDOF 2
ENDMDL
MODEL      146
REMARK 921   NORMALIZED FREE ENERGY PREDICTED BY IDOCK:   -2.73 KCAL/MOL
REMARK 922        TOTAL FREE ENERGY PREDICTED BY IDOCK:   -3.16 KCAL/MOL
REMARK 923 INTER-LIGAND FREE ENERGY PREDICTED BY IDOCK:   -3.05 KCAL/MOL
REMARK 924 INTRA-LIGAND FREE ENERGY PREDICTED BY IDOCK:   -0.11 KCAL/MOL
REMARK 927      BINDING AFFINITY PREDICTED BY RF-SCORE:    0.00 PKD
ROOT
HETATM    1  C   UNL     1     -12.027  11.192  70.271  1.00  0.00    -0.460 C  
HETATM    2  C   UNL     1     -12.073  12.561  69.608  1.00  0.00    -0.272 C  
ENDROOT
BRANCH   2   3
HETATM    3  C   UNL     1     -10.983  12.697  68.577  1.00  0.00    -0.261 A  
HETATM    4  N   UNL     1      -9.995  11.775  68.607  1.00  0.00    -0.202 NA 
HETATM    5  C   UNL     1      -8.971  11.924  67.741  1.00  0.00    -0.173 A  
HETATM    6  C   UNL     1      -8.883  12.959  66.829  1.00  0.00    -0.152 A  
HETATM    7  C   UNL     1      -9.908  13.904  66.801  1.00  0.00    -0.274 A  
HETATM    8  C   UNL     1     -10.978  13.770  67.691  1.00  0.00    -0.278 A  
BRANCH   7   9
HETATM    9  C   UNL     1      -9.861  15.062  65.865  1.00  0.00    -0.338 C  
HETATM   10  N   UNL     1      -8.711  15.811  65.862  1.00  0.00    -0.301 N  
HETATM   11  S   UNL     1     -11.087  15.514  64.822  1.00  0.00    -0.341 S  
HETATM   12  H1  UNL     1      -8.679  16.604  65.221  1.00  0.00     0.000 HD 
HETATM   13  H2  UNL     1      -7.925  15.587  66.474  1.00  0.00     0.000 HD 
ENDBRANCH   7   9
ENDBRANCH   2   3
TORSDOF 2
ENDMDL
MODEL      147
REMARK 921   NORMALIZED FREE ENERGY PREDICTED BY IDOCK:   -2.72 KCAL/MOL
REMARK 922        TOTAL FREE ENERGY PREDICTED BY IDOCK:   -3.16 KCAL/MOL
REMARK 923 INTER-LIGAND FREE ENERGY PREDICTED BY IDOCK:   -3.05 KCAL/MOL
REMARK 924 INTRA-LIGAND FREE ENERGY PREDICTED BY IDOCK:   -0.11 KCAL/MOL
REMARK 927      BINDING AFFINITY PREDICTED BY RF-SCORE:    0.00 PKD
ROOT
HETATM    1  C   UNL     1     -10.344  13.815  66.780  1.00  0.00    -0.272 C  
HETATM    2  C   UNL     1     -11.383  12.735  66.516  1.00  0.00    -0.369 C  
ENDROOT
BRANCH   2   3
HETATM    3  C   UNL     1     -10.724  11.425  66.171  1.00  0.00    -0.267 A  
HETATM    4  N   UNL     1     -10.679  10.489  67.146  1.00  0.00    -0.268 NA 
HETATM    5  C   UNL     1     -10.026   9.338  66.879  1.00  0.00    -0.233 A  
HETATM    6  C   UNL     1      -9.410   9.067  65.673  1.00  0.00    -0.289 A  
HETATM    7  C   UNL     1      -9.465  10.036  64.671  1.00  0.00    -0.367 A  
HETATM    8  C   UNL     1     -10.135  11.237  64.925  1.00  0.00    -0.333 A  
BRANCH   7   9
HETATM    9  C   UNL     1      -8.796   9.822  63.357  1.00  0.00    -0.241 C  
HETATM   10  N   UNL     1      -9.010   8.614  62.742  1.00  0.00    -0.402 N  
HETATM   11  S   UNL     1      -7.817  10.930  62.578  1.00  0.00    -0.010 S  
HETATM   12  H1  UNL     1      -8.552   8.467  61.842  1.00  0.00     0.000 HD 
HETATM   13  H2  UNL     1      -9.600   7.895  63.164  1.00  0.00     0.000 HD 
ENDBRANCH   7   9
ENDBRANCH   2   3
TORSDOF 2
ENDMDL
MODEL      148
REMARK 921   NORMALIZED FREE ENERGY PREDICTED BY IDOCK:   -2.70 KCAL/MOL
REMARK 922        TOTAL FREE ENERGY PREDICTED BY IDOCK:   -3.13 KCAL/MOL
REMARK 923 INTER-LIGAND FREE ENERGY PREDICTED BY IDOCK:   -3.01 KCAL/MOL
REMARK 924 INTRA-LIGAND FREE ENERGY PREDICTED BY IDOCK:   -0.12 KCAL/MOL
REMARK 927      BINDING AFFINITY PREDICTED BY RF-SCORE:    0.00 PKD
ROOT
HETATM    1  C   UNL     1      -7.022  14.843  67.385  1.00  0.00    -0.162 C  
HETATM    2  C   UNL     1      -8.498  15.040  67.698  1.00  0.00    -0.170 C  
ENDROOT
BRANCH   2   3
HETATM    3  C   UNL     1      -8.958  16.413  67.282  1.00  0.00    -0.195 A  
HETATM    4  N   UNL     1     -10.227  16.520  66.828  1.00  0.00    -0.289 NA 
HETATM    5  C   UNL     1     -10.632  17.727  66.380  1.00  0.00    -0.218 A  
HETATM    6  C   UNL     1      -9.827  18.849  66.365  1.00  0.00    -0.412 A  
HETATM    7  C   UNL     1      -8.521  18.732  66.838  1.00  0.00    -0.285 A  
HETATM    8  C   UNL     1      -8.078  17.491  67.306  1.00  0.00    -0.219 A  
BRANCH   7   9
HETATM    9  C   UNL     1      -7.589  19.894  66.821  1.00  0.00    -0.270 C  
HETATM   10  N   UNL     1      -7.627  20.704  65.714  1.00  0.00    -0.502 N  
HETATM   11  S   UNL     1      -6.513  20.290  68.038  1.00  0.00    -0.292 S  
HETATM   12  H1  UNL     1      -6.989  21.500  65.703  1.00  0.00     0.000 HD 
HETATM   13  H2  UNL     1      -8.264  20.518  64.937  1.00  0.00     0.000 HD 
ENDBRANCH   7   9
ENDBRANCH   2   3
TORSDOF 2
ENDMDL
MODEL      149
REMARK 921   NORMALIZED FREE ENERGY PREDICTED BY IDOCK:   -2.69 KCAL/MOL
REMARK 922        TOTAL FREE ENERGY PREDICTED BY IDOCK:   -3.12 KCAL/MOL
REMARK 923 INTER-LIGAND FREE ENERGY PREDICTED BY IDOCK:   -3.01 KCAL/MOL
REMARK 924 INTRA-LIGAND FREE ENERGY PREDICTED BY IDOCK:   -0.11 KCAL/MOL
REMARK 927      BINDING AFFINITY PREDICTED BY RF-SCORE:    0.00 PKD
ROOT
HETATM    1  C   UNL     1      -6.805  13.152  67.519  1.00  0.00    -0.156 C  
HETATM    2  C   UNL     1      -7.941  12.158  67.713  1.00  0.00    -0.151 C  
ENDROOT
BRANCH   2   3
HETATM    3  C   UNL     1      -9.244  12.725  67.214  1.00  0.00    -0.203 A  
HETATM    4  N   UNL     1     -10.276  11.861  67.086  1.00  0.00    -0.207 NA 
HETATM    5  C   UNL     1     -11.430  12.334  66.569  1.00  0.00    -0.381 A  
HETATM    6  C   UNL     1     -11.611  13.645  66.171  1.00  0.00    -0.369 A  
HETATM    7  C   UNL     1     -10.543  14.531  66.310  1.00  0.00    -0.304 A  
HETATM    8  C   UNL     1      -9.337  14.062  66.842  1.00  0.00    -0.266 A  
BRANCH   7   9
HETATM    9  C   UNL     1     -10.659  15.950  65.872  1.00  0.00    -0.337 C  
HETATM   10  N   UNL     1     -10.803  16.175  64.526  1.00  0.00    -0.490 N  
HETATM   11  S   UNL     1     -10.634  17.280  66.885  1.00  0.00    -0.147 S  
HETATM   12  H1  UNL     1     -10.882  17.146  64.227  1.00  0.00     0.000 HD 
HETATM   13  H2  UNL     1     -10.828  15.405  63.855  1.00  0.00     0.000 HD 
ENDBRANCH   7   9
ENDBRANCH   2   3
TORSDOF 2
ENDMDL
MODEL      150
REMARK 921   NORMALIZED FREE ENERGY PREDICTED BY IDOCK:   -2.69 KCAL/MOL
REMARK 922        TOTAL FREE ENERGY PREDICTED BY IDOCK:   -3.12 KCAL/MOL
REMARK 923 INTER-LIGAND FREE ENERGY PREDICTED BY IDOCK:   -3.00 KCAL/MOL
REMARK 924 INTRA-LIGAND FREE ENERGY PREDICTED BY IDOCK:   -0.12 KCAL/MOL
REMARK 927      BINDING AFFINITY PREDICTED BY RF-SCORE:    0.00 PKD
ROOT
HETATM    1  C   UNL     1      -9.097  10.178  68.790  1.00  0.00    -0.153 C  
HETATM    2  C   UNL     1      -8.868   9.604  70.180  1.00  0.00    -0.266 C  
ENDROOT
BRANCH   2   3
HETATM    3  C   UNL     1      -9.649   8.330  70.373  1.00  0.00    -0.168 A  
HETATM    4  N   UNL     1     -10.242   7.806  69.277  1.00  0.00    -0.207 NA 
HETATM    5  C   UNL     1     -11.007   6.708  69.444  1.00  0.00    -0.309 A  
HETATM    6  C   UNL     1     -11.212   6.093  70.664  1.00  0.00    -0.387 A  
HETATM    7  C   UNL     1     -10.593   6.637  71.790  1.00  0.00    -0.242 A  
HETATM    8  C   UNL     1      -9.796   7.777  71.641  1.00  0.00    -0.201 A  
BRANCH   7   9
HETATM    9  C   UNL     1     -10.795   6.044  73.141  1.00  0.00    -0.259 C  
HETATM   10  N   UNL     1     -11.762   5.076  73.255  1.00  0.00    -0.489 N  
HETATM   11  S   UNL     1      -9.941   6.457  74.517  1.00  0.00    -0.321 S  
HETATM   12  H1  UNL     1     -11.900   4.670  74.180  1.00  0.00     0.000 HD 
HETATM   13  H2  UNL     1     -12.317   4.777  72.452  1.00  0.00     0.000 HD 
ENDBRANCH   7   9
ENDBRANCH   2   3
TORSDOF 2
ENDMDL
MODEL      151
REMARK 921   NORMALIZED FREE ENERGY PREDICTED BY IDOCK:   -2.68 KCAL/MOL
REMARK 922        TOTAL FREE ENERGY PREDICTED BY IDOCK:   -3.11 KCAL/MOL
REMARK 923 INTER-LIGAND FREE ENERGY PREDICTED BY IDOCK:   -3.00 KCAL/MOL
REMARK 924 INTRA-LIGAND FREE ENERGY PREDICTED BY IDOCK:   -0.11 KCAL/MOL
REMARK 927      BINDING AFFINITY PREDICTED BY RF-SCORE:    0.00 PKD
ROOT
HETATM    1  C   UNL     1      -5.480  16.718  68.278  1.00  0.00    -0.115 C  
HETATM    2  C   UNL     1      -6.242  15.437  67.971  1.00  0.00    -0.153 C  
ENDROOT
BRANCH   2   3
HETATM    3  C   UNL     1      -7.682  15.732  67.642  1.00  0.00    -0.154 A  
HETATM    4  N   UNL     1      -8.399  14.729  67.086  1.00  0.00    -0.207 NA 
HETATM    5  C   UNL     1      -9.668  14.997  66.715  1.00  0.00    -0.241 A  
HETATM    6  C   UNL     1     -10.270  16.231  66.875  1.00  0.00    -0.288 A  
HETATM    7  C   UNL     1      -9.526  17.259  67.453  1.00  0.00    -0.245 A  
HETATM    8  C   UNL     1      -8.207  17.004  67.844  1.00  0.00    -0.200 A  
BRANCH   7   9
HETATM    9  C   UNL     1     -10.102  18.621  67.628  1.00  0.00    -0.367 C  
HETATM   10  N   UNL     1     -10.403  19.008  68.910  1.00  0.00    -0.491 N  
HETATM   11  S   UNL     1     -10.405  19.709  66.394  1.00  0.00    -0.534 S  
HETATM   12  H1  UNL     1     -10.798  19.941  69.028  1.00  0.00     0.000 HD 
HETATM   13  H2  UNL     1     -10.240  18.392  69.706  1.00  0.00     0.000 HD 
ENDBRANCH   7   9
ENDBRANCH   2   3
TORSDOF 2
ENDMDL
MODEL      152
REMARK 921   NORMALIZED FREE ENERGY PREDICTED BY IDOCK:   -2.67 KCAL/MOL
REMARK 922        TOTAL FREE ENERGY PREDICTED BY IDOCK:   -3.09 KCAL/MOL
REMARK 923 INTER-LIGAND FREE ENERGY PREDICTED BY IDOCK:   -2.99 KCAL/MOL
REMARK 924 INTRA-LIGAND FREE ENERGY PREDICTED BY IDOCK:   -0.11 KCAL/MOL
REMARK 927      BINDING AFFINITY PREDICTED BY RF-SCORE:    0.00 PKD
ROOT
HETATM    1  C   UNL     1     -14.150   9.560  71.263  1.00  0.00     0.019 C  
HETATM    2  C   UNL     1     -13.466   8.529  72.149  1.00  0.00    -0.391 C  
ENDROOT
BRANCH   2   3
HETATM    3  C   UNL     1     -11.967   8.622  72.025  1.00  0.00    -0.372 A  
HETATM    4  N   UNL     1     -11.484   9.340  70.986  1.00  0.00    -0.295 NA 
HETATM    5  C   UNL     1     -10.146   9.371  70.816  1.00  0.00    -0.298 A  
HETATM    6  C   UNL     1      -9.252   8.718  71.641  1.00  0.00    -0.333 A  
HETATM    7  C   UNL     1      -9.757   7.984  72.714  1.00  0.00    -0.348 A  
HETATM    8  C   UNL     1     -11.141   7.935  72.909  1.00  0.00    -0.442 A  
BRANCH   7   9
HETATM    9  C   UNL     1      -8.852   7.230  73.625  1.00  0.00    -0.183 C  
HETATM   10  N   UNL     1      -9.104   5.890  73.782  1.00  0.00    -0.127 N  
HETATM   11  S   UNL     1      -7.560   7.883  74.463  1.00  0.00    -0.218 S  
HETATM   12  H1  UNL     1      -8.483   5.375  74.406  1.00  0.00     0.000 HD 
HETATM   13  H2  UNL     1      -9.876   5.431  73.297  1.00  0.00     0.000 HD 
ENDBRANCH   7   9
ENDBRANCH   2   3
TORSDOF 2
ENDMDL
MODEL      153
REMARK 921   NORMALIZED FREE ENERGY PREDICTED BY IDOCK:   -2.63 KCAL/MOL
REMARK 922        TOTAL FREE ENERGY PREDICTED BY IDOCK:   -3.06 KCAL/MOL
REMARK 923 INTER-LIGAND FREE ENERGY PREDICTED BY IDOCK:   -2.94 KCAL/MOL
REMARK 924 INTRA-LIGAND FREE ENERGY PREDICTED BY IDOCK:   -0.12 KCAL/MOL
REMARK 927      BINDING AFFINITY PREDICTED BY RF-SCORE:    0.00 PKD
ROOT
HETATM    1  C   UNL     1     -10.191  10.971  63.701  1.00  0.00    -0.431 C  
HETATM    2  C   UNL     1     -10.800  11.649  64.919  1.00  0.00    -0.359 C  
ENDROOT
BRANCH   2   3
HETATM    3  C   UNL     1     -10.223  11.088  66.193  1.00  0.00    -0.247 A  
HETATM    4  N   UNL     1      -8.955  10.622  66.135  1.00  0.00    -0.163 NA 
HETATM    5  C   UNL     1      -8.447  10.047  67.245  1.00  0.00    -0.122 A  
HETATM    6  C   UNL     1      -9.148   9.915  68.429  1.00  0.00    -0.123 A  
HETATM    7  C   UNL     1     -10.453  10.402  68.482  1.00  0.00    -0.210 A  
HETATM    8  C   UNL     1     -11.001  11.000  67.343  1.00  0.00    -0.349 A  
BRANCH   7   9
HETATM    9  C   UNL     1     -11.276  10.264  69.716  1.00  0.00    -0.282 C  
HETATM   10  N   UNL     1     -12.432  11.001  69.777  1.00  0.00    -0.310 N  
HETATM   11  S   UNL     1     -10.906   9.287  71.022  1.00  0.00    -0.344 S  
HETATM   12  H1  UNL     1     -12.994  10.907  70.623  1.00  0.00     0.000 HD 
HETATM   13  H2  UNL     1     -12.715  11.615  69.013  1.00  0.00     0.000 HD 
ENDBRANCH   7   9
ENDBRANCH   2   3
TORSDOF 2
ENDMDL
MODEL      154
REMARK 921   NORMALIZED FREE ENERGY PREDICTED BY IDOCK:   -2.62 KCAL/MOL
REMARK 922        TOTAL FREE ENERGY PREDICTED BY IDOCK:   -3.05 KCAL/MOL
REMARK 923 INTER-LIGAND FREE ENERGY PREDICTED BY IDOCK:   -2.93 KCAL/MOL
REMARK 924 INTRA-LIGAND FREE ENERGY PREDICTED BY IDOCK:   -0.12 KCAL/MOL
REMARK 927      BINDING AFFINITY PREDICTED BY RF-SCORE:    0.00 PKD
ROOT
HETATM    1  C   UNL     1     -10.294  11.169  63.611  1.00  0.00    -0.449 C  
HETATM    2  C   UNL     1     -11.290  11.991  64.417  1.00  0.00    -0.411 C  
ENDROOT
BRANCH   2   3
HETATM    3  C   UNL     1     -11.056  11.823  65.895  1.00  0.00    -0.302 A  
HETATM    4  N   UNL     1     -11.260  12.910  66.673  1.00  0.00    -0.292 NA 
HETATM    5  C   UNL     1     -10.983  12.798  67.989  1.00  0.00    -0.239 A  
HETATM    6  C   UNL     1     -10.511  11.642  68.579  1.00  0.00    -0.236 A  
HETATM    7  C   UNL     1     -10.307  10.523  67.771  1.00  0.00    -0.248 A  
HETATM    8  C   UNL     1     -10.586  10.616  66.403  1.00  0.00    -0.240 A  
BRANCH   7   9
HETATM    9  C   UNL     1      -9.771   9.254  68.335  1.00  0.00    -0.154 C  
HETATM   10  N   UNL     1      -8.848   9.365  69.345  1.00  0.00    -0.149 N  
HETATM   11  S   UNL     1     -10.205   7.716  67.843  1.00  0.00    -0.208 S  
HETATM   12  H1  UNL     1      -8.481   8.495  69.731  1.00  0.00     0.000 HD 
HETATM   13  H2  UNL     1      -8.543  10.275  69.692  1.00  0.00     0.000 HD 
ENDBRANCH   7   9
ENDBRANCH   2   3
TORSDOF 2
ENDMDL
MODEL      155
REMARK 921   NORMALIZED FREE ENERGY PREDICTED BY IDOCK:   -2.62 KCAL/MOL
REMARK 922        TOTAL FREE ENERGY PREDICTED BY IDOCK:   -3.04 KCAL/MOL
REMARK 923 INTER-LIGAND FREE ENERGY PREDICTED BY IDOCK:   -2.94 KCAL/MOL
REMARK 924 INTRA-LIGAND FREE ENERGY PREDICTED BY IDOCK:   -0.11 KCAL/MOL
REMARK 927      BINDING AFFINITY PREDICTED BY RF-SCORE:    0.00 PKD
ROOT
HETATM    1  C   UNL     1     -12.185   9.752  71.509  1.00  0.00    -0.493 C  
HETATM    2  C   UNL     1     -11.455  10.604  70.480  1.00  0.00    -0.407 C  
ENDROOT
BRANCH   2   3
HETATM    3  C   UNL     1     -11.095   9.790  69.264  1.00  0.00    -0.149 A  
HETATM    4  N   UNL     1     -10.974   8.455  69.437  1.00  0.00    -0.082 NA 
HETATM    5  C   UNL     1     -10.578   7.719  68.378  1.00  0.00    -0.112 A  
HETATM    6  C   UNL     1     -10.296   8.254  67.135  1.00  0.00    -0.387 A  
HETATM    7  C   UNL     1     -10.428   9.632  66.963  1.00  0.00    -0.302 A  
HETATM    8  C   UNL     1     -10.835  10.414  68.048  1.00  0.00    -0.319 A  
BRANCH   7   9
HETATM    9  C   UNL     1     -10.110  10.277  65.659  1.00  0.00    -0.271 C  
HETATM   10  N   UNL     1     -10.937  11.295  65.253  1.00  0.00    -0.191 N  
HETATM   11  S   UNL     1      -8.834   9.866  64.661  1.00  0.00    -0.223 S  
HETATM   12  H1  UNL     1     -10.720  11.737  64.360  1.00  0.00     0.000 HD 
HETATM   13  H2  UNL     1     -11.732  11.595  65.818  1.00  0.00     0.000 HD 
ENDBRANCH   7   9
ENDBRANCH   2   3
TORSDOF 2
ENDMDL
MODEL      156
REMARK 921   NORMALIZED FREE ENERGY PREDICTED BY IDOCK:   -2.62 KCAL/MOL
REMARK 922        TOTAL FREE ENERGY PREDICTED BY IDOCK:   -3.04 KCAL/MOL
REMARK 923 INTER-LIGAND FREE ENERGY PREDICTED BY IDOCK:   -2.94 KCAL/MOL
REMARK 924 INTRA-LIGAND FREE ENERGY PREDICTED BY IDOCK:   -0.10 KCAL/MOL
REMARK 927      BINDING AFFINITY PREDICTED BY RF-SCORE:    0.00 PKD
ROOT
HETATM    1  C   UNL     1      -7.533  16.530  67.085  1.00  0.00    -0.217 C  
HETATM    2  C   UNL     1      -8.662  16.257  68.068  1.00  0.00    -0.178 C  
ENDROOT
BRANCH   2   3
HETATM    3  C   UNL     1      -9.585  15.188  67.546  1.00  0.00    -0.207 A  
HETATM    4  N   UNL     1     -10.912  15.436  67.622  1.00  0.00    -0.309 NA 
HETATM    5  C   UNL     1     -11.756  14.459  67.229  1.00  0.00    -0.404 A  
HETATM    6  C   UNL     1     -11.339  13.231  66.753  1.00  0.00    -0.359 A  
HETATM    7  C   UNL     1      -9.969  12.984  66.673  1.00  0.00    -0.250 A  
HETATM    8  C   UNL     1      -9.075  13.981  67.076  1.00  0.00    -0.256 A  
BRANCH   7   9
HETATM    9  C   UNL     1      -9.450  11.671  66.198  1.00  0.00    -0.224 C  
HETATM   10  N   UNL     1      -9.365  11.491  64.840  1.00  0.00    -0.399 N  
HETATM   11  S   UNL     1      -8.965  10.409  67.182  1.00  0.00    -0.139 S  
HETATM   12  H1  UNL     1      -9.010  10.592  64.516  1.00  0.00     0.000 HD 
HETATM   13  H2  UNL     1      -9.643  12.224  64.186  1.00  0.00     0.000 HD 
ENDBRANCH   7   9
ENDBRANCH   2   3
TORSDOF 2
ENDMDL
MODEL      157
REMARK 921   NORMALIZED FREE ENERGY PREDICTED BY IDOCK:   -2.48 KCAL/MOL
REMARK 922        TOTAL FREE ENERGY PREDICTED BY IDOCK:   -2.88 KCAL/MOL
REMARK 923 INTER-LIGAND FREE ENERGY PREDICTED BY IDOCK:   -2.76 KCAL/MOL
REMARK 924 INTRA-LIGAND FREE ENERGY PREDICTED BY IDOCK:   -0.12 KCAL/MOL
REMARK 927      BINDING AFFINITY PREDICTED BY RF-SCORE:    0.00 PKD
ROOT
HETATM    1  C   UNL     1     -10.105   3.406  73.183  1.00  0.00    -0.215 C  
HETATM    2  C   UNL     1      -9.447   3.043  71.859  1.00  0.00    -0.207 C  
ENDROOT
BRANCH   2   3
HETATM    3  C   UNL     1      -9.761   4.069  70.802  1.00  0.00    -0.193 A  
HETATM    4  N   UNL     1      -9.517   3.717  69.519  1.00  0.00    -0.180 NA 
HETATM    5  C   UNL     1      -9.721   4.650  68.565  1.00  0.00    -0.142 A  
HETATM    6  C   UNL     1     -10.165   5.931  68.827  1.00  0.00    -0.243 A  
HETATM    7  C   UNL     1     -10.419   6.285  70.152  1.00  0.00    -0.278 A  
HETATM    8  C   UNL     1     -10.213   5.335  71.158  1.00  0.00    -0.294 A  
BRANCH   7   9
HETATM    9  C   UNL     1     -10.870   7.659  70.509  1.00  0.00    -0.241 C  
HETATM   10  N   UNL     1     -11.085   8.531  69.470  1.00  0.00    -0.432 N  
HETATM   11  S   UNL     1     -11.138   8.217  72.062  1.00  0.00    -0.337 S  
HETATM   12  H1  UNL     1     -11.394   9.471  69.715  1.00  0.00     0.000 HD 
HETATM   13  H2  UNL     1     -10.941   8.251  68.499  1.00  0.00     0.000 HD 
ENDBRANCH   7   9
ENDBRANCH   2   3
TORSDOF 2
ENDMDL
MODEL      158
REMARK 921   NORMALIZED FREE ENERGY PREDICTED BY IDOCK:   -2.47 KCAL/MOL
REMARK 922        TOTAL FREE ENERGY PREDICTED BY IDOCK:   -2.88 KCAL/MOL
REMARK 923 INTER-LIGAND FREE ENERGY PREDICTED BY IDOCK:   -2.76 KCAL/MOL
REMARK 924 INTRA-LIGAND FREE ENERGY PREDICTED BY IDOCK:   -0.12 KCAL/MOL
REMARK 927      BINDING AFFINITY PREDICTED BY RF-SCORE:    0.00 PKD
ROOT
HETATM    1  C   UNL     1      -8.993   2.711  68.655  1.00  0.00    -0.181 C  
HETATM    2  C   UNL     1      -9.450   4.058  68.115  1.00  0.00    -0.215 C  
ENDROOT
BRANCH   2   3
HETATM    3  C   UNL     1     -10.102   4.880  69.196  1.00  0.00    -0.159 A  
HETATM    4  N   UNL     1     -10.828   5.948  68.797  1.00  0.00    -0.296 NA 
HETATM    5  C   UNL     1     -11.356   6.739  69.754  1.00  0.00    -0.296 A  
HETATM    6  C   UNL     1     -11.198   6.515  71.108  1.00  0.00    -0.353 A  
HETATM    7  C   UNL     1     -10.451   5.409  71.512  1.00  0.00    -0.289 A  
HETATM    8  C   UNL     1      -9.893   4.575  70.537  1.00  0.00    -0.297 A  
BRANCH   7   9
HETATM    9  C   UNL     1     -10.216   5.125  72.955  1.00  0.00    -0.183 C  
HETATM   10  N   UNL     1     -11.221   5.466  73.826  1.00  0.00    -0.393 N  
HETATM   11  S   UNL     1      -8.837   4.427  73.592  1.00  0.00    -0.100 S  
HETATM   12  H1  UNL     1     -11.059   5.272  74.814  1.00  0.00     0.000 HD 
HETATM   13  H2  UNL     1     -12.088   5.893  73.501  1.00  0.00     0.000 HD 
ENDBRANCH   7   9
ENDBRANCH   2   3
TORSDOF 2
ENDMDL
MODEL      159
REMARK 921   NORMALIZED FREE ENERGY PREDICTED BY IDOCK:   -2.47 KCAL/MOL
REMARK 922        TOTAL FREE ENERGY PREDICTED BY IDOCK:   -2.88 KCAL/MOL
REMARK 923 INTER-LIGAND FREE ENERGY PREDICTED BY IDOCK:   -2.77 KCAL/MOL
REMARK 924 INTRA-LIGAND FREE ENERGY PREDICTED BY IDOCK:   -0.11 KCAL/MOL
REMARK 927      BINDING AFFINITY PREDICTED BY RF-SCORE:    0.00 PKD
ROOT
HETATM    1  C   UNL     1     -13.264   9.883  71.957  1.00  0.00    -0.555 C  
HETATM    2  C   UNL     1     -12.578  10.829  70.982  1.00  0.00    -0.520 C  
ENDROOT
BRANCH   2   3
HETATM    3  C   UNL     1     -11.483  10.123  70.226  1.00  0.00    -0.306 A  
HETATM    4  N   UNL     1     -11.378   8.788  70.410  1.00  0.00    -0.233 NA 
HETATM    5  C   UNL     1     -10.357   8.150  69.799  1.00  0.00    -0.216 A  
HETATM    6  C   UNL     1      -9.425   8.784  69.000  1.00  0.00    -0.160 A  
HETATM    7  C   UNL     1      -9.543  10.161  68.811  1.00  0.00    -0.170 A  
HETATM    8  C   UNL     1     -10.593  10.843  69.435  1.00  0.00    -0.233 A  
BRANCH   7   9
HETATM    9  C   UNL     1      -8.556  10.911  67.987  1.00  0.00    -0.131 C  
HETATM   10  N   UNL     1      -9.057  11.842  67.111  1.00  0.00    -0.170 N  
HETATM   11  S   UNL     1      -6.896  10.715  68.047  1.00  0.00    -0.073 S  
HETATM   12  H1  UNL     1      -8.381  12.355  66.547  1.00  0.00     0.000 HD 
HETATM   13  H2  UNL     1     -10.061  12.011  67.028  1.00  0.00     0.000 HD 
ENDBRANCH   7   9
ENDBRANCH   2   3
TORSDOF 2
ENDMDL
MODEL      160
REMARK 921   NORMALIZED FREE ENERGY PREDICTED BY IDOCK:   -2.47 KCAL/MOL
REMARK 922        TOTAL FREE ENERGY PREDICTED BY IDOCK:   -2.87 KCAL/MOL
REMARK 923 INTER-LIGAND FREE ENERGY PREDICTED BY IDOCK:   -2.76 KCAL/MOL
REMARK 924 INTRA-LIGAND FREE ENERGY PREDICTED BY IDOCK:   -0.11 KCAL/MOL
REMARK 927      BINDING AFFINITY PREDICTED BY RF-SCORE:    0.00 PKD
ROOT
HETATM    1  C   UNL     1      -8.155   3.128  67.440  1.00  0.00    -0.081 C  
HETATM    2  C   UNL     1      -9.179   3.708  66.475  1.00  0.00    -0.183 C  
ENDROOT
BRANCH   2   3
HETATM    3  C   UNL     1      -9.794   4.965  67.032  1.00  0.00    -0.193 A  
HETATM    4  N   UNL     1      -9.784   6.055  66.233  1.00  0.00    -0.122 NA 
HETATM    5  C   UNL     1     -10.262   7.210  66.743  1.00  0.00    -0.219 A  
HETATM    6  C   UNL     1     -10.761   7.333  68.025  1.00  0.00    -0.209 A  
HETATM    7  C   UNL     1     -10.773   6.203  68.842  1.00  0.00    -0.376 A  
HETATM    8  C   UNL     1     -10.281   4.996  68.335  1.00  0.00    -0.143 A  
BRANCH   7   9
HETATM    9  C   UNL     1     -11.269   6.272  70.244  1.00  0.00    -0.388 C  
HETATM   10  N   UNL     1     -12.433   6.968  70.457  1.00  0.00    -0.615 N  
HETATM   11  S   UNL     1     -10.527   5.572  71.569  1.00  0.00    -0.230 S  
HETATM   12  H1  UNL     1     -12.772   7.016  71.418  1.00  0.00     0.000 HD 
HETATM   13  H2  UNL     1     -12.935   7.417  69.690  1.00  0.00     0.000 HD 
ENDBRANCH   7   9
ENDBRANCH   2   3
TORSDOF 2
ENDMDL
MODEL      161
REMARK 921   NORMALIZED FREE ENERGY PREDICTED BY IDOCK:   -2.46 KCAL/MOL
REMARK 922        TOTAL FREE ENERGY PREDICTED BY IDOCK:   -2.87 KCAL/MOL
REMARK 923 INTER-LIGAND FREE ENERGY PREDICTED BY IDOCK:   -2.76 KCAL/MOL
REMARK 924 INTRA-LIGAND FREE ENERGY PREDICTED BY IDOCK:   -0.11 KCAL/MOL
REMARK 927      BINDING AFFINITY PREDICTED BY RF-SCORE:    0.00 PKD
ROOT
HETATM    1  C   UNL     1      -8.241   5.389  65.053  1.00  0.00    -0.137 C  
HETATM    2  C   UNL     1      -8.528   6.238  66.283  1.00  0.00    -0.133 C  
ENDROOT
BRANCH   2   3
HETATM    3  C   UNL     1      -8.884   7.649  65.892  1.00  0.00    -0.130 A  
HETATM    4  N   UNL     1      -8.238   8.168  64.824  1.00  0.00    -0.150 NA 
HETATM    5  C   UNL     1      -8.489   9.455  64.505  1.00  0.00    -0.177 A  
HETATM    6  C   UNL     1      -9.366  10.262  65.204  1.00  0.00    -0.279 A  
HETATM    7  C   UNL     1     -10.032   9.718  66.302  1.00  0.00    -0.331 A  
HETATM    8  C   UNL     1      -9.787   8.386  66.652  1.00  0.00    -0.343 A  
BRANCH   7   9
HETATM    9  C   UNL     1     -10.968  10.540  67.118  1.00  0.00    -0.228 C  
HETATM   10  N   UNL     1     -11.407   9.993  68.298  1.00  0.00    -0.531 N  
HETATM   11  S   UNL     1     -11.519  12.066  66.715  1.00  0.00    -0.317 S  
HETATM   12  H1  UNL     1     -12.048  10.556  68.857  1.00  0.00     0.000 HD 
HETATM   13  H2  UNL     1     -11.106   9.066  68.602  1.00  0.00     0.000 HD 
ENDBRANCH   7   9
ENDBRANCH   2   3
TORSDOF 2
ENDMDL
MODEL      162
REMARK 921   NORMALIZED FREE ENERGY PREDICTED BY IDOCK:   -2.45 KCAL/MOL
REMARK 922        TOTAL FREE ENERGY PREDICTED BY IDOCK:   -2.85 KCAL/MOL
REMARK 923 INTER-LIGAND FREE ENERGY PREDICTED BY IDOCK:   -2.76 KCAL/MOL
REMARK 924 INTRA-LIGAND FREE ENERGY PREDICTED BY IDOCK:   -0.09 KCAL/MOL
REMARK 927      BINDING AFFINITY PREDICTED BY RF-SCORE:    0.00 PKD
ROOT
HETATM    1  C   UNL     1     -10.659   4.808  65.832  1.00  0.00    -0.290 C  
HETATM    2  C   UNL     1      -9.696   5.203  66.942  1.00  0.00    -0.175 C  
ENDROOT
BRANCH   2   3
HETATM    3  C   UNL     1      -9.991   6.593  67.442  1.00  0.00    -0.145 A  
HETATM    4  N   UNL     1      -9.768   7.612  66.580  1.00  0.00    -0.203 NA 
HETATM    5  C   UNL     1      -9.955   8.868  67.034  1.00  0.00    -0.233 A  
HETATM    6  C   UNL     1     -10.361   9.167  68.321  1.00  0.00    -0.256 A  
HETATM    7  C   UNL     1     -10.593   8.111  69.202  1.00  0.00    -0.179 A  
HETATM    8  C   UNL     1     -10.404   6.800  68.754  1.00  0.00    -0.211 A  
BRANCH   7   9
HETATM    9  C   UNL     1     -11.002   8.362  70.612  1.00  0.00    -0.243 C  
HETATM   10  N   UNL     1     -12.348   8.333  70.882  1.00  0.00    -0.493 N  
HETATM   11  S   UNL     1      -9.961   8.671  71.882  1.00  0.00    -0.333 S  
HETATM   12  H1  UNL     1     -12.628   8.505  71.847  1.00  0.00     0.000 HD 
HETATM   13  H2  UNL     1     -13.036   8.148  70.150  1.00  0.00     0.000 HD 
ENDBRANCH   7   9
ENDBRANCH   2   3
TORSDOF 2
ENDMDL
MODEL      163
REMARK 921   NORMALIZED FREE ENERGY PREDICTED BY IDOCK:   -2.44 KCAL/MOL
REMARK 922        TOTAL FREE ENERGY PREDICTED BY IDOCK:   -2.84 KCAL/MOL
REMARK 923 INTER-LIGAND FREE ENERGY PREDICTED BY IDOCK:   -2.72 KCAL/MOL
REMARK 924 INTRA-LIGAND FREE ENERGY PREDICTED BY IDOCK:   -0.12 KCAL/MOL
REMARK 927      BINDING AFFINITY PREDICTED BY RF-SCORE:    0.00 PKD
ROOT
HETATM    1  C   UNL     1     -11.190   3.789  73.338  1.00  0.00    -0.280 C  
HETATM    2  C   UNL     1     -10.777   5.173  73.816  1.00  0.00    -0.352 C  
ENDROOT
BRANCH   2   3
HETATM    3  C   UNL     1     -10.944   6.194  72.721  1.00  0.00    -0.260 A  
HETATM    4  N   UNL     1     -12.117   6.182  72.049  1.00  0.00    -0.283 NA 
HETATM    5  C   UNL     1     -12.255   7.038  71.015  1.00  0.00    -0.374 A  
HETATM    6  C   UNL     1     -11.271   7.922  70.614  1.00  0.00    -0.269 A  
HETATM    7  C   UNL     1     -10.066   7.932  71.316  1.00  0.00    -0.210 A  
HETATM    8  C   UNL     1      -9.900   7.052  72.390  1.00  0.00    -0.172 A  
BRANCH   7   9
HETATM    9  C   UNL     1      -8.952   8.837  70.918  1.00  0.00    -0.201 C  
HETATM   10  N   UNL     1      -7.817   8.800  71.688  1.00  0.00    -0.111 N  
HETATM   11  S   UNL     1      -8.975   9.884  69.614  1.00  0.00    -0.209 S  
HETATM   12  H1  UNL     1      -7.054   9.420  71.415  1.00  0.00     0.000 HD 
HETATM   13  H2  UNL     1      -7.739   8.181  72.496  1.00  0.00     0.000 HD 
ENDBRANCH   7   9
ENDBRANCH   2   3
TORSDOF 2
ENDMDL
MODEL      164
REMARK 921   NORMALIZED FREE ENERGY PREDICTED BY IDOCK:   -2.42 KCAL/MOL
REMARK 922        TOTAL FREE ENERGY PREDICTED BY IDOCK:   -2.81 KCAL/MOL
REMARK 923 INTER-LIGAND FREE ENERGY PREDICTED BY IDOCK:   -2.71 KCAL/MOL
REMARK 924 INTRA-LIGAND FREE ENERGY PREDICTED BY IDOCK:   -0.11 KCAL/MOL
REMARK 927      BINDING AFFINITY PREDICTED BY RF-SCORE:    0.00 PKD
ROOT
HETATM    1  C   UNL     1     -10.696   6.970  67.012  1.00  0.00    -0.423 C  
HETATM    2  C   UNL     1     -11.133   6.160  68.224  1.00  0.00    -0.336 C  
ENDROOT
BRANCH   2   3
HETATM    3  C   UNL     1     -10.867   6.914  69.500  1.00  0.00    -0.252 A  
HETATM    4  N   UNL     1     -11.894   7.015  70.374  1.00  0.00    -0.284 NA 
HETATM    5  C   UNL     1     -11.697   7.750  71.489  1.00  0.00    -0.280 A  
HETATM    6  C   UNL     1     -10.512   8.397  71.782  1.00  0.00    -0.353 A  
HETATM    7  C   UNL     1      -9.456   8.284  70.878  1.00  0.00    -0.192 A  
HETATM    8  C   UNL     1      -9.638   7.528  69.716  1.00  0.00    -0.163 A  
BRANCH   7   9
HETATM    9  C   UNL     1      -8.161   8.979  71.117  1.00  0.00    -0.149 C  
HETATM   10  N   UNL     1      -7.903  10.091  70.354  1.00  0.00    -0.241 N  
HETATM   11  S   UNL     1      -7.008   8.519  72.237  1.00  0.00    -0.033 S  
HETATM   12  H1  UNL     1      -7.016  10.567  70.518  1.00  0.00     0.000 HD 
HETATM   13  H2  UNL     1      -8.568  10.425  69.655  1.00  0.00     0.000 HD 
ENDBRANCH   7   9
ENDBRANCH   2   3
TORSDOF 2
ENDMDL
MODEL      165
REMARK 921   NORMALIZED FREE ENERGY PREDICTED BY IDOCK:   -2.41 KCAL/MOL
REMARK 922        TOTAL FREE ENERGY PREDICTED BY IDOCK:   -2.81 KCAL/MOL
REMARK 923 INTER-LIGAND FREE ENERGY PREDICTED BY IDOCK:   -2.70 KCAL/MOL
REMARK 924 INTRA-LIGAND FREE ENERGY PREDICTED BY IDOCK:   -0.11 KCAL/MOL
REMARK 927      BINDING AFFINITY PREDICTED BY RF-SCORE:    0.00 PKD
ROOT
HETATM    1  C   UNL     1     -10.926  10.169  68.601  1.00  0.00    -0.273 C  
HETATM    2  C   UNL     1     -11.647  11.147  67.685  1.00  0.00    -0.266 C  
ENDROOT
BRANCH   2   3
HETATM    3  C   UNL     1     -10.994  12.503  67.723  1.00  0.00    -0.234 A  
HETATM    4  N   UNL     1     -11.690  13.531  67.188  1.00  0.00    -0.356 NA 
HETATM    5  C   UNL     1     -11.090  14.739  67.145  1.00  0.00    -0.333 A  
HETATM    6  C   UNL     1      -9.814  14.979  67.618  1.00  0.00    -0.220 A  
HETATM    7  C   UNL     1      -9.104  13.915  68.173  1.00  0.00    -0.193 A  
HETATM    8  C   UNL     1      -9.706  12.653  68.227  1.00  0.00    -0.216 A  
BRANCH   7   9
HETATM    9  C   UNL     1      -7.713  14.096  68.675  1.00  0.00    -0.135 C  
HETATM   10  N   UNL     1      -7.538  14.979  69.712  1.00  0.00    -0.344 N  
HETATM   11  S   UNL     1      -6.361  13.313  68.082  1.00  0.00    -0.127 S  
HETATM   12  H1  UNL     1      -6.585  15.103  70.054  1.00  0.00     0.000 HD 
HETATM   13  H2  UNL     1      -8.323  15.487  70.120  1.00  0.00     0.000 HD 
ENDBRANCH   7   9
ENDBRANCH   2   3
TORSDOF 2
ENDMDL
MODEL      166
REMARK 921   NORMALIZED FREE ENERGY PREDICTED BY IDOCK:   -2.40 KCAL/MOL
REMARK 922        TOTAL FREE ENERGY PREDICTED BY IDOCK:   -2.80 KCAL/MOL
REMARK 923 INTER-LIGAND FREE ENERGY PREDICTED BY IDOCK:   -2.71 KCAL/MOL
REMARK 924 INTRA-LIGAND FREE ENERGY PREDICTED BY IDOCK:   -0.10 KCAL/MOL
REMARK 927      BINDING AFFINITY PREDICTED BY RF-SCORE:    0.00 PKD
ROOT
HETATM    1  C   UNL     1     -10.503  13.007  64.809  1.00  0.00    -0.382 C  
HETATM    2  C   UNL     1     -10.595  14.085  65.879  1.00  0.00    -0.302 C  
ENDROOT
BRANCH   2   3
HETATM    3  C   UNL     1      -9.237  14.389  66.456  1.00  0.00    -0.244 A  
HETATM    4  N   UNL     1      -8.519  13.338  66.914  1.00  0.00    -0.122 NA 
HETATM    5  C   UNL     1      -7.333  13.598  67.503  1.00  0.00    -0.166 A  
HETATM    6  C   UNL     1      -6.817  14.870  67.658  1.00  0.00    -0.204 A  
HETATM    7  C   UNL     1      -7.560  15.949  67.180  1.00  0.00    -0.255 A  
HETATM    8  C   UNL     1      -8.793  15.703  66.567  1.00  0.00    -0.345 A  
BRANCH   7   9
HETATM    9  C   UNL     1      -7.077  17.348  67.341  1.00  0.00    -0.164 C  
HETATM   10  N   UNL     1      -7.165  17.894  68.597  1.00  0.00    -0.264 N  
HETATM   11  S   UNL     1      -6.437  18.298  66.123  1.00  0.00    -0.256 S  
HETATM   12  H1  UNL     1      -6.834  18.853  68.708  1.00  0.00     0.000 HD 
HETATM   13  H2  UNL     1      -7.545  17.366  69.384  1.00  0.00     0.000 HD 
ENDBRANCH   7   9
ENDBRANCH   2   3
TORSDOF 2
ENDMDL
MODEL      167
REMARK 921   NORMALIZED FREE ENERGY PREDICTED BY IDOCK:   -2.40 KCAL/MOL
REMARK 922        TOTAL FREE ENERGY PREDICTED BY IDOCK:   -2.80 KCAL/MOL
REMARK 923 INTER-LIGAND FREE ENERGY PREDICTED BY IDOCK:   -2.68 KCAL/MOL
REMARK 924 INTRA-LIGAND FREE ENERGY PREDICTED BY IDOCK:   -0.12 KCAL/MOL
REMARK 927      BINDING AFFINITY PREDICTED BY RF-SCORE:    0.00 PKD
ROOT
HETATM    1  C   UNL     1     -10.304   5.123  66.243  1.00  0.00    -0.313 C  
HETATM    2  C   UNL     1     -10.459   5.256  67.751  1.00  0.00    -0.164 C  
ENDROOT
BRANCH   2   3
HETATM    3  C   UNL     1     -10.329   6.694  68.181  1.00  0.00    -0.190 A  
HETATM    4  N   UNL     1     -10.261   6.929  69.511  1.00  0.00    -0.180 NA 
HETATM    5  C   UNL     1     -10.221   8.215  69.918  1.00  0.00    -0.204 A  
HETATM    6  C   UNL     1     -10.240   9.294  69.055  1.00  0.00    -0.217 A  
HETATM    7  C   UNL     1     -10.305   9.043  67.685  1.00  0.00    -0.317 A  
HETATM    8  C   UNL     1     -10.349   7.718  67.240  1.00  0.00    -0.371 A  
BRANCH   7   9
HETATM    9  C   UNL     1     -10.360  10.159  66.701  1.00  0.00    -0.208 C  
HETATM   10  N   UNL     1     -10.899  11.345  67.136  1.00  0.00    -0.253 N  
HETATM   11  S   UNL     1      -9.817  10.085  65.121  1.00  0.00    -0.264 S  
HETATM   12  H1  UNL     1     -10.936  12.109  66.462  1.00  0.00     0.000 HD 
HETATM   13  H2  UNL     1     -11.246  11.456  68.089  1.00  0.00     0.000 HD 
ENDBRANCH   7   9
ENDBRANCH   2   3
TORSDOF 2
ENDMDL
MODEL      168
REMARK 921   NORMALIZED FREE ENERGY PREDICTED BY IDOCK:   -2.40 KCAL/MOL
REMARK 922        TOTAL FREE ENERGY PREDICTED BY IDOCK:   -2.79 KCAL/MOL
REMARK 923 INTER-LIGAND FREE ENERGY PREDICTED BY IDOCK:   -2.69 KCAL/MOL
REMARK 924 INTRA-LIGAND FREE ENERGY PREDICTED BY IDOCK:   -0.10 KCAL/MOL
REMARK 927      BINDING AFFINITY PREDICTED BY RF-SCORE:    0.00 PKD
ROOT
HETATM    1  C   UNL     1     -11.689   6.951  71.061  1.00  0.00    -0.392 C  
HETATM    2  C   UNL     1     -10.716   7.801  71.864  1.00  0.00    -0.272 C  
ENDROOT
BRANCH   2   3
HETATM    3  C   UNL     1      -9.887   8.673  70.958  1.00  0.00    -0.210 A  
HETATM    4  N   UNL     1      -8.546   8.511  71.014  1.00  0.00    -0.143 NA 
HETATM    5  C   UNL     1      -7.784   9.336  70.265  1.00  0.00    -0.129 A  
HETATM    6  C   UNL     1      -8.297  10.325  69.449  1.00  0.00    -0.169 A  
HETATM    7  C   UNL     1      -9.682  10.483  69.393  1.00  0.00    -0.188 A  
HETATM    8  C   UNL     1     -10.492   9.640  70.161  1.00  0.00    -0.321 A  
BRANCH   7   9
HETATM    9  C   UNL     1     -10.301  11.548  68.557  1.00  0.00    -0.210 C  
HETATM   10  N   UNL     1     -10.936  12.568  69.222  1.00  0.00    -0.441 N  
HETATM   11  S   UNL     1     -10.280  11.603  66.886  1.00  0.00    -0.220 S  
HETATM   12  H1  UNL     1     -11.360  13.297  68.649  1.00  0.00     0.000 HD 
HETATM   13  H2  UNL     1     -10.982  12.594  70.241  1.00  0.00     0.000 HD 
ENDBRANCH   7   9
ENDBRANCH   2   3
TORSDOF 2
ENDMDL
MODEL      169
REMARK 921   NORMALIZED FREE ENERGY PREDICTED BY IDOCK:   -2.38 KCAL/MOL
REMARK 922        TOTAL FREE ENERGY PREDICTED BY IDOCK:   -2.77 KCAL/MOL
REMARK 923 INTER-LIGAND FREE ENERGY PREDICTED BY IDOCK:   -2.67 KCAL/MOL
REMARK 924 INTRA-LIGAND FREE ENERGY PREDICTED BY IDOCK:   -0.10 KCAL/MOL
REMARK 927      BINDING AFFINITY PREDICTED BY RF-SCORE:    0.00 PKD
ROOT
HETATM    1  C   UNL     1     -10.070   8.351  68.809  1.00  0.00    -0.209 C  
HETATM    2  C   UNL     1      -9.806   9.655  69.547  1.00  0.00    -0.219 C  
ENDROOT
BRANCH   2   3
HETATM    3  C   UNL     1      -9.601  10.791  68.580  1.00  0.00    -0.183 A  
HETATM    4  N   UNL     1      -8.525  11.582  68.786  1.00  0.00    -0.105 NA 
HETATM    5  C   UNL     1      -8.367  12.649  67.975  1.00  0.00    -0.175 A  
HETATM    6  C   UNL     1      -9.237  12.970  66.952  1.00  0.00    -0.236 A  
HETATM    7  C   UNL     1     -10.343  12.147  66.742  1.00  0.00    -0.237 A  
HETATM    8  C   UNL     1     -10.528  11.036  67.571  1.00  0.00    -0.244 A  
BRANCH   7   9
HETATM    9  C   UNL     1     -11.338  12.452  65.676  1.00  0.00    -0.347 C  
HETATM   10  N   UNL     1     -11.401  11.580  64.618  1.00  0.00    -0.214 N  
HETATM   11  S   UNL     1     -12.379  13.760  65.670  1.00  0.00    -0.497 S  
HETATM   12  H1  UNL     1     -12.082  11.789  63.888  1.00  0.00     0.000 HD 
HETATM   13  H2  UNL     1     -10.794  10.761  64.563  1.00  0.00     0.000 HD 
ENDBRANCH   7   9
ENDBRANCH   2   3
TORSDOF 2
ENDMDL
MODEL      170
REMARK 921   NORMALIZED FREE ENERGY PREDICTED BY IDOCK:   -2.37 KCAL/MOL
REMARK 922        TOTAL FREE ENERGY PREDICTED BY IDOCK:   -2.77 KCAL/MOL
REMARK 923 INTER-LIGAND FREE ENERGY PREDICTED BY IDOCK:   -2.65 KCAL/MOL
REMARK 924 INTRA-LIGAND FREE ENERGY PREDICTED BY IDOCK:   -0.11 KCAL/MOL
REMARK 927      BINDING AFFINITY PREDICTED BY RF-SCORE:    0.00 PKD
ROOT
HETATM    1  C   UNL     1     -10.057   9.033  70.019  1.00  0.00    -0.215 C  
HETATM    2  C   UNL     1      -9.253   9.955  69.114  1.00  0.00    -0.184 C  
ENDROOT
BRANCH   2   3
HETATM    3  C   UNL     1      -9.972  11.262  68.902  1.00  0.00    -0.155 A  
HETATM    4  N   UNL     1     -11.272  11.311  69.271  1.00  0.00    -0.251 NA 
HETATM    5  C   UNL     1     -11.952  12.449  69.020  1.00  0.00    -0.241 A  
HETATM    6  C   UNL     1     -11.394  13.558  68.414  1.00  0.00    -0.327 A  
HETATM    7  C   UNL     1     -10.051  13.503  68.041  1.00  0.00    -0.244 A  
HETATM    8  C   UNL     1      -9.327  12.332  68.290  1.00  0.00    -0.199 A  
BRANCH   7   9
HETATM    9  C   UNL     1      -9.395  14.651  67.357  1.00  0.00    -0.196 C  
HETATM   10  N   UNL     1      -8.198  14.400  66.733  1.00  0.00    -0.388 N  
HETATM   11  S   UNL     1      -9.998  16.209  67.286  1.00  0.00    -0.252 S  
HETATM   12  H1  UNL     1      -7.749  15.187  66.265  1.00  0.00     0.000 HD 
HETATM   13  H2  UNL     1      -7.777  13.470  66.738  1.00  0.00     0.000 HD 
ENDBRANCH   7   9
ENDBRANCH   2   3
TORSDOF 2
ENDMDL
MODEL      171
REMARK 921   NORMALIZED FREE ENERGY PREDICTED BY IDOCK:   -2.36 KCAL/MOL
REMARK 922        TOTAL FREE ENERGY PREDICTED BY IDOCK:   -2.75 KCAL/MOL
REMARK 923 INTER-LIGAND FREE ENERGY PREDICTED BY IDOCK:   -2.65 KCAL/MOL
REMARK 924 INTRA-LIGAND FREE ENERGY PREDICTED BY IDOCK:   -0.10 KCAL/MOL
REMARK 927      BINDING AFFINITY PREDICTED BY RF-SCORE:    0.00 PKD
ROOT
HETATM    1  C   UNL     1      -6.820   7.456  72.435  1.00  0.00    -0.059 C  
HETATM    2  C   UNL     1      -7.091   6.661  71.166  1.00  0.00    -0.076 C  
ENDROOT
BRANCH   2   3
HETATM    3  C   UNL     1      -8.571   6.530  70.918  1.00  0.00    -0.135 A  
HETATM    4  N   UNL     1      -9.010   5.333  70.466  1.00  0.00    -0.134 NA 
HETATM    5  C   UNL     1     -10.321   5.220  70.166  1.00  0.00    -0.284 A  
HETATM    6  C   UNL     1     -11.230   6.251  70.300  1.00  0.00    -0.455 A  
HETATM    7  C   UNL     1     -10.771   7.481  70.771  1.00  0.00    -0.238 A  
HETATM    8  C   UNL     1      -9.416   7.622  71.086  1.00  0.00    -0.163 A  
BRANCH   7   9
HETATM    9  C   UNL     1     -11.691   8.644  70.910  1.00  0.00    -0.252 C  
HETATM   10  N   UNL     1     -11.657   9.585  69.911  1.00  0.00    -0.442 N  
HETATM   11  S   UNL     1     -12.756   8.889  72.175  1.00  0.00    -0.412 S  
HETATM   12  H1  UNL     1     -12.288  10.381  70.007  1.00  0.00     0.000 HD 
HETATM   13  H2  UNL     1     -11.031   9.492  69.110  1.00  0.00     0.000 HD 
ENDBRANCH   7   9
ENDBRANCH   2   3
TORSDOF 2
ENDMDL
MODEL      172
REMARK 921   NORMALIZED FREE ENERGY PREDICTED BY IDOCK:   -2.31 KCAL/MOL
REMARK 922        TOTAL FREE ENERGY PREDICTED BY IDOCK:   -2.70 KCAL/MOL
REMARK 923 INTER-LIGAND FREE ENERGY PREDICTED BY IDOCK:   -2.59 KCAL/MOL
REMARK 924 INTRA-LIGAND FREE ENERGY PREDICTED BY IDOCK:   -0.11 KCAL/MOL
REMARK 927      BINDING AFFINITY PREDICTED BY RF-SCORE:    0.00 PKD
ROOT
HETATM    1  C   UNL     1     -12.589   8.330  71.835  1.00  0.00    -0.379 C  
HETATM    2  C   UNL     1     -11.136   8.670  72.135  1.00  0.00    -0.434 C  
ENDROOT
BRANCH   2   3
HETATM    3  C   UNL     1     -10.210   7.975  71.171  1.00  0.00    -0.193 A  
HETATM    4  N   UNL     1      -9.126   7.364  71.699  1.00  0.00    -0.131 NA 
HETATM    5  C   UNL     1      -8.246   6.801  70.845  1.00  0.00    -0.123 A  
HETATM    6  C   UNL     1      -8.395   6.812  69.472  1.00  0.00    -0.132 A  
HETATM    7  C   UNL     1      -9.519   7.441  68.934  1.00  0.00    -0.144 A  
HETATM    8  C   UNL     1     -10.444   8.032  69.801  1.00  0.00    -0.227 A  
BRANCH   7   9
HETATM    9  C   UNL     1      -9.726   7.517  67.462  1.00  0.00    -0.150 C  
HETATM   10  N   UNL     1     -11.025   7.519  67.017  1.00  0.00    -0.532 N  
HETATM   11  S   UNL     1      -8.512   7.603  66.316  1.00  0.00    -0.146 S  
HETATM   12  H1  UNL     1     -11.167   7.571  66.008  1.00  0.00     0.000 HD 
HETATM   13  H2  UNL     1     -11.812   7.471  67.666  1.00  0.00     0.000 HD 
ENDBRANCH   7   9
ENDBRANCH   2   3
TORSDOF 2
ENDMDL
MODEL      173
REMARK 921   NORMALIZED FREE ENERGY PREDICTED BY IDOCK:   -2.31 KCAL/MOL
REMARK 922        TOTAL FREE ENERGY PREDICTED BY IDOCK:   -2.70 KCAL/MOL
REMARK 923 INTER-LIGAND FREE ENERGY PREDICTED BY IDOCK:   -2.58 KCAL/MOL
REMARK 924 INTRA-LIGAND FREE ENERGY PREDICTED BY IDOCK:   -0.11 KCAL/MOL
REMARK 927      BINDING AFFINITY PREDICTED BY RF-SCORE:    0.00 PKD
ROOT
HETATM    1  C   UNL     1      -6.401   6.960  69.956  1.00  0.00    -0.035 C  
HETATM    2  C   UNL     1      -7.347   7.819  69.130  1.00  0.00    -0.088 C  
ENDROOT
BRANCH   2   3
HETATM    3  C   UNL     1      -8.454   8.377  69.986  1.00  0.00    -0.125 A  
HETATM    4  N   UNL     1      -8.538   7.914  71.253  1.00  0.00    -0.121 NA 
HETATM    5  C   UNL     1      -9.568   8.346  72.010  1.00  0.00    -0.274 A  
HETATM    6  C   UNL     1     -10.531   9.231  71.564  1.00  0.00    -0.385 A  
HETATM    7  C   UNL     1     -10.434   9.708  70.257  1.00  0.00    -0.338 A  
HETATM    8  C   UNL     1      -9.376   9.273  69.453  1.00  0.00    -0.164 A  
BRANCH   7   9
HETATM    9  C   UNL     1     -11.454  10.640  69.702  1.00  0.00    -0.291 C  
HETATM   10  N   UNL     1     -11.620  10.639  68.339  1.00  0.00    -0.469 N  
HETATM   11  S   UNL     1     -12.409  11.677  70.601  1.00  0.00    -0.291 S  
HETATM   12  H1  UNL     1     -12.319  11.278  67.959  1.00  0.00     0.000 HD 
HETATM   13  H2  UNL     1     -11.070  10.028  67.734  1.00  0.00     0.000 HD 
ENDBRANCH   7   9
ENDBRANCH   2   3
TORSDOF 2
ENDMDL
MODEL      174
REMARK 921   NORMALIZED FREE ENERGY PREDICTED BY IDOCK:   -2.30 KCAL/MOL
REMARK 922        TOTAL FREE ENERGY PREDICTED BY IDOCK:   -2.69 KCAL/MOL
REMARK 923 INTER-LIGAND FREE ENERGY PREDICTED BY IDOCK:   -2.57 KCAL/MOL
REMARK 924 INTRA-LIGAND FREE ENERGY PREDICTED BY IDOCK:   -0.12 KCAL/MOL
REMARK 927      BINDING AFFINITY PREDICTED BY RF-SCORE:    0.00 PKD
ROOT
HETATM    1  C   UNL     1      -7.091   8.393  67.902  1.00  0.00    -0.083 C  
HETATM    2  C   UNL     1      -7.893   9.685  67.841  1.00  0.00    -0.087 C  
ENDROOT
BRANCH   2   3
HETATM    3  C   UNL     1      -9.155   9.575  68.656  1.00  0.00    -0.132 A  
HETATM    4  N   UNL     1      -9.757  10.733  69.008  1.00  0.00    -0.201 NA 
HETATM    5  C   UNL     1     -10.846  10.657  69.801  1.00  0.00    -0.261 A  
HETATM    6  C   UNL     1     -11.377   9.468  70.264  1.00  0.00    -0.284 A  
HETATM    7  C   UNL     1     -10.753   8.277  69.893  1.00  0.00    -0.234 A  
HETATM    8  C   UNL     1      -9.621   8.332  69.072  1.00  0.00    -0.156 A  
BRANCH   7   9
HETATM    9  C   UNL     1     -11.253   6.963  70.381  1.00  0.00    -0.312 C  
HETATM   10  N   UNL     1     -12.604   6.854  70.598  1.00  0.00    -0.553 N  
HETATM   11  S   UNL     1     -10.307   5.617  70.679  1.00  0.00    -0.268 S  
HETATM   12  H1  UNL     1     -12.947   5.954  70.933  1.00  0.00     0.000 HD 
HETATM   13  H2  UNL     1     -13.237   7.639  70.433  1.00  0.00     0.000 HD 
ENDBRANCH   7   9
ENDBRANCH   2   3
TORSDOF 2
ENDMDL
MODEL      175
REMARK 921   NORMALIZED FREE ENERGY PREDICTED BY IDOCK:   -2.30 KCAL/MOL
REMARK 922        TOTAL FREE ENERGY PREDICTED BY IDOCK:   -2.69 KCAL/MOL
REMARK 923 INTER-LIGAND FREE ENERGY PREDICTED BY IDOCK:   -2.58 KCAL/MOL
REMARK 924 INTRA-LIGAND FREE ENERGY PREDICTED BY IDOCK:   -0.11 KCAL/MOL
REMARK 927      BINDING AFFINITY PREDICTED BY RF-SCORE:    0.00 PKD
ROOT
HETATM    1  C   UNL     1     -10.197  10.590  68.150  1.00  0.00    -0.187 C  
HETATM    2  C   UNL     1     -10.752  10.051  69.460  1.00  0.00    -0.269 C  
ENDROOT
BRANCH   2   3
HETATM    3  C   UNL     1     -10.780   8.545  69.455  1.00  0.00    -0.174 A  
HETATM    4  N   UNL     1     -11.335   7.942  70.530  1.00  0.00    -0.263 NA 
HETATM    5  C   UNL     1     -11.301   6.593  70.578  1.00  0.00    -0.358 A  
HETATM    6  C   UNL     1     -10.737   5.805  69.594  1.00  0.00    -0.416 A  
HETATM    7  C   UNL     1     -10.170   6.434  68.486  1.00  0.00    -0.198 A  
HETATM    8  C   UNL     1     -10.193   7.831  68.416  1.00  0.00    -0.230 A  
BRANCH   7   9
HETATM    9  C   UNL     1      -9.518   5.646  67.404  1.00  0.00    -0.114 C  
HETATM   10  N   UNL     1      -8.146   5.594  67.414  1.00  0.00    -0.102 N  
HETATM   11  S   UNL     1     -10.319   4.824  66.189  1.00  0.00    -0.267 S  
HETATM   12  H1  UNL     1      -7.700   5.054  66.673  1.00  0.00     0.000 HD 
HETATM   13  H2  UNL     1      -7.599   6.072  68.130  1.00  0.00     0.000 HD 
ENDBRANCH   7   9
ENDBRANCH   2   3
TORSDOF 2
ENDMDL
MODEL      176
REMARK 921   NORMALIZED FREE ENERGY PREDICTED BY IDOCK:   -2.28 KCAL/MOL
REMARK 922        TOTAL FREE ENERGY PREDICTED BY IDOCK:   -2.66 KCAL/MOL
REMARK 923 INTER-LIGAND FREE ENERGY PREDICTED BY IDOCK:   -2.54 KCAL/MOL
REMARK 924 INTRA-LIGAND FREE ENERGY PREDICTED BY IDOCK:   -0.12 KCAL/MOL
REMARK 927      BINDING AFFINITY PREDICTED BY RF-SCORE:    0.00 PKD
ROOT
HETATM    1  C   UNL     1      -9.527   2.408  68.910  1.00  0.00    -0.164 C  
HETATM    2  C   UNL     1      -8.783   3.642  68.420  1.00  0.00    -0.135 C  
ENDROOT
BRANCH   2   3
HETATM    3  C   UNL     1      -9.478   4.902  68.866  1.00  0.00    -0.143 A  
HETATM    4  N   UNL     1     -10.107   4.861  70.061  1.00  0.00    -0.262 NA 
HETATM    5  C   UNL     1     -10.798   5.956  70.443  1.00  0.00    -0.308 A  
HETATM    6  C   UNL     1     -10.892   7.107  69.684  1.00  0.00    -0.254 A  
HETATM    7  C   UNL     1     -10.236   7.143  68.454  1.00  0.00    -0.194 A  
HETATM    8  C   UNL     1      -9.514   6.019  68.038  1.00  0.00    -0.113 A  
BRANCH   7   9
HETATM    9  C   UNL     1     -10.320   8.340  67.572  1.00  0.00    -0.265 C  
HETATM   10  N   UNL     1     -11.159   9.349  67.974  1.00  0.00    -0.513 N  
HETATM   11  S   UNL     1      -9.476   8.552  66.144  1.00  0.00    -0.187 S  
HETATM   12  H1  UNL     1     -11.216  10.169  67.370  1.00  0.00     0.000 HD 
HETATM   13  H2  UNL     1     -11.700   9.282  68.837  1.00  0.00     0.000 HD 
ENDBRANCH   7   9
ENDBRANCH   2   3
TORSDOF 2
ENDMDL
MODEL      177
REMARK 921   NORMALIZED FREE ENERGY PREDICTED BY IDOCK:   -2.27 KCAL/MOL
REMARK 922        TOTAL FREE ENERGY PREDICTED BY IDOCK:   -2.65 KCAL/MOL
REMARK 923 INTER-LIGAND FREE ENERGY PREDICTED BY IDOCK:   -2.54 KCAL/MOL
REMARK 924 INTRA-LIGAND FREE ENERGY PREDICTED BY IDOCK:   -0.11 KCAL/MOL
REMARK 927      BINDING AFFINITY PREDICTED BY RF-SCORE:    0.00 PKD
ROOT
HETATM    1  C   UNL     1      -6.912   8.421  64.235  1.00  0.00    -0.081 C  
HETATM    2  C   UNL     1      -8.010   7.527  64.793  1.00  0.00    -0.132 C  
ENDROOT
BRANCH   2   3
HETATM    3  C   UNL     1      -8.906   8.295  65.730  1.00  0.00    -0.155 A  
HETATM    4  N   UNL     1      -9.179   9.577  65.399  1.00  0.00    -0.231 NA 
HETATM    5  C   UNL     1      -9.918  10.303  66.264  1.00  0.00    -0.235 A  
HETATM    6  C   UNL     1     -10.409   9.808  67.457  1.00  0.00    -0.291 A  
HETATM    7  C   UNL     1     -10.126   8.483  67.789  1.00  0.00    -0.266 A  
HETATM    8  C   UNL     1      -9.361   7.712  66.908  1.00  0.00    -0.203 A  
BRANCH   7   9
HETATM    9  C   UNL     1     -10.598   7.895  69.073  1.00  0.00    -0.162 C  
HETATM   10  N   UNL     1     -11.298   6.717  68.997  1.00  0.00    -0.576 N  
HETATM   11  S   UNL     1     -10.341   8.551  70.590  1.00  0.00    -0.206 S  
HETATM   12  H1  UNL     1     -11.620   6.315  69.877  1.00  0.00     0.000 HD 
HETATM   13  H2  UNL     1     -11.486   6.265  68.101  1.00  0.00     0.000 HD 
ENDBRANCH   7   9
ENDBRANCH   2   3
TORSDOF 2
ENDMDL
MODEL      178
REMARK 921   NORMALIZED FREE ENERGY PREDICTED BY IDOCK:   -2.26 KCAL/MOL
REMARK 922        TOTAL FREE ENERGY PREDICTED BY IDOCK:   -2.64 KCAL/MOL
REMARK 923 INTER-LIGAND FREE ENERGY PREDICTED BY IDOCK:   -2.53 KCAL/MOL
REMARK 924 INTRA-LIGAND FREE ENERGY PREDICTED BY IDOCK:   -0.11 KCAL/MOL
REMARK 927      BINDING AFFINITY PREDICTED BY RF-SCORE:    0.00 PKD
ROOT
HETATM    1  C   UNL     1     -10.496   3.980  73.732  1.00  0.00    -0.268 C  
HETATM    2  C   UNL     1      -9.527   4.690  72.798  1.00  0.00    -0.156 C  
ENDROOT
BRANCH   2   3
HETATM    3  C   UNL     1      -9.989   6.094  72.507  1.00  0.00    -0.172 A  
HETATM    4  N   UNL     1     -10.936   6.606  73.325  1.00  0.00    -0.248 NA 
HETATM    5  C   UNL     1     -11.417   7.833  73.035  1.00  0.00    -0.206 A  
HETATM    6  C   UNL     1     -10.993   8.589  71.959  1.00  0.00    -0.410 A  
HETATM    7  C   UNL     1     -10.012   8.055  71.122  1.00  0.00    -0.206 A  
HETATM    8  C   UNL     1      -9.500   6.784  71.403  1.00  0.00    -0.160 A  
BRANCH   7   9
HETATM    9  C   UNL     1      -9.532   8.803  69.927  1.00  0.00    -0.169 C  
HETATM   10  N   UNL     1      -9.338  10.153  70.076  1.00  0.00    -0.396 N  
HETATM   11  S   UNL     1      -9.208   8.130  68.431  1.00  0.00    -0.134 S  
HETATM   12  H1  UNL     1      -9.009  10.665  69.257  1.00  0.00     0.000 HD 
HETATM   13  H2  UNL     1      -9.516  10.624  70.964  1.00  0.00     0.000 HD 
ENDBRANCH   7   9
ENDBRANCH   2   3
TORSDOF 2
ENDMDL
MODEL      179
REMARK 921   NORMALIZED FREE ENERGY PREDICTED BY IDOCK:   -2.24 KCAL/MOL
REMARK 922        TOTAL FREE ENERGY PREDICTED BY IDOCK:   -2.62 KCAL/MOL
REMARK 923 INTER-LIGAND FREE ENERGY PREDICTED BY IDOCK:   -2.51 KCAL/MOL
REMARK 924 INTRA-LIGAND FREE ENERGY PREDICTED BY IDOCK:   -0.12 KCAL/MOL
REMARK 927      BINDING AFFINITY PREDICTED BY RF-SCORE:    0.00 PKD
ROOT
HETATM    1  C   UNL     1      -7.506   8.377  74.259  1.00  0.00    -0.232 C  
HETATM    2  C   UNL     1      -8.786   7.903  73.586  1.00  0.00    -0.336 C  
ENDROOT
BRANCH   2   3
HETATM    3  C   UNL     1      -8.643   7.912  72.087  1.00  0.00    -0.140 A  
HETATM    4  N   UNL     1      -7.493   8.417  71.587  1.00  0.00    -0.093 NA 
HETATM    5  C   UNL     1      -7.378   8.503  70.245  1.00  0.00    -0.052 A  
HETATM    6  C   UNL     1      -8.363   8.101  69.363  1.00  0.00    -0.123 A  
HETATM    7  C   UNL     1      -9.544   7.577  69.887  1.00  0.00    -0.160 A  
HETATM    8  C   UNL     1      -9.686   7.480  71.275  1.00  0.00    -0.173 A  
BRANCH   7   9
HETATM    9  C   UNL     1     -10.659   7.153  68.994  1.00  0.00    -0.210 C  
HETATM   10  N   UNL     1     -11.813   6.726  69.603  1.00  0.00    -0.646 N  
HETATM   11  S   UNL     1     -10.617   7.160  67.323  1.00  0.00    -0.340 S  
HETATM   12  H1  UNL     1     -12.576   6.436  68.992  1.00  0.00     0.000 HD 
HETATM   13  H2  UNL     1     -11.903   6.700  70.619  1.00  0.00     0.000 HD 
ENDBRANCH   7   9
ENDBRANCH   2   3
TORSDOF 2
ENDMDL
MODEL      180
REMARK 921   NORMALIZED FREE ENERGY PREDICTED BY IDOCK:   -2.23 KCAL/MOL
REMARK 922        TOTAL FREE ENERGY PREDICTED BY IDOCK:   -2.61 KCAL/MOL
REMARK 923 INTER-LIGAND FREE ENERGY PREDICTED BY IDOCK:   -2.50 KCAL/MOL
REMARK 924 INTRA-LIGAND FREE ENERGY PREDICTED BY IDOCK:   -0.11 KCAL/MOL
REMARK 927      BINDING AFFINITY PREDICTED BY RF-SCORE:    0.00 PKD
ROOT
HETATM    1  C   UNL     1     -11.711   6.573  70.184  1.00  0.00    -0.419 C  
HETATM    2  C   UNL     1     -10.204   6.779  70.219  1.00  0.00    -0.216 C  
ENDROOT
BRANCH   2   3
HETATM    3  C   UNL     1      -9.813   8.027  69.472  1.00  0.00    -0.181 A  
HETATM    4  N   UNL     1      -9.648   9.151  70.205  1.00  0.00    -0.197 NA 
HETATM    5  C   UNL     1      -9.372  10.295  69.545  1.00  0.00    -0.178 A  
HETATM    6  C   UNL     1      -9.246  10.377  68.171  1.00  0.00    -0.145 A  
HETATM    7  C   UNL     1      -9.413   9.212  67.422  1.00  0.00    -0.177 A  
HETATM    8  C   UNL     1      -9.702   8.015  68.085  1.00  0.00    -0.179 A  
BRANCH   7   9
HETATM    9  C   UNL     1      -9.322   9.235  65.936  1.00  0.00    -0.236 C  
HETATM   10  N   UNL     1      -9.267   8.020  65.299  1.00  0.00    -0.344 N  
HETATM   11  S   UNL     1      -9.284  10.612  64.989  1.00  0.00    -0.224 S  
HETATM   12  H1  UNL     1      -9.204   8.036  64.281  1.00  0.00     0.000 HD 
HETATM   13  H2  UNL     1      -9.288   7.142  65.820  1.00  0.00     0.000 HD 
ENDBRANCH   7   9
ENDBRANCH   2   3
TORSDOF 2
ENDMDL
MODEL      181
REMARK 921   NORMALIZED FREE ENERGY PREDICTED BY IDOCK:   -2.22 KCAL/MOL
REMARK 922        TOTAL FREE ENERGY PREDICTED BY IDOCK:   -2.60 KCAL/MOL
REMARK 923 INTER-LIGAND FREE ENERGY PREDICTED BY IDOCK:   -2.50 KCAL/MOL
REMARK 924 INTRA-LIGAND FREE ENERGY PREDICTED BY IDOCK:   -0.10 KCAL/MOL
REMARK 927      BINDING AFFINITY PREDICTED BY RF-SCORE:    0.00 PKD
ROOT
HETATM    1  C   UNL     1      -6.543   8.056  71.861  1.00  0.00    -0.055 C  
HETATM    2  C   UNL     1      -7.923   7.442  71.677  1.00  0.00    -0.098 C  
ENDROOT
BRANCH   2   3
HETATM    3  C   UNL     1      -8.909   8.468  71.184  1.00  0.00    -0.179 A  
HETATM    4  N   UNL     1     -10.116   8.497  71.793  1.00  0.00    -0.252 NA 
HETATM    5  C   UNL     1     -11.038   9.359  71.314  1.00  0.00    -0.376 A  
HETATM    6  C   UNL     1     -10.814  10.207  70.247  1.00  0.00    -0.370 A  
HETATM    7  C   UNL     1      -9.565  10.175  69.627  1.00  0.00    -0.237 A  
HETATM    8  C   UNL     1      -8.594   9.289  70.105  1.00  0.00    -0.215 A  
BRANCH   7   9
HETATM    9  C   UNL     1      -9.267  11.040  68.453  1.00  0.00    -0.175 C  
HETATM   10  N   UNL     1      -9.087  12.379  68.698  1.00  0.00    -0.392 N  
HETATM   11  S   UNL     1      -9.131  10.514  66.872  1.00  0.00    -0.147 S  
HETATM   12  H1  UNL     1      -8.883  12.971  67.893  1.00  0.00     0.000 HD 
HETATM   13  H2  UNL     1      -9.155  12.763  69.641  1.00  0.00     0.000 HD 
ENDBRANCH   7   9
ENDBRANCH   2   3
TORSDOF 2
ENDMDL
MODEL      182
REMARK 921   NORMALIZED FREE ENERGY PREDICTED BY IDOCK:   -2.22 KCAL/MOL
REMARK 922        TOTAL FREE ENERGY PREDICTED BY IDOCK:   -2.59 KCAL/MOL
REMARK 923 INTER-LIGAND FREE ENERGY PREDICTED BY IDOCK:   -2.48 KCAL/MOL
REMARK 924 INTRA-LIGAND FREE ENERGY PREDICTED BY IDOCK:   -0.11 KCAL/MOL
REMARK 927      BINDING AFFINITY PREDICTED BY RF-SCORE:    0.00 PKD
ROOT
HETATM    1  C   UNL     1      -7.526   8.041  74.149  1.00  0.00    -0.223 C  
HETATM    2  C   UNL     1      -8.733   7.121  74.260  1.00  0.00    -0.242 C  
ENDROOT
BRANCH   2   3
HETATM    3  C   UNL     1      -9.618   7.243  73.047  1.00  0.00    -0.175 A  
HETATM    4  N   UNL     1     -10.825   7.825  73.227  1.00  0.00    -0.344 NA 
HETATM    5  C   UNL     1     -11.660   7.875  72.169  1.00  0.00    -0.328 A  
HETATM    6  C   UNL     1     -11.349   7.371  70.921  1.00  0.00    -0.300 A  
HETATM    7  C   UNL     1     -10.100   6.777  70.741  1.00  0.00    -0.208 A  
HETATM    8  C   UNL     1      -9.218   6.713  71.824  1.00  0.00    -0.148 A  
BRANCH   7   9
HETATM    9  C   UNL     1      -9.710   6.187  69.430  1.00  0.00    -0.145 C  
HETATM   10  N   UNL     1      -8.416   5.745  69.308  1.00  0.00    -0.107 N  
HETATM   11  S   UNL     1     -10.719   6.017  68.107  1.00  0.00    -0.267 S  
HETATM   12  H1  UNL     1      -8.150   5.341  68.410  1.00  0.00     0.000 HD 
HETATM   13  H2  UNL     1      -7.752   5.818  70.079  1.00  0.00     0.000 HD 
ENDBRANCH   7   9
ENDBRANCH   2   3
TORSDOF 2
ENDMDL
MODEL      183
REMARK 921   NORMALIZED FREE ENERGY PREDICTED BY IDOCK:   -2.21 KCAL/MOL
REMARK 922        TOTAL FREE ENERGY PREDICTED BY IDOCK:   -2.59 KCAL/MOL
REMARK 923 INTER-LIGAND FREE ENERGY PREDICTED BY IDOCK:   -2.47 KCAL/MOL
REMARK 924 INTRA-LIGAND FREE ENERGY PREDICTED BY IDOCK:   -0.11 KCAL/MOL
REMARK 927      BINDING AFFINITY PREDICTED BY RF-SCORE:    0.00 PKD
ROOT
HETATM    1  C   UNL     1      -7.566  11.577  66.887  1.00  0.00    -0.151 C  
HETATM    2  C   UNL     1      -7.314  10.374  67.785  1.00  0.00    -0.087 C  
ENDROOT
BRANCH   2   3
HETATM    3  C   UNL     1      -8.436   9.375  67.675  1.00  0.00    -0.119 A  
HETATM    4  N   UNL     1      -8.933   9.149  66.438  1.00  0.00    -0.142 NA 
HETATM    5  C   UNL     1      -9.988   8.314  66.330  1.00  0.00    -0.194 A  
HETATM    6  C   UNL     1     -10.579   7.682  67.407  1.00  0.00    -0.356 A  
HETATM    7  C   UNL     1     -10.059   7.917  68.679  1.00  0.00    -0.210 A  
HETATM    8  C   UNL     1      -8.966   8.779  68.815  1.00  0.00    -0.138 A  
BRANCH   7   9
HETATM    9  C   UNL     1     -10.667   7.292  69.887  1.00  0.00    -0.242 C  
HETATM   10  N   UNL     1     -11.934   6.781  69.750  1.00  0.00    -0.647 N  
HETATM   11  S   UNL     1      -9.932   7.161  71.383  1.00  0.00    -0.186 S  
HETATM   12  H1  UNL     1     -12.350   6.354  70.577  1.00  0.00     0.000 HD 
HETATM   13  H2  UNL     1     -12.436   6.828  68.862  1.00  0.00     0.000 HD 
ENDBRANCH   7   9
ENDBRANCH   2   3
TORSDOF 2
ENDMDL
MODEL      184
REMARK 921   NORMALIZED FREE ENERGY PREDICTED BY IDOCK:   -2.19 KCAL/MOL
REMARK 922        TOTAL FREE ENERGY PREDICTED BY IDOCK:   -2.56 KCAL/MOL
REMARK 923 INTER-LIGAND FREE ENERGY PREDICTED BY IDOCK:   -2.47 KCAL/MOL
REMARK 924 INTRA-LIGAND FREE ENERGY PREDICTED BY IDOCK:   -0.10 KCAL/MOL
REMARK 927      BINDING AFFINITY PREDICTED BY RF-SCORE:    0.00 PKD
ROOT
HETATM    1  C   UNL     1     -10.653   3.551  63.793  1.00  0.00    -0.280 C  
HETATM    2  C   UNL     1      -9.785   3.504  65.042  1.00  0.00    -0.142 C  
ENDROOT
BRANCH   2   3
HETATM    3  C   UNL     1      -9.588   4.884  65.613  1.00  0.00    -0.155 A  
HETATM    4  N   UNL     1      -8.729   5.698  64.958  1.00  0.00    -0.112 NA 
HETATM    5  C   UNL     1      -8.482   6.910  65.497  1.00  0.00    -0.116 A  
HETATM    6  C   UNL     1      -9.057   7.361  66.669  1.00  0.00    -0.184 A  
HETATM    7  C   UNL     1      -9.945   6.517  67.336  1.00  0.00    -0.180 A  
HETATM    8  C   UNL     1     -10.216   5.256  66.797  1.00  0.00    -0.287 A  
BRANCH   7   9
HETATM    9  C   UNL     1     -10.578   6.928  68.621  1.00  0.00    -0.223 C  
HETATM   10  N   UNL     1     -11.019   8.225  68.709  1.00  0.00    -0.423 N  
HETATM   11  S   UNL     1     -10.795   5.940  69.952  1.00  0.00    -0.366 S  
HETATM   12  H1  UNL     1     -11.452   8.505  69.588  1.00  0.00     0.000 HD 
HETATM   13  H2  UNL     1     -10.918   8.878  67.931  1.00  0.00     0.000 HD 
ENDBRANCH   7   9
ENDBRANCH   2   3
TORSDOF 2
ENDMDL
MODEL      185
REMARK 921   NORMALIZED FREE ENERGY PREDICTED BY IDOCK:   -2.16 KCAL/MOL
REMARK 922        TOTAL FREE ENERGY PREDICTED BY IDOCK:   -2.53 KCAL/MOL
REMARK 923 INTER-LIGAND FREE ENERGY PREDICTED BY IDOCK:   -2.41 KCAL/MOL
REMARK 924 INTRA-LIGAND FREE ENERGY PREDICTED BY IDOCK:   -0.12 KCAL/MOL
REMARK 927      BINDING AFFINITY PREDICTED BY RF-SCORE:    0.00 PKD
ROOT
HETATM    1  C   UNL     1     -12.165  14.236  66.682  1.00  0.00    -0.411 C  
HETATM    2  C   UNL     1     -11.560  14.588  68.034  1.00  0.00    -0.364 C  
ENDROOT
BRANCH   2   3
HETATM    3  C   UNL     1     -10.104  14.208  68.088  1.00  0.00    -0.239 A  
HETATM    4  N   UNL     1      -9.287  15.023  68.793  1.00  0.00    -0.194 NA 
HETATM    5  C   UNL     1      -7.967  14.741  68.791  1.00  0.00    -0.152 A  
HETATM    6  C   UNL     1      -7.413  13.671  68.115  1.00  0.00    -0.125 A  
HETATM    7  C   UNL     1      -8.262  12.833  67.393  1.00  0.00    -0.186 A  
HETATM    8  C   UNL     1      -9.634  13.107  67.381  1.00  0.00    -0.219 A  
BRANCH   7   9
HETATM    9  C   UNL     1      -7.728  11.680  66.617  1.00  0.00    -0.065 C  
HETATM   10  N   UNL     1      -8.556  11.133  65.668  1.00  0.00    -0.330 N  
HETATM   11  S   UNL     1      -6.209  11.006  66.806  1.00  0.00    -0.124 S  
HETATM   12  H1  UNL     1      -8.189  10.343  65.137  1.00  0.00     0.000 HD 
HETATM   13  H2  UNL     1      -9.494  11.499  65.503  1.00  0.00     0.000 HD 
ENDBRANCH   7   9
ENDBRANCH   2   3
TORSDOF 2
ENDMDL
MODEL      186
REMARK 921   NORMALIZED FREE ENERGY PREDICTED BY IDOCK:   -2.14 KCAL/MOL
REMARK 922        TOTAL FREE ENERGY PREDICTED BY IDOCK:   -2.50 KCAL/MOL
REMARK 923 INTER-LIGAND FREE ENERGY PREDICTED BY IDOCK:   -2.40 KCAL/MOL
REMARK 924 INTRA-LIGAND FREE ENERGY PREDICTED BY IDOCK:   -0.11 KCAL/MOL
REMARK 927      BINDING AFFINITY PREDICTED BY RF-SCORE:    0.00 PKD
ROOT
HETATM    1  C   UNL     1      -5.681   7.925  72.181  1.00  0.00    -0.036 C  
HETATM    2  C   UNL     1      -6.998   7.558  72.849  1.00  0.00    -0.071 C  
ENDROOT
BRANCH   2   3
HETATM    3  C   UNL     1      -8.146   7.682  71.881  1.00  0.00    -0.100 A  
HETATM    4  N   UNL     1      -7.843   7.626  70.565  1.00  0.00    -0.093 NA 
HETATM    5  C   UNL     1      -8.847   7.811  69.683  1.00  0.00    -0.139 A  
HETATM    6  C   UNL     1     -10.157   8.049  70.051  1.00  0.00    -0.196 A  
HETATM    7  C   UNL     1     -10.463   8.101  71.411  1.00  0.00    -0.261 A  
HETATM    8  C   UNL     1      -9.437   7.913  72.343  1.00  0.00    -0.252 A  
BRANCH   7   9
HETATM    9  C   UNL     1     -11.849   8.384  71.877  1.00  0.00    -0.336 C  
HETATM   10  N   UNL     1     -12.522   7.353  72.484  1.00  0.00    -0.508 N  
HETATM   11  S   UNL     1     -12.641   9.848  71.725  1.00  0.00    -0.405 S  
HETATM   12  H1  UNL     1     -13.471   7.547  72.803  1.00  0.00     0.000 HD 
HETATM   13  H2  UNL     1     -12.093   6.435  72.609  1.00  0.00     0.000 HD 
ENDBRANCH   7   9
ENDBRANCH   2   3
TORSDOF 2
ENDMDL
MODEL      187
REMARK 921   NORMALIZED FREE ENERGY PREDICTED BY IDOCK:   -2.14 KCAL/MOL
REMARK 922        TOTAL FREE ENERGY PREDICTED BY IDOCK:   -2.50 KCAL/MOL
REMARK 923 INTER-LIGAND FREE ENERGY PREDICTED BY IDOCK:   -2.39 KCAL/MOL
REMARK 924 INTRA-LIGAND FREE ENERGY PREDICTED BY IDOCK:   -0.11 KCAL/MOL
REMARK 927      BINDING AFFINITY PREDICTED BY RF-SCORE:    0.00 PKD
ROOT
HETATM    1  C   UNL     1      -7.365  12.053  67.243  1.00  0.00    -0.151 C  
HETATM    2  C   UNL     1      -6.845  10.696  67.697  1.00  0.00    -0.074 C  
ENDROOT
BRANCH   2   3
HETATM    3  C   UNL     1      -7.641  10.177  68.866  1.00  0.00    -0.090 A  
HETATM    4  N   UNL     1      -6.985   9.390  69.749  1.00  0.00    -0.060 NA 
HETATM    5  C   UNL     1      -7.700   8.854  70.760  1.00  0.00    -0.115 A  
HETATM    6  C   UNL     1      -9.053   9.069  70.942  1.00  0.00    -0.309 A  
HETATM    7  C   UNL     1      -9.721   9.885  70.029  1.00  0.00    -0.274 A  
HETATM    8  C   UNL     1      -9.000  10.450  68.972  1.00  0.00    -0.184 A  
BRANCH   7   9
HETATM    9  C   UNL     1     -11.184  10.133  70.147  1.00  0.00    -0.310 C  
HETATM   10  N   UNL     1     -11.963   9.076  70.546  1.00  0.00    -0.475 N  
HETATM   11  S   UNL     1     -11.947  11.589  69.839  1.00  0.00    -0.350 S  
HETATM   12  H1  UNL     1     -12.966   9.246  70.626  1.00  0.00     0.000 HD 
HETATM   13  H2  UNL     1     -11.559   8.161  70.751  1.00  0.00     0.000 HD 
ENDBRANCH   7   9
ENDBRANCH   2   3
TORSDOF 2
ENDMDL
MODEL      188
REMARK 921   NORMALIZED FREE ENERGY PREDICTED BY IDOCK:   -2.12 KCAL/MOL
REMARK 922        TOTAL FREE ENERGY PREDICTED BY IDOCK:   -2.48 KCAL/MOL
REMARK 923 INTER-LIGAND FREE ENERGY PREDICTED BY IDOCK:   -2.37 KCAL/MOL
REMARK 924 INTRA-LIGAND FREE ENERGY PREDICTED BY IDOCK:   -0.12 KCAL/MOL
REMARK 927      BINDING AFFINITY PREDICTED BY RF-SCORE:    0.00 PKD
ROOT
HETATM    1  C   UNL     1      -7.820   7.956  74.323  1.00  0.00    -0.261 C  
HETATM    2  C   UNL     1      -9.208   7.736  73.740  1.00  0.00    -0.316 C  
ENDROOT
BRANCH   2   3
HETATM    3  C   UNL     1      -9.402   8.549  72.487  1.00  0.00    -0.246 A  
HETATM    4  N   UNL     1     -10.671   8.898  72.176  1.00  0.00    -0.321 NA 
HETATM    5  C   UNL     1     -10.872   9.561  71.018  1.00  0.00    -0.353 A  
HETATM    6  C   UNL     1      -9.859   9.902  70.143  1.00  0.00    -0.272 A  
HETATM    7  C   UNL     1      -8.552   9.543  70.473  1.00  0.00    -0.231 A  
HETATM    8  C   UNL     1      -8.320   8.854  71.668  1.00  0.00    -0.119 A  
BRANCH   7   9
HETATM    9  C   UNL     1      -7.416   9.852  69.561  1.00  0.00    -0.112 C  
HETATM   10  N   UNL     1      -6.152   9.625  70.045  1.00  0.00    -0.044 N  
HETATM   11  S   UNL     1      -7.559  10.446  68.005  1.00  0.00    -0.092 S  
HETATM   12  H1  UNL     1      -5.374   9.838  69.420  1.00  0.00     0.000 HD 
HETATM   13  H2  UNL     1      -5.997   9.262  70.986  1.00  0.00     0.000 HD 
ENDBRANCH   7   9
ENDBRANCH   2   3
TORSDOF 2
ENDMDL
MODEL      189
REMARK 921   NORMALIZED FREE ENERGY PREDICTED BY IDOCK:   -2.12 KCAL/MOL
REMARK 922        TOTAL FREE ENERGY PREDICTED BY IDOCK:   -2.48 KCAL/MOL
REMARK 923 INTER-LIGAND FREE ENERGY PREDICTED BY IDOCK:   -2.37 KCAL/MOL
REMARK 924 INTRA-LIGAND FREE ENERGY PREDICTED BY IDOCK:   -0.11 KCAL/MOL
REMARK 927      BINDING AFFINITY PREDICTED BY RF-SCORE:    0.00 PKD
ROOT
HETATM    1  C   UNL     1      -6.108   7.443  72.347  1.00  0.00    -0.040 C  
HETATM    2  C   UNL     1      -6.795   6.181  72.848  1.00  0.00    -0.075 C  
ENDROOT
BRANCH   2   3
HETATM    3  C   UNL     1      -8.293   6.331  72.810  1.00  0.00    -0.119 A  
HETATM    4  N   UNL     1      -8.969   5.990  73.930  1.00  0.00    -0.126 NA 
HETATM    5  C   UNL     1     -10.317   6.045  73.889  1.00  0.00    -0.284 A  
HETATM    6  C   UNL     1     -11.036   6.432  72.775  1.00  0.00    -0.289 A  
HETATM    7  C   UNL     1     -10.331   6.787  71.624  1.00  0.00    -0.215 A  
HETATM    8  C   UNL     1      -8.933   6.735  71.643  1.00  0.00    -0.136 A  
BRANCH   7   9
HETATM    9  C   UNL     1     -11.043   7.184  70.378  1.00  0.00    -0.280 C  
HETATM   10  N   UNL     1     -12.374   6.859  70.293  1.00  0.00    -0.598 N  
HETATM   11  S   UNL     1     -10.355   7.992  69.086  1.00  0.00    -0.211 S  
HETATM   12  H1  UNL     1     -12.861   7.131  69.439  1.00  0.00     0.000 HD 
HETATM   13  H2  UNL     1     -12.853   6.368  71.049  1.00  0.00     0.000 HD 
ENDBRANCH   7   9
ENDBRANCH   2   3
TORSDOF 2
ENDMDL
MODEL      190
REMARK 921   NORMALIZED FREE ENERGY PREDICTED BY IDOCK:   -2.11 KCAL/MOL
REMARK 922        TOTAL FREE ENERGY PREDICTED BY IDOCK:   -2.47 KCAL/MOL
REMARK 923 INTER-LIGAND FREE ENERGY PREDICTED BY IDOCK:   -2.36 KCAL/MOL
REMARK 924 INTRA-LIGAND FREE ENERGY PREDICTED BY IDOCK:   -0.11 KCAL/MOL
REMARK 927      BINDING AFFINITY PREDICTED BY RF-SCORE:    0.00 PKD
ROOT
HETATM    1  C   UNL     1      -9.275  10.169  67.629  1.00  0.00    -0.151 C  
HETATM    2  C   UNL     1      -8.254  10.217  68.757  1.00  0.00    -0.113 C  
ENDROOT
BRANCH   2   3
HETATM    3  C   UNL     1      -8.731   9.428  69.949  1.00  0.00    -0.197 A  
HETATM    4  N   UNL     1      -7.858   9.280  70.971  1.00  0.00    -0.301 NA 
HETATM    5  C   UNL     1      -8.240   8.514  72.014  1.00  0.00    -0.130 A  
HETATM    6  C   UNL     1      -9.465   7.881  72.093  1.00  0.00    -0.234 A  
HETATM    7  C   UNL     1     -10.361   8.042  71.037  1.00  0.00    -0.228 A  
HETATM    8  C   UNL     1      -9.987   8.831  69.945  1.00  0.00    -0.193 A  
BRANCH   7   9
HETATM    9  C   UNL     1     -11.687   7.363  71.043  1.00  0.00    -0.297 C  
HETATM   10  N   UNL     1     -11.749   6.116  70.472  1.00  0.00    -0.211 N  
HETATM   11  S   UNL     1     -13.094   7.994  71.690  1.00  0.00    -0.308 S  
HETATM   12  H1  UNL     1     -12.657   5.652  70.477  1.00  0.00     0.000 HD 
HETATM   13  H2  UNL     1     -10.925   5.675  70.062  1.00  0.00     0.000 HD 
ENDBRANCH   7   9
ENDBRANCH   2   3
TORSDOF 2
ENDMDL
MODEL      191
REMARK 921   NORMALIZED FREE ENERGY PREDICTED BY IDOCK:   -2.10 KCAL/MOL
REMARK 922        TOTAL FREE ENERGY PREDICTED BY IDOCK:   -2.46 KCAL/MOL
REMARK 923 INTER-LIGAND FREE ENERGY PREDICTED BY IDOCK:   -2.36 KCAL/MOL
REMARK 924 INTRA-LIGAND FREE ENERGY PREDICTED BY IDOCK:   -0.10 KCAL/MOL
REMARK 927      BINDING AFFINITY PREDICTED BY RF-SCORE:    0.00 PKD
ROOT
HETATM    1  C   UNL     1      -9.369  10.353  68.796  1.00  0.00    -0.175 C  
HETATM    2  C   UNL     1      -8.869   9.671  70.061  1.00  0.00    -0.259 C  
ENDROOT
BRANCH   2   3
HETATM    3  C   UNL     1      -9.793   8.556  70.473  1.00  0.00    -0.180 A  
HETATM    4  N   UNL     1     -11.005   8.913  70.954  1.00  0.00    -0.250 NA 
HETATM    5  C   UNL     1     -11.817   7.931  71.399  1.00  0.00    -0.299 A  
HETATM    6  C   UNL     1     -11.480   6.591  71.384  1.00  0.00    -0.360 A  
HETATM    7  C   UNL     1     -10.230   6.230  70.882  1.00  0.00    -0.236 A  
HETATM    8  C   UNL     1      -9.371   7.231  70.417  1.00  0.00    -0.158 A  
BRANCH   7   9
HETATM    9  C   UNL     1      -9.790   4.807  70.866  1.00  0.00    -0.209 C  
HETATM   10  N   UNL     1     -10.230   4.009  71.892  1.00  0.00    -0.137 N  
HETATM   11  S   UNL     1      -8.813   4.110  69.702  1.00  0.00    -0.093 S  
HETATM   12  H1  UNL     1      -9.928   3.035  71.881  1.00  0.00     0.000 HD 
HETATM   13  H2  UNL     1     -10.830   4.374  72.633  1.00  0.00     0.000 HD 
ENDBRANCH   7   9
ENDBRANCH   2   3
TORSDOF 2
ENDMDL
MODEL      192
REMARK 921   NORMALIZED FREE ENERGY PREDICTED BY IDOCK:   -2.09 KCAL/MOL
REMARK 922        TOTAL FREE ENERGY PREDICTED BY IDOCK:   -2.45 KCAL/MOL
REMARK 923 INTER-LIGAND FREE ENERGY PREDICTED BY IDOCK:   -2.34 KCAL/MOL
REMARK 924 INTRA-LIGAND FREE ENERGY PREDICTED BY IDOCK:   -0.11 KCAL/MOL
REMARK 927      BINDING AFFINITY PREDICTED BY RF-SCORE:    0.00 PKD
ROOT
HETATM    1  C   UNL     1     -10.393   4.612  65.641  1.00  0.00    -0.266 C  
HETATM    2  C   UNL     1      -9.886   4.794  67.064  1.00  0.00    -0.224 C  
ENDROOT
BRANCH   2   3
HETATM    3  C   UNL     1      -9.323   6.177  67.263  1.00  0.00    -0.114 A  
HETATM    4  N   UNL     1      -8.462   6.344  68.292  1.00  0.00    -0.116 NA 
HETATM    5  C   UNL     1      -8.007   7.592  68.531  1.00  0.00    -0.123 A  
HETATM    6  C   UNL     1      -8.368   8.697  67.785  1.00  0.00    -0.118 A  
HETATM    7  C   UNL     1      -9.254   8.516  66.723  1.00  0.00    -0.215 A  
HETATM    8  C   UNL     1      -9.739   7.232  66.456  1.00  0.00    -0.207 A  
BRANCH   7   9
HETATM    9  C   UNL     1      -9.709   9.668  65.896  1.00  0.00    -0.275 C  
HETATM   10  N   UNL     1      -9.519   9.573  64.540  1.00  0.00    -0.431 N  
HETATM   11  S   UNL     1     -10.430  11.057  66.486  1.00  0.00    -0.253 S  
HETATM   12  H1  UNL     1      -9.831  10.363  63.975  1.00  0.00     0.000 HD 
HETATM   13  H2  UNL     1      -9.086   8.751  64.118  1.00  0.00     0.000 HD 
ENDBRANCH   7   9
ENDBRANCH   2   3
TORSDOF 2
ENDMDL
MODEL      193
REMARK 921   NORMALIZED FREE ENERGY PREDICTED BY IDOCK:   -2.07 KCAL/MOL
REMARK 922        TOTAL FREE ENERGY PREDICTED BY IDOCK:   -2.43 KCAL/MOL
REMARK 923 INTER-LIGAND FREE ENERGY PREDICTED BY IDOCK:   -2.32 KCAL/MOL
REMARK 924 INTRA-LIGAND FREE ENERGY PREDICTED BY IDOCK:   -0.11 KCAL/MOL
REMARK 927      BINDING AFFINITY PREDICTED BY RF-SCORE:    0.00 PKD
ROOT
HETATM    1  C   UNL     1      -7.308  11.317  67.772  1.00  0.00    -0.094 C  
HETATM    2  C   UNL     1      -6.921  10.700  69.108  1.00  0.00    -0.085 C  
ENDROOT
BRANCH   2   3
HETATM    3  C   UNL     1      -8.122  10.106  69.797  1.00  0.00    -0.154 A  
HETATM    4  N   UNL     1      -9.336  10.451  69.312  1.00  0.00    -0.200 NA 
HETATM    5  C   UNL     1     -10.425   9.990  69.962  1.00  0.00    -0.287 A  
HETATM    6  C   UNL     1     -10.365   9.187  71.085  1.00  0.00    -0.387 A  
HETATM    7  C   UNL     1      -9.109   8.832  71.577  1.00  0.00    -0.322 A  
HETATM    8  C   UNL     1      -7.966   9.300  70.920  1.00  0.00    -0.161 A  
BRANCH   7   9
HETATM    9  C   UNL     1      -8.971   7.995  72.801  1.00  0.00    -0.228 C  
HETATM   10  N   UNL     1      -7.892   8.251  73.610  1.00  0.00    -0.172 N  
HETATM   11  S   UNL     1     -10.021   6.779  73.265  1.00  0.00    -0.229 S  
HETATM   12  H1  UNL     1      -7.799   7.678  74.448  1.00  0.00     0.000 HD 
HETATM   13  H2  UNL     1      -7.216   8.981  73.384  1.00  0.00     0.000 HD 
ENDBRANCH   7   9
ENDBRANCH   2   3
TORSDOF 2
ENDMDL
MODEL      194
REMARK 921   NORMALIZED FREE ENERGY PREDICTED BY IDOCK:   -2.07 KCAL/MOL
REMARK 922        TOTAL FREE ENERGY PREDICTED BY IDOCK:   -2.43 KCAL/MOL
REMARK 923 INTER-LIGAND FREE ENERGY PREDICTED BY IDOCK:   -2.33 KCAL/MOL
REMARK 924 INTRA-LIGAND FREE ENERGY PREDICTED BY IDOCK:   -0.09 KCAL/MOL
REMARK 927      BINDING AFFINITY PREDICTED BY RF-SCORE:    0.00 PKD
ROOT
HETATM    1  C   UNL     1      -8.409   8.508  68.679  1.00  0.00    -0.123 C  
HETATM    2  C   UNL     1      -7.577   7.852  69.771  1.00  0.00    -0.090 C  
ENDROOT
BRANCH   2   3
HETATM    3  C   UNL     1      -8.385   7.672  71.029  1.00  0.00    -0.112 A  
HETATM    4  N   UNL     1      -8.242   8.616  71.987  1.00  0.00    -0.313 NA 
HETATM    5  C   UNL     1      -8.900   8.433  73.150  1.00  0.00    -0.147 A  
HETATM    6  C   UNL     1      -9.708   7.342  73.412  1.00  0.00    -0.319 A  
HETATM    7  C   UNL     1      -9.854   6.375  72.418  1.00  0.00    -0.176 A  
HETATM    8  C   UNL     1      -9.180   6.544  71.204  1.00  0.00    -0.156 A  
BRANCH   7   9
HETATM    9  C   UNL     1     -10.684   5.160  72.643  1.00  0.00    -0.237 C  
HETATM   10  N   UNL     1     -12.015   5.359  72.917  1.00  0.00    -0.498 N  
HETATM   11  S   UNL     1     -10.130   3.584  72.586  1.00  0.00    -0.165 S  
HETATM   12  H1  UNL     1     -12.583   4.527  73.072  1.00  0.00     0.000 HD 
HETATM   13  H2  UNL     1     -12.416   6.297  72.965  1.00  0.00     0.000 HD 
ENDBRANCH   7   9
ENDBRANCH   2   3
TORSDOF 2
ENDMDL
MODEL      195
REMARK 921   NORMALIZED FREE ENERGY PREDICTED BY IDOCK:   -2.07 KCAL/MOL
REMARK 922        TOTAL FREE ENERGY PREDICTED BY IDOCK:   -2.43 KCAL/MOL
REMARK 923 INTER-LIGAND FREE ENERGY PREDICTED BY IDOCK:   -2.32 KCAL/MOL
REMARK 924 INTRA-LIGAND FREE ENERGY PREDICTED BY IDOCK:   -0.11 KCAL/MOL
REMARK 927      BINDING AFFINITY PREDICTED BY RF-SCORE:    0.00 PKD
ROOT
HETATM    1  C   UNL     1      -9.383   7.469  72.827  1.00  0.00    -0.217 C  
HETATM    2  C   UNL     1     -10.194   6.658  71.827  1.00  0.00    -0.206 C  
ENDROOT
BRANCH   2   3
HETATM    3  C   UNL     1     -10.089   7.245  70.444  1.00  0.00    -0.192 A  
HETATM    4  N   UNL     1     -10.322   8.572  70.325  1.00  0.00    -0.200 NA 
HETATM    5  C   UNL     1     -10.306   9.101  69.084  1.00  0.00    -0.212 A  
HETATM    6  C   UNL     1     -10.062   8.367  67.939  1.00  0.00    -0.254 A  
HETATM    7  C   UNL     1      -9.818   7.000  68.071  1.00  0.00    -0.156 A  
HETATM    8  C   UNL     1      -9.831   6.429  69.347  1.00  0.00    -0.170 A  
BRANCH   7   9
HETATM    9  C   UNL     1      -9.578   6.143  66.876  1.00  0.00    -0.142 C  
HETATM   10  N   UNL     1      -9.351   6.788  65.686  1.00  0.00    -0.366 N  
HETATM   11  S   UNL     1      -9.560   4.471  66.872  1.00  0.00    -0.205 S  
HETATM   12  H1  UNL     1      -9.187   6.201  64.868  1.00  0.00     0.000 HD 
HETATM   13  H2  UNL     1      -9.347   7.806  65.622  1.00  0.00     0.000 HD 
ENDBRANCH   7   9
ENDBRANCH   2   3
TORSDOF 2
ENDMDL
MODEL      196
REMARK 921   NORMALIZED FREE ENERGY PREDICTED BY IDOCK:   -2.04 KCAL/MOL
REMARK 922        TOTAL FREE ENERGY PREDICTED BY IDOCK:   -2.40 KCAL/MOL
REMARK 923 INTER-LIGAND FREE ENERGY PREDICTED BY IDOCK:   -2.30 KCAL/MOL
REMARK 924 INTRA-LIGAND FREE ENERGY PREDICTED BY IDOCK:   -0.09 KCAL/MOL
REMARK 927      BINDING AFFINITY PREDICTED BY RF-SCORE:    0.00 PKD
ROOT
HETATM    1  C   UNL     1     -10.791   4.205  73.821  1.00  0.00    -0.341 C  
HETATM    2  C   UNL     1     -10.642   4.615  72.363  1.00  0.00    -0.225 C  
ENDROOT
BRANCH   2   3
HETATM    3  C   UNL     1     -10.343   6.086  72.245  1.00  0.00    -0.192 A  
HETATM    4  N   UNL     1     -11.385   6.900  71.963  1.00  0.00    -0.256 NA 
HETATM    5  C   UNL     1     -11.124   8.211  71.778  1.00  0.00    -0.270 A  
HETATM    6  C   UNL     1      -9.860   8.761  71.866  1.00  0.00    -0.395 A  
HETATM    7  C   UNL     1      -8.791   7.917  72.162  1.00  0.00    -0.196 A  
HETATM    8  C   UNL     1      -9.037   6.554  72.356  1.00  0.00    -0.133 A  
BRANCH   7   9
HETATM    9  C   UNL     1      -7.398   8.438  72.242  1.00  0.00    -0.093 C  
HETATM   10  N   UNL     1      -6.909   9.074  71.128  1.00  0.00    -0.088 N  
HETATM   11  S   UNL     1      -6.393   8.314  73.572  1.00  0.00    -0.116 S  
HETATM   12  H1  UNL     1      -5.955   9.431  71.183  1.00  0.00     0.000 HD 
HETATM   13  H2  UNL     1      -7.473   9.185  70.285  1.00  0.00     0.000 HD 
ENDBRANCH   7   9
ENDBRANCH   2   3
TORSDOF 2
ENDMDL
MODEL      197
REMARK 921   NORMALIZED FREE ENERGY PREDICTED BY IDOCK:   -2.04 KCAL/MOL
REMARK 922        TOTAL FREE ENERGY PREDICTED BY IDOCK:   -2.39 KCAL/MOL
REMARK 923 INTER-LIGAND FREE ENERGY PREDICTED BY IDOCK:   -2.28 KCAL/MOL
REMARK 924 INTRA-LIGAND FREE ENERGY PREDICTED BY IDOCK:   -0.11 KCAL/MOL
REMARK 927      BINDING AFFINITY PREDICTED BY RF-SCORE:    0.00 PKD
ROOT
HETATM    1  C   UNL     1      -6.071   5.322  66.583  1.00  0.00    -0.030 C  
HETATM    2  C   UNL     1      -6.793   5.649  67.883  1.00  0.00    -0.064 C  
ENDROOT
BRANCH   2   3
HETATM    3  C   UNL     1      -8.148   6.248  67.611  1.00  0.00    -0.117 A  
HETATM    4  N   UNL     1      -9.222   5.534  68.017  1.00  0.00    -0.108 NA 
HETATM    5  C   UNL     1     -10.445   6.019  67.715  1.00  0.00    -0.239 A  
HETATM    6  C   UNL     1     -10.655   7.196  67.024  1.00  0.00    -0.413 A  
HETATM    7  C   UNL     1      -9.542   7.928  66.612  1.00  0.00    -0.293 A  
HETATM    8  C   UNL     1      -8.264   7.445  66.913  1.00  0.00    -0.121 A  
BRANCH   7   9
HETATM    9  C   UNL     1      -9.695   9.190  65.837  1.00  0.00    -0.266 C  
HETATM   10  N   UNL     1      -9.221   9.189  64.548  1.00  0.00    -0.422 N  
HETATM   11  S   UNL     1     -10.398  10.597  66.405  1.00  0.00    -0.210 S  
HETATM   12  H1  UNL     1      -9.326  10.053  64.018  1.00  0.00     0.000 HD 
HETATM   13  H2  UNL     1      -8.783   8.361  64.141  1.00  0.00     0.000 HD 
ENDBRANCH   7   9
ENDBRANCH   2   3
TORSDOF 2
ENDMDL
MODEL      198
REMARK 921   NORMALIZED FREE ENERGY PREDICTED BY IDOCK:   -1.95 KCAL/MOL
REMARK 922        TOTAL FREE ENERGY PREDICTED BY IDOCK:   -2.30 KCAL/MOL
REMARK 923 INTER-LIGAND FREE ENERGY PREDICTED BY IDOCK:   -2.18 KCAL/MOL
REMARK 924 INTRA-LIGAND FREE ENERGY PREDICTED BY IDOCK:   -0.11 KCAL/MOL
REMARK 927      BINDING AFFINITY PREDICTED BY RF-SCORE:    0.00 PKD
ROOT
HETATM    1  C   UNL     1      -7.313  11.502  68.023  1.00  0.00    -0.091 C  
HETATM    2  C   UNL     1      -6.152  12.436  68.331  1.00  0.00    -0.056 C  
ENDROOT
BRANCH   2   3
HETATM    3  C   UNL     1      -6.570  13.877  68.201  1.00  0.00    -0.127 A  
HETATM    4  N   UNL     1      -5.637  14.745  67.749  1.00  0.00    -0.297 NA 
HETATM    5  C   UNL     1      -5.970  16.052  67.697  1.00  0.00    -0.152 A  
HETATM    6  C   UNL     1      -7.204  16.544  68.076  1.00  0.00    -0.152 A  
HETATM    7  C   UNL     1      -8.163  15.642  68.537  1.00  0.00    -0.153 A  
HETATM    8  C   UNL     1      -7.840  14.283  68.600  1.00  0.00    -0.140 A  
BRANCH   7   9
HETATM    9  C   UNL     1      -9.503  16.109  68.989  1.00  0.00    -0.246 C  
HETATM   10  N   UNL     1     -10.134  15.351  69.944  1.00  0.00    -0.395 N  
HETATM   11  S   UNL     1     -10.291  17.475  68.434  1.00  0.00    -0.375 S  
HETATM   12  H1  UNL     1     -11.052  15.671  70.253  1.00  0.00     0.000 HD 
HETATM   13  H2  UNL     1      -9.706  14.507  70.325  1.00  0.00     0.000 HD 
ENDBRANCH   7   9
ENDBRANCH   2   3
TORSDOF 2
ENDMDL
MODEL      199
REMARK 921   NORMALIZED FREE ENERGY PREDICTED BY IDOCK:   -1.95 KCAL/MOL
REMARK 922        TOTAL FREE ENERGY PREDICTED BY IDOCK:   -2.29 KCAL/MOL
REMARK 923 INTER-LIGAND FREE ENERGY PREDICTED BY IDOCK:   -2.18 KCAL/MOL
REMARK 924 INTRA-LIGAND FREE ENERGY PREDICTED BY IDOCK:   -0.11 KCAL/MOL
REMARK 927      BINDING AFFINITY PREDICTED BY RF-SCORE:    0.00 PKD
ROOT
HETATM    1  C   UNL     1     -10.704  15.468  66.055  1.00  0.00    -0.331 C  
HETATM    2  C   UNL     1     -10.294  14.569  67.213  1.00  0.00    -0.260 C  
ENDROOT
BRANCH   2   3
HETATM    3  C   UNL     1      -9.795  13.239  66.712  1.00  0.00    -0.264 A  
HETATM    4  N   UNL     1     -10.132  12.897  65.448  1.00  0.00    -0.276 NA 
HETATM    5  C   UNL     1      -9.758  11.678  65.008  1.00  0.00    -0.211 A  
HETATM    6  C   UNL     1      -9.052  10.769  65.773  1.00  0.00    -0.208 A  
HETATM    7  C   UNL     1      -8.704  11.131  67.074  1.00  0.00    -0.148 A  
HETATM    8  C   UNL     1      -9.082  12.390  67.552  1.00  0.00    -0.185 A  
BRANCH   7   9
HETATM    9  C   UNL     1      -7.970  10.189  67.964  1.00  0.00    -0.101 C  
HETATM   10  N   UNL     1      -8.199   8.849  67.773  1.00  0.00    -0.110 N  
HETATM   11  S   UNL     1      -6.893  10.631  69.164  1.00  0.00    -0.090 S  
HETATM   12  H1  UNL     1      -7.696   8.204  68.383  1.00  0.00     0.000 HD 
HETATM   13  H2  UNL     1      -8.844   8.514  67.056  1.00  0.00     0.000 HD 
ENDBRANCH   7   9
ENDBRANCH   2   3
TORSDOF 2
ENDMDL
MODEL      200
REMARK 921   NORMALIZED FREE ENERGY PREDICTED BY IDOCK:   -1.95 KCAL/MOL
REMARK 922        TOTAL FREE ENERGY PREDICTED BY IDOCK:   -2.29 KCAL/MOL
REMARK 923 INTER-LIGAND FREE ENERGY PREDICTED BY IDOCK:   -2.17 KCAL/MOL
REMARK 924 INTRA-LIGAND FREE ENERGY PREDICTED BY IDOCK:   -0.12 KCAL/MOL
REMARK 927      BINDING AFFINITY PREDICTED BY RF-SCORE:    0.00 PKD
ROOT
HETATM    1  C   UNL     1     -12.280   5.957  72.368  1.00  0.00    -0.056 C  
HETATM    2  C   UNL     1     -12.403   7.021  71.288  1.00  0.00    -0.426 C  
ENDROOT
BRANCH   2   3
HETATM    3  C   UNL     1     -11.067   7.654  70.999  1.00  0.00    -0.257 A  
HETATM    4  N   UNL     1     -10.845   8.057  69.727  1.00  0.00    -0.229 NA 
HETATM    5  C   UNL     1      -9.627   8.557  69.433  1.00  0.00    -0.170 A  
HETATM    6  C   UNL     1      -8.605   8.681  70.354  1.00  0.00    -0.160 A  
HETATM    7  C   UNL     1      -8.843   8.268  71.665  1.00  0.00    -0.224 A  
HETATM    8  C   UNL     1     -10.099   7.745  71.993  1.00  0.00    -0.244 A  
BRANCH   7   9
HETATM    9  C   UNL     1      -7.777   8.345  72.702  1.00  0.00    -0.080 C  
HETATM   10  N   UNL     1      -8.170   8.197  74.009  1.00  0.00    -0.253 N  
HETATM   11  S   UNL     1      -6.151   8.592  72.401  1.00  0.00    -0.072 S  
HETATM   12  H1  UNL     1      -7.439   8.250  74.718  1.00  0.00     0.000 HD 
HETATM   13  H2  UNL     1      -9.147   8.041  74.258  1.00  0.00     0.000 HD 
ENDBRANCH   7   9
ENDBRANCH   2   3
TORSDOF 2
ENDMDL
MODEL      201
REMARK 921   NORMALIZED FREE ENERGY PREDICTED BY IDOCK:   -1.95 KCAL/MOL
REMARK 922        TOTAL FREE ENERGY PREDICTED BY IDOCK:   -2.29 KCAL/MOL
REMARK 923 INTER-LIGAND FREE ENERGY PREDICTED BY IDOCK:   -2.18 KCAL/MOL
REMARK 924 INTRA-LIGAND FREE ENERGY PREDICTED BY IDOCK:   -0.10 KCAL/MOL
REMARK 927      BINDING AFFINITY PREDICTED BY RF-SCORE:    0.00 PKD
ROOT
HETATM    1  C   UNL     1     -10.864  10.905  67.606  1.00  0.00    -0.317 C  
HETATM    2  C   UNL     1     -10.824  12.056  68.601  1.00  0.00    -0.273 C  
ENDROOT
BRANCH   2   3
HETATM    3  C   UNL     1      -9.704  13.010  68.276  1.00  0.00    -0.221 A  
HETATM    4  N   UNL     1      -8.550  12.467  67.828  1.00  0.00    -0.162 NA 
HETATM    5  C   UNL     1      -7.512  13.299  67.604  1.00  0.00    -0.171 A  
HETATM    6  C   UNL     1      -7.567  14.665  67.802  1.00  0.00    -0.173 A  
HETATM    7  C   UNL     1      -8.763  15.219  68.259  1.00  0.00    -0.165 A  
HETATM    8  C   UNL     1      -9.852  14.375  68.500  1.00  0.00    -0.233 A  
BRANCH   7   9
HETATM    9  C   UNL     1      -8.882  16.680  68.523  1.00  0.00    -0.235 C  
HETATM   10  N   UNL     1     -10.071  17.276  68.184  1.00  0.00    -0.306 N  
HETATM   11  S   UNL     1      -7.693  17.642  69.197  1.00  0.00     0.073 S  
HETATM   12  H1  UNL     1     -10.153  18.277  68.364  1.00  0.00     0.000 HD 
HETATM   13  H2  UNL     1     -10.838  16.744  67.770  1.00  0.00     0.000 HD 
ENDBRANCH   7   9
ENDBRANCH   2   3
TORSDOF 2
ENDMDL
MODEL      202
REMARK 921   NORMALIZED FREE ENERGY PREDICTED BY IDOCK:   -1.94 KCAL/MOL
REMARK 922        TOTAL FREE ENERGY PREDICTED BY IDOCK:   -2.29 KCAL/MOL
REMARK 923 INTER-LIGAND FREE ENERGY PREDICTED BY IDOCK:   -2.19 KCAL/MOL
REMARK 924 INTRA-LIGAND FREE ENERGY PREDICTED BY IDOCK:   -0.10 KCAL/MOL
REMARK 927      BINDING AFFINITY PREDICTED BY RF-SCORE:    0.00 PKD
ROOT
HETATM    1  C   UNL     1      -7.336   7.411  69.664  1.00  0.00    -0.091 C  
HETATM    2  C   UNL     1      -8.819   7.090  69.778  1.00  0.00    -0.142 C  
ENDROOT
BRANCH   2   3
HETATM    3  C   UNL     1      -9.164   5.851  68.994  1.00  0.00    -0.124 A  
HETATM    4  N   UNL     1      -9.140   4.677  69.665  1.00  0.00    -0.101 NA 
HETATM    5  C   UNL     1      -9.373   3.549  68.962  1.00  0.00    -0.170 A  
HETATM    6  C   UNL     1      -9.635   3.530  67.606  1.00  0.00    -0.180 A  
HETATM    7  C   UNL     1      -9.662   4.745  66.921  1.00  0.00    -0.204 A  
HETATM    8  C   UNL     1      -9.423   5.927  67.629  1.00  0.00    -0.110 A  
BRANCH   7   9
HETATM    9  C   UNL     1      -9.908   4.795  65.453  1.00  0.00    -0.107 C  
HETATM   10  N   UNL     1     -11.174   4.481  65.025  1.00  0.00    -0.946 N  
HETATM   11  S   UNL     1      -8.774   5.204  64.295  1.00  0.00    -0.012 S  
HETATM   12  H1  UNL     1     -11.342   4.515  64.020  1.00  0.00     0.000 HD 
HETATM   13  H2  UNL     1     -11.912   4.225  65.682  1.00  0.00     0.000 HD 
ENDBRANCH   7   9
ENDBRANCH   2   3
TORSDOF 2
ENDMDL
MODEL      203
REMARK 921   NORMALIZED FREE ENERGY PREDICTED BY IDOCK:   -1.93 KCAL/MOL
REMARK 922        TOTAL FREE ENERGY PREDICTED BY IDOCK:   -2.27 KCAL/MOL
REMARK 923 INTER-LIGAND FREE ENERGY PREDICTED BY IDOCK:   -2.17 KCAL/MOL
REMARK 924 INTRA-LIGAND FREE ENERGY PREDICTED BY IDOCK:   -0.10 KCAL/MOL
REMARK 927      BINDING AFFINITY PREDICTED BY RF-SCORE:    0.00 PKD
ROOT
HETATM    1  C   UNL     1      -8.244   9.714  66.866  1.00  0.00    -0.113 C  
HETATM    2  C   UNL     1      -9.004   8.945  65.795  1.00  0.00    -0.249 C  
ENDROOT
BRANCH   2   3
HETATM    3  C   UNL     1      -9.533   7.644  66.339  1.00  0.00    -0.161 A  
HETATM    4  N   UNL     1     -10.525   7.724  67.255  1.00  0.00    -0.302 NA 
HETATM    5  C   UNL     1     -10.960   6.573  67.809  1.00  0.00    -0.316 A  
HETATM    6  C   UNL     1     -10.452   5.328  67.490  1.00  0.00    -0.193 A  
HETATM    7  C   UNL     1      -9.433   5.253  66.541  1.00  0.00    -0.155 A  
HETATM    8  C   UNL     1      -8.965   6.434  65.954  1.00  0.00    -0.111 A  
BRANCH   7   9
HETATM    9  C   UNL     1      -8.820   3.947  66.172  1.00  0.00    -0.124 C  
HETATM   10  N   UNL     1      -9.677   2.942  65.799  1.00  0.00    -0.376 N  
HETATM   11  S   UNL     1      -7.182   3.613  66.173  1.00  0.00    -0.069 S  
HETATM   12  H1  UNL     1      -9.257   2.048  65.547  1.00  0.00     0.000 HD 
HETATM   13  H2  UNL     1     -10.688   3.083  65.776  1.00  0.00     0.000 HD 
ENDBRANCH   7   9
ENDBRANCH   2   3
TORSDOF 2
ENDMDL
MODEL      204
REMARK 921   NORMALIZED FREE ENERGY PREDICTED BY IDOCK:   -1.93 KCAL/MOL
REMARK 922        TOTAL FREE ENERGY PREDICTED BY IDOCK:   -2.27 KCAL/MOL
REMARK 923 INTER-LIGAND FREE ENERGY PREDICTED BY IDOCK:   -2.16 KCAL/MOL
REMARK 924 INTRA-LIGAND FREE ENERGY PREDICTED BY IDOCK:   -0.10 KCAL/MOL
REMARK 927      BINDING AFFINITY PREDICTED BY RF-SCORE:    0.00 PKD
ROOT
HETATM    1  C   UNL     1      -9.806   7.428  71.334  1.00  0.00    -0.194 C  
HETATM    2  C   UNL     1      -9.081   8.690  71.781  1.00  0.00    -0.317 C  
ENDROOT
BRANCH   2   3
HETATM    3  C   UNL     1      -8.432   9.382  70.611  1.00  0.00    -0.193 A  
HETATM    4  N   UNL     1      -7.147   9.773  70.770  1.00  0.00    -0.302 NA 
HETATM    5  C   UNL     1      -6.573  10.461  69.761  1.00  0.00    -0.103 A  
HETATM    6  C   UNL     1      -7.222  10.780  68.584  1.00  0.00    -0.089 A  
HETATM    7  C   UNL     1      -8.545  10.369  68.425  1.00  0.00    -0.128 A  
HETATM    8  C   UNL     1      -9.161   9.656  69.459  1.00  0.00    -0.214 A  
BRANCH   7   9
HETATM    9  C   UNL     1      -9.313  10.706  67.195  1.00  0.00    -0.155 C  
HETATM   10  N   UNL     1      -9.925   9.666  66.541  1.00  0.00    -0.230 N  
HETATM   11  S   UNL     1      -9.490  12.240  66.554  1.00  0.00    -0.237 S  
HETATM   12  H1  UNL     1     -10.451   9.897  65.698  1.00  0.00     0.000 HD 
HETATM   13  H2  UNL     1      -9.857   8.706  66.882  1.00  0.00     0.000 HD 
ENDBRANCH   7   9
ENDBRANCH   2   3
TORSDOF 2
ENDMDL
MODEL      205
REMARK 921   NORMALIZED FREE ENERGY PREDICTED BY IDOCK:   -1.92 KCAL/MOL
REMARK 922        TOTAL FREE ENERGY PREDICTED BY IDOCK:   -2.25 KCAL/MOL
REMARK 923 INTER-LIGAND FREE ENERGY PREDICTED BY IDOCK:   -2.14 KCAL/MOL
REMARK 924 INTRA-LIGAND FREE ENERGY PREDICTED BY IDOCK:   -0.11 KCAL/MOL
REMARK 927      BINDING AFFINITY PREDICTED BY RF-SCORE:    0.00 PKD
ROOT
HETATM    1  C   UNL     1      -8.462   5.438  64.153  1.00  0.00    -0.085 C  
HETATM    2  C   UNL     1      -7.898   6.610  64.943  1.00  0.00    -0.115 C  
ENDROOT
BRANCH   2   3
HETATM    3  C   UNL     1      -8.867   7.063  66.003  1.00  0.00    -0.135 A  
HETATM    4  N   UNL     1      -9.389   6.105  66.802  1.00  0.00    -0.136 NA 
HETATM    5  C   UNL     1     -10.316   6.481  67.708  1.00  0.00    -0.192 A  
HETATM    6  C   UNL     1     -10.754   7.782  67.862  1.00  0.00    -0.165 A  
HETATM    7  C   UNL     1     -10.208   8.765  67.038  1.00  0.00    -0.351 A  
HETATM    8  C   UNL     1      -9.247   8.398  66.091  1.00  0.00    -0.263 A  
BRANCH   7   9
HETATM    9  C   UNL     1     -10.657  10.182  67.130  1.00  0.00    -0.246 C  
HETATM   10  N   UNL     1     -10.728  10.889  65.955  1.00  0.00    -0.189 N  
HETATM   11  S   UNL     1     -11.082  10.973  68.540  1.00  0.00    -0.268 S  
HETATM   12  H1  UNL     1     -11.036  11.859  66.019  1.00  0.00     0.000 HD 
HETATM   13  H2  UNL     1     -10.484  10.463  65.060  1.00  0.00     0.000 HD 
ENDBRANCH   7   9
ENDBRANCH   2   3
TORSDOF 2
ENDMDL
MODEL      206
REMARK 921   NORMALIZED FREE ENERGY PREDICTED BY IDOCK:   -1.90 KCAL/MOL
REMARK 922        TOTAL FREE ENERGY PREDICTED BY IDOCK:   -2.24 KCAL/MOL
REMARK 923 INTER-LIGAND FREE ENERGY PREDICTED BY IDOCK:   -2.13 KCAL/MOL
REMARK 924 INTRA-LIGAND FREE ENERGY PREDICTED BY IDOCK:   -0.11 KCAL/MOL
REMARK 927      BINDING AFFINITY PREDICTED BY RF-SCORE:    0.00 PKD
ROOT
HETATM    1  C   UNL     1      -6.570   7.971  65.924  1.00  0.00    -0.046 C  
HETATM    2  C   UNL     1      -6.620   6.469  66.164  1.00  0.00    -0.048 C  
ENDROOT
BRANCH   2   3
HETATM    3  C   UNL     1      -8.003   6.035  66.574  1.00  0.00    -0.105 A  
HETATM    4  N   UNL     1      -8.752   5.414  65.635  1.00  0.00    -0.148 NA 
HETATM    5  C   UNL     1     -10.019   5.086  65.961  1.00  0.00    -0.199 A  
HETATM    6  C   UNL     1     -10.586   5.345  67.194  1.00  0.00    -0.274 A  
HETATM    7  C   UNL     1      -9.806   5.981  68.159  1.00  0.00    -0.148 A  
HETATM    8  C   UNL     1      -8.490   6.332  67.843  1.00  0.00    -0.117 A  
BRANCH   7   9
HETATM    9  C   UNL     1     -10.364   6.318  69.499  1.00  0.00    -0.212 C  
HETATM   10  N   UNL     1     -11.707   6.595  69.560  1.00  0.00    -0.657 N  
HETATM   11  S   UNL     1      -9.490   6.379  70.923  1.00  0.00    -0.175 S  
HETATM   12  H1  UNL     1     -12.088   6.826  70.478  1.00  0.00     0.000 HD 
HETATM   13  H2  UNL     1     -12.296   6.573  68.727  1.00  0.00     0.000 HD 
ENDBRANCH   7   9
ENDBRANCH   2   3
TORSDOF 2
ENDMDL
MODEL      207
REMARK 921   NORMALIZED FREE ENERGY PREDICTED BY IDOCK:   -1.89 KCAL/MOL
REMARK 922        TOTAL FREE ENERGY PREDICTED BY IDOCK:   -2.23 KCAL/MOL
REMARK 923 INTER-LIGAND FREE ENERGY PREDICTED BY IDOCK:   -2.12 KCAL/MOL
REMARK 924 INTRA-LIGAND FREE ENERGY PREDICTED BY IDOCK:   -0.11 KCAL/MOL
REMARK 927      BINDING AFFINITY PREDICTED BY RF-SCORE:    0.00 PKD
ROOT
HETATM    1  C   UNL     1      -7.318   8.620  62.629  1.00  0.00    -0.099 C  
HETATM    2  C   UNL     1      -7.736   9.994  63.133  1.00  0.00    -0.145 C  
ENDROOT
BRANCH   2   3
HETATM    3  C   UNL     1      -8.675   9.876  64.305  1.00  0.00    -0.209 A  
HETATM    4  N   UNL     1      -9.588  10.861  64.458  1.00  0.00    -0.244 NA 
HETATM    5  C   UNL     1     -10.387  10.811  65.544  1.00  0.00    -0.241 A  
HETATM    6  C   UNL     1     -10.324   9.814  66.498  1.00  0.00    -0.262 A  
HETATM    7  C   UNL     1      -9.383   8.799  66.332  1.00  0.00    -0.264 A  
HETATM    8  C   UNL     1      -8.543   8.830  65.214  1.00  0.00    -0.212 A  
BRANCH   7   9
HETATM    9  C   UNL     1      -9.240   7.710  67.337  1.00  0.00    -0.132 C  
HETATM   10  N   UNL     1     -10.331   6.899  67.534  1.00  0.00    -0.191 N  
HETATM   11  S   UNL     1      -7.866   7.396  68.236  1.00  0.00    -0.124 S  
HETATM   12  H1  UNL     1     -10.233   6.154  68.222  1.00  0.00     0.000 HD 
HETATM   13  H2  UNL     1     -11.199   7.037  67.015  1.00  0.00     0.000 HD 
ENDBRANCH   7   9
ENDBRANCH   2   3
TORSDOF 2
ENDMDL
MODEL      208
REMARK 921   NORMALIZED FREE ENERGY PREDICTED BY IDOCK:   -1.87 KCAL/MOL
REMARK 922        TOTAL FREE ENERGY PREDICTED BY IDOCK:   -2.21 KCAL/MOL
REMARK 923 INTER-LIGAND FREE ENERGY PREDICTED BY IDOCK:   -2.10 KCAL/MOL
REMARK 924 INTRA-LIGAND FREE ENERGY PREDICTED BY IDOCK:   -0.11 KCAL/MOL
REMARK 927      BINDING AFFINITY PREDICTED BY RF-SCORE:    0.00 PKD
ROOT
HETATM    1  C   UNL     1     -13.664   7.315  71.104  1.00  0.00    -0.233 C  
HETATM    2  C   UNL     1     -12.541   6.550  71.790  1.00  0.00    -0.240 C  
ENDROOT
BRANCH   2   3
HETATM    3  C   UNL     1     -11.200   7.147  71.455  1.00  0.00    -0.245 A  
HETATM    4  N   UNL     1     -11.003   8.438  71.803  1.00  0.00    -0.269 NA 
HETATM    5  C   UNL     1      -9.835   9.012  71.444  1.00  0.00    -0.311 A  
HETATM    6  C   UNL     1      -8.838   8.354  70.750  1.00  0.00    -0.171 A  
HETATM    7  C   UNL     1      -9.047   7.021  70.399  1.00  0.00    -0.156 A  
HETATM    8  C   UNL     1     -10.250   6.405  70.759  1.00  0.00    -0.228 A  
BRANCH   7   9
HETATM    9  C   UNL     1      -8.027   6.261  69.624  1.00  0.00    -0.112 C  
HETATM   10  N   UNL     1      -8.491   5.280  68.782  1.00  0.00    -0.092 N  
HETATM   11  S   UNL     1      -6.375   6.509  69.694  1.00  0.00    -0.040 S  
HETATM   12  H1  UNL     1      -7.792   4.760  68.252  1.00  0.00     0.000 HD 
HETATM   13  H2  UNL     1      -9.488   5.081  68.692  1.00  0.00     0.000 HD 
ENDBRANCH   7   9
ENDBRANCH   2   3
TORSDOF 2
ENDMDL
MODEL      209
REMARK 921   NORMALIZED FREE ENERGY PREDICTED BY IDOCK:   -1.87 KCAL/MOL
REMARK 922        TOTAL FREE ENERGY PREDICTED BY IDOCK:   -2.20 KCAL/MOL
REMARK 923 INTER-LIGAND FREE ENERGY PREDICTED BY IDOCK:   -2.09 KCAL/MOL
REMARK 924 INTRA-LIGAND FREE ENERGY PREDICTED BY IDOCK:   -0.11 KCAL/MOL
REMARK 927      BINDING AFFINITY PREDICTED BY RF-SCORE:    0.00 PKD
ROOT
HETATM    1  C   UNL     1      -6.057   6.370  69.791  1.00  0.00    -0.026 C  
HETATM    2  C   UNL     1      -7.100   6.376  68.682  1.00  0.00    -0.083 C  
ENDROOT
BRANCH   2   3
HETATM    3  C   UNL     1      -8.487   6.217  69.246  1.00  0.00    -0.124 A  
HETATM    4  N   UNL     1      -9.512   6.649  68.477  1.00  0.00    -0.124 NA 
HETATM    5  C   UNL     1     -10.756   6.584  68.997  1.00  0.00    -0.278 A  
HETATM    6  C   UNL     1     -11.035   6.101  70.260  1.00  0.00    -0.417 A  
HETATM    7  C   UNL     1      -9.973   5.653  71.046  1.00  0.00    -0.248 A  
HETATM    8  C   UNL     1      -8.675   5.712  70.529  1.00  0.00    -0.140 A  
BRANCH   7   9
HETATM    9  C   UNL     1     -10.200   5.148  72.429  1.00  0.00    -0.198 C  
HETATM   10  N   UNL     1     -10.851   5.988  73.298  1.00  0.00    -0.317 N  
HETATM   11  S   UNL     1      -9.730   3.648  73.000  1.00  0.00    -0.133 S  
HETATM   12  H1  UNL     1     -11.005   5.642  74.244  1.00  0.00     0.000 HD 
HETATM   13  H2  UNL     1     -11.165   6.916  73.010  1.00  0.00     0.000 HD 
ENDBRANCH   7   9
ENDBRANCH   2   3
TORSDOF 2
ENDMDL
MODEL      210
REMARK 921   NORMALIZED FREE ENERGY PREDICTED BY IDOCK:   -1.81 KCAL/MOL
REMARK 922        TOTAL FREE ENERGY PREDICTED BY IDOCK:   -2.14 KCAL/MOL
REMARK 923 INTER-LIGAND FREE ENERGY PREDICTED BY IDOCK:   -2.04 KCAL/MOL
REMARK 924 INTRA-LIGAND FREE ENERGY PREDICTED BY IDOCK:   -0.10 KCAL/MOL
REMARK 927      BINDING AFFINITY PREDICTED BY RF-SCORE:    0.00 PKD
ROOT
HETATM    1  C   UNL     1      -6.959   6.542  66.719  1.00  0.00    -0.067 C  
HETATM    2  C   UNL     1      -7.403   5.470  67.704  1.00  0.00    -0.076 C  
ENDROOT
BRANCH   2   3
HETATM    3  C   UNL     1      -8.604   5.925  68.491  1.00  0.00    -0.110 A  
HETATM    4  N   UNL     1      -9.806   5.445  68.101  1.00  0.00    -0.138 NA 
HETATM    5  C   UNL     1     -10.901   5.900  68.746  1.00  0.00    -0.283 A  
HETATM    6  C   UNL     1     -10.859   6.819  69.775  1.00  0.00    -0.316 A  
HETATM    7  C   UNL     1      -9.614   7.307  70.175  1.00  0.00    -0.168 A  
HETATM    8  C   UNL     1      -8.466   6.851  69.520  1.00  0.00    -0.133 A  
BRANCH   7   9
HETATM    9  C   UNL     1      -9.498   8.323  71.257  1.00  0.00    -0.172 C  
HETATM   10  N   UNL     1      -9.556   9.642  70.880  1.00  0.00    -0.295 N  
HETATM   11  S   UNL     1      -9.308   7.987  72.884  1.00  0.00    -0.281 S  
HETATM   12  H1  UNL     1      -9.476  10.337  71.622  1.00  0.00     0.000 HD 
HETATM   13  H2  UNL     1      -9.673   9.914  69.903  1.00  0.00     0.000 HD 
ENDBRANCH   7   9
ENDBRANCH   2   3
TORSDOF 2
ENDMDL
MODEL      211
REMARK 921   NORMALIZED FREE ENERGY PREDICTED BY IDOCK:   -1.81 KCAL/MOL
REMARK 922        TOTAL FREE ENERGY PREDICTED BY IDOCK:   -2.13 KCAL/MOL
REMARK 923 INTER-LIGAND FREE ENERGY PREDICTED BY IDOCK:   -2.03 KCAL/MOL
REMARK 924 INTRA-LIGAND FREE ENERGY PREDICTED BY IDOCK:   -0.11 KCAL/MOL
REMARK 927      BINDING AFFINITY PREDICTED BY RF-SCORE:    0.00 PKD
ROOT
HETATM    1  C   UNL     1      -7.834  11.691  68.140  1.00  0.00    -0.133 C  
HETATM    2  C   UNL     1      -7.344  10.950  69.376  1.00  0.00    -0.116 C  
ENDROOT
BRANCH   2   3
HETATM    3  C   UNL     1      -8.165   9.712  69.624  1.00  0.00    -0.144 A  
HETATM    4  N   UNL     1      -8.390   9.377  70.914  1.00  0.00    -0.294 NA 
HETATM    5  C   UNL     1      -9.059   8.230  71.156  1.00  0.00    -0.162 A  
HETATM    6  C   UNL     1      -9.525   7.390  70.163  1.00  0.00    -0.165 A  
HETATM    7  C   UNL     1      -9.293   7.744  68.834  1.00  0.00    -0.146 A  
HETATM    8  C   UNL     1      -8.600   8.928  68.560  1.00  0.00    -0.133 A  
BRANCH   7   9
HETATM    9  C   UNL     1      -9.741   6.869  67.715  1.00  0.00    -0.129 C  
HETATM   10  N   UNL     1     -10.701   7.377  66.876  1.00  0.00    -0.489 N  
HETATM   11  S   UNL     1      -9.168   5.330  67.401  1.00  0.00    -0.116 S  
HETATM   12  H1  UNL     1     -11.008   6.778  66.110  1.00  0.00     0.000 HD 
HETATM   13  H2  UNL     1     -11.090   8.311  67.013  1.00  0.00     0.000 HD 
ENDBRANCH   7   9
ENDBRANCH   2   3
TORSDOF 2
ENDMDL
MODEL      212
REMARK 921   NORMALIZED FREE ENERGY PREDICTED BY IDOCK:   -1.79 KCAL/MOL
REMARK 922        TOTAL FREE ENERGY PREDICTED BY IDOCK:   -2.11 KCAL/MOL
REMARK 923 INTER-LIGAND FREE ENERGY PREDICTED BY IDOCK:   -2.00 KCAL/MOL
REMARK 924 INTRA-LIGAND FREE ENERGY PREDICTED BY IDOCK:   -0.11 KCAL/MOL
REMARK 927      BINDING AFFINITY PREDICTED BY RF-SCORE:    0.00 PKD
ROOT
HETATM    1  C   UNL     1     -10.794  10.476  67.137  1.00  0.00    -0.319 C  
HETATM    2  C   UNL     1      -9.954  10.586  65.873  1.00  0.00    -0.313 C  
ENDROOT
BRANCH   2   3
HETATM    3  C   UNL     1      -9.061   9.383  65.712  1.00  0.00    -0.200 A  
HETATM    4  N   UNL     1      -7.937   9.551  64.980  1.00  0.00    -0.114 NA 
HETATM    5  C   UNL     1      -7.164   8.466  64.762  1.00  0.00    -0.082 A  
HETATM    6  C   UNL     1      -7.457   7.206  65.246  1.00  0.00    -0.092 A  
HETATM    7  C   UNL     1      -8.616   7.042  66.004  1.00  0.00    -0.154 A  
HETATM    8  C   UNL     1      -9.433   8.152  66.242  1.00  0.00    -0.259 A  
BRANCH   7   9
HETATM    9  C   UNL     1      -9.008   5.705  66.530  1.00  0.00    -0.126 C  
HETATM   10  N   UNL     1      -8.093   5.058  67.323  1.00  0.00    -0.106 N  
HETATM   11  S   UNL     1     -10.464   4.937  66.237  1.00  0.00    -0.238 S  
HETATM   12  H1  UNL     1      -8.361   4.142  67.683  1.00  0.00     0.000 HD 
HETATM   13  H2  UNL     1      -7.186   5.473  67.542  1.00  0.00     0.000 HD 
ENDBRANCH   7   9
ENDBRANCH   2   3
TORSDOF 2
ENDMDL
MODEL      213
REMARK 921   NORMALIZED FREE ENERGY PREDICTED BY IDOCK:   -1.79 KCAL/MOL
REMARK 922        TOTAL FREE ENERGY PREDICTED BY IDOCK:   -2.11 KCAL/MOL
REMARK 923 INTER-LIGAND FREE ENERGY PREDICTED BY IDOCK:   -2.00 KCAL/MOL
REMARK 924 INTRA-LIGAND FREE ENERGY PREDICTED BY IDOCK:   -0.11 KCAL/MOL
REMARK 927      BINDING AFFINITY PREDICTED BY RF-SCORE:    0.00 PKD
ROOT
HETATM    1  C   UNL     1     -11.112   6.544  67.121  1.00  0.00    -0.434 C  
HETATM    2  C   UNL     1      -9.742   6.531  67.784  1.00  0.00    -0.131 C  
ENDROOT
BRANCH   2   3
HETATM    3  C   UNL     1      -8.784   7.441  67.060  1.00  0.00    -0.123 A  
HETATM    4  N   UNL     1      -7.749   7.932  67.777  1.00  0.00    -0.119 NA 
HETATM    5  C   UNL     1      -6.924   8.809  67.167  1.00  0.00    -0.071 A  
HETATM    6  C   UNL     1      -7.078   9.224  65.858  1.00  0.00    -0.090 A  
HETATM    7  C   UNL     1      -8.147   8.710  65.123  1.00  0.00    -0.143 A  
HETATM    8  C   UNL     1      -9.015   7.801  65.736  1.00  0.00    -0.109 A  
BRANCH   7   9
HETATM    9  C   UNL     1      -8.390   9.138  63.718  1.00  0.00    -0.182 C  
HETATM   10  N   UNL     1      -9.571   9.789  63.463  1.00  0.00    -0.498 N  
HETATM   11  S   UNL     1      -7.344   8.893  62.437  1.00  0.00    -0.098 S  
HETATM   12  H1  UNL     1      -9.737  10.082  62.500  1.00  0.00     0.000 HD 
HETATM   13  H2  UNL     1     -10.251   9.971  64.202  1.00  0.00     0.000 HD 
ENDBRANCH   7   9
ENDBRANCH   2   3
TORSDOF 2
ENDMDL
MODEL      214
REMARK 921   NORMALIZED FREE ENERGY PREDICTED BY IDOCK:   -1.78 KCAL/MOL
REMARK 922        TOTAL FREE ENERGY PREDICTED BY IDOCK:   -2.10 KCAL/MOL
REMARK 923 INTER-LIGAND FREE ENERGY PREDICTED BY IDOCK:   -1.98 KCAL/MOL
REMARK 924 INTRA-LIGAND FREE ENERGY PREDICTED BY IDOCK:   -0.12 KCAL/MOL
REMARK 927      BINDING AFFINITY PREDICTED BY RF-SCORE:    0.00 PKD
ROOT
HETATM    1  C   UNL     1      -8.465   8.431  69.037  1.00  0.00    -0.123 C  
HETATM    2  C   UNL     1      -7.629   7.167  69.182  1.00  0.00    -0.099 C  
ENDROOT
BRANCH   2   3
HETATM    3  C   UNL     1      -8.429   6.061  69.818  1.00  0.00    -0.126 A  
HETATM    4  N   UNL     1      -8.672   4.969  69.058  1.00  0.00    -0.088 NA 
HETATM    5  C   UNL     1      -9.450   4.001  69.584  1.00  0.00    -0.192 A  
HETATM    6  C   UNL     1     -10.005   4.064  70.848  1.00  0.00    -0.167 A  
HETATM    7  C   UNL     1      -9.746   5.192  71.627  1.00  0.00    -0.217 A  
HETATM    8  C   UNL     1      -8.943   6.209  71.102  1.00  0.00    -0.144 A  
BRANCH   7   9
HETATM    9  C   UNL     1     -10.337   5.339  72.987  1.00  0.00    -0.193 C  
HETATM   10  N   UNL     1     -11.006   4.253  73.494  1.00  0.00    -0.264 N  
HETATM   11  S   UNL     1     -10.246   6.711  73.938  1.00  0.00    -0.370 S  
HETATM   12  H1  UNL     1     -11.410   4.355  74.424  1.00  0.00     0.000 HD 
HETATM   13  H2  UNL     1     -11.095   3.385  72.964  1.00  0.00     0.000 HD 
ENDBRANCH   7   9
ENDBRANCH   2   3
TORSDOF 2
ENDMDL
MODEL      215
REMARK 921   NORMALIZED FREE ENERGY PREDICTED BY IDOCK:   -1.69 KCAL/MOL
REMARK 922        TOTAL FREE ENERGY PREDICTED BY IDOCK:   -2.00 KCAL/MOL
REMARK 923 INTER-LIGAND FREE ENERGY PREDICTED BY IDOCK:   -1.89 KCAL/MOL
REMARK 924 INTRA-LIGAND FREE ENERGY PREDICTED BY IDOCK:   -0.11 KCAL/MOL
REMARK 927      BINDING AFFINITY PREDICTED BY RF-SCORE:    0.00 PKD
ROOT
HETATM    1  C   UNL     1      -7.340   7.454  69.595  1.00  0.00    -0.091 C  
HETATM    2  C   UNL     1      -8.512   6.630  69.083  1.00  0.00    -0.124 C  
ENDROOT
BRANCH   2   3
HETATM    3  C   UNL     1      -8.160   5.936  67.793  1.00  0.00    -0.105 A  
HETATM    4  N   UNL     1      -6.922   6.160  67.298  1.00  0.00    -0.067 NA 
HETATM    5  C   UNL     1      -6.616   5.608  66.105  1.00  0.00    -0.051 A  
HETATM    6  C   UNL     1      -7.490   4.829  65.372  1.00  0.00    -0.077 A  
HETATM    7  C   UNL     1      -8.764   4.599  65.892  1.00  0.00    -0.121 A  
HETATM    8  C   UNL     1      -9.105   5.163  67.126  1.00  0.00    -0.112 A  
BRANCH   7   9
HETATM    9  C   UNL     1      -9.767   3.795  65.141  1.00  0.00    -0.176 C  
HETATM   10  N   UNL     1     -11.061   4.254  65.146  1.00  0.00    -0.840 N  
HETATM   11  S   UNL     1      -9.443   2.389  64.295  1.00  0.00    -0.127 S  
HETATM   12  H1  UNL     1     -11.747   3.703  64.631  1.00  0.00     0.000 HD 
HETATM   13  H2  UNL     1     -11.323   5.107  65.641  1.00  0.00     0.000 HD 
ENDBRANCH   7   9
ENDBRANCH   2   3
TORSDOF 2
ENDMDL
MODEL      216
REMARK 921   NORMALIZED FREE ENERGY PREDICTED BY IDOCK:   -1.66 KCAL/MOL
REMARK 922        TOTAL FREE ENERGY PREDICTED BY IDOCK:   -1.97 KCAL/MOL
REMARK 923 INTER-LIGAND FREE ENERGY PREDICTED BY IDOCK:   -1.86 KCAL/MOL
REMARK 924 INTRA-LIGAND FREE ENERGY PREDICTED BY IDOCK:   -0.11 KCAL/MOL
REMARK 927      BINDING AFFINITY PREDICTED BY RF-SCORE:    0.00 PKD
ROOT
HETATM    1  C   UNL     1      -6.313   8.213  67.639  1.00  0.00    -0.053 C  
HETATM    2  C   UNL     1      -7.043   9.545  67.539  1.00  0.00    -0.085 C  
ENDROOT
BRANCH   2   3
HETATM    3  C   UNL     1      -8.429   9.446  68.120  1.00  0.00    -0.120 A  
HETATM    4  N   UNL     1      -8.901   8.203  68.362  1.00  0.00    -0.134 NA 
HETATM    5  C   UNL     1     -10.169   8.091  68.812  1.00  0.00    -0.206 A  
HETATM    6  C   UNL     1     -11.000   9.171  69.039  1.00  0.00    -0.035 A  
HETATM    7  C   UNL     1     -10.504  10.451  68.792  1.00  0.00    -0.219 A  
HETATM    8  C   UNL     1      -9.193  10.590  68.324  1.00  0.00    -0.152 A  
BRANCH   7   9
HETATM    9  C   UNL     1     -11.355  11.657  68.987  1.00  0.00    -0.275 C  
HETATM   10  N   UNL     1     -12.270  11.612  70.009  1.00  0.00    -0.285 N  
HETATM   11  S   UNL     1     -11.282  13.052  68.068  1.00  0.00    -0.298 S  
HETATM   12  H1  UNL     1     -12.854  12.438  70.142  1.00  0.00     0.000 HD 
HETATM   13  H2  UNL     1     -12.363  10.790  70.607  1.00  0.00     0.000 HD 
ENDBRANCH   7   9
ENDBRANCH   2   3
TORSDOF 2
ENDMDL
MODEL      217
REMARK 921   NORMALIZED FREE ENERGY PREDICTED BY IDOCK:   -1.61 KCAL/MOL
REMARK 922        TOTAL FREE ENERGY PREDICTED BY IDOCK:   -1.92 KCAL/MOL
REMARK 923 INTER-LIGAND FREE ENERGY PREDICTED BY IDOCK:   -1.81 KCAL/MOL
REMARK 924 INTRA-LIGAND FREE ENERGY PREDICTED BY IDOCK:   -0.11 KCAL/MOL
REMARK 927      BINDING AFFINITY PREDICTED BY RF-SCORE:    0.00 PKD
ROOT
HETATM    1  C   UNL     1      -8.775   2.413  70.245  1.00  0.00    -0.124 C  
HETATM    2  C   UNL     1      -8.875   3.916  70.029  1.00  0.00    -0.142 C  
ENDROOT
BRANCH   2   3
HETATM    3  C   UNL     1      -9.223   4.623  71.313  1.00  0.00    -0.139 A  
HETATM    4  N   UNL     1     -10.396   4.289  71.895  1.00  0.00    -0.123 NA 
HETATM    5  C   UNL     1     -10.760   4.966  73.005  1.00  0.00    -0.244 A  
HETATM    6  C   UNL     1     -10.001   5.969  73.575  1.00  0.00    -0.189 A  
HETATM    7  C   UNL     1      -8.789   6.305  72.971  1.00  0.00    -0.123 A  
HETATM    8  C   UNL     1      -8.392   5.618  71.819  1.00  0.00    -0.120 A  
BRANCH   7   9
HETATM    9  C   UNL     1      -7.936   7.398  73.515  1.00  0.00    -0.115 C  
HETATM   10  N   UNL     1      -8.450   8.125  74.559  1.00  0.00    -0.423 N  
HETATM   11  S   UNL     1      -6.411   7.802  72.961  1.00  0.00    -0.070 S  
HETATM   12  H1  UNL     1      -7.865   8.874  74.931  1.00  0.00     0.000 HD 
HETATM   13  H2  UNL     1      -9.374   7.927  74.945  1.00  0.00     0.000 HD 
ENDBRANCH   7   9
ENDBRANCH   2   3
TORSDOF 2
ENDMDL
MODEL      218
REMARK 921   NORMALIZED FREE ENERGY PREDICTED BY IDOCK:   -1.61 KCAL/MOL
REMARK 922        TOTAL FREE ENERGY PREDICTED BY IDOCK:   -1.91 KCAL/MOL
REMARK 923 INTER-LIGAND FREE ENERGY PREDICTED BY IDOCK:   -1.80 KCAL/MOL
REMARK 924 INTRA-LIGAND FREE ENERGY PREDICTED BY IDOCK:   -0.11 KCAL/MOL
REMARK 927      BINDING AFFINITY PREDICTED BY RF-SCORE:    0.00 PKD
ROOT
HETATM    1  C   UNL     1      -5.713   5.177  65.688  1.00  0.00    -0.018 C  
HETATM    2  C   UNL     1      -6.668   5.953  66.583  1.00  0.00    -0.057 C  
ENDROOT
BRANCH   2   3
HETATM    3  C   UNL     1      -8.099   5.587  66.290  1.00  0.00    -0.106 A  
HETATM    4  N   UNL     1      -9.032   6.019  67.169  1.00  0.00    -0.114 NA 
HETATM    5  C   UNL     1     -10.310   5.637  66.964  1.00  0.00    -0.254 A  
HETATM    6  C   UNL     1     -10.712   4.837  65.911  1.00  0.00    -0.225 A  
HETATM    7  C   UNL     1      -9.745   4.399  65.007  1.00  0.00    -0.172 A  
HETATM    8  C   UNL     1      -8.414   4.782  65.200  1.00  0.00    -0.135 A  
BRANCH   7   9
HETATM    9  C   UNL     1     -10.105   3.511  63.867  1.00  0.00    -0.205 C  
HETATM   10  N   UNL     1     -10.689   4.105  62.777  1.00  0.00    -0.389 N  
HETATM   11  S   UNL     1      -9.851   1.859  63.810  1.00  0.00    -0.123 S  
HETATM   12  H1  UNL     1     -10.936   3.496  61.997  1.00  0.00     0.000 HD 
HETATM   13  H2  UNL     1     -10.870   5.110  62.748  1.00  0.00     0.000 HD 
ENDBRANCH   7   9
ENDBRANCH   2   3
TORSDOF 2
ENDMDL
MODEL      219
REMARK 921   NORMALIZED FREE ENERGY PREDICTED BY IDOCK:   -1.59 KCAL/MOL
REMARK 922        TOTAL FREE ENERGY PREDICTED BY IDOCK:   -1.89 KCAL/MOL
REMARK 923 INTER-LIGAND FREE ENERGY PREDICTED BY IDOCK:   -1.78 KCAL/MOL
REMARK 924 INTRA-LIGAND FREE ENERGY PREDICTED BY IDOCK:   -0.11 KCAL/MOL
REMARK 927      BINDING AFFINITY PREDICTED BY RF-SCORE:    0.00 PKD
ROOT
HETATM    1  C   UNL     1      -7.537   7.398  64.408  1.00  0.00    -0.115 C  
HETATM    2  C   UNL     1      -7.906   6.099  65.109  1.00  0.00    -0.108 C  
ENDROOT
BRANCH   2   3
HETATM    3  C   UNL     1      -8.817   6.359  66.280  1.00  0.00    -0.145 A  
HETATM    4  N   UNL     1     -10.057   5.824  66.219  1.00  0.00    -0.120 NA 
HETATM    5  C   UNL     1     -10.912   6.108  67.223  1.00  0.00    -0.326 A  
HETATM    6  C   UNL     1     -10.589   6.907  68.303  1.00  0.00    -0.258 A  
HETATM    7  C   UNL     1      -9.306   7.451  68.362  1.00  0.00    -0.144 A  
HETATM    8  C   UNL     1      -8.403   7.171  67.331  1.00  0.00    -0.119 A  
BRANCH   7   9
HETATM    9  C   UNL     1      -8.901   8.346  69.482  1.00  0.00    -0.145 C  
HETATM   10  N   UNL     1      -7.949   7.865  70.346  1.00  0.00    -0.096 N  
HETATM   11  S   UNL     1      -9.506   9.878  69.764  1.00  0.00    -0.210 S  
HETATM   12  H1  UNL     1      -7.672   8.478  71.113  1.00  0.00     0.000 HD 
HETATM   13  H2  UNL     1      -7.538   6.938  70.227  1.00  0.00     0.000 HD 
ENDBRANCH   7   9
ENDBRANCH   2   3
TORSDOF 2
ENDMDL
MODEL      220
REMARK 921   NORMALIZED FREE ENERGY PREDICTED BY IDOCK:   -1.54 KCAL/MOL
REMARK 922        TOTAL FREE ENERGY PREDICTED BY IDOCK:   -1.84 KCAL/MOL
REMARK 923 INTER-LIGAND FREE ENERGY PREDICTED BY IDOCK:   -1.73 KCAL/MOL
REMARK 924 INTRA-LIGAND FREE ENERGY PREDICTED BY IDOCK:   -0.10 KCAL/MOL
REMARK 927      BINDING AFFINITY PREDICTED BY RF-SCORE:    0.00 PKD
ROOT
HETATM    1  C   UNL     1      -7.794   4.095  63.076  1.00  0.00    -0.070 C  
HETATM    2  C   UNL     1      -9.132   4.485  63.687  1.00  0.00    -0.112 C  
ENDROOT
BRANCH   2   3
HETATM    3  C   UNL     1      -9.183   4.124  65.149  1.00  0.00    -0.153 A  
HETATM    4  N   UNL     1      -9.034   2.817  65.460  1.00  0.00    -0.133 NA 
HETATM    5  C   UNL     1      -9.152   2.464  66.757  1.00  0.00    -0.098 A  
HETATM    6  C   UNL     1      -9.412   3.361  67.775  1.00  0.00    -0.229 A  
HETATM    7  C   UNL     1      -9.561   4.708  67.447  1.00  0.00    -0.198 A  
HETATM    8  C   UNL     1      -9.444   5.097  66.109  1.00  0.00    -0.168 A  
BRANCH   7   9
HETATM    9  C   UNL     1      -9.873   5.724  68.491  1.00  0.00    -0.141 C  
HETATM   10  N   UNL     1     -10.419   5.262  69.663  1.00  0.00    -0.284 N  
HETATM   11  S   UNL     1      -9.608   7.368  68.350  1.00  0.00    -0.150 S  
HETATM   12  H1  UNL     1     -10.632   5.958  70.377  1.00  0.00     0.000 HD 
HETATM   13  H2  UNL     1     -10.603   4.269  69.812  1.00  0.00     0.000 HD 
ENDBRANCH   7   9
ENDBRANCH   2   3
TORSDOF 2
ENDMDL
MODEL      221
REMARK 921   NORMALIZED FREE ENERGY PREDICTED BY IDOCK:   -1.52 KCAL/MOL
REMARK 922        TOTAL FREE ENERGY PREDICTED BY IDOCK:   -1.82 KCAL/MOL
REMARK 923 INTER-LIGAND FREE ENERGY PREDICTED BY IDOCK:   -1.71 KCAL/MOL
REMARK 924 INTRA-LIGAND FREE ENERGY PREDICTED BY IDOCK:   -0.11 KCAL/MOL
REMARK 927      BINDING AFFINITY PREDICTED BY RF-SCORE:    0.00 PKD
ROOT
HETATM    1  C   UNL     1      -9.507   2.259  69.317  1.00  0.00    -0.126 C  
HETATM    2  C   UNL     1      -8.476   3.378  69.266  1.00  0.00    -0.095 C  
ENDROOT
BRANCH   2   3
HETATM    3  C   UNL     1      -9.073   4.682  69.724  1.00  0.00    -0.108 A  
HETATM    4  N   UNL     1     -10.399   4.852  69.519  1.00  0.00    -0.180 NA 
HETATM    5  C   UNL     1     -10.937   6.043  69.854  1.00  0.00    -0.388 A  
HETATM    6  C   UNL     1     -10.212   7.088  70.394  1.00  0.00    -0.209 A  
HETATM    7  C   UNL     1      -8.846   6.904  70.607  1.00  0.00    -0.150 A  
HETATM    8  C   UNL     1      -8.266   5.678  70.266  1.00  0.00    -0.104 A  
BRANCH   7   9
HETATM    9  C   UNL     1      -7.999   7.998  71.157  1.00  0.00    -0.094 C  
HETATM   10  N   UNL     1      -8.418   9.285  70.923  1.00  0.00    -0.192 N  
HETATM   11  S   UNL     1      -6.591   7.785  72.034  1.00  0.00    -0.059 S  
HETATM   12  H1  UNL     1      -7.837  10.034  71.300  1.00  0.00     0.000 HD 
HETATM   13  H2  UNL     1      -9.270   9.482  70.397  1.00  0.00     0.000 HD 
ENDBRANCH   7   9
ENDBRANCH   2   3
TORSDOF 2
ENDMDL
MODEL      222
REMARK 921   NORMALIZED FREE ENERGY PREDICTED BY IDOCK:   -1.43 KCAL/MOL
REMARK 922        TOTAL FREE ENERGY PREDICTED BY IDOCK:   -1.71 KCAL/MOL
REMARK 923 INTER-LIGAND FREE ENERGY PREDICTED BY IDOCK:   -1.60 KCAL/MOL
REMARK 924 INTRA-LIGAND FREE ENERGY PREDICTED BY IDOCK:   -0.11 KCAL/MOL
REMARK 927      BINDING AFFINITY PREDICTED BY RF-SCORE:    0.00 PKD
ROOT
HETATM    1  C   UNL     1      -6.964   9.026  63.355  1.00  0.00    -0.089 C  
HETATM    2  C   UNL     1      -7.675   7.692  63.532  1.00  0.00    -0.130 C  
ENDROOT
BRANCH   2   3
HETATM    3  C   UNL     1      -8.575   7.717  64.740  1.00  0.00     0.132 A  
HETATM    4  N   UNL     1      -9.154   8.900  65.044  1.00  0.00    -0.118 NA 
HETATM    5  C   UNL     1      -9.904   8.960  66.165  1.00  0.00    -0.256 A  
HETATM    6  C   UNL     1     -10.111   7.886  67.008  1.00  0.00    -0.347 A  
HETATM    7  C   UNL     1      -9.514   6.667  66.684  1.00  0.00    -0.201 A  
HETATM    8  C   UNL     1      -8.732   6.582  65.528  1.00  0.00    -0.063 A  
BRANCH   7   9
HETATM    9  C   UNL     1      -9.671   5.476  67.565  1.00  0.00    -0.128 C  
HETATM   10  N   UNL     1      -9.690   4.249  66.951  1.00  0.00    -0.210 N  
HETATM   11  S   UNL     1      -9.822   5.516  69.229  1.00  0.00    -0.190 S  
HETATM   12  H1  UNL     1      -9.797   3.433  67.554  1.00  0.00     0.000 HD 
HETATM   13  H2  UNL     1      -9.600   4.156  65.938  1.00  0.00     0.000 HD 
ENDBRANCH   7   9
ENDBRANCH   2   3
TORSDOF 2
ENDMDL
MODEL      223
REMARK 921   NORMALIZED FREE ENERGY PREDICTED BY IDOCK:   -1.42 KCAL/MOL
REMARK 922        TOTAL FREE ENERGY PREDICTED BY IDOCK:   -1.70 KCAL/MOL
REMARK 923 INTER-LIGAND FREE ENERGY PREDICTED BY IDOCK:   -1.58 KCAL/MOL
REMARK 924 INTRA-LIGAND FREE ENERGY PREDICTED BY IDOCK:   -0.12 KCAL/MOL
REMARK 927      BINDING AFFINITY PREDICTED BY RF-SCORE:    0.00 PKD
ROOT
HETATM    1  C   UNL     1      -9.386  10.258  63.453  1.00  0.00    -0.340 C  
HETATM    2  C   UNL     1      -8.853  10.552  64.848  1.00  0.00    -0.207 C  
ENDROOT
BRANCH   2   3
HETATM    3  C   UNL     1      -8.082   9.377  65.390  1.00  0.00    -0.118 A  
HETATM    4  N   UNL     1      -7.042   9.655  66.207  1.00  0.00    -0.091 NA 
HETATM    5  C   UNL     1      -6.293   8.619  66.642  1.00  0.00    -0.059 A  
HETATM    6  C   UNL     1      -6.534   7.302  66.301  1.00  0.00    -0.048 A  
HETATM    7  C   UNL     1      -7.611   7.024  65.461  1.00  0.00    -0.091 A  
HETATM    8  C   UNL     1      -8.400   8.081  64.997  1.00  0.00    -0.121 A  
BRANCH   7   9
HETATM    9  C   UNL     1      -7.909   5.630  65.029  1.00  0.00    -0.101 C  
HETATM   10  N   UNL     1      -9.211   5.348  64.697  1.00  0.00    -0.355 N  
HETATM   11  S   UNL     1      -6.791   4.392  64.914  1.00  0.00    -0.050 S  
HETATM   12  H1  UNL     1      -9.414   4.393  64.401  1.00  0.00     0.000 HD 
HETATM   13  H2  UNL     1      -9.941   6.060  64.744  1.00  0.00     0.000 HD 
ENDBRANCH   7   9
ENDBRANCH   2   3
TORSDOF 2
ENDMDL
MODEL      224
REMARK 921   NORMALIZED FREE ENERGY PREDICTED BY IDOCK:   -1.35 KCAL/MOL
REMARK 922        TOTAL FREE ENERGY PREDICTED BY IDOCK:   -1.62 KCAL/MOL
REMARK 923 INTER-LIGAND FREE ENERGY PREDICTED BY IDOCK:   -1.52 KCAL/MOL
REMARK 924 INTRA-LIGAND FREE ENERGY PREDICTED BY IDOCK:   -0.10 KCAL/MOL
REMARK 927      BINDING AFFINITY PREDICTED BY RF-SCORE:    0.00 PKD
ROOT
HETATM    1  C   UNL     1      -8.230   1.978  62.681  1.00  0.00    -0.068 C  
HETATM    2  C   UNL     1      -9.480   2.739  63.099  1.00  0.00    -0.094 C  
ENDROOT
BRANCH   2   3
HETATM    3  C   UNL     1      -9.129   3.921  63.964  1.00  0.00    -0.129 A  
HETATM    4  N   UNL     1      -8.296   4.842  63.428  1.00  0.00    -0.110 NA 
HETATM    5  C   UNL     1      -7.910   5.869  64.214  1.00  0.00    -0.116 A  
HETATM    6  C   UNL     1      -8.320   6.029  65.524  1.00  0.00    -0.146 A  
HETATM    7  C   UNL     1      -9.183   5.078  66.067  1.00  0.00    -0.154 A  
HETATM    8  C   UNL     1      -9.595   4.004  65.271  1.00  0.00    -0.185 A  
BRANCH   7   9
HETATM    9  C   UNL     1      -9.640   5.173  67.481  1.00  0.00    -0.140 C  
HETATM   10  N   UNL     1     -10.816   5.842  67.710  1.00  0.00    -0.270 N  
HETATM   11  S   UNL     1      -8.841   4.530  68.802  1.00  0.00    -0.107 S  
HETATM   12  H1  UNL     1     -11.129   5.907  68.679  1.00  0.00     0.000 HD 
HETATM   13  H2  UNL     1     -11.353   6.256  66.946  1.00  0.00     0.000 HD 
ENDBRANCH   7   9
ENDBRANCH   2   3
TORSDOF 2
ENDMDL
MODEL      225
REMARK 921   NORMALIZED FREE ENERGY PREDICTED BY IDOCK:   -1.33 KCAL/MOL
REMARK 922        TOTAL FREE ENERGY PREDICTED BY IDOCK:   -1.60 KCAL/MOL
REMARK 923 INTER-LIGAND FREE ENERGY PREDICTED BY IDOCK:   -1.49 KCAL/MOL
REMARK 924 INTRA-LIGAND FREE ENERGY PREDICTED BY IDOCK:   -0.11 KCAL/MOL
REMARK 927      BINDING AFFINITY PREDICTED BY RF-SCORE:    0.00 PKD
ROOT
HETATM    1  C   UNL     1      -7.961   8.499  63.104  1.00  0.00    -0.164 C  
HETATM    2  C   UNL     1      -8.132   8.152  64.576  1.00  0.00    -0.142 C  
ENDROOT
BRANCH   2   3
HETATM    3  C   UNL     1      -8.047   6.663  64.792  1.00  0.00    -0.099 A  
HETATM    4  N   UNL     1      -7.569   5.924  63.766  1.00  0.00    -0.075 NA 
HETATM    5  C   UNL     1      -7.556   4.583  63.914  1.00  0.00    -0.071 A  
HETATM    6  C   UNL     1      -7.998   3.931  65.049  1.00  0.00    -0.093 A  
HETATM    7  C   UNL     1      -8.486   4.701  66.105  1.00  0.00    -0.114 A  
HETATM    8  C   UNL     1      -8.510   6.093  65.974  1.00  0.00    -0.141 A  
BRANCH   7   9
HETATM    9  C   UNL     1      -9.007   4.062  67.345  1.00  0.00    -0.129 C  
HETATM   10  N   UNL     1      -9.686   2.879  67.196  1.00  0.00    -0.360 N  
HETATM   11  S   UNL     1      -8.828   4.667  68.894  1.00  0.00    -0.103 S  
HETATM   12  H1  UNL     1     -10.042   2.442  68.046  1.00  0.00     0.000 HD 
HETATM   13  H2  UNL     1      -9.827   2.456  66.278  1.00  0.00     0.000 HD 
ENDBRANCH   7   9
ENDBRANCH   2   3
TORSDOF 2
ENDMDL
MODEL      226
REMARK 921   NORMALIZED FREE ENERGY PREDICTED BY IDOCK:   -1.32 KCAL/MOL
REMARK 922        TOTAL FREE ENERGY PREDICTED BY IDOCK:   -1.59 KCAL/MOL
REMARK 923 INTER-LIGAND FREE ENERGY PREDICTED BY IDOCK:   -1.48 KCAL/MOL
REMARK 924 INTRA-LIGAND FREE ENERGY PREDICTED BY IDOCK:   -0.10 KCAL/MOL
REMARK 927      BINDING AFFINITY PREDICTED BY RF-SCORE:    0.00 PKD
ROOT
HETATM    1  C   UNL     1      -8.373   3.406  63.125  1.00  0.00    -0.088 C  
HETATM    2  C   UNL     1      -9.623   3.718  63.936  1.00  0.00    -0.157 C  
ENDROOT
BRANCH   2   3
HETATM    3  C   UNL     1      -9.264   4.251  65.298  1.00  0.00    -0.153 A  
HETATM    4  N   UNL     1      -9.349   3.387  66.334  1.00  0.00    -0.169 NA 
HETATM    5  C   UNL     1      -9.105   3.866  67.571  1.00  0.00    -0.152 A  
HETATM    6  C   UNL     1      -8.770   5.181  67.832  1.00  0.00    -0.102 A  
HETATM    7  C   UNL     1      -8.679   6.066  66.758  1.00  0.00    -0.119 A  
HETATM    8  C   UNL     1      -8.930   5.591  65.467  1.00  0.00    -0.133 A  
BRANCH   7   9
HETATM    9  C   UNL     1      -8.354   7.503  66.971  1.00  0.00    -0.121 C  
HETATM   10  N   UNL     1      -7.851   7.850  68.201  1.00  0.00    -0.124 N  
HETATM   11  S   UNL     1      -8.546   8.717  65.838  1.00  0.00    -0.164 S  
HETATM   12  H1  UNL     1      -7.628   8.834  68.346  1.00  0.00     0.000 HD 
HETATM   13  H2  UNL     1      -7.708   7.155  68.935  1.00  0.00     0.000 HD 
ENDBRANCH   7   9
ENDBRANCH   2   3
TORSDOF 2
ENDMDL
MODEL      227
REMARK 921   NORMALIZED FREE ENERGY PREDICTED BY IDOCK:   -1.24 KCAL/MOL
REMARK 922        TOTAL FREE ENERGY PREDICTED BY IDOCK:   -1.50 KCAL/MOL
REMARK 923 INTER-LIGAND FREE ENERGY PREDICTED BY IDOCK:   -1.38 KCAL/MOL
REMARK 924 INTRA-LIGAND FREE ENERGY PREDICTED BY IDOCK:   -0.12 KCAL/MOL
REMARK 927      BINDING AFFINITY PREDICTED BY RF-SCORE:    0.00 PKD
ROOT
HETATM    1  C   UNL     1      -6.281   7.898  70.534  1.00  0.00    -0.036 C  
HETATM    2  C   UNL     1      -7.763   8.228  70.634  1.00  0.00    -0.083 C  
ENDROOT
BRANCH   2   3
HETATM    3  C   UNL     1      -8.408   8.234  69.273  1.00  0.00    -0.122 A  
HETATM    4  N   UNL     1      -9.749   8.399  69.233  1.00  0.00    -0.174 NA 
HETATM    5  C   UNL     1     -10.353   8.332  68.029  1.00  0.00    -0.213 A  
HETATM    6  C   UNL     1      -9.679   8.108  66.844  1.00  0.00    -0.291 A  
HETATM    7  C   UNL     1      -8.295   7.943  66.892  1.00  0.00    -0.116 A  
HETATM    8  C   UNL     1      -7.648   8.008  68.130  1.00  0.00    -0.109 A  
BRANCH   7   9
HETATM    9  C   UNL     1      -7.510   7.669  65.657  1.00  0.00    -0.079 C  
HETATM   10  N   UNL     1      -6.309   7.022  65.815  1.00  0.00    -0.045 N  
HETATM   11  S   UNL     1      -7.974   8.079  64.104  1.00  0.00    -0.110 S  
HETATM   12  H1  UNL     1      -5.772   6.835  64.969  1.00  0.00     0.000 HD 
HETATM   13  H2  UNL     1      -5.970   6.743  66.736  1.00  0.00     0.000 HD 
ENDBRANCH   7   9
ENDBRANCH   2   3
TORSDOF 2
ENDMDL
MODEL      228
REMARK 921   NORMALIZED FREE ENERGY PREDICTED BY IDOCK:   -1.18 KCAL/MOL
REMARK 922        TOTAL FREE ENERGY PREDICTED BY IDOCK:   -1.43 KCAL/MOL
REMARK 923 INTER-LIGAND FREE ENERGY PREDICTED BY IDOCK:   -1.31 KCAL/MOL
REMARK 924 INTRA-LIGAND FREE ENERGY PREDICTED BY IDOCK:   -0.12 KCAL/MOL
REMARK 927      BINDING AFFINITY PREDICTED BY RF-SCORE:    0.00 PKD
ROOT
HETATM    1  C   UNL     1      -8.279   8.000  63.691  1.00  0.00    -0.040 C  
HETATM    2  C   UNL     1      -8.142   8.016  65.207  1.00  0.00    -0.138 C  
ENDROOT
BRANCH   2   3
HETATM    3  C   UNL     1      -8.633   6.725  65.807  1.00  0.00    -0.137 A  
HETATM    4  N   UNL     1      -9.007   6.758  67.106  1.00  0.00    -0.114 NA 
HETATM    5  C   UNL     1      -9.378   5.595  67.681  1.00  0.00    -0.110 A  
HETATM    6  C   UNL     1      -9.400   4.384  67.017  1.00  0.00    -0.170 A  
HETATM    7  C   UNL     1      -9.017   4.358  65.676  1.00  0.00    -0.132 A  
HETATM    8  C   UNL     1      -8.628   5.551  65.060  1.00  0.00    -0.128 A  
BRANCH   7   9
HETATM    9  C   UNL     1      -8.988   3.082  64.909  1.00  0.00    -0.132 C  
HETATM   10  N   UNL     1      -9.110   3.174  63.545  1.00  0.00    -0.095 N  
HETATM   11  S   UNL     1      -8.816   1.557  65.574  1.00  0.00    -0.120 S  
HETATM   12  H1  UNL     1      -9.090   2.300  63.020  1.00  0.00     0.000 HD 
HETATM   13  H2  UNL     1      -9.216   4.076  63.078  1.00  0.00     0.000 HD 
ENDBRANCH   7   9
ENDBRANCH   2   3
TORSDOF 2
ENDMDL
MODEL      229
REMARK 921   NORMALIZED FREE ENERGY PREDICTED BY IDOCK:   -1.16 KCAL/MOL
REMARK 922        TOTAL FREE ENERGY PREDICTED BY IDOCK:   -1.42 KCAL/MOL
REMARK 923 INTER-LIGAND FREE ENERGY PREDICTED BY IDOCK:   -1.30 KCAL/MOL
REMARK 924 INTRA-LIGAND FREE ENERGY PREDICTED BY IDOCK:   -0.12 KCAL/MOL
REMARK 927      BINDING AFFINITY PREDICTED BY RF-SCORE:    0.00 PKD
ROOT
HETATM    1  C   UNL     1      -5.125   7.840  70.849  1.00  0.00    -0.023 C  
HETATM    2  C   UNL     1      -5.161   6.318  70.828  1.00  0.00    -0.014 C  
ENDROOT
BRANCH   2   3
HETATM    3  C   UNL     1      -6.477   5.803  71.349  1.00  0.00    -0.045 A  
HETATM    4  N   UNL     1      -6.837   4.556  70.970  1.00  0.00    -0.035 NA 
HETATM    5  C   UNL     1      -8.046   4.106  71.366  1.00  0.00    -0.077 A  
HETATM    6  C   UNL     1      -8.926   4.844  72.133  1.00  0.00    -0.144 A  
HETATM    7  C   UNL     1      -8.546   6.128  72.524  1.00  0.00    -0.121 A  
HETATM    8  C   UNL     1      -7.297   6.616  72.124  1.00  0.00    -0.089 A  
BRANCH   7   9
HETATM    9  C   UNL     1      -9.458   6.989  73.326  1.00  0.00    -0.166 C  
HETATM   10  N   UNL     1      -8.879   7.784  74.284  1.00  0.00    -0.427 N  
HETATM   11  S   UNL     1     -11.119   7.067  73.150  1.00  0.00    -0.157 S  
HETATM   12  H1  UNL     1      -9.504   8.374  74.833  1.00  0.00     0.000 HD 
HETATM   13  H2  UNL     1      -7.870   7.784  74.439  1.00  0.00     0.000 HD 
ENDBRANCH   7   9
ENDBRANCH   2   3
TORSDOF 2
ENDMDL
MODEL      230
REMARK 921   NORMALIZED FREE ENERGY PREDICTED BY IDOCK:   -1.14 KCAL/MOL
REMARK 922        TOTAL FREE ENERGY PREDICTED BY IDOCK:   -1.39 KCAL/MOL
REMARK 923 INTER-LIGAND FREE ENERGY PREDICTED BY IDOCK:   -1.27 KCAL/MOL
REMARK 924 INTRA-LIGAND FREE ENERGY PREDICTED BY IDOCK:   -0.12 KCAL/MOL
REMARK 927      BINDING AFFINITY PREDICTED BY RF-SCORE:    0.00 PKD
ROOT
HETATM    1  C   UNL     1      -8.137   7.851  69.758  1.00  0.00    -0.116 C  
HETATM    2  C   UNL     1      -6.985   6.942  70.162  1.00  0.00    -0.066 C  
ENDROOT
BRANCH   2   3
HETATM    3  C   UNL     1      -7.247   6.303  71.501  1.00  0.00    -0.083 A  
HETATM    4  N   UNL     1      -6.168   6.032  72.269  1.00  0.00    -0.041 NA 
HETATM    5  C   UNL     1      -6.377   5.391  73.438  1.00  0.00    -0.061 A  
HETATM    6  C   UNL     1      -7.625   5.005  73.889  1.00  0.00    -0.091 A  
HETATM    7  C   UNL     1      -8.733   5.292  73.093  1.00  0.00    -0.120 A  
HETATM    8  C   UNL     1      -8.541   5.955  71.877  1.00  0.00    -0.137 A  
BRANCH   7   9
HETATM    9  C   UNL     1     -10.103   4.877  73.504  1.00  0.00    -0.164 C  
HETATM   10  N   UNL     1     -10.197   4.007  74.562  1.00  0.00    -0.193 N  
HETATM   11  S   UNL     1     -11.525   5.387  72.787  1.00  0.00    -0.199 S  
HETATM   12  H1  UNL     1     -11.136   3.723  74.843  1.00  0.00     0.000 HD 
HETATM   13  H2  UNL     1      -9.367   3.660  75.044  1.00  0.00     0.000 HD 
ENDBRANCH   7   9
ENDBRANCH   2   3
TORSDOF 2
ENDMDL
MODEL      231
REMARK 921   NORMALIZED FREE ENERGY PREDICTED BY IDOCK:   -1.11 KCAL/MOL
REMARK 922        TOTAL FREE ENERGY PREDICTED BY IDOCK:   -1.35 KCAL/MOL
REMARK 923 INTER-LIGAND FREE ENERGY PREDICTED BY IDOCK:   -1.25 KCAL/MOL
REMARK 924 INTRA-LIGAND FREE ENERGY PREDICTED BY IDOCK:   -0.10 KCAL/MOL
REMARK 927      BINDING AFFINITY PREDICTED BY RF-SCORE:    0.00 PKD
ROOT
HETATM    1  C   UNL     1      -6.199   7.852  70.549  1.00  0.00    -0.036 C  
HETATM    2  C   UNL     1      -7.706   7.908  70.349  1.00  0.00    -0.087 C  
ENDROOT
BRANCH   2   3
HETATM    3  C   UNL     1      -8.076   7.559  68.931  1.00  0.00    -0.127 A  
HETATM    4  N   UNL     1      -8.041   8.563  68.027  1.00  0.00    -0.115 NA 
HETATM    5  C   UNL     1      -8.441   8.286  66.768  1.00  0.00    -0.122 A  
HETATM    6  C   UNL     1      -8.877   7.041  66.358  1.00  0.00    -0.158 A  
HETATM    7  C   UNL     1      -8.905   6.009  67.295  1.00  0.00    -0.107 A  
HETATM    8  C   UNL     1      -8.496   6.273  68.607  1.00  0.00    -0.122 A  
BRANCH   7   9
HETATM    9  C   UNL     1      -9.392   4.650  66.928  1.00  0.00    -0.140 C  
HETATM   10  N   UNL     1      -9.871   3.866  67.948  1.00  0.00    -0.064 N  
HETATM   11  S   UNL     1      -9.405   4.011  65.383  1.00  0.00    -0.174 S  
HETATM   12  H1  UNL     1     -10.204   2.936  67.697  1.00  0.00     0.000 HD 
HETATM   13  H2  UNL     1      -9.892   4.198  68.913  1.00  0.00     0.000 HD 
ENDBRANCH   7   9
ENDBRANCH   2   3
TORSDOF 2
ENDMDL
MODEL      232
REMARK 921   NORMALIZED FREE ENERGY PREDICTED BY IDOCK:   -1.09 KCAL/MOL
REMARK 922        TOTAL FREE ENERGY PREDICTED BY IDOCK:   -1.34 KCAL/MOL
REMARK 923 INTER-LIGAND FREE ENERGY PREDICTED BY IDOCK:   -1.24 KCAL/MOL
REMARK 924 INTRA-LIGAND FREE ENERGY PREDICTED BY IDOCK:   -0.10 KCAL/MOL
REMARK 927      BINDING AFFINITY PREDICTED BY RF-SCORE:    0.00 PKD
ROOT
HETATM    1  C   UNL     1      -6.891  10.337  67.364  1.00  0.00    -0.077 C  
HETATM    2  C   UNL     1      -5.978   9.334  68.054  1.00  0.00    -0.049 C  
ENDROOT
BRANCH   2   3
HETATM    3  C   UNL     1      -6.683   8.668  69.206  1.00  0.00    -0.050 A  
HETATM    4  N   UNL     1      -6.102   8.777  70.422  1.00  0.00    -0.033 NA 
HETATM    5  C   UNL     1      -6.679   8.123  71.453  1.00  0.00    -0.055 A  
HETATM    6  C   UNL     1      -7.823   7.358  71.332  1.00  0.00    -0.095 A  
HETATM    7  C   UNL     1      -8.419   7.254  70.075  1.00  0.00    -0.139 A  
HETATM    8  C   UNL     1      -7.838   7.922  68.992  1.00  0.00    -0.110 A  
BRANCH   7   9
HETATM    9  C   UNL     1      -9.637   6.422  69.868  1.00  0.00    -0.153 C  
HETATM   10  N   UNL     1      -9.471   5.237  69.194  1.00  0.00    -0.126 N  
HETATM   11  S   UNL     1     -11.176   6.812  70.390  1.00  0.00    -0.352 S  
HETATM   12  H1  UNL     1     -10.305   4.668  69.052  1.00  0.00     0.000 HD 
HETATM   13  H2  UNL     1      -8.557   4.941  68.851  1.00  0.00     0.000 HD 
ENDBRANCH   7   9
ENDBRANCH   2   3
TORSDOF 2
ENDMDL
MODEL      233
REMARK 921   NORMALIZED FREE ENERGY PREDICTED BY IDOCK:   -1.00 KCAL/MOL
REMARK 922        TOTAL FREE ENERGY PREDICTED BY IDOCK:   -1.23 KCAL/MOL
REMARK 923 INTER-LIGAND FREE ENERGY PREDICTED BY IDOCK:   -1.11 KCAL/MOL
REMARK 924 INTRA-LIGAND FREE ENERGY PREDICTED BY IDOCK:   -0.12 KCAL/MOL
REMARK 927      BINDING AFFINITY PREDICTED BY RF-SCORE:    0.00 PKD
ROOT
HETATM    1  C   UNL     1      -5.337   7.822  70.682  1.00  0.00    -0.023 C  
HETATM    2  C   UNL     1      -5.159   6.349  70.344  1.00  0.00    -0.014 C  
ENDROOT
BRANCH   2   3
HETATM    3  C   UNL     1      -6.366   5.811  69.621  1.00  0.00    -0.037 A  
HETATM    4  N   UNL     1      -6.328   4.510  69.255  1.00  0.00    -0.031 NA 
HETATM    5  C   UNL     1      -7.368   4.030  68.541  1.00  0.00    -0.055 A  
HETATM    6  C   UNL     1      -8.461   4.791  68.171  1.00  0.00    -0.102 A  
HETATM    7  C   UNL     1      -8.495   6.131  68.557  1.00  0.00    -0.114 A  
HETATM    8  C   UNL     1      -7.427   6.650  69.297  1.00  0.00    -0.095 A  
BRANCH   7   9
HETATM    9  C   UNL     1      -9.628   7.015  68.167  1.00  0.00    -0.129 C  
HETATM   10  N   UNL     1      -9.557   8.327  68.566  1.00  0.00    -0.147 N  
HETATM   11  S   UNL     1     -10.967   6.540  67.285  1.00  0.00    -0.361 S  
HETATM   12  H1  UNL     1     -10.333   8.932  68.298  1.00  0.00     0.000 HD 
HETATM   13  H2  UNL     1      -8.765   8.679  69.105  1.00  0.00     0.000 HD 
ENDBRANCH   7   9
ENDBRANCH   2   3
TORSDOF 2
ENDMDL
MODEL      234
REMARK 921   NORMALIZED FREE ENERGY PREDICTED BY IDOCK:   -0.99 KCAL/MOL
REMARK 922        TOTAL FREE ENERGY PREDICTED BY IDOCK:   -1.22 KCAL/MOL
REMARK 923 INTER-LIGAND FREE ENERGY PREDICTED BY IDOCK:   -1.11 KCAL/MOL
REMARK 924 INTRA-LIGAND FREE ENERGY PREDICTED BY IDOCK:   -0.11 KCAL/MOL
REMARK 927      BINDING AFFINITY PREDICTED BY RF-SCORE:    0.00 PKD
ROOT
HETATM    1  C   UNL     1      -9.235   9.726  62.480  1.00  0.00    -0.281 C  
HETATM    2  C   UNL     1      -8.511   9.865  63.812  1.00  0.00    -0.182 C  
ENDROOT
BRANCH   2   3
HETATM    3  C   UNL     1      -7.477   8.783  63.978  1.00  0.00    -0.116 A  
HETATM    4  N   UNL     1      -6.406   8.830  63.153  1.00  0.00    -0.090 NA 
HETATM    5  C   UNL     1      -5.507   7.827  63.236  1.00  0.00    -0.050 A  
HETATM    6  C   UNL     1      -5.620   6.767  64.115  1.00  0.00    -0.031 A  
HETATM    7  C   UNL     1      -6.724   6.728  64.965  1.00  0.00    -0.050 A  
HETATM    8  C   UNL     1      -7.670   7.756  64.896  1.00  0.00    -0.110 A  
BRANCH   7   9
HETATM    9  C   UNL     1      -6.923   5.598  65.915  1.00  0.00    -0.066 C  
HETATM   10  N   UNL     1      -7.764   5.821  66.977  1.00  0.00    -0.100 N  
HETATM   11  S   UNL     1      -6.212   4.090  65.789  1.00  0.00    -0.032 S  
HETATM   12  H1  UNL     1      -7.900   5.047  67.627  1.00  0.00     0.000 HD 
HETATM   13  H2  UNL     1      -8.231   6.719  67.110  1.00  0.00     0.000 HD 
ENDBRANCH   7   9
ENDBRANCH   2   3
TORSDOF 2
ENDMDL
MODEL      235
REMARK 921   NORMALIZED FREE ENERGY PREDICTED BY IDOCK:   -0.98 KCAL/MOL
REMARK 922        TOTAL FREE ENERGY PREDICTED BY IDOCK:   -1.21 KCAL/MOL
REMARK 923 INTER-LIGAND FREE ENERGY PREDICTED BY IDOCK:   -1.11 KCAL/MOL
REMARK 924 INTRA-LIGAND FREE ENERGY PREDICTED BY IDOCK:   -0.11 KCAL/MOL
REMARK 927      BINDING AFFINITY PREDICTED BY RF-SCORE:    0.00 PKD
ROOT
HETATM    1  C   UNL     1      -7.941   8.431  63.182  1.00  0.00    -0.161 C  
HETATM    2  C   UNL     1      -7.965   7.670  64.500  1.00  0.00    -0.130 C  
ENDROOT
BRANCH   2   3
HETATM    3  C   UNL     1      -7.554   6.235  64.301  1.00  0.00    -0.097 A  
HETATM    4  N   UNL     1      -6.236   5.998  64.119  1.00  0.00    -0.029 NA 
HETATM    5  C   UNL     1      -5.857   4.727  63.864  1.00  0.00    -0.017 A  
HETATM    6  C   UNL     1      -6.738   3.666  63.785  1.00  0.00    -0.043 A  
HETATM    7  C   UNL     1      -8.096   3.918  63.978  1.00  0.00    -0.090 A  
HETATM    8  C   UNL     1      -8.511   5.228  64.242  1.00  0.00    -0.115 A  
BRANCH   7   9
HETATM    9  C   UNL     1      -9.103   2.826  63.875  1.00  0.00    -0.104 C  
HETATM   10  N   UNL     1      -8.788   1.632  64.476  1.00  0.00    -0.097 N  
HETATM   11  S   UNL     1     -10.578   2.940  63.096  1.00  0.00    -0.225 S  
HETATM   12  H1  UNL     1      -9.478   0.885  64.405  1.00  0.00     0.000 HD 
HETATM   13  H2  UNL     1      -7.904   1.499  64.969  1.00  0.00     0.000 HD 
ENDBRANCH   7   9
ENDBRANCH   2   3
TORSDOF 2
ENDMDL
MODEL      236
REMARK 921   NORMALIZED FREE ENERGY PREDICTED BY IDOCK:   -0.88 KCAL/MOL
REMARK 922        TOTAL FREE ENERGY PREDICTED BY IDOCK:   -1.10 KCAL/MOL
REMARK 923 INTER-LIGAND FREE ENERGY PREDICTED BY IDOCK:   -0.98 KCAL/MOL
REMARK 924 INTRA-LIGAND FREE ENERGY PREDICTED BY IDOCK:   -0.12 KCAL/MOL
REMARK 927      BINDING AFFINITY PREDICTED BY RF-SCORE:    0.00 PKD
ROOT
HETATM    1  C   UNL     1      -5.171   7.857  70.860  1.00  0.00    -0.026 C  
HETATM    2  C   UNL     1      -5.477   6.367  70.913  1.00  0.00    -0.019 C  
ENDROOT
BRANCH   2   3
HETATM    3  C   UNL     1      -6.891   6.124  71.375  1.00  0.00    -0.067 A  
HETATM    4  N   UNL     1      -7.826   7.013  70.970  1.00  0.00    -0.095 NA 
HETATM    5  C   UNL     1      -9.083   6.854  71.435  1.00  0.00    -0.148 A  
HETATM    6  C   UNL     1      -9.462   5.838  72.291  1.00  0.00    -0.158 A  
HETATM    7  C   UNL     1      -8.492   4.922  72.700  1.00  0.00    -0.119 A  
HETATM    8  C   UNL     1      -7.182   5.068  72.232  1.00  0.00    -0.089 A  
BRANCH   7   9
HETATM    9  C   UNL     1      -8.825   3.821  73.646  1.00  0.00    -0.089 C  
HETATM   10  N   UNL     1     -10.155   3.614  73.915  1.00  0.00    -0.122 N  
HETATM   11  S   UNL     1      -7.714   2.822  74.398  1.00  0.00    -0.052 S  
HETATM   12  H1  UNL     1     -10.382   2.860  74.563  1.00  0.00     0.000 HD 
HETATM   13  H2  UNL     1     -10.882   4.188  73.487  1.00  0.00     0.000 HD 
ENDBRANCH   7   9
ENDBRANCH   2   3
TORSDOF 2
ENDMDL
